MODEL 1
REMARK VINA RESULT:     -13.4      0.000      0.000
REMARK SMILES O=C(Nc1c(F)cc(F)cc1F)N[C@H]1C=C[C@@H](C(=O)NCCCCNC(=O)c2ccc(-c3c4nc(c(-c5c(F)c(F)c(F)c(F)c5F)c5ccc([nH]5)c(-c5c(F)c(F)c(F)c(F)c5F)c5nc(c(-c6c(F)c(F)c(F)c(F)c6F)c6ccc3[nH]6)C=C5)C=C4)cc2)C1
REMARK SMILES IDX 22 1 21 2 20 3 18 4 19 5 17 7 14 8 15 9 91 10 16 11 13 12
REMARK SMILES IDX 1 13 2 14 3 15 4 18 5 19 11 20 6 21 7 22 10 23 12 24 8 25
REMARK SMILES IDX 9 26 23 27 24 28 25 29 26 30 27 32 28 33 29 34 90 35 30 36
REMARK SMILES IDX 89 37 31 38 32 39 33 40 83 41 34 42 88 43 82 44 84 45 35 46
REMARK SMILES IDX 87 47 81 48 80 49 36 51 68 52 48 53 67 54 49 55 52 56 66 57
REMARK SMILES IDX 85 58 50 59 51 60 65 62 86 63 53 64 37 65 38 66 46 67 39 68
REMARK SMILES IDX 40 69 44 70 47 71 41 72 42 73 45 74 43 75 69 76 70 77 78 78
REMARK SMILES IDX 71 79 72 80 76 81 79 82 73 83 74 84 77 85 75 86 54 87 55 88
REMARK SMILES IDX 63 89 56 90 57 91 61 92 64 93 58 94 59 95 62 96 60 97
REMARK H PARENT 20 6 3 16 13 17 25 31 84 50 52 61
REMARK Flexibility Score: inf
ROOT
ATOM      1  C   UNL A   1      37.127  20.279  24.929  1.00  0.00     0.023 C 
ENDROOT
BRANCH   1   2
ATOM      2  C   UNL A   1      37.522  21.746  25.065  1.00  0.00     0.116 C 
BRANCH   2   3
ATOM      3  N   UNL A   1      36.921  22.552  24.027  1.00  0.00    -0.356 N 
ATOM      4  C   UNL A   1      35.611  22.781  23.735  1.00  0.00     0.227 C 
ATOM      5  O   UNL A   1      35.376  23.527  22.779  1.00  0.00    -0.274 OA
ATOM      6  H   UNL A   1      37.561  23.008  23.436  1.00  0.00     0.163 HD
BRANCH   4   7
ATOM      7  C   UNL A   1      34.460  22.170  24.541  1.00  0.00     0.103 C 
ATOM      8  C   UNL A   1      32.273  22.889  25.413  1.00  0.00     0.107 C 
ATOM      9  C   UNL A   1      32.143  22.079  24.164  1.00  0.00    -0.006 C 
ATOM     10  C   UNL A   1      33.790  23.110  25.552  1.00  0.00     0.047 C 
ATOM     11  C   UNL A   1      33.328  21.682  23.689  1.00  0.00    -0.016 C 
BRANCH   8  12
ATOM     12  N   UNL A   1      31.551  24.129  25.238  1.00  0.00    -0.332 N 
ATOM     13  O   UNL A   1      30.357  23.960  27.166  1.00  0.00    -0.248 OA
ATOM     14  C   UNL A   1      30.661  24.589  26.154  1.00  0.00     0.319 C 
ATOM     15  N   UNL A   1      30.210  25.866  26.021  1.00  0.00    -0.303 N 
ATOM     16  H   UNL A   1      29.751  26.202  26.824  1.00  0.00     0.172 HD
ATOM     17  H   UNL A   1      31.711  24.660  24.426  1.00  0.00     0.165 HD
BRANCH  15  18
ATOM     18  C   UNL A   1      30.262  26.810  24.976  1.00  0.00     0.115 A 
ATOM     19  C   UNL A   1      29.316  26.948  23.958  1.00  0.00     0.152 A 
ATOM     20  C   UNL A   1      31.333  27.713  24.990  1.00  0.00     0.152 A 
ATOM     21  F   UNL A   1      28.239  26.151  23.902  1.00  0.00    -0.204 F 
ATOM     22  C   UNL A   1      29.450  27.930  22.975  1.00  0.00     0.081 A 
ATOM     23  C   UNL A   1      31.510  28.663  23.991  1.00  0.00     0.081 A 
ATOM     24  F   UNL A   1      32.251  27.631  25.966  1.00  0.00    -0.204 F 
ATOM     25  C   UNL A   1      30.562  28.759  22.985  1.00  0.00     0.129 A 
ATOM     26  F   UNL A   1      30.723  29.661  22.010  1.00  0.00    -0.207 F 
ENDBRANCH  15  18
ENDBRANCH   8  12
ENDBRANCH   4   7
ENDBRANCH   2   3
ENDBRANCH   1   2
BRANCH   1  27
ATOM     27  C   UNL A   1      38.290  19.293  25.023  1.00  0.00     0.023 C 
BRANCH  27  28
ATOM     28  C   UNL A   1      39.529  19.825  25.733  1.00  0.00     0.116 C 
BRANCH  28  29
ATOM     29  N   UNL A   1      40.561  18.812  25.908  1.00  0.00    -0.352 N 
ATOM     30  C   UNL A   1      41.912  18.972  26.096  1.00  0.00     0.251 C 
ATOM     31  H   UNL A   1      40.244  17.879  25.888  1.00  0.00     0.163 HD
ATOM     32  O   UNL A   1      42.663  18.004  26.035  1.00  0.00    -0.269 OA
BRANCH  30  33
ATOM     33  C   UNL A   1      42.448  20.320  26.367  1.00  0.00     0.039 A 
ATOM     34  C   UNL A   1      43.052  21.043  25.338  1.00  0.00     0.014 A 
ATOM     35  C   UNL A   1      42.331  20.874  27.645  1.00  0.00     0.014 A 
ATOM     36  C   UNL A   1      43.473  22.354  25.575  1.00  0.00     0.010 A 
ATOM     37  C   UNL A   1      42.670  22.204  27.856  1.00  0.00     0.010 A 
ATOM     38  C   UNL A   1      43.246  22.957  26.824  1.00  0.00    -0.014 A 
BRANCH  38  39
ATOM     39  C   UNL A   1      43.590  24.381  27.071  1.00  0.00     0.031 A 
ATOM     40  C   UNL A   1      44.990  24.873  26.830  1.00  0.00     0.074 A 
ATOM     41  C   UNL A   1      42.658  25.210  27.581  1.00  0.00     0.049 A 
ATOM     42  N   UNL A   1      45.501  26.057  27.056  1.00  0.00    -0.248 NA
ATOM     43  C   UNL A   1      45.953  23.900  26.289  1.00  0.00     0.031 C 
ATOM     44  C   UNL A   1      41.282  24.834  27.905  1.00  0.00     0.029 A 
ATOM     45  N   UNL A   1      42.729  26.537  27.923  1.00  0.00    -0.354 N 
ATOM     46  C   UNL A   1      46.837  25.967  26.691  1.00  0.00     0.074 A 
ATOM     47  C   UNL A   1      47.078  24.599  26.290  1.00  0.00     0.031 C 
ATOM     48  C   UNL A   1      40.628  25.912  28.366  1.00  0.00     0.029 A 
ATOM     49  C   UNL A   1      41.549  27.043  28.412  1.00  0.00     0.049 A 
ATOM     50  H   UNL A   1      43.547  27.076  27.827  1.00  0.00     0.167 HD
ATOM     51  C   UNL A   1      47.771  26.948  26.664  1.00  0.00     0.037 A 
ATOM     52  C   UNL A   1      41.244  28.279  28.853  1.00  0.00     0.037 A 
ATOM     53  C   UNL A   1      47.518  28.313  27.042  1.00  0.00     0.049 A 
ATOM     54  C   UNL A   1      42.307  29.346  28.831  1.00  0.00     0.074 A 
ATOM     55  C   UNL A   1      48.384  29.391  27.002  1.00  0.00     0.029 A 
ATOM     56  N   UNL A   1      46.308  28.788  27.530  1.00  0.00    -0.354 N 
ATOM     57  N   UNL A   1      43.550  29.265  28.425  1.00  0.00    -0.248 NA
ATOM     58  C   UNL A   1      41.922  30.675  29.324  1.00  0.00     0.031 C 
ATOM     59  C   UNL A   1      47.716  30.507  27.515  1.00  0.00     0.029 A 
ATOM     60  C   UNL A   1      46.415  30.139  27.819  1.00  0.00     0.049 A 
ATOM     61  H   UNL A   1      45.496  28.246  27.654  1.00  0.00     0.167 HD
ATOM     62  C   UNL A   1      44.091  30.532  28.592  1.00  0.00     0.074 A 
ATOM     63  C   UNL A   1      43.033  31.371  29.117  1.00  0.00     0.031 C 
ATOM     64  C   UNL A   1      45.351  30.962  28.337  1.00  0.00     0.037 A 
BRANCH  51  65
ATOM     65  C   UNL A   1      49.150  26.592  26.188  1.00  0.00     0.064 A 
ATOM     66  C   UNL A   1      50.111  26.103  27.086  1.00  0.00     0.173 A 
ATOM     67  C   UNL A   1      49.544  26.807  24.859  1.00  0.00     0.173 A 
ATOM     68  F   UNL A   1      49.790  25.883  28.370  1.00  0.00    -0.203 F 
ATOM     69  C   UNL A   1      51.418  25.858  26.674  1.00  0.00     0.198 A 
ATOM     70  C   UNL A   1      50.843  26.531  24.443  1.00  0.00     0.198 A 
ATOM     71  F   UNL A   1      48.661  27.262  23.958  1.00  0.00    -0.203 F 
ATOM     72  F   UNL A   1      52.329  25.426  27.557  1.00  0.00    -0.200 F 
ATOM     73  C   UNL A   1      51.782  26.068  25.352  1.00  0.00     0.200 A 
ATOM     74  F   UNL A   1      51.186  26.710  23.160  1.00  0.00    -0.200 F 
ATOM     75  F   UNL A   1      53.038  25.823  24.954  1.00  0.00    -0.200 F 
ENDBRANCH  51  65
BRANCH  52  76
ATOM     76  C   UNL A   1      39.864  28.578  29.316  1.00  0.00     0.064 A 
ATOM     77  C   UNL A   1      39.468  28.348  30.642  1.00  0.00     0.173 A 
ATOM     78  C   UNL A   1      38.902  29.077  28.428  1.00  0.00     0.173 A 
ATOM     79  F   UNL A   1      40.347  27.865  31.533  1.00  0.00    -0.203 F 
ATOM     80  C   UNL A   1      38.158  28.587  31.055  1.00  0.00     0.198 A 
ATOM     81  C   UNL A   1      37.601  29.345  28.849  1.00  0.00     0.198 A 
ATOM     82  F   UNL A   1      39.236  29.332  27.155  1.00  0.00    -0.203 F 
ATOM     83  F   UNL A   1      37.798  28.321  32.318  1.00  0.00    -0.200 F 
ATOM     84  C   UNL A   1      37.227  29.091  30.160  1.00  0.00     0.200 A 
ATOM     85  F   UNL A   1      36.711  29.856  27.986  1.00  0.00    -0.200 F 
ATOM     86  F   UNL A   1      35.972  29.333  30.561  1.00  0.00    -0.200 F 
ENDBRANCH  52  76
BRANCH  64  87
ATOM     87  C   UNL A   1      45.662  32.407  28.601  1.00  0.00     0.064 A 
ATOM     88  C   UNL A   1      45.463  33.372  27.602  1.00  0.00     0.173 A 
ATOM     89  C   UNL A   1      46.230  32.824  29.814  1.00  0.00     0.173 A 
ATOM     90  F   UNL A   1      44.932  33.022  26.420  1.00  0.00    -0.203 F 
ATOM     91  C   UNL A   1      45.838  34.697  27.800  1.00  0.00     0.198 A 
ATOM     92  C   UNL A   1      46.573  34.157  30.022  1.00  0.00     0.198 A 
ATOM     93  F   UNL A   1      46.429  31.942  30.805  1.00  0.00    -0.203 F 
ATOM     94  F   UNL A   1      45.676  35.593  26.817  1.00  0.00    -0.200 F 
ATOM     95  C   UNL A   1      46.387  35.090  29.011  1.00  0.00     0.200 A 
ATOM     96  F   UNL A   1      47.079  34.540  31.202  1.00  0.00    -0.200 F 
ATOM     97  F   UNL A   1      46.737  36.368  29.206  1.00  0.00    -0.200 F 
ENDBRANCH  64  87
ENDBRANCH  38  39
ENDBRANCH  30  33
ENDBRANCH  28  29
ENDBRANCH  27  28
ENDBRANCH   1  27
TORSDOF 13
ENDMDL
MODEL 2
REMARK VINA RESULT:     -13.4      0.160      1.582
REMARK SMILES O=C(Nc1c(F)cc(F)cc1F)N[C@H]1C=C[C@@H](C(=O)NCCCCNC(=O)c2ccc(-c3c4nc(c(-c5c(F)c(F)c(F)c(F)c5F)c5ccc([nH]5)c(-c5c(F)c(F)c(F)c(F)c5F)c5nc(c(-c6c(F)c(F)c(F)c(F)c6F)c6ccc3[nH]6)C=C5)C=C4)cc2)C1
REMARK SMILES IDX 22 1 21 2 20 3 18 4 19 5 17 7 14 8 15 9 91 10 16 11 13 12
REMARK SMILES IDX 1 13 2 14 3 15 4 18 5 19 11 20 6 21 7 22 10 23 12 24 8 25
REMARK SMILES IDX 9 26 23 27 24 28 25 29 26 30 27 32 28 33 29 34 90 35 30 36
REMARK SMILES IDX 89 37 31 38 32 39 33 40 83 41 34 42 88 43 82 44 84 45 35 46
REMARK SMILES IDX 87 47 81 48 80 49 36 51 68 52 48 53 67 54 49 55 52 56 66 57
REMARK SMILES IDX 85 58 50 59 51 60 65 62 86 63 53 64 37 65 38 66 46 67 39 68
REMARK SMILES IDX 40 69 44 70 47 71 41 72 42 73 45 74 43 75 69 76 70 77 78 78
REMARK SMILES IDX 71 79 72 80 76 81 79 82 73 83 74 84 77 85 75 86 54 87 55 88
REMARK SMILES IDX 63 89 56 90 57 91 61 92 64 93 58 94 59 95 62 96 60 97
REMARK H PARENT 20 6 3 16 13 17 25 31 84 50 52 61
REMARK Flexibility Score: inf
ROOT
ATOM      1  C   UNL A   1      37.093  20.220  25.001  1.00  0.00     0.023 C 
ENDROOT
BRANCH   1   2
ATOM      2  C   UNL A   1      37.426  21.701  25.145  1.00  0.00     0.116 C 
BRANCH   2   3
ATOM      3  N   UNL A   1      36.850  22.477  24.071  1.00  0.00    -0.356 N 
ATOM      4  C   UNL A   1      35.549  22.685  23.731  1.00  0.00     0.227 C 
ATOM      5  O   UNL A   1      35.336  23.407  22.751  1.00  0.00    -0.274 OA
ATOM      6  H   UNL A   1      37.505  22.928  23.490  1.00  0.00     0.163 HD
BRANCH   4   7
ATOM      7  C   UNL A   1      34.378  22.078  24.512  1.00  0.00     0.103 C 
ATOM      8  C   UNL A   1      32.208  22.826  25.401  1.00  0.00     0.107 C 
ATOM      9  C   UNL A   1      32.061  22.063  24.126  1.00  0.00    -0.006 C 
ATOM     10  C   UNL A   1      33.730  23.001  25.552  1.00  0.00     0.047 C 
ATOM     11  C   UNL A   1      33.237  21.650  23.641  1.00  0.00    -0.016 C 
BRANCH   8  12
ATOM     12  N   UNL A   1      31.521  24.090  25.267  1.00  0.00    -0.332 N 
ATOM     13  O   UNL A   1      30.419  23.952  27.251  1.00  0.00    -0.248 OA
ATOM     14  C   UNL A   1      30.693  24.575  26.227  1.00  0.00     0.319 C 
ATOM     15  N   UNL A   1      30.279  25.868  26.121  1.00  0.00    -0.303 N 
ATOM     16  H   UNL A   1      29.872  26.214  26.947  1.00  0.00     0.172 HD
ATOM     17  H   UNL A   1      31.658  24.620  24.449  1.00  0.00     0.165 HD
BRANCH  15  18
ATOM     18  C   UNL A   1      30.311  26.814  25.078  1.00  0.00     0.115 A 
ATOM     19  C   UNL A   1      29.434  26.857  23.992  1.00  0.00     0.152 A 
ATOM     20  C   UNL A   1      31.279  27.823  25.167  1.00  0.00     0.152 A 
ATOM     21  F   UNL A   1      28.451  25.953  23.861  1.00  0.00    -0.204 F 
ATOM     22  C   UNL A   1      29.539  27.849  23.017  1.00  0.00     0.081 A 
ATOM     23  C   UNL A   1      31.431  28.789  24.178  1.00  0.00     0.081 A 
ATOM     24  F   UNL A   1      32.126  27.834  26.209  1.00  0.00    -0.204 F 
ATOM     25  C   UNL A   1      30.555  28.788  23.105  1.00  0.00     0.129 A 
ATOM     26  F   UNL A   1      30.695  29.705  22.140  1.00  0.00    -0.207 F 
ENDBRANCH  15  18
ENDBRANCH   8  12
ENDBRANCH   4   7
ENDBRANCH   2   3
ENDBRANCH   1   2
BRANCH   1  27
ATOM     27  C   UNL A   1      38.305  19.290  25.010  1.00  0.00     0.023 C 
BRANCH  27  28
ATOM     28  C   UNL A   1      39.524  19.827  25.751  1.00  0.00     0.116 C 
BRANCH  28  29
ATOM     29  N   UNL A   1      40.570  18.828  25.922  1.00  0.00    -0.352 N 
ATOM     30  C   UNL A   1      41.919  19.006  26.102  1.00  0.00     0.251 C 
ATOM     31  H   UNL A   1      40.265  17.891  25.905  1.00  0.00     0.163 HD
ATOM     32  O   UNL A   1      42.683  18.048  26.038  1.00  0.00    -0.269 OA
BRANCH  30  33
ATOM     33  C   UNL A   1      42.440  20.361  26.368  1.00  0.00     0.039 A 
ATOM     34  C   UNL A   1      43.022  21.093  25.333  1.00  0.00     0.014 A 
ATOM     35  C   UNL A   1      42.329  20.913  27.648  1.00  0.00     0.014 A 
ATOM     36  C   UNL A   1      43.427  22.410  25.566  1.00  0.00     0.010 A 
ATOM     37  C   UNL A   1      42.651  22.248  27.856  1.00  0.00     0.010 A 
ATOM     38  C   UNL A   1      43.205  23.009  26.818  1.00  0.00    -0.014 A 
BRANCH  38  39
ATOM     39  C   UNL A   1      43.531  24.437  27.062  1.00  0.00     0.031 A 
ATOM     40  C   UNL A   1      44.923  24.948  26.811  1.00  0.00     0.074 A 
ATOM     41  C   UNL A   1      42.592  25.254  27.577  1.00  0.00     0.049 A 
ATOM     42  N   UNL A   1      45.420  26.139  27.033  1.00  0.00    -0.248 NA
ATOM     43  C   UNL A   1      45.896  23.988  26.264  1.00  0.00     0.031 C 
ATOM     44  C   UNL A   1      41.223  24.860  27.911  1.00  0.00     0.029 A 
ATOM     45  N   UNL A   1      42.648  26.583  27.919  1.00  0.00    -0.354 N 
ATOM     46  C   UNL A   1      46.755  26.067  26.660  1.00  0.00     0.074 A 
ATOM     47  C   UNL A   1      47.012  24.702  26.258  1.00  0.00     0.031 C 
ATOM     48  C   UNL A   1      40.558  25.929  28.376  1.00  0.00     0.029 A 
ATOM     49  C   UNL A   1      41.464  27.073  28.416  1.00  0.00     0.049 A 
ATOM     50  H   UNL A   1      43.458  27.132  27.817  1.00  0.00     0.167 HD
ATOM     51  C   UNL A   1      47.675  27.060  26.626  1.00  0.00     0.037 A 
ATOM     52  C   UNL A   1      41.146  28.305  28.858  1.00  0.00     0.037 A 
ATOM     53  C   UNL A   1      47.406  28.421  27.005  1.00  0.00     0.049 A 
ATOM     54  C   UNL A   1      42.194  29.386  28.828  1.00  0.00     0.074 A 
ATOM     55  C   UNL A   1      48.258  29.512  26.959  1.00  0.00     0.029 A 
ATOM     56  N   UNL A   1      46.194  28.881  27.501  1.00  0.00    -0.354 N 
ATOM     57  N   UNL A   1      43.435  29.321  28.414  1.00  0.00    -0.248 NA
ATOM     58  C   UNL A   1      41.794  30.710  29.323  1.00  0.00     0.031 C 
ATOM     59  C   UNL A   1      47.579  30.618  27.476  1.00  0.00     0.029 A 
ATOM     60  C   UNL A   1      46.284  30.234  27.788  1.00  0.00     0.049 A 
ATOM     61  H   UNL A   1      45.390  28.328  27.630  1.00  0.00     0.167 HD
ATOM     62  C   UNL A   1      43.960  30.596  28.577  1.00  0.00     0.074 A 
ATOM     63  C   UNL A   1      42.894  31.420  29.108  1.00  0.00     0.031 C 
ATOM     64  C   UNL A   1      45.213  31.042  28.313  1.00  0.00     0.037 A 
BRANCH  51  65
ATOM     65  C   UNL A   1      49.056  26.722  26.142  1.00  0.00     0.064 A 
ATOM     66  C   UNL A   1      49.414  26.932  24.801  1.00  0.00     0.173 A 
ATOM     67  C   UNL A   1      50.001  26.122  26.987  1.00  0.00     0.173 A 
ATOM     68  F   UNL A   1      48.547  27.499  23.949  1.00  0.00    -0.203 F 
ATOM     69  C   UNL A   1      50.660  26.537  24.322  1.00  0.00     0.198 A 
ATOM     70  C   UNL A   1      51.258  25.756  26.511  1.00  0.00     0.198 A 
ATOM     71  F   UNL A   1      49.714  25.910  28.279  1.00  0.00    -0.203 F 
ATOM     72  F   UNL A   1      50.966  26.714  23.029  1.00  0.00    -0.200 F 
ATOM     73  C   UNL A   1      51.582  25.954  25.178  1.00  0.00     0.200 A 
ATOM     74  F   UNL A   1      52.157  25.217  27.346  1.00  0.00    -0.200 F 
ATOM     75  F   UNL A   1      52.785  25.583  24.718  1.00  0.00    -0.200 F 
ENDBRANCH  51  65
BRANCH  52  76
ATOM     76  C   UNL A   1      39.765  28.586  29.330  1.00  0.00     0.064 A 
ATOM     77  C   UNL A   1      38.786  29.107  28.469  1.00  0.00     0.173 A 
ATOM     78  C   UNL A   1      39.403  28.362  30.665  1.00  0.00     0.173 A 
ATOM     79  F   UNL A   1      39.081  29.346  27.183  1.00  0.00    -0.203 F 
ATOM     80  C   UNL A   1      37.507  29.411  28.932  1.00  0.00     0.198 A 
ATOM     81  C   UNL A   1      38.116  28.638  31.120  1.00  0.00     0.198 A 
ATOM     82  F   UNL A   1      40.297  27.847  31.522  1.00  0.00    -0.203 F 
ATOM     83  F   UNL A   1      36.605  29.944  28.098  1.00  0.00    -0.200 F 
ATOM     84  C   UNL A   1      37.171  29.171  30.256  1.00  0.00     0.200 A 
ATOM     85  F   UNL A   1      37.787  28.380  32.394  1.00  0.00    -0.200 F 
ATOM     86  F   UNL A   1      35.937  29.451  30.697  1.00  0.00    -0.200 F 
ENDBRANCH  52  76
BRANCH  64  87
ATOM     87  C   UNL A   1      45.506  32.491  28.574  1.00  0.00     0.064 A 
ATOM     88  C   UNL A   1      45.288  33.453  27.577  1.00  0.00     0.173 A 
ATOM     89  C   UNL A   1      46.077  32.917  29.783  1.00  0.00     0.173 A 
ATOM     90  F   UNL A   1      44.753  33.096  26.399  1.00  0.00    -0.203 F 
ATOM     91  C   UNL A   1      45.646  34.783  27.772  1.00  0.00     0.198 A 
ATOM     92  C   UNL A   1      46.404  34.254  29.988  1.00  0.00     0.198 A 
ATOM     93  F   UNL A   1      46.295  32.038  30.773  1.00  0.00    -0.203 F 
ATOM     94  F   UNL A   1      45.465  35.677  26.789  1.00  0.00    -0.200 F 
ATOM     95  C   UNL A   1      46.198  35.184  28.979  1.00  0.00     0.200 A 
ATOM     96  F   UNL A   1      46.913  34.645  31.165  1.00  0.00    -0.200 F 
ATOM     97  F   UNL A   1      46.532  36.467  29.171  1.00  0.00    -0.200 F 
ENDBRANCH  64  87
ENDBRANCH  38  39
ENDBRANCH  30  33
ENDBRANCH  28  29
ENDBRANCH  27  28
ENDBRANCH   1  27
TORSDOF 13
ENDMDL
MODEL 3
REMARK VINA RESULT:     -13.4      5.663     11.253
REMARK SMILES O=C(Nc1c(F)cc(F)cc1F)N[C@H]1C=C[C@@H](C(=O)NCCCCNC(=O)c2ccc(-c3c4nc(c(-c5c(F)c(F)c(F)c(F)c5F)c5ccc([nH]5)c(-c5c(F)c(F)c(F)c(F)c5F)c5nc(c(-c6c(F)c(F)c(F)c(F)c6F)c6ccc3[nH]6)C=C5)C=C4)cc2)C1
REMARK SMILES IDX 22 1 21 2 20 3 18 4 19 5 17 7 14 8 15 9 91 10 16 11 13 12
REMARK SMILES IDX 1 13 2 14 3 15 4 18 5 19 11 20 6 21 7 22 10 23 12 24 8 25
REMARK SMILES IDX 9 26 23 27 24 28 25 29 26 30 27 32 28 33 29 34 90 35 30 36
REMARK SMILES IDX 89 37 31 38 32 39 33 40 83 41 34 42 88 43 82 44 84 45 35 46
REMARK SMILES IDX 87 47 81 48 80 49 36 51 68 52 48 53 67 54 49 55 52 56 66 57
REMARK SMILES IDX 85 58 50 59 51 60 65 62 86 63 53 64 37 65 38 66 46 67 39 68
REMARK SMILES IDX 40 69 44 70 47 71 41 72 42 73 45 74 43 75 69 76 70 77 78 78
REMARK SMILES IDX 71 79 72 80 76 81 79 82 73 83 74 84 77 85 75 86 54 87 55 88
REMARK SMILES IDX 63 89 56 90 57 91 61 92 64 93 58 94 59 95 62 96 60 97
REMARK H PARENT 20 6 3 16 13 17 25 31 84 50 52 61
REMARK Flexibility Score: inf
ROOT
ATOM      1  C   UNL A   1      31.676  31.018  26.388  1.00  0.00     0.023 C 
ENDROOT
BRANCH   1   2
ATOM      2  C   UNL A   1      32.994  30.394  26.836  1.00  0.00     0.116 C 
BRANCH   2   3
ATOM      3  N   UNL A   1      33.648  29.705  25.748  1.00  0.00    -0.356 N 
ATOM      4  C   UNL A   1      33.260  28.612  25.035  1.00  0.00     0.227 C 
ATOM      5  O   UNL A   1      34.023  28.229  24.142  1.00  0.00    -0.274 OA
ATOM      6  H   UNL A   1      34.514  30.086  25.480  1.00  0.00     0.163 HD
BRANCH   4   7
ATOM      7  C   UNL A   1      31.940  27.878  25.292  1.00  0.00     0.103 C 
ATOM      8  C   UNL A   1      31.068  25.585  25.079  1.00  0.00     0.107 C 
ATOM      9  C   UNL A   1      31.429  25.922  26.489  1.00  0.00    -0.006 C 
ATOM     10  C   UNL A   1      31.580  26.791  24.270  1.00  0.00     0.047 C 
ATOM     11  C   UNL A   1      31.899  27.168  26.611  1.00  0.00    -0.016 C 
BRANCH   8  12
ATOM     12  N   UNL A   1      31.733  24.355  24.712  1.00  0.00    -0.332 N 
ATOM     13  O   UNL A   1      30.282  23.811  23.049  1.00  0.00    -0.248 OA
ATOM     14  C   UNL A   1      31.300  23.569  23.693  1.00  0.00     0.319 C 
ATOM     15  N   UNL A   1      32.115  22.565  23.271  1.00  0.00    -0.303 N 
ATOM     16  H   UNL A   1      31.846  22.184  22.404  1.00  0.00     0.172 HD
ATOM     17  H   UNL A   1      32.529  24.077  25.219  1.00  0.00     0.165 HD
BRANCH  15  18
ATOM     18  C   UNL A   1      33.264  21.954  23.813  1.00  0.00     0.115 A 
ATOM     19  C   UNL A   1      33.297  20.722  24.468  1.00  0.00     0.152 A 
ATOM     20  C   UNL A   1      34.481  22.626  23.636  1.00  0.00     0.152 A 
ATOM     21  F   UNL A   1      32.181  19.997  24.635  1.00  0.00    -0.204 F 
ATOM     22  C   UNL A   1      34.493  20.194  24.955  1.00  0.00     0.081 A 
ATOM     23  C   UNL A   1      35.674  22.140  24.160  1.00  0.00     0.081 A 
ATOM     24  F   UNL A   1      34.498  23.802  22.989  1.00  0.00    -0.204 F 
ATOM     25  C   UNL A   1      35.666  20.923  24.822  1.00  0.00     0.129 A 
ATOM     26  F   UNL A   1      36.803  20.446  25.341  1.00  0.00    -0.207 F 
ENDBRANCH  15  18
ENDBRANCH   8  12
ENDBRANCH   4   7
ENDBRANCH   2   3
ENDBRANCH   1   2
BRANCH   1  27
ATOM     27  C   UNL A   1      31.496  32.482  26.783  1.00  0.00     0.023 C 
BRANCH  27  28
ATOM     28  C   UNL A   1      32.740  33.153  27.353  1.00  0.00     0.116 C 
BRANCH  28  29
ATOM     29  N   UNL A   1      32.494  34.516  27.803  1.00  0.00    -0.352 N 
ATOM     30  C   UNL A   1      33.043  35.192  28.865  1.00  0.00     0.251 C 
ATOM     31  H   UNL A   1      31.839  35.025  27.271  1.00  0.00     0.163 HD
ATOM     32  O   UNL A   1      32.580  36.274  29.215  1.00  0.00    -0.269 OA
BRANCH  30  33
ATOM     33  C   UNL A   1      34.191  34.603  29.581  1.00  0.00     0.039 A 
ATOM     34  C   UNL A   1      33.988  33.963  30.804  1.00  0.00     0.014 A 
ATOM     35  C   UNL A   1      35.471  34.669  29.022  1.00  0.00     0.014 A 
ATOM     36  C   UNL A   1      35.060  33.325  31.431  1.00  0.00     0.010 A 
ATOM     37  C   UNL A   1      36.516  33.962  29.602  1.00  0.00     0.010 A 
ATOM     38  C   UNL A   1      36.322  33.284  30.813  1.00  0.00    -0.014 A 
BRANCH  38  39
ATOM     39  C   UNL A   1      37.452  32.526  31.408  1.00  0.00     0.031 A 
ATOM     40  C   UNL A   1      37.977  32.894  32.768  1.00  0.00     0.074 A 
ATOM     41  C   UNL A   1      38.050  31.554  30.691  1.00  0.00     0.049 A 
ATOM     42  N   UNL A   1      38.998  32.402  33.421  1.00  0.00    -0.248 NA
ATOM     43  C   UNL A   1      37.279  33.979  33.478  1.00  0.00     0.031 C 
ATOM     44  C   UNL A   1      37.663  31.143  29.341  1.00  0.00     0.029 A 
ATOM     45  N   UNL A   1      39.114  30.741  30.993  1.00  0.00    -0.354 N 
ATOM     46  C   UNL A   1      39.067  33.117  34.609  1.00  0.00     0.074 A 
ATOM     47  C   UNL A   1      38.027  34.120  34.563  1.00  0.00     0.031 C 
ATOM     48  C   UNL A   1      38.454  30.134  28.945  1.00  0.00     0.029 A 
ATOM     49  C   UNL A   1      39.431  29.855  29.992  1.00  0.00     0.049 A 
ATOM     50  H   UNL A   1      39.603  30.788  31.846  1.00  0.00     0.167 HD
ATOM     51  C   UNL A   1      39.904  32.930  35.658  1.00  0.00     0.037 A 
ATOM     52  C   UNL A   1      40.404  28.926  29.925  1.00  0.00     0.037 A 
ATOM     53  C   UNL A   1      40.921  31.914  35.707  1.00  0.00     0.049 A 
ATOM     54  C   UNL A   1      41.333  28.753  31.097  1.00  0.00     0.074 A 
ATOM     55  C   UNL A   1      41.786  31.612  36.744  1.00  0.00     0.029 A 
ATOM     56  N   UNL A   1      41.211  31.033  34.674  1.00  0.00    -0.354 N 
ATOM     57  N   UNL A   1      41.348  29.393  32.240  1.00  0.00    -0.248 NA
ATOM     58  C   UNL A   1      42.376  27.726  30.970  1.00  0.00     0.031 C 
ATOM     59  C   UNL A   1      42.634  30.585  36.321  1.00  0.00     0.029 A 
ATOM     60  C   UNL A   1      42.259  30.205  35.042  1.00  0.00     0.049 A 
ATOM     61  H   UNL A   1      40.742  31.002  33.809  1.00  0.00     0.167 HD
ATOM     62  C   UNL A   1      42.384  28.835  32.977  1.00  0.00     0.074 A 
ATOM     63  C   UNL A   1      42.961  27.789  32.159  1.00  0.00     0.031 C 
ATOM     64  C   UNL A   1      42.820  29.164  34.218  1.00  0.00     0.037 A 
BRANCH  51  65
ATOM     65  C   UNL A   1      39.744  33.827  36.852  1.00  0.00     0.064 A 
ATOM     66  C   UNL A   1      38.907  33.458  37.916  1.00  0.00     0.173 A 
ATOM     67  C   UNL A   1      40.362  35.085  36.909  1.00  0.00     0.173 A 
ATOM     68  F   UNL A   1      38.288  32.268  37.910  1.00  0.00    -0.203 F 
ATOM     69  C   UNL A   1      38.681  34.323  38.983  1.00  0.00     0.198 A 
ATOM     70  C   UNL A   1      40.159  35.935  37.994  1.00  0.00     0.198 A 
ATOM     71  F   UNL A   1      41.181  35.482  35.925  1.00  0.00    -0.203 F 
ATOM     72  F   UNL A   1      37.848  33.964  39.970  1.00  0.00    -0.200 F 
ATOM     73  C   UNL A   1      39.310  35.558  39.024  1.00  0.00     0.200 A 
ATOM     74  F   UNL A   1      40.788  37.117  38.043  1.00  0.00    -0.200 F 
ATOM     75  F   UNL A   1      39.100  36.386  40.057  1.00  0.00    -0.200 F 
ENDBRANCH  51  65
BRANCH  52  76
ATOM     76  C   UNL A   1      40.520  28.066  28.718  1.00  0.00     0.064 A 
ATOM     77  C   UNL A   1      41.287  28.455  27.610  1.00  0.00     0.173 A 
ATOM     78  C   UNL A   1      39.839  26.843  28.640  1.00  0.00     0.173 A 
ATOM     79  F   UNL A   1      41.955  29.618  27.629  1.00  0.00    -0.203 F 
ATOM     80  C   UNL A   1      41.352  27.664  26.464  1.00  0.00     0.198 A 
ATOM     81  C   UNL A   1      39.928  26.039  27.506  1.00  0.00     0.198 A 
ATOM     82  F   UNL A   1      39.107  26.418  29.680  1.00  0.00    -0.203 F 
ATOM     83  F   UNL A   1      42.061  28.079  25.405  1.00  0.00    -0.200 F 
ATOM     84  C   UNL A   1      40.677  26.453  26.415  1.00  0.00     0.200 A 
ATOM     85  F   UNL A   1      39.295  24.858  27.473  1.00  0.00    -0.200 F 
ATOM     86  F   UNL A   1      40.750  25.687  25.319  1.00  0.00    -0.200 F 
ENDBRANCH  52  76
BRANCH  64  87
ATOM     87  C   UNL A   1      43.966  28.377  34.785  1.00  0.00     0.064 A 
ATOM     88  C   UNL A   1      43.730  27.211  35.529  1.00  0.00     0.173 A 
ATOM     89  C   UNL A   1      45.291  28.819  34.660  1.00  0.00     0.173 A 
ATOM     90  F   UNL A   1      42.479  26.751  35.687  1.00  0.00    -0.203 F 
ATOM     91  C   UNL A   1      44.775  26.527  36.142  1.00  0.00     0.198 A 
ATOM     92  C   UNL A   1      46.339  28.114  35.246  1.00  0.00     0.198 A 
ATOM     93  F   UNL A   1      45.571  29.921  33.949  1.00  0.00    -0.203 F 
ATOM     94  F   UNL A   1      44.521  25.439  36.881  1.00  0.00    -0.200 F 
ATOM     95  C   UNL A   1      46.079  26.975  35.995  1.00  0.00     0.200 A 
ATOM     96  F   UNL A   1      47.601  28.533  35.081  1.00  0.00    -0.200 F 
ATOM     97  F   UNL A   1      47.086  26.310  36.575  1.00  0.00    -0.200 F 
ENDBRANCH  64  87
ENDBRANCH  38  39
ENDBRANCH  30  33
ENDBRANCH  28  29
ENDBRANCH  27  28
ENDBRANCH   1  27
TORSDOF 13
ENDMDL
