MODEL 1
REMARK VINA RESULT:     -13.0      0.000      0.000
REMARK SMILES Cc1ccc([C@@](C)(O)[C@H](F)C(=O)NCCCCNC(=O)c2ccc(-c3c4nc(c(-c5c(F)c(F)c(F)c(F)c5F)c5ccc([nH]5)c(-c5c(F)c(F)c(F)c(F)c5F)c5nc(c(-c6c(F)c(F)c(F)c(F)c6F)c6ccc3[nH]6)C=C5)C=C4)cc2)cc1F
REMARK SMILES IDX 15 1 14 2 13 3 11 4 12 5 9 7 10 8 6 9 7 10 5 11 1 12 2 13
REMARK SMILES IDX 3 14 85 15 4 16 84 17 86 18 8 19 16 21 17 22 18 23 19 24
REMARK SMILES IDX 20 26 21 27 22 28 83 29 23 30 82 31 24 32 25 33 26 34 76 35
REMARK SMILES IDX 27 36 81 37 75 38 77 39 28 40 80 41 74 42 73 43 29 45 61 46
REMARK SMILES IDX 41 47 60 48 42 49 45 50 59 51 78 52 43 53 44 54 58 56 79 57
REMARK SMILES IDX 46 58 30 59 31 60 39 61 32 62 33 63 37 64 40 65 34 66 35 67
REMARK SMILES IDX 38 68 36 69 62 70 63 71 71 72 64 73 65 74 69 75 72 76 66 77
REMARK SMILES IDX 67 78 70 79 68 80 47 81 48 82 56 83 49 84 50 85 54 86 57 87
REMARK SMILES IDX 51 88 52 89 55 90 53 91
REMARK H PARENT 13 6 8 20 18 25 77 44 45 55
REMARK Flexibility Score: inf
ROOT
ATOM      1  C   UNL A   1      31.885  27.635  26.186  1.00  0.00     0.023 C 
ENDROOT
BRANCH   1   2
ATOM      2  C   UNL A   1      32.422  26.206  26.154  1.00  0.00     0.116 C 
BRANCH   2   3
ATOM      3  N   UNL A   1      31.476  25.227  26.669  1.00  0.00    -0.353 N 
ATOM      4  C   UNL A   1      31.704  23.895  26.914  1.00  0.00     0.257 C 
ATOM      5  O   UNL A   1      30.820  23.226  27.454  1.00  0.00    -0.272 OA
ATOM      6  H   UNL A   1      30.569  25.558  26.863  1.00  0.00     0.163 HD
BRANCH   4   7
ATOM      7  C   UNL A   1      33.040  23.288  26.498  1.00  0.00     0.291 C 
ATOM      8  F   UNL A   1      33.383  22.315  27.400  1.00  0.00    -0.233 F 
BRANCH   7   9
ATOM      9  C   UNL A   1      33.035  22.731  25.031  1.00  0.00     0.127 C 
ATOM     10  C   UNL A   1      34.018  23.556  24.183  1.00  0.00     0.051 C 
BRANCH   9  11
ATOM     11  C   UNL A   1      33.364  21.232  24.906  1.00  0.00    -0.010 A 
ATOM     12  C   UNL A   1      34.450  17.088  24.189  1.00  0.00     0.047 C 
ATOM     13  C   UNL A   1      34.065  18.509  24.458  1.00  0.00    -0.015 A 
ATOM     14  C   UNL A   1      32.732  18.915  24.424  1.00  0.00     0.007 A 
ATOM     15  C   UNL A   1      35.037  19.461  24.758  1.00  0.00     0.126 A 
ATOM     16  C   UNL A   1      32.387  20.251  24.662  1.00  0.00     0.007 A 
ATOM     17  C   UNL A   1      34.701  20.795  24.986  1.00  0.00     0.046 A 
ATOM     18  F   UNL A   1      36.328  19.103  24.809  1.00  0.00    -0.207 F 
ENDBRANCH   9  11
BRANCH   9  19
ATOM     19  O   UNL A   1      31.748  22.954  24.408  1.00  0.00    -0.382 OA
ATOM     20  H   UNL A   1      31.485  22.161  23.916  1.00  0.00     0.212 HD
ENDBRANCH   9  19
ENDBRANCH   7   9
ENDBRANCH   4   7
ENDBRANCH   2   3
ENDBRANCH   1   2
BRANCH   1  21
ATOM     21  C   UNL A   1      32.320  28.462  27.398  1.00  0.00     0.023 C 
BRANCH  21  22
ATOM     22  C   UNL A   1      33.771  28.888  27.325  1.00  0.00     0.116 C 
BRANCH  22  23
ATOM     23  N   UNL A   1      33.931  30.330  27.494  1.00  0.00    -0.352 N 
ATOM     24  C   UNL A   1      34.870  30.977  28.270  1.00  0.00     0.251 C 
ATOM     25  H   UNL A   1      33.299  30.903  27.002  1.00  0.00     0.163 HD
ATOM     26  O   UNL A   1      34.709  32.121  28.655  1.00  0.00    -0.269 OA
BRANCH  24  27
ATOM     27  C   UNL A   1      36.116  30.254  28.566  1.00  0.00     0.039 A 
ATOM     28  C   UNL A   1      36.325  29.593  29.783  1.00  0.00     0.014 A 
ATOM     29  C   UNL A   1      37.119  30.325  27.603  1.00  0.00     0.014 A 
ATOM     30  C   UNL A   1      37.570  29.022  30.030  1.00  0.00     0.010 A 
ATOM     31  C   UNL A   1      38.251  29.596  27.754  1.00  0.00     0.010 A 
ATOM     32  C   UNL A   1      38.518  29.056  29.007  1.00  0.00    -0.014 A 
BRANCH  32  33
ATOM     33  C   UNL A   1      39.883  28.598  29.110  1.00  0.00     0.031 A 
ATOM     34  C   UNL A   1      40.172  27.209  28.768  1.00  0.00     0.074 A 
ATOM     35  C   UNL A   1      40.796  29.581  29.279  1.00  0.00     0.049 A 
ATOM     36  N   UNL A   1      41.197  26.561  29.180  1.00  0.00    -0.248 NA
ATOM     37  C   UNL A   1      39.280  26.411  27.931  1.00  0.00     0.031 C 
ATOM     38  C   UNL A   1      42.233  29.590  29.081  1.00  0.00     0.029 A 
ATOM     39  N   UNL A   1      40.523  30.866  29.788  1.00  0.00    -0.354 N 
ATOM     40  C   UNL A   1      41.295  25.431  28.397  1.00  0.00     0.074 A 
ATOM     41  C   UNL A   1      40.007  25.302  27.759  1.00  0.00     0.031 C 
ATOM     42  C   UNL A   1      42.750  30.630  29.767  1.00  0.00     0.029 A 
ATOM     43  C   UNL A   1      41.662  31.242  30.516  1.00  0.00     0.049 A 
ATOM     44  H   UNL A   1      39.701  31.391  29.660  1.00  0.00     0.167 HD
ATOM     45  C   UNL A   1      42.530  24.874  28.237  1.00  0.00     0.037 A 
ATOM     46  C   UNL A   1      41.554  31.294  31.878  1.00  0.00     0.037 A 
ATOM     47  C   UNL A   1      43.512  25.657  28.997  1.00  0.00     0.049 A 
ATOM     48  C   UNL A   1      42.348  30.187  32.512  1.00  0.00     0.074 A 
ATOM     49  C   UNL A   1      44.359  26.688  28.616  1.00  0.00     0.029 A 
ATOM     50  N   UNL A   1      43.396  25.740  30.382  1.00  0.00    -0.354 N 
ATOM     51  N   UNL A   1      42.602  29.041  31.933  1.00  0.00    -0.248 NA
ATOM     52  C   UNL A   1      43.024  30.343  33.791  1.00  0.00     0.031 C 
ATOM     53  C   UNL A   1      44.681  27.441  29.779  1.00  0.00     0.029 A 
ATOM     54  C   UNL A   1      44.043  26.865  30.867  1.00  0.00     0.049 A 
ATOM     55  H   UNL A   1      42.917  25.088  30.942  1.00  0.00     0.167 HD
ATOM     56  C   UNL A   1      43.521  28.355  32.681  1.00  0.00     0.074 A 
ATOM     57  C   UNL A   1      43.747  29.211  33.835  1.00  0.00     0.031 C 
ATOM     58  C   UNL A   1      44.064  27.160  32.294  1.00  0.00     0.037 A 
BRANCH  45  59
ATOM     59  C   UNL A   1      42.904  23.865  27.168  1.00  0.00     0.064 A 
ATOM     60  C   UNL A   1      42.616  22.493  27.346  1.00  0.00     0.173 A 
ATOM     61  C   UNL A   1      43.554  24.169  25.955  1.00  0.00     0.173 A 
ATOM     62  F   UNL A   1      41.936  22.054  28.414  1.00  0.00    -0.203 F 
ATOM     63  C   UNL A   1      43.009  21.510  26.431  1.00  0.00     0.198 A 
ATOM     64  C   UNL A   1      43.987  23.182  25.060  1.00  0.00     0.198 A 
ATOM     65  F   UNL A   1      43.742  25.431  25.556  1.00  0.00    -0.203 F 
ATOM     66  F   UNL A   1      42.699  20.227  26.661  1.00  0.00    -0.200 F 
ATOM     67  C   UNL A   1      43.715  21.851  25.298  1.00  0.00     0.200 A 
ATOM     68  F   UNL A   1      44.658  23.536  23.954  1.00  0.00    -0.200 F 
ATOM     69  F   UNL A   1      44.105  20.911  24.429  1.00  0.00    -0.200 F 
ENDBRANCH  45  59
BRANCH  46  70
ATOM     70  C   UNL A   1      40.222  31.848  32.296  1.00  0.00     0.064 A 
ATOM     71  C   UNL A   1      39.390  30.933  32.979  1.00  0.00     0.173 A 
ATOM     72  C   UNL A   1      40.038  33.210  32.577  1.00  0.00     0.173 A 
ATOM     73  F   UNL A   1      39.474  29.622  32.699  1.00  0.00    -0.203 F 
ATOM     74  C   UNL A   1      38.639  31.328  34.083  1.00  0.00     0.198 A 
ATOM     75  C   UNL A   1      39.223  33.608  33.645  1.00  0.00     0.198 A 
ATOM     76  F   UNL A   1      40.746  34.141  31.924  1.00  0.00    -0.203 F 
ATOM     77  F   UNL A   1      38.056  30.401  34.858  1.00  0.00    -0.200 F 
ATOM     78  C   UNL A   1      38.597  32.661  34.445  1.00  0.00     0.200 A 
ATOM     79  F   UNL A   1      39.116  34.908  33.954  1.00  0.00    -0.200 F 
ATOM     80  F   UNL A   1      37.994  33.019  35.588  1.00  0.00    -0.200 F 
ENDBRANCH  46  70
BRANCH  58  81
ATOM     81  C   UNL A   1      44.775  26.197  33.217  1.00  0.00     0.064 A 
ATOM     82  C   UNL A   1      44.125  25.438  34.204  1.00  0.00     0.173 A 
ATOM     83  C   UNL A   1      46.144  25.882  33.022  1.00  0.00     0.173 A 
ATOM     84  F   UNL A   1      42.801  25.508  34.391  1.00  0.00    -0.203 F 
ATOM     85  C   UNL A   1      44.806  24.516  34.998  1.00  0.00     0.198 A 
ATOM     86  C   UNL A   1      46.797  24.893  33.751  1.00  0.00     0.198 A 
ATOM     87  F   UNL A   1      46.890  26.495  32.091  1.00  0.00    -0.203 F 
ATOM     88  F   UNL A   1      44.150  23.879  35.978  1.00  0.00    -0.200 F 
ATOM     89  C   UNL A   1      46.136  24.230  34.762  1.00  0.00     0.200 A 
ATOM     90  F   UNL A   1      48.064  24.573  33.451  1.00  0.00    -0.200 F 
ATOM     91  F   UNL A   1      46.769  23.300  35.487  1.00  0.00    -0.200 F 
ENDBRANCH  58  81
ENDBRANCH  32  33
ENDBRANCH  24  27
ENDBRANCH  22  23
ENDBRANCH  21  22
ENDBRANCH   1  21
TORSDOF 14
ENDMDL
MODEL 2
REMARK VINA RESULT:     -13.0      1.814      2.376
REMARK SMILES Cc1ccc([C@@](C)(O)[C@H](F)C(=O)NCCCCNC(=O)c2ccc(-c3c4nc(c(-c5c(F)c(F)c(F)c(F)c5F)c5ccc([nH]5)c(-c5c(F)c(F)c(F)c(F)c5F)c5nc(c(-c6c(F)c(F)c(F)c(F)c6F)c6ccc3[nH]6)C=C5)C=C4)cc2)cc1F
REMARK SMILES IDX 15 1 14 2 13 3 11 4 12 5 9 7 10 8 6 9 7 10 5 11 1 12 2 13
REMARK SMILES IDX 3 14 85 15 4 16 84 17 86 18 8 19 16 21 17 22 18 23 19 24
REMARK SMILES IDX 20 26 21 27 22 28 83 29 23 30 82 31 24 32 25 33 26 34 76 35
REMARK SMILES IDX 27 36 81 37 75 38 77 39 28 40 80 41 74 42 73 43 29 45 61 46
REMARK SMILES IDX 41 47 60 48 42 49 45 50 59 51 78 52 43 53 44 54 58 56 79 57
REMARK SMILES IDX 46 58 30 59 31 60 39 61 32 62 33 63 37 64 40 65 34 66 35 67
REMARK SMILES IDX 38 68 36 69 62 70 63 71 71 72 64 73 65 74 69 75 72 76 66 77
REMARK SMILES IDX 67 78 70 79 68 80 47 81 48 82 56 83 49 84 50 85 54 86 57 87
REMARK SMILES IDX 51 88 52 89 55 90 53 91
REMARK H PARENT 13 6 8 20 18 25 77 44 45 55
REMARK Flexibility Score: inf
ROOT
ATOM      1  C   UNL A   1      32.873  29.696  25.247  1.00  0.00     0.023 C 
ENDROOT
BRANCH   1   2
ATOM      2  C   UNL A   1      31.354  29.580  25.141  1.00  0.00     0.116 C 
BRANCH   2   3
ATOM      3  N   UNL A   1      30.872  29.596  23.768  1.00  0.00    -0.353 N 
ATOM      4  C   UNL A   1      30.765  28.530  22.909  1.00  0.00     0.257 C 
ATOM      5  O   UNL A   1      30.234  28.699  21.809  1.00  0.00    -0.272 OA
ATOM      6  H   UNL A   1      30.592  30.472  23.415  1.00  0.00     0.163 HD
BRANCH   4   7
ATOM      7  C   UNL A   1      31.318  27.176  23.342  1.00  0.00     0.291 C 
ATOM      8  F   UNL A   1      30.289  26.271  23.381  1.00  0.00    -0.233 F 
BRANCH   7   9
ATOM      9  C   UNL A   1      32.491  26.668  22.432  1.00  0.00     0.127 C 
ATOM     10  C   UNL A   1      33.496  27.815  22.233  1.00  0.00     0.051 C 
BRANCH   9  11
ATOM     11  C   UNL A   1      33.220  25.416  22.954  1.00  0.00    -0.010 A 
ATOM     12  C   UNL A   1      35.619  22.052  24.290  1.00  0.00     0.047 C 
ATOM     13  C   UNL A   1      34.771  23.199  23.837  1.00  0.00    -0.015 A 
ATOM     14  C   UNL A   1      33.927  23.081  22.734  1.00  0.00     0.007 A 
ATOM     15  C   UNL A   1      34.803  24.414  24.517  1.00  0.00     0.126 A 
ATOM     16  C   UNL A   1      33.151  24.167  22.312  1.00  0.00     0.007 A 
ATOM     17  C   UNL A   1      34.041  25.502  24.095  1.00  0.00     0.046 A 
ATOM     18  F   UNL A   1      35.597  24.559  25.588  1.00  0.00    -0.207 F 
ENDBRANCH   9  11
BRANCH   9  19
ATOM     19  O   UNL A   1      32.009  26.376  21.100  1.00  0.00    -0.382 OA
ATOM     20  H   UNL A   1      31.436  25.594  21.127  1.00  0.00     0.212 HD
ENDBRANCH   9  19
ENDBRANCH   7   9
ENDBRANCH   4   7
ENDBRANCH   2   3
ENDBRANCH   1   2
BRANCH   1  21
ATOM     21  C   UNL A   1      33.565  28.519  25.938  1.00  0.00     0.023 C 
BRANCH  21  22
ATOM     22  C   UNL A   1      33.936  28.821  27.374  1.00  0.00     0.116 C 
BRANCH  22  23
ATOM     23  N   UNL A   1      34.064  30.256  27.620  1.00  0.00    -0.352 N 
ATOM     24  C   UNL A   1      34.989  30.881  28.431  1.00  0.00     0.251 C 
ATOM     25  H   UNL A   1      33.420  30.840  27.158  1.00  0.00     0.163 HD
ATOM     26  O   UNL A   1      34.802  31.998  28.876  1.00  0.00    -0.269 OA
BRANCH  24  27
ATOM     27  C   UNL A   1      36.251  30.171  28.689  1.00  0.00     0.039 A 
ATOM     28  C   UNL A   1      36.506  29.520  29.903  1.00  0.00     0.014 A 
ATOM     29  C   UNL A   1      37.221  30.244  27.694  1.00  0.00     0.014 A 
ATOM     30  C   UNL A   1      37.764  28.962  30.112  1.00  0.00     0.010 A 
ATOM     31  C   UNL A   1      38.363  29.527  27.812  1.00  0.00     0.010 A 
ATOM     32  C   UNL A   1      38.677  28.998  29.059  1.00  0.00    -0.014 A 
BRANCH  32  33
ATOM     33  C   UNL A   1      40.049  28.552  29.119  1.00  0.00     0.031 A 
ATOM     34  C   UNL A   1      40.339  27.163  28.777  1.00  0.00     0.074 A 
ATOM     35  C   UNL A   1      40.958  29.545  29.249  1.00  0.00     0.049 A 
ATOM     36  N   UNL A   1      41.382  26.527  29.160  1.00  0.00    -0.248 NA
ATOM     37  C   UNL A   1      39.426  26.350  27.978  1.00  0.00     0.031 C 
ATOM     38  C   UNL A   1      42.388  29.565  29.003  1.00  0.00     0.029 A 
ATOM     39  N   UNL A   1      40.690  30.831  29.757  1.00  0.00    -0.354 N 
ATOM     40  C   UNL A   1      41.464  25.392  28.383  1.00  0.00     0.074 A 
ATOM     41  C   UNL A   1      40.157  25.246  27.790  1.00  0.00     0.031 C 
ATOM     42  C   UNL A   1      42.917  30.615  29.663  1.00  0.00     0.029 A 
ATOM     43  C   UNL A   1      41.849  31.222  30.444  1.00  0.00     0.049 A 
ATOM     44  H   UNL A   1      39.860  31.348  29.653  1.00  0.00     0.167 HD
ATOM     45  C   UNL A   1      42.698  24.844  28.185  1.00  0.00     0.037 A 
ATOM     46  C   UNL A   1      41.787  31.285  31.808  1.00  0.00     0.037 A 
ATOM     47  C   UNL A   1      43.698  25.643  28.906  1.00  0.00     0.049 A 
ATOM     48  C   UNL A   1      42.612  30.190  32.424  1.00  0.00     0.074 A 
ATOM     49  C   UNL A   1      44.522  26.678  28.489  1.00  0.00     0.029 A 
ATOM     50  N   UNL A   1      43.628  25.736  30.294  1.00  0.00    -0.354 N 
ATOM     51  N   UNL A   1      42.857  29.042  31.845  1.00  0.00    -0.248 NA
ATOM     52  C   UNL A   1      43.329  30.362  33.677  1.00  0.00     0.031 C 
ATOM     53  C   UNL A   1      44.877  27.443  29.635  1.00  0.00     0.029 A 
ATOM     54  C   UNL A   1      44.280  26.870  30.747  1.00  0.00     0.049 A 
ATOM     55  H   UNL A   1      43.174  25.083  30.875  1.00  0.00     0.167 HD
ATOM     56  C   UNL A   1      43.806  28.370  32.566  1.00  0.00     0.074 A 
ATOM     57  C   UNL A   1      44.063  29.237  33.706  1.00  0.00     0.031 C 
ATOM     58  C   UNL A   1      44.347  27.177  32.171  1.00  0.00     0.037 A 
BRANCH  45  59
ATOM     59  C   UNL A   1      43.045  23.831  27.113  1.00  0.00     0.064 A 
ATOM     60  C   UNL A   1      42.732  22.464  27.291  1.00  0.00     0.173 A 
ATOM     61  C   UNL A   1      43.692  24.124  25.895  1.00  0.00     0.173 A 
ATOM     62  F   UNL A   1      42.051  22.036  28.363  1.00  0.00    -0.203 F 
ATOM     63  C   UNL A   1      43.100  21.476  26.371  1.00  0.00     0.198 A 
ATOM     64  C   UNL A   1      44.100  23.130  24.996  1.00  0.00     0.198 A 
ATOM     65  F   UNL A   1      43.901  25.383  25.497  1.00  0.00    -0.203 F 
ATOM     66  F   UNL A   1      42.766  20.198  26.602  1.00  0.00    -0.200 F 
ATOM     67  C   UNL A   1      43.804  21.805  25.234  1.00  0.00     0.200 A 
ATOM     68  F   UNL A   1      44.770  23.473  23.886  1.00  0.00    -0.200 F 
ATOM     69  F   UNL A   1      44.170  20.858  24.360  1.00  0.00    -0.200 F 
ENDBRANCH  45  59
BRANCH  46  70
ATOM     70  C   UNL A   1      40.465  31.830  32.266  1.00  0.00     0.064 A 
ATOM     71  C   UNL A   1      39.655  30.907  32.964  1.00  0.00     0.173 A 
ATOM     72  C   UNL A   1      40.284  33.189  32.564  1.00  0.00     0.173 A 
ATOM     73  F   UNL A   1      39.736  29.598  32.671  1.00  0.00    -0.203 F 
ATOM     74  C   UNL A   1      38.933  31.289  34.091  1.00  0.00     0.198 A 
ATOM     75  C   UNL A   1      39.497  33.575  33.656  1.00  0.00     0.198 A 
ATOM     76  F   UNL A   1      40.971  34.129  31.899  1.00  0.00    -0.203 F 
ATOM     77  F   UNL A   1      38.374  30.355  34.873  1.00  0.00    -0.200 F 
ATOM     78  C   UNL A   1      38.896  32.619  34.465  1.00  0.00     0.200 A 
ATOM     79  F   UNL A   1      39.393  34.873  33.979  1.00  0.00    -0.200 F 
ATOM     80  F   UNL A   1      38.323  32.966  35.627  1.00  0.00    -0.200 F 
ENDBRANCH  46  70
BRANCH  58  81
ATOM     81  C   UNL A   1      45.098  26.227  33.077  1.00  0.00     0.064 A 
ATOM     82  C   UNL A   1      44.477  25.406  34.032  1.00  0.00     0.173 A 
ATOM     83  C   UNL A   1      46.484  25.993  32.893  1.00  0.00     0.173 A 
ATOM     84  F   UNL A   1      43.149  25.399  34.201  1.00  0.00    -0.203 F 
ATOM     85  C   UNL A   1      45.197  24.499  34.810  1.00  0.00     0.198 A 
ATOM     86  C   UNL A   1      47.180  25.020  33.604  1.00  0.00     0.198 A 
ATOM     87  F   UNL A   1      47.207  26.672  31.990  1.00  0.00    -0.203 F 
ATOM     88  F   UNL A   1      44.564  23.800  35.762  1.00  0.00    -0.200 F 
ATOM     89  C   UNL A   1      46.543  24.294  34.585  1.00  0.00     0.200 A 
ATOM     90  F   UNL A   1      48.467  24.778  33.313  1.00  0.00    -0.200 F 
ATOM     91  F   UNL A   1      47.217  23.379  35.293  1.00  0.00    -0.200 F 
ENDBRANCH  58  81
ENDBRANCH  32  33
ENDBRANCH  24  27
ENDBRANCH  22  23
ENDBRANCH  21  22
ENDBRANCH   1  21
TORSDOF 14
ENDMDL
MODEL 3
REMARK VINA RESULT:     -12.9      3.483      9.652
REMARK SMILES Cc1ccc([C@@](C)(O)[C@H](F)C(=O)NCCCCNC(=O)c2ccc(-c3c4nc(c(-c5c(F)c(F)c(F)c(F)c5F)c5ccc([nH]5)c(-c5c(F)c(F)c(F)c(F)c5F)c5nc(c(-c6c(F)c(F)c(F)c(F)c6F)c6ccc3[nH]6)C=C5)C=C4)cc2)cc1F
REMARK SMILES IDX 15 1 14 2 13 3 11 4 12 5 9 7 10 8 6 9 7 10 5 11 1 12 2 13
REMARK SMILES IDX 3 14 85 15 4 16 84 17 86 18 8 19 16 21 17 22 18 23 19 24
REMARK SMILES IDX 20 26 21 27 22 28 83 29 23 30 82 31 24 32 25 33 26 34 76 35
REMARK SMILES IDX 27 36 81 37 75 38 77 39 28 40 80 41 74 42 73 43 29 45 61 46
REMARK SMILES IDX 41 47 60 48 42 49 45 50 59 51 78 52 43 53 44 54 58 56 79 57
REMARK SMILES IDX 46 58 30 59 31 60 39 61 32 62 33 63 37 64 40 65 34 66 35 67
REMARK SMILES IDX 38 68 36 69 62 70 63 71 71 72 64 73 65 74 69 75 72 76 66 77
REMARK SMILES IDX 67 78 70 79 68 80 47 81 48 82 56 83 49 84 50 85 54 86 57 87
REMARK SMILES IDX 51 88 52 89 55 90 53 91
REMARK H PARENT 13 6 8 20 18 25 77 44 45 55
REMARK Flexibility Score: inf
ROOT
ATOM      1  C   UNL A   1      35.256  22.549  24.309  1.00  0.00     0.023 C 
ENDROOT
BRANCH   1   2
ATOM      2  C   UNL A   1      34.898  23.716  23.392  1.00  0.00     0.116 C 
BRANCH   2   3
ATOM      3  N   UNL A   1      33.486  23.755  23.038  1.00  0.00    -0.353 N 
ATOM      4  C   UNL A   1      32.622  24.813  23.174  1.00  0.00     0.257 C 
ATOM      5  O   UNL A   1      31.478  24.712  22.723  1.00  0.00    -0.272 OA
ATOM      6  H   UNL A   1      33.109  22.928  22.659  1.00  0.00     0.163 HD
BRANCH   4   7
ATOM      7  C   UNL A   1      33.104  26.072  23.887  1.00  0.00     0.291 C 
ATOM      8  F   UNL A   1      33.095  27.114  22.997  1.00  0.00    -0.233 F 
BRANCH   7   9
ATOM      9  C   UNL A   1      32.269  26.411  25.172  1.00  0.00     0.127 C 
ATOM     10  C   UNL A   1      32.317  25.206  26.127  1.00  0.00     0.051 C 
BRANCH   9  11
ATOM     11  C   UNL A   1      32.711  27.686  25.914  1.00  0.00    -0.010 A 
ATOM     12  C   UNL A   1      33.982  31.461  27.644  1.00  0.00     0.047 C 
ATOM     13  C   UNL A   1      33.544  30.150  27.071  1.00  0.00    -0.015 A 
ATOM     14  C   UNL A   1      34.403  29.052  27.041  1.00  0.00     0.007 A 
ATOM     15  C   UNL A   1      32.257  29.995  26.560  1.00  0.00     0.126 A 
ATOM     16  C   UNL A   1      33.985  27.836  26.487  1.00  0.00     0.007 A 
ATOM     17  C   UNL A   1      31.839  28.790  25.998  1.00  0.00     0.046 A 
ATOM     18  F   UNL A   1      31.402  31.027  26.583  1.00  0.00    -0.207 F 
ENDBRANCH   9  11
BRANCH   9  19
ATOM     19  O   UNL A   1      30.868  26.554  24.844  1.00  0.00    -0.382 OA
ATOM     20  H   UNL A   1      30.681  27.480  24.622  1.00  0.00     0.212 HD
ENDBRANCH   9  19
ENDBRANCH   7   9
ENDBRANCH   4   7
ENDBRANCH   2   3
ENDBRANCH   1   2
BRANCH   1  21
ATOM     21  C   UNL A   1      35.754  22.950  25.700  1.00  0.00     0.023 C 
BRANCH  21  22
ATOM     22  C   UNL A   1      37.107  23.626  25.663  1.00  0.00     0.116 C 
BRANCH  22  23
ATOM     23  N   UNL A   1      38.179  22.738  26.106  1.00  0.00    -0.352 N 
ATOM     24  C   UNL A   1      39.450  23.101  26.501  1.00  0.00     0.251 C 
ATOM     25  H   UNL A   1      37.972  21.775  26.125  1.00  0.00     0.163 HD
ATOM     26  O   UNL A   1      40.377  22.312  26.487  1.00  0.00    -0.269 OA
BRANCH  24  27
ATOM     27  C   UNL A   1      39.636  24.470  27.004  1.00  0.00     0.039 A 
ATOM     28  C   UNL A   1      40.253  25.469  26.241  1.00  0.00     0.014 A 
ATOM     29  C   UNL A   1      39.240  24.709  28.317  1.00  0.00     0.014 A 
ATOM     30  C   UNL A   1      40.489  26.710  26.826  1.00  0.00     0.010 A 
ATOM     31  C   UNL A   1      39.278  25.968  28.814  1.00  0.00     0.010 A 
ATOM     32  C   UNL A   1      40.009  26.924  28.118  1.00  0.00    -0.014 A 
BRANCH  32  33
ATOM     33  C   UNL A   1      40.233  28.107  28.914  1.00  0.00     0.031 A 
ATOM     34  C   UNL A   1      39.246  29.180  28.849  1.00  0.00     0.074 A 
ATOM     35  C   UNL A   1      41.221  27.990  29.831  1.00  0.00     0.049 A 
ATOM     36  N   UNL A   1      39.486  30.401  29.149  1.00  0.00    -0.248 NA
ATOM     37  C   UNL A   1      37.877  28.952  28.396  1.00  0.00     0.031 C 
ATOM     38  C   UNL A   1      41.520  28.774  31.014  1.00  0.00     0.029 A 
ATOM     39  N   UNL A   1      42.276  27.058  29.775  1.00  0.00    -0.354 N 
ATOM     40  C   UNL A   1      38.264  31.025  29.285  1.00  0.00     0.074 A 
ATOM     41  C   UNL A   1      37.317  30.139  28.654  1.00  0.00     0.031 C 
ATOM     42  C   UNL A   1      42.804  28.551  31.358  1.00  0.00     0.029 A 
ATOM     43  C   UNL A   1      43.390  27.705  30.329  1.00  0.00     0.049 A 
ATOM     44  H   UNL A   1      42.238  26.141  29.420  1.00  0.00     0.167 HD
ATOM     45  C   UNL A   1      38.194  32.115  30.103  1.00  0.00     0.037 A 
ATOM     46  C   UNL A   1      44.405  28.055  29.482  1.00  0.00     0.037 A 
ATOM     47  C   UNL A   1      39.526  32.382  30.662  1.00  0.00     0.049 A 
ATOM     48  C   UNL A   1      44.467  29.549  29.325  1.00  0.00     0.074 A 
ATOM     49  C   UNL A   1      40.111  32.007  31.863  1.00  0.00     0.029 A 
ATOM     50  N   UNL A   1      40.573  32.712  29.806  1.00  0.00    -0.354 N 
ATOM     51  N   UNL A   1      43.437  30.344  29.455  1.00  0.00    -0.248 NA
ATOM     52  C   UNL A   1      45.722  30.263  29.144  1.00  0.00     0.031 C 
ATOM     53  C   UNL A   1      41.522  32.037  31.690  1.00  0.00     0.029 A 
ATOM     54  C   UNL A   1      41.797  32.438  30.392  1.00  0.00     0.049 A 
ATOM     55  H   UNL A   1      40.459  33.090  28.903  1.00  0.00     0.167 HD
ATOM     56  C   UNL A   1      43.871  31.642  29.470  1.00  0.00     0.074 A 
ATOM     57  C   UNL A   1      45.308  31.536  29.266  1.00  0.00     0.031 C 
ATOM     58  C   UNL A   1      43.044  32.710  29.686  1.00  0.00     0.037 A 
BRANCH  45  59
ATOM     59  C   UNL A   1      36.916  32.719  30.651  1.00  0.00     0.064 A 
ATOM     60  C   UNL A   1      36.115  33.556  29.840  1.00  0.00     0.173 A 
ATOM     61  C   UNL A   1      36.423  32.532  31.957  1.00  0.00     0.173 A 
ATOM     62  F   UNL A   1      36.411  33.773  28.551  1.00  0.00    -0.203 F 
ATOM     63  C   UNL A   1      34.970  34.203  30.317  1.00  0.00     0.198 A 
ATOM     64  C   UNL A   1      35.302  33.214  32.449  1.00  0.00     0.198 A 
ATOM     65  F   UNL A   1      36.965  31.638  32.791  1.00  0.00    -0.203 F 
ATOM     66  F   UNL A   1      34.254  34.979  29.492  1.00  0.00    -0.200 F 
ATOM     67  C   UNL A   1      34.575  34.051  31.628  1.00  0.00     0.200 A 
ATOM     68  F   UNL A   1      34.924  33.039  33.724  1.00  0.00    -0.200 F 
ATOM     69  F   UNL A   1      33.488  34.681  32.091  1.00  0.00    -0.200 F 
ENDBRANCH  45  59
BRANCH  46  70
ATOM     70  C   UNL A   1      44.635  26.996  28.443  1.00  0.00     0.064 A 
ATOM     71  C   UNL A   1      44.348  27.394  27.119  1.00  0.00     0.173 A 
ATOM     72  C   UNL A   1      45.593  25.985  28.612  1.00  0.00     0.173 A 
ATOM     73  F   UNL A   1      43.390  28.309  26.893  1.00  0.00    -0.203 F 
ATOM     74  C   UNL A   1      45.175  27.026  26.061  1.00  0.00     0.198 A 
ATOM     75  C   UNL A   1      46.375  25.564  27.528  1.00  0.00     0.198 A 
ATOM     76  F   UNL A   1      45.873  25.509  29.833  1.00  0.00    -0.203 F 
ATOM     77  F   UNL A   1      45.026  27.613  24.864  1.00  0.00    -0.200 F 
ATOM     78  C   UNL A   1      46.220  26.148  26.278  1.00  0.00     0.200 A 
ATOM     79  F   UNL A   1      47.341  24.653  27.716  1.00  0.00    -0.200 F 
ATOM     80  F   UNL A   1      47.099  25.907  25.294  1.00  0.00    -0.200 F 
ENDBRANCH  46  70
BRANCH  58  81
ATOM     81  C   UNL A   1      43.382  34.145  29.351  1.00  0.00     0.064 A 
ATOM     82  C   UNL A   1      43.548  34.622  28.041  1.00  0.00     0.173 A 
ATOM     83  C   UNL A   1      43.390  35.142  30.359  1.00  0.00     0.173 A 
ATOM     84  F   UNL A   1      43.403  33.824  26.975  1.00  0.00    -0.203 F 
ATOM     85  C   UNL A   1      43.802  35.966  27.768  1.00  0.00     0.198 A 
ATOM     86  C   UNL A   1      43.548  36.496  30.073  1.00  0.00     0.198 A 
ATOM     87  F   UNL A   1      43.207  34.848  31.654  1.00  0.00    -0.203 F 
ATOM     88  F   UNL A   1      44.032  36.350  26.504  1.00  0.00    -0.200 F 
ATOM     89  C   UNL A   1      43.785  36.905  28.780  1.00  0.00     0.200 A 
ATOM     90  F   UNL A   1      43.446  37.399  31.058  1.00  0.00    -0.200 F 
ATOM     91  F   UNL A   1      43.970  38.202  28.505  1.00  0.00    -0.200 F 
ENDBRANCH  58  81
ENDBRANCH  32  33
ENDBRANCH  24  27
ENDBRANCH  22  23
ENDBRANCH  21  22
ENDBRANCH   1  21
TORSDOF 14
ENDMDL
