MODEL 1
REMARK VINA RESULT:     -11.5      0.000      0.000
REMARK SMILES C[NH+](C)CCOc1ccccc1C(=O)NCCCCNC(=O)c1ccc(-c2c3nc(c(-c4c(F)c(F)c(F)c(F)c4F)c4ccc([nH]4)c(-c4c(F)c(F)c(F)c(F)c4F)c4nc(c(-c5c(F)c(F)c(F)c(F)c5F)c5ccc2[nH]5)C=C4)C=C3)cc1
REMARK SMILES IDX 16 1 15 2 13 3 14 4 12 6 7 7 8 8 9 9 11 10 10 11 6 12 5 13
REMARK SMILES IDX 4 14 2 15 1 16 3 17 17 19 18 20 19 21 20 22 21 23 22 25
REMARK SMILES IDX 23 26 24 27 85 28 25 29 84 30 26 31 27 32 28 33 78 34 29 35
REMARK SMILES IDX 83 36 77 37 79 38 30 39 82 40 76 41 75 42 31 44 63 45 43 46
REMARK SMILES IDX 62 47 44 48 47 49 61 50 80 51 45 52 46 53 60 55 81 56 48 57
REMARK SMILES IDX 32 58 33 59 41 60 34 61 35 62 39 63 42 64 36 65 37 66 40 67
REMARK SMILES IDX 38 68 64 69 65 70 73 71 66 72 67 73 71 74 74 75 68 76 69 77
REMARK SMILES IDX 72 78 70 79 49 80 50 81 58 82 51 83 52 84 56 85 59 86 53 87
REMARK SMILES IDX 54 88 57 89 55 90
REMARK H PARENT 15 5 2 18 20 24 79 43 47 54
REMARK Flexibility Score: inf
ROOT
ATOM      1  C   UNL A   1      31.312  26.235  26.005  1.00  0.00     0.116 C 
ENDROOT
BRANCH   1   2
ATOM      2  N   UNL A   1      31.165  24.912  26.600  1.00  0.00    -0.352 N 
ATOM      3  C   UNL A   1      32.090  23.866  26.762  1.00  0.00     0.255 C 
ATOM      4  O   UNL A   1      31.832  23.049  27.654  1.00  0.00    -0.269 OA
ATOM      5  H   UNL A   1      30.263  24.718  26.946  1.00  0.00     0.163 HD
BRANCH   3   6
ATOM      6  C   UNL A   1      33.234  23.503  25.841  1.00  0.00     0.081 A 
ATOM      7  C   UNL A   1      33.285  22.521  24.812  1.00  0.00     0.132 A 
ATOM      8  C   UNL A   1      34.391  22.458  23.936  1.00  0.00     0.047 A 
ATOM      9  C   UNL A   1      35.384  23.428  23.965  1.00  0.00     0.004 A 
ATOM     10  C   UNL A   1      34.228  24.504  25.797  1.00  0.00     0.018 A 
ATOM     11  C   UNL A   1      35.275  24.479  24.863  1.00  0.00     0.001 A 
BRANCH   7  12
ATOM     12  O   UNL A   1      32.198  21.731  24.524  1.00  0.00    -0.487 OA
BRANCH  12  13
ATOM     13  C   UNL A   1      32.210  20.364  24.999  1.00  0.00     0.290 C 
BRANCH  13  14
ATOM     14  C   UNL A   1      32.620  19.403  23.860  1.00  0.00     0.303 C 
BRANCH  14  15
ATOM     15  N   UNL A   1      32.378  17.982  24.148  1.00  0.00    -0.337 N 
ATOM     16  C   UNL A   1      33.215  17.199  23.227  1.00  0.00     0.332 C 
ATOM     17  C   UNL A   1      32.607  17.752  25.591  1.00  0.00     0.332 C 
ATOM     18  H   UNL A   1      31.417  17.681  23.981  1.00  0.00     0.347 HD
ENDBRANCH  14  15
ENDBRANCH  13  14
ENDBRANCH  12  13
ENDBRANCH   7  12
ENDBRANCH   3   6
ENDBRANCH   1   2
BRANCH   1  19
ATOM     19  C   UNL A   1      32.141  27.342  26.698  1.00  0.00     0.023 C 
BRANCH  19  20
ATOM     20  C   UNL A   1      31.598  28.807  26.769  1.00  0.00     0.023 C 
BRANCH  20  21
ATOM     21  C   UNL A   1      32.332  30.016  26.158  1.00  0.00     0.116 C 
BRANCH  21  22
ATOM     22  N   UNL A   1      32.260  31.291  26.862  1.00  0.00    -0.352 N 
ATOM     23  C   UNL A   1      33.238  32.033  27.494  1.00  0.00     0.251 C 
ATOM     24  H   UNL A   1      31.361  31.690  26.893  1.00  0.00     0.163 HD
ATOM     25  O   UNL A   1      32.973  33.170  27.893  1.00  0.00    -0.269 OA
BRANCH  23  26
ATOM     26  C   UNL A   1      34.570  31.464  27.807  1.00  0.00     0.039 A 
ATOM     27  C   UNL A   1      35.675  32.324  27.755  1.00  0.00     0.014 A 
ATOM     28  C   UNL A   1      34.751  30.134  28.183  1.00  0.00     0.014 A 
ATOM     29  C   UNL A   1      36.918  31.900  28.236  1.00  0.00     0.010 A 
ATOM     30  C   UNL A   1      35.976  29.729  28.724  1.00  0.00     0.010 A 
ATOM     31  C   UNL A   1      37.056  30.625  28.809  1.00  0.00    -0.014 A 
BRANCH  31  32
ATOM     32  C   UNL A   1      38.261  30.269  29.609  1.00  0.00     0.031 A 
ATOM     33  C   UNL A   1      39.282  29.292  29.100  1.00  0.00     0.074 A 
ATOM     34  C   UNL A   1      38.381  30.758  30.862  1.00  0.00     0.049 A 
ATOM     35  N   UNL A   1      40.330  28.795  29.713  1.00  0.00    -0.248 NA
ATOM     36  C   UNL A   1      39.092  28.791  27.733  1.00  0.00     0.031 C 
ATOM     37  C   UNL A   1      37.436  31.674  31.505  1.00  0.00     0.029 A 
ATOM     38  N   UNL A   1      39.335  30.541  31.829  1.00  0.00    -0.354 N 
ATOM     39  C   UNL A   1      40.914  27.914  28.814  1.00  0.00     0.074 A 
ATOM     40  C   UNL A   1      40.082  27.915  27.627  1.00  0.00     0.031 C 
ATOM     41  C   UNL A   1      37.863  31.953  32.746  1.00  0.00     0.029 A 
ATOM     42  C   UNL A   1      39.086  31.202  33.009  1.00  0.00     0.049 A 
ATOM     43  H   UNL A   1      40.122  29.968  31.688  1.00  0.00     0.167 HD
ATOM     44  C   UNL A   1      42.048  27.184  28.957  1.00  0.00     0.037 A 
ATOM     45  C   UNL A   1      39.753  31.195  34.178  1.00  0.00     0.037 A 
ATOM     46  C   UNL A   1      42.885  27.192  30.130  1.00  0.00     0.049 A 
ATOM     47  C   UNL A   1      40.999  30.364  34.315  1.00  0.00     0.074 A 
ATOM     48  C   UNL A   1      44.087  26.534  30.338  1.00  0.00     0.029 A 
ATOM     49  N   UNL A   1      42.609  27.887  31.298  1.00  0.00    -0.354 N 
ATOM     50  N   UNL A   1      41.578  29.591  33.431  1.00  0.00    -0.248 NA
ATOM     51  C   UNL A   1      41.685  30.406  35.615  1.00  0.00     0.031 C 
ATOM     52  C   UNL A   1      44.511  26.791  31.646  1.00  0.00     0.029 A 
ATOM     53  C   UNL A   1      43.601  27.652  32.238  1.00  0.00     0.049 A 
ATOM     54  H   UNL A   1      41.822  28.462  31.440  1.00  0.00     0.167 HD
ATOM     55  C   UNL A   1      42.708  29.077  34.054  1.00  0.00     0.074 A 
ATOM     56  C   UNL A   1      42.742  29.639  35.388  1.00  0.00     0.031 C 
ATOM     57  C   UNL A   1      43.632  28.217  33.563  1.00  0.00     0.037 A 
BRANCH  44  58
ATOM     58  C   UNL A   1      42.458  26.306  27.810  1.00  0.00     0.064 A 
ATOM     59  C   UNL A   1      43.347  26.756  26.821  1.00  0.00     0.173 A 
ATOM     60  C   UNL A   1      41.998  24.982  27.723  1.00  0.00     0.173 A 
ATOM     61  F   UNL A   1      43.812  28.014  26.855  1.00  0.00    -0.203 F 
ATOM     62  C   UNL A   1      43.736  25.925  25.775  1.00  0.00     0.198 A 
ATOM     63  C   UNL A   1      42.413  24.145  26.691  1.00  0.00     0.198 A 
ATOM     64  F   UNL A   1      41.156  24.497  28.647  1.00  0.00    -0.203 F 
ATOM     65  F   UNL A   1      44.551  26.392  24.818  1.00  0.00    -0.200 F 
ATOM     66  C   UNL A   1      43.275  24.618  25.713  1.00  0.00     0.200 A 
ATOM     67  F   UNL A   1      41.980  22.878  26.642  1.00  0.00    -0.200 F 
ATOM     68  F   UNL A   1      43.659  23.817  24.710  1.00  0.00    -0.200 F 
ENDBRANCH  44  58
BRANCH  45  69
ATOM     69  C   UNL A   1      39.264  32.015  35.318  1.00  0.00     0.064 A 
ATOM     70  C   UNL A   1      39.604  33.372  35.422  1.00  0.00     0.173 A 
ATOM     71  C   UNL A   1      38.460  31.464  36.326  1.00  0.00     0.173 A 
ATOM     72  F   UNL A   1      40.390  33.938  34.496  1.00  0.00    -0.203 F 
ATOM     73  C   UNL A   1      39.173  34.140  36.502  1.00  0.00     0.198 A 
ATOM     74  C   UNL A   1      38.006  32.241  37.390  1.00  0.00     0.198 A 
ATOM     75  F   UNL A   1      38.104  30.172  36.271  1.00  0.00    -0.203 F 
ATOM     76  F   UNL A   1      39.551  35.422  36.602  1.00  0.00    -0.200 F 
ATOM     77  C   UNL A   1      38.370  33.576  37.482  1.00  0.00     0.200 A 
ATOM     78  F   UNL A   1      37.218  31.696  38.326  1.00  0.00    -0.200 F 
ATOM     79  F   UNL A   1      37.953  34.316  38.517  1.00  0.00    -0.200 F 
ENDBRANCH  45  69
BRANCH  57  80
ATOM     80  C   UNL A   1      44.779  27.852  34.460  1.00  0.00     0.064 A 
ATOM     81  C   UNL A   1      45.962  28.606  34.487  1.00  0.00     0.173 A 
ATOM     82  C   UNL A   1      44.682  26.752  35.326  1.00  0.00     0.173 A 
ATOM     83  F   UNL A   1      46.112  29.656  33.666  1.00  0.00    -0.203 F 
ATOM     84  C   UNL A   1      47.014  28.258  35.331  1.00  0.00     0.198 A 
ATOM     85  C   UNL A   1      45.724  26.425  36.189  1.00  0.00     0.198 A 
ATOM     86  F   UNL A   1      43.572  26.000  35.343  1.00  0.00    -0.203 F 
ATOM     87  F   UNL A   1      48.152  28.965  35.305  1.00  0.00    -0.200 F 
ATOM     88  C   UNL A   1      46.892  27.173  36.187  1.00  0.00     0.200 A 
ATOM     89  F   UNL A   1      45.599  25.383  37.024  1.00  0.00    -0.200 F 
ATOM     90  F   UNL A   1      47.903  26.844  37.002  1.00  0.00    -0.200 F 
ENDBRANCH  57  80
ENDBRANCH  31  32
ENDBRANCH  23  26
ENDBRANCH  21  22
ENDBRANCH  20  21
ENDBRANCH  19  20
ENDBRANCH   1  19
TORSDOF 15
ENDMDL
MODEL 2
REMARK VINA RESULT:     -11.5      0.239      1.644
REMARK SMILES C[NH+](C)CCOc1ccccc1C(=O)NCCCCNC(=O)c1ccc(-c2c3nc(c(-c4c(F)c(F)c(F)c(F)c4F)c4ccc([nH]4)c(-c4c(F)c(F)c(F)c(F)c4F)c4nc(c(-c5c(F)c(F)c(F)c(F)c5F)c5ccc2[nH]5)C=C4)C=C3)cc1
REMARK SMILES IDX 16 1 15 2 13 3 14 4 12 6 7 7 8 8 9 9 11 10 10 11 6 12 5 13
REMARK SMILES IDX 4 14 2 15 1 16 3 17 17 19 18 20 19 21 20 22 21 23 22 25
REMARK SMILES IDX 23 26 24 27 85 28 25 29 84 30 26 31 27 32 28 33 78 34 29 35
REMARK SMILES IDX 83 36 77 37 79 38 30 39 82 40 76 41 75 42 31 44 63 45 43 46
REMARK SMILES IDX 62 47 44 48 47 49 61 50 80 51 45 52 46 53 60 55 81 56 48 57
REMARK SMILES IDX 32 58 33 59 41 60 34 61 35 62 39 63 42 64 36 65 37 66 40 67
REMARK SMILES IDX 38 68 64 69 65 70 73 71 66 72 67 73 71 74 74 75 68 76 69 77
REMARK SMILES IDX 72 78 70 79 49 80 50 81 58 82 51 83 52 84 56 85 59 86 53 87
REMARK SMILES IDX 54 88 57 89 55 90
REMARK H PARENT 15 5 2 18 20 24 79 43 47 54
REMARK Flexibility Score: inf
ROOT
ATOM      1  C   UNL A   1      31.444  26.332  26.106  1.00  0.00     0.116 C 
ENDROOT
BRANCH   1   2
ATOM      2  N   UNL A   1      31.210  25.010  26.674  1.00  0.00    -0.352 N 
ATOM      3  C   UNL A   1      32.068  23.905  26.823  1.00  0.00     0.255 C 
ATOM      4  O   UNL A   1      31.753  23.089  27.697  1.00  0.00    -0.269 OA
ATOM      5  H   UNL A   1      30.296  24.865  27.009  1.00  0.00     0.163 HD
BRANCH   3   6
ATOM      6  C   UNL A   1      33.196  23.490  25.903  1.00  0.00     0.081 A 
ATOM      7  C   UNL A   1      33.253  22.409  24.979  1.00  0.00     0.132 A 
ATOM      8  C   UNL A   1      34.333  22.296  24.075  1.00  0.00     0.047 A 
ATOM      9  C   UNL A   1      35.287  23.299  23.969  1.00  0.00     0.004 A 
ATOM     10  C   UNL A   1      34.148  24.516  25.722  1.00  0.00     0.018 A 
ATOM     11  C   UNL A   1      35.165  24.432  24.759  1.00  0.00     0.001 A 
BRANCH   7  12
ATOM     12  O   UNL A   1      32.190  21.556  24.812  1.00  0.00    -0.487 OA
BRANCH  12  13
ATOM     13  C   UNL A   1      32.395  20.153  25.105  1.00  0.00     0.290 C 
BRANCH  13  14
ATOM     14  C   UNL A   1      32.583  19.353  23.796  1.00  0.00     0.303 C 
BRANCH  14  15
ATOM     15  N   UNL A   1      32.480  17.895  23.956  1.00  0.00    -0.337 N 
ATOM     16  C   UNL A   1      33.537  17.289  23.133  1.00  0.00     0.332 C 
ATOM     17  C   UNL A   1      32.520  17.580  25.401  1.00  0.00     0.332 C 
ATOM     18  H   UNL A   1      31.600  17.500  23.622  1.00  0.00     0.347 HD
ENDBRANCH  14  15
ENDBRANCH  13  14
ENDBRANCH  12  13
ENDBRANCH   7  12
ENDBRANCH   3   6
ENDBRANCH   1   2
BRANCH   1  19
ATOM     19  C   UNL A   1      32.280  27.395  26.859  1.00  0.00     0.023 C 
BRANCH  19  20
ATOM     20  C   UNL A   1      31.765  28.868  26.970  1.00  0.00     0.023 C 
BRANCH  20  21
ATOM     21  C   UNL A   1      32.454  30.063  26.283  1.00  0.00     0.116 C 
BRANCH  21  22
ATOM     22  N   UNL A   1      32.383  31.364  26.936  1.00  0.00    -0.352 N 
ATOM     23  C   UNL A   1      33.365  32.139  27.521  1.00  0.00     0.251 C 
ATOM     24  H   UNL A   1      31.482  31.758  26.964  1.00  0.00     0.163 HD
ATOM     25  O   UNL A   1      33.098  33.290  27.877  1.00  0.00    -0.269 OA
BRANCH  23  26
ATOM     26  C   UNL A   1      34.707  31.594  27.835  1.00  0.00     0.039 A 
ATOM     27  C   UNL A   1      35.762  32.502  27.982  1.00  0.00     0.014 A 
ATOM     28  C   UNL A   1      34.940  30.232  28.026  1.00  0.00     0.014 A 
ATOM     29  C   UNL A   1      36.997  32.070  28.477  1.00  0.00     0.010 A 
ATOM     30  C   UNL A   1      36.152  29.809  28.582  1.00  0.00     0.010 A 
ATOM     31  C   UNL A   1      37.172  30.732  28.867  1.00  0.00    -0.014 A 
BRANCH  31  32
ATOM     32  C   UNL A   1      38.347  30.318  29.685  1.00  0.00     0.031 A 
ATOM     33  C   UNL A   1      39.342  29.313  29.180  1.00  0.00     0.074 A 
ATOM     34  C   UNL A   1      38.458  30.781  30.949  1.00  0.00     0.049 A 
ATOM     35  N   UNL A   1      40.357  28.766  29.805  1.00  0.00    -0.248 NA
ATOM     36  C   UNL A   1      39.162  28.842  27.800  1.00  0.00     0.031 C 
ATOM     37  C   UNL A   1      37.534  31.721  31.588  1.00  0.00     0.029 A 
ATOM     38  N   UNL A   1      39.383  30.513  31.930  1.00  0.00    -0.354 N 
ATOM     39  C   UNL A   1      40.927  27.880  28.902  1.00  0.00     0.074 A 
ATOM     40  C   UNL A   1      40.121  27.931  27.700  1.00  0.00     0.031 C 
ATOM     41  C   UNL A   1      37.946  31.963  32.842  1.00  0.00     0.029 A 
ATOM     42  C   UNL A   1      39.135  31.163  33.117  1.00  0.00     0.049 A 
ATOM     43  H   UNL A   1      40.152  29.913  31.796  1.00  0.00     0.167 HD
ATOM     44  C   UNL A   1      42.030  27.106  29.056  1.00  0.00     0.037 A 
ATOM     45  C   UNL A   1      39.777  31.111  34.299  1.00  0.00     0.037 A 
ATOM     46  C   UNL A   1      42.843  27.063  30.245  1.00  0.00     0.049 A 
ATOM     47  C   UNL A   1      40.988  30.232  34.446  1.00  0.00     0.074 A 
ATOM     48  C   UNL A   1      44.015  26.357  30.466  1.00  0.00     0.029 A 
ATOM     49  N   UNL A   1      42.567  27.748  31.420  1.00  0.00    -0.354 N 
ATOM     50  N   UNL A   1      41.557  29.453  33.560  1.00  0.00    -0.248 NA
ATOM     51  C   UNL A   1      41.648  30.227  35.760  1.00  0.00     0.031 C 
ATOM     52  C   UNL A   1      44.420  26.577  31.786  1.00  0.00     0.029 A 
ATOM     53  C   UNL A   1      43.531  27.460  32.375  1.00  0.00     0.049 A 
ATOM     54  H   UNL A   1      41.800  28.350  31.556  1.00  0.00     0.167 HD
ATOM     55  C   UNL A   1      42.653  28.887  34.197  1.00  0.00     0.074 A 
ATOM     56  C   UNL A   1      42.680  29.426  35.541  1.00  0.00     0.031 C 
ATOM     57  C   UNL A   1      43.555  28.002  33.710  1.00  0.00     0.037 A 
BRANCH  44  58
ATOM     58  C   UNL A   1      42.431  26.232  27.902  1.00  0.00     0.064 A 
ATOM     59  C   UNL A   1      41.834  24.980  27.687  1.00  0.00     0.173 A 
ATOM     60  C   UNL A   1      43.385  26.671  26.970  1.00  0.00     0.173 A 
ATOM     61  F   UNL A   1      40.920  24.512  28.550  1.00  0.00    -0.203 F 
ATOM     62  C   UNL A   1      42.198  24.189  26.601  1.00  0.00     0.198 A 
ATOM     63  C   UNL A   1      43.725  25.890  25.869  1.00  0.00     0.198 A 
ATOM     64  F   UNL A   1      43.978  27.864  27.121  1.00  0.00    -0.203 F 
ATOM     65  F   UNL A   1      41.647  22.978  26.442  1.00  0.00    -0.200 F 
ATOM     66  C   UNL A   1      43.138  24.647  25.689  1.00  0.00     0.200 A 
ATOM     67  F   UNL A   1      44.621  26.340  24.981  1.00  0.00    -0.200 F 
ATOM     68  F   UNL A   1      43.481  23.887  24.639  1.00  0.00    -0.200 F 
ENDBRANCH  44  58
BRANCH  45  69
ATOM     69  C   UNL A   1      39.295  31.930  35.442  1.00  0.00     0.064 A 
ATOM     70  C   UNL A   1      38.470  31.369  36.429  1.00  0.00     0.173 A 
ATOM     71  C   UNL A   1      39.636  33.284  35.570  1.00  0.00     0.173 A 
ATOM     72  F   UNL A   1      38.097  30.085  36.338  1.00  0.00    -0.203 F 
ATOM     73  C   UNL A   1      37.991  32.137  37.488  1.00  0.00     0.198 A 
ATOM     74  C   UNL A   1      39.179  34.044  36.645  1.00  0.00     0.198 A 
ATOM     75  F   UNL A   1      40.424  33.868  34.655  1.00  0.00    -0.203 F 
ATOM     76  F   UNL A   1      37.166  31.588  38.391  1.00  0.00    -0.200 F 
ATOM     77  C   UNL A   1      38.350  33.472  37.599  1.00  0.00     0.200 A 
ATOM     78  F   UNL A   1      39.540  35.329  36.756  1.00  0.00    -0.200 F 
ATOM     79  F   UNL A   1      37.891  34.209  38.619  1.00  0.00    -0.200 F 
ENDBRANCH  45  69
BRANCH  57  80
ATOM     80  C   UNL A   1      44.669  27.579  34.623  1.00  0.00     0.064 A 
ATOM     81  C   UNL A   1      45.882  28.283  34.681  1.00  0.00     0.173 A 
ATOM     82  C   UNL A   1      44.510  26.475  35.475  1.00  0.00     0.173 A 
ATOM     83  F   UNL A   1      46.091  29.335  33.875  1.00  0.00    -0.203 F 
ATOM     84  C   UNL A   1      46.903  27.882  35.540  1.00  0.00     0.198 A 
ATOM     85  C   UNL A   1      45.521  26.095  36.353  1.00  0.00     0.198 A 
ATOM     86  F   UNL A   1      43.370  25.771  35.463  1.00  0.00    -0.203 F 
ATOM     87  F   UNL A   1      48.069  28.541  35.543  1.00  0.00    -0.200 F 
ATOM     88  C   UNL A   1      46.719  26.794  36.380  1.00  0.00     0.200 A 
ATOM     89  F   UNL A   1      45.337  25.051  37.173  1.00  0.00    -0.200 F 
ATOM     90  F   UNL A   1      47.700  26.414  37.210  1.00  0.00    -0.200 F 
ENDBRANCH  57  80
ENDBRANCH  31  32
ENDBRANCH  23  26
ENDBRANCH  21  22
ENDBRANCH  20  21
ENDBRANCH  19  20
ENDBRANCH   1  19
TORSDOF 15
ENDMDL
MODEL 3
REMARK VINA RESULT:     -11.5      1.340      2.474
REMARK SMILES C[NH+](C)CCOc1ccccc1C(=O)NCCCCNC(=O)c1ccc(-c2c3nc(c(-c4c(F)c(F)c(F)c(F)c4F)c4ccc([nH]4)c(-c4c(F)c(F)c(F)c(F)c4F)c4nc(c(-c5c(F)c(F)c(F)c(F)c5F)c5ccc2[nH]5)C=C4)C=C3)cc1
REMARK SMILES IDX 16 1 15 2 13 3 14 4 12 6 7 7 8 8 9 9 11 10 10 11 6 12 5 13
REMARK SMILES IDX 4 14 2 15 1 16 3 17 17 19 18 20 19 21 20 22 21 23 22 25
REMARK SMILES IDX 23 26 24 27 85 28 25 29 84 30 26 31 27 32 28 33 78 34 29 35
REMARK SMILES IDX 83 36 77 37 79 38 30 39 82 40 76 41 75 42 31 44 63 45 43 46
REMARK SMILES IDX 62 47 44 48 47 49 61 50 80 51 45 52 46 53 60 55 81 56 48 57
REMARK SMILES IDX 32 58 33 59 41 60 34 61 35 62 39 63 42 64 36 65 37 66 40 67
REMARK SMILES IDX 38 68 64 69 65 70 73 71 66 72 67 73 71 74 74 75 68 76 69 77
REMARK SMILES IDX 72 78 70 79 49 80 50 81 58 82 51 83 52 84 56 85 59 86 53 87
REMARK SMILES IDX 54 88 57 89 55 90
REMARK H PARENT 15 5 2 18 20 24 79 43 47 54
REMARK Flexibility Score: inf
ROOT
ATOM      1  C   UNL A   1      31.207  26.783  26.158  1.00  0.00     0.116 C 
ENDROOT
BRANCH   1   2
ATOM      2  N   UNL A   1      31.026  25.503  26.831  1.00  0.00    -0.352 N 
ATOM      3  C   UNL A   1      31.650  24.259  26.630  1.00  0.00     0.255 C 
ATOM      4  O   UNL A   1      31.625  23.478  27.589  1.00  0.00    -0.269 OA
ATOM      5  H   UNL A   1      30.351  25.510  27.548  1.00  0.00     0.163 HD
BRANCH   3   6
ATOM      6  C   UNL A   1      32.151  23.685  25.321  1.00  0.00     0.081 A 
ATOM      7  C   UNL A   1      33.333  22.937  25.060  1.00  0.00     0.132 A 
ATOM      8  C   UNL A   1      33.533  22.331  23.800  1.00  0.00     0.047 A 
ATOM      9  C   UNL A   1      32.532  22.330  22.838  1.00  0.00     0.004 A 
ATOM     10  C   UNL A   1      31.136  23.609  24.344  1.00  0.00     0.018 A 
ATOM     11  C   UNL A   1      31.315  22.927  23.131  1.00  0.00     0.001 A 
BRANCH   7  12
ATOM     12  O   UNL A   1      34.221  22.631  26.062  1.00  0.00    -0.487 OA
BRANCH  12  13
ATOM     13  C   UNL A   1      35.526  23.257  26.026  1.00  0.00     0.290 C 
BRANCH  13  14
ATOM     14  C   UNL A   1      36.622  22.199  25.767  1.00  0.00     0.303 C 
BRANCH  14  15
ATOM     15  N   UNL A   1      37.907  22.483  26.421  1.00  0.00    -0.337 N 
ATOM     16  C   UNL A   1      38.914  21.604  25.810  1.00  0.00     0.332 C 
ATOM     17  C   UNL A   1      38.168  23.936  26.325  1.00  0.00     0.332 C 
ATOM     18  H   UNL A   1      37.921  22.277  27.420  1.00  0.00     0.347 HD
ENDBRANCH  14  15
ENDBRANCH  13  14
ENDBRANCH  12  13
ENDBRANCH   7  12
ENDBRANCH   3   6
ENDBRANCH   1   2
BRANCH   1  19
ATOM     19  C   UNL A   1      32.228  27.826  26.672  1.00  0.00     0.023 C 
BRANCH  19  20
ATOM     20  C   UNL A   1      31.776  29.294  26.964  1.00  0.00     0.023 C 
BRANCH  20  21
ATOM     21  C   UNL A   1      32.396  30.527  26.280  1.00  0.00     0.116 C 
BRANCH  21  22
ATOM     22  N   UNL A   1      32.357  31.799  26.991  1.00  0.00    -0.352 N 
ATOM     23  C   UNL A   1      33.355  32.515  27.623  1.00  0.00     0.251 C 
ATOM     24  H   UNL A   1      31.469  32.221  27.026  1.00  0.00     0.163 HD
ATOM     25  O   UNL A   1      33.120  33.656  28.029  1.00  0.00    -0.269 OA
BRANCH  23  26
ATOM     26  C   UNL A   1      34.674  31.913  27.928  1.00  0.00     0.039 A 
ATOM     27  C   UNL A   1      35.783  32.766  27.986  1.00  0.00     0.014 A 
ATOM     28  C   UNL A   1      34.838  30.554  28.195  1.00  0.00     0.014 A 
ATOM     29  C   UNL A   1      37.008  32.294  28.468  1.00  0.00     0.010 A 
ATOM     30  C   UNL A   1      36.043  30.096  28.738  1.00  0.00     0.010 A 
ATOM     31  C   UNL A   1      37.122  30.974  28.934  1.00  0.00    -0.014 A 
BRANCH  31  32
ATOM     32  C   UNL A   1      38.300  30.542  29.740  1.00  0.00     0.031 A 
ATOM     33  C   UNL A   1      39.294  29.549  29.209  1.00  0.00     0.074 A 
ATOM     34  C   UNL A   1      38.415  30.978  31.012  1.00  0.00     0.049 A 
ATOM     35  N   UNL A   1      40.312  28.990  29.818  1.00  0.00    -0.248 NA
ATOM     36  C   UNL A   1      39.110  29.109  27.820  1.00  0.00     0.031 C 
ATOM     37  C   UNL A   1      37.492  31.902  31.676  1.00  0.00     0.029 A 
ATOM     38  N   UNL A   1      39.343  30.688  31.985  1.00  0.00    -0.354 N 
ATOM     39  C   UNL A   1      40.879  28.124  28.895  1.00  0.00     0.074 A 
ATOM     40  C   UNL A   1      40.069  28.201  27.696  1.00  0.00     0.031 C 
ATOM     41  C   UNL A   1      37.907  32.116  32.933  1.00  0.00     0.029 A 
ATOM     42  C   UNL A   1      39.097  31.311  33.186  1.00  0.00     0.049 A 
ATOM     43  H   UNL A   1      40.111  30.092  31.835  1.00  0.00     0.167 HD
ATOM     44  C   UNL A   1      41.983  27.347  29.027  1.00  0.00     0.037 A 
ATOM     45  C   UNL A   1      39.743  31.234  34.365  1.00  0.00     0.037 A 
ATOM     46  C   UNL A   1      42.799  27.278  30.213  1.00  0.00     0.049 A 
ATOM     47  C   UNL A   1      40.956  30.352  34.489  1.00  0.00     0.074 A 
ATOM     48  C   UNL A   1      43.972  26.569  30.414  1.00  0.00     0.029 A 
ATOM     49  N   UNL A   1      42.527  27.937  31.404  1.00  0.00    -0.354 N 
ATOM     50  N   UNL A   1      41.522  29.593  33.585  1.00  0.00    -0.248 NA
ATOM     51  C   UNL A   1      41.619  30.318  35.801  1.00  0.00     0.031 C 
ATOM     52  C   UNL A   1      44.382  26.759  31.738  1.00  0.00     0.029 A 
ATOM     53  C   UNL A   1      43.494  27.629  32.349  1.00  0.00     0.049 A 
ATOM     54  H   UNL A   1      41.760  28.535  31.555  1.00  0.00     0.167 HD
ATOM     55  C   UNL A   1      42.620  29.014  34.205  1.00  0.00     0.074 A 
ATOM     56  C   UNL A   1      42.651  29.523  35.561  1.00  0.00     0.031 C 
ATOM     57  C   UNL A   1      43.522  28.140  33.696  1.00  0.00     0.037 A 
BRANCH  44  58
ATOM     58  C   UNL A   1      42.381  26.500  27.853  1.00  0.00     0.064 A 
ATOM     59  C   UNL A   1      41.823  25.229  27.642  1.00  0.00     0.173 A 
ATOM     60  C   UNL A   1      43.291  26.982  26.899  1.00  0.00     0.173 A 
ATOM     61  F   UNL A   1      40.951  24.720  28.526  1.00  0.00    -0.203 F 
ATOM     62  C   UNL A   1      42.183  24.462  26.538  1.00  0.00     0.198 A 
ATOM     63  C   UNL A   1      43.627  26.224  25.781  1.00  0.00     0.198 A 
ATOM     64  F   UNL A   1      43.846  28.194  27.046  1.00  0.00    -0.203 F 
ATOM     65  F   UNL A   1      41.670  23.234  26.381  1.00  0.00    -0.200 F 
ATOM     66  C   UNL A   1      43.080  24.962  25.604  1.00  0.00     0.200 A 
ATOM     67  F   UNL A   1      44.480  26.715  24.872  1.00  0.00    -0.200 F 
ATOM     68  F   UNL A   1      43.418  24.226  24.537  1.00  0.00    -0.200 F 
ENDBRANCH  44  58
BRANCH  45  69
ATOM     69  C   UNL A   1      39.264  32.026  35.528  1.00  0.00     0.064 A 
ATOM     70  C   UNL A   1      39.670  33.357  35.705  1.00  0.00     0.173 A 
ATOM     71  C   UNL A   1      38.403  31.474  36.487  1.00  0.00     0.173 A 
ATOM     72  F   UNL A   1      40.512  33.921  34.828  1.00  0.00    -0.203 F 
ATOM     73  C   UNL A   1      39.248  34.097  36.807  1.00  0.00     0.198 A 
ATOM     74  C   UNL A   1      37.959  32.225  37.574  1.00  0.00     0.198 A 
ATOM     75  F   UNL A   1      37.982  30.207  36.362  1.00  0.00    -0.203 F 
ATOM     76  F   UNL A   1      39.690  35.352  36.977  1.00  0.00    -0.200 F 
ATOM     77  C   UNL A   1      38.389  33.534  37.738  1.00  0.00     0.200 A 
ATOM     78  F   UNL A   1      37.116  31.681  38.462  1.00  0.00    -0.200 F 
ATOM     79  F   UNL A   1      37.981  34.247  38.795  1.00  0.00    -0.200 F 
ENDBRANCH  45  69
BRANCH  57  80
ATOM     80  C   UNL A   1      44.638  27.699  34.596  1.00  0.00     0.064 A 
ATOM     81  C   UNL A   1      44.535  26.544  35.386  1.00  0.00     0.173 A 
ATOM     82  C   UNL A   1      45.840  28.422  34.646  1.00  0.00     0.173 A 
ATOM     83  F   UNL A   1      43.401  25.827  35.389  1.00  0.00    -0.203 F 
ATOM     84  C   UNL A   1      45.584  26.144  36.211  1.00  0.00     0.198 A 
ATOM     85  C   UNL A   1      46.897  28.003  35.449  1.00  0.00     0.198 A 
ATOM     86  F   UNL A   1      45.992  29.531  33.908  1.00  0.00    -0.203 F 
ATOM     87  F   UNL A   1      45.445  25.064  36.992  1.00  0.00    -0.200 F 
ATOM     88  C   UNL A   1      46.767  26.869  36.236  1.00  0.00     0.200 A 
ATOM     89  F   UNL A   1      48.043  28.698  35.462  1.00  0.00    -0.200 F 
ATOM     90  F   UNL A   1      47.776  26.478  37.025  1.00  0.00    -0.200 F 
ENDBRANCH  57  80
ENDBRANCH  31  32
ENDBRANCH  23  26
ENDBRANCH  21  22
ENDBRANCH  20  21
ENDBRANCH  19  20
ENDBRANCH   1  19
TORSDOF 15
ENDMDL
