MODEL 1
REMARK VINA RESULT:     -13.3      0.000      0.000
REMARK SMILES Cc1cc(C[N@H+]2CC[C@](C)(C(=O)NCCCCNC(=O)c3ccc(-c4c5nc(c(-c6c(F)c(F)c(F)c(F)c6F)c6ccc([nH]6)c(-c6c(F)c(F)c(F)c(F)c6F)c6nc(c(-c7c(F)c(F)c(F)c(F)c7F)c7ccc4[nH]7)C=C6)C=C5)cc3)C2)c2ccccc2n1
REMARK SMILES IDX 15 1 14 2 13 3 11 4 12 5 9 7 6 8 7 9 84 10 8 12 10 13 5 14
REMARK SMILES IDX 4 15 1 16 2 17 3 18 91 19 90 20 85 21 89 22 86 23 88 24
REMARK SMILES IDX 87 25 16 26 17 27 18 28 19 29 20 31 21 32 22 33 83 34 23 35
REMARK SMILES IDX 82 36 24 37 25 38 26 39 76 40 27 41 81 42 75 43 77 44 28 45
REMARK SMILES IDX 80 46 74 47 73 48 29 50 61 51 41 52 60 53 42 54 45 55 59 56
REMARK SMILES IDX 78 57 43 58 44 59 58 61 79 62 46 63 30 64 31 65 39 66 32 67
REMARK SMILES IDX 33 68 37 69 40 70 34 71 35 72 38 73 36 74 62 75 63 76 71 77
REMARK SMILES IDX 64 78 65 79 69 80 72 81 66 82 67 83 70 84 68 85 47 86 48 87
REMARK SMILES IDX 56 88 49 89 50 90 54 91 57 92 51 93 52 94 55 95 53 96
REMARK H PARENT 13 6 6 11 18 30 77 49 45 60
REMARK Flexibility Score: inf
ROOT
ATOM      1  C   UNL A   1      32.011  30.182  26.706  1.00  0.00     0.023 C 
ENDROOT
BRANCH   1   2
ATOM      2  C   UNL A   1      31.604  29.474  25.416  1.00  0.00     0.116 C 
BRANCH   2   3
ATOM      3  N   UNL A   1      32.587  29.604  24.349  1.00  0.00    -0.355 N 
ATOM      4  C   UNL A   1      33.245  28.658  23.607  1.00  0.00     0.231 C 
ATOM      5  O   UNL A   1      33.962  29.059  22.687  1.00  0.00    -0.274 OA
ATOM      6  H   UNL A   1      32.818  30.533  24.121  1.00  0.00     0.163 HD
BRANCH   4   7
ATOM      7  C   UNL A   1      33.076  27.165  23.907  1.00  0.00     0.100 C 
ATOM      8  N   UNL A   1      32.633  25.190  22.578  1.00  0.00    -0.330 N 
ATOM      9  C   UNL A   1      31.675  25.220  23.674  1.00  0.00     0.263 C 
ATOM     10  C   UNL A   1      33.489  26.364  22.669  1.00  0.00     0.279 C 
ATOM     11  H   UNL A   1      32.080  25.247  21.722  1.00  0.00     0.348 HD
ATOM     12  C   UNL A   1      31.612  26.707  24.042  1.00  0.00     0.084 C 
ATOM     13  C   UNL A   1      33.805  26.802  25.217  1.00  0.00     0.028 C 
BRANCH   8  14
ATOM     14  C   UNL A   1      33.270  23.925  22.210  1.00  0.00     0.299 C 
BRANCH  14  15
ATOM     15  C   UNL A   1      34.042  23.208  23.306  1.00  0.00     0.017 A 
ATOM     16  C   UNL A   1      37.195  23.816  25.318  1.00  0.00     0.067 C 
ATOM     17  C   UNL A   1      36.013  23.149  24.684  1.00  0.00     0.038 A 
ATOM     18  C   UNL A   1      35.203  23.827  23.789  1.00  0.00     0.033 A 
ATOM     19  N   UNL A   1      35.785  21.866  25.034  1.00  0.00    -0.253 NA
ATOM     20  C   UNL A   1      34.663  21.269  24.605  1.00  0.00     0.071 A 
ATOM     21  C   UNL A   1      33.695  21.929  23.818  1.00  0.00     0.009 A 
ATOM     22  C   UNL A   1      34.453  19.941  24.957  1.00  0.00     0.029 A 
ATOM     23  C   UNL A   1      32.460  21.268  23.600  1.00  0.00     0.011 A 
ATOM     24  C   UNL A   1      33.279  19.262  24.628  1.00  0.00     0.002 A 
ATOM     25  C   UNL A   1      32.260  19.941  23.982  1.00  0.00     0.001 A 
ENDBRANCH  14  15
ENDBRANCH   8  14
ENDBRANCH   4   7
ENDBRANCH   2   3
ENDBRANCH   1   2
BRANCH   1  26
ATOM     26  C   UNL A   1      31.742  31.683  26.728  1.00  0.00     0.023 C 
BRANCH  26  27
ATOM     27  C   UNL A   1      32.877  32.539  27.275  1.00  0.00     0.116 C 
BRANCH  27  28
ATOM     28  N   UNL A   1      32.486  33.908  27.580  1.00  0.00    -0.352 N 
ATOM     29  C   UNL A   1      33.015  34.765  28.521  1.00  0.00     0.251 C 
ATOM     30  H   UNL A   1      31.745  34.270  27.042  1.00  0.00     0.163 HD
ATOM     31  O   UNL A   1      32.508  35.858  28.721  1.00  0.00    -0.269 OA
BRANCH  29  32
ATOM     32  C   UNL A   1      34.182  34.328  29.320  1.00  0.00     0.039 A 
ATOM     33  C   UNL A   1      33.964  33.716  30.557  1.00  0.00     0.014 A 
ATOM     34  C   UNL A   1      35.480  34.477  28.826  1.00  0.00     0.014 A 
ATOM     35  C   UNL A   1      35.045  33.181  31.262  1.00  0.00     0.010 A 
ATOM     36  C   UNL A   1      36.541  33.870  29.487  1.00  0.00     0.010 A 
ATOM     37  C   UNL A   1      36.336  33.216  30.711  1.00  0.00    -0.014 A 
BRANCH  37  38
ATOM     38  C   UNL A   1      37.490  32.582  31.398  1.00  0.00     0.031 A 
ATOM     39  C   UNL A   1      38.212  31.434  30.750  1.00  0.00     0.074 A 
ATOM     40  C   UNL A   1      37.836  32.983  32.636  1.00  0.00     0.049 A 
ATOM     41  N   UNL A   1      39.193  30.702  31.214  1.00  0.00    -0.248 NA
ATOM     42  C   UNL A   1      37.746  31.035  29.413  1.00  0.00     0.031 C 
ATOM     43  C   UNL A   1      37.185  34.053  33.393  1.00  0.00     0.029 A 
ATOM     44  N   UNL A   1      38.823  32.533  33.478  1.00  0.00    -0.354 N 
ATOM     45  C   UNL A   1      39.445  29.748  30.237  1.00  0.00     0.074 A 
ATOM     46  C   UNL A   1      38.476  29.954  29.184  1.00  0.00     0.031 C 
ATOM     47  C   UNL A   1      37.812  34.202  34.571  1.00  0.00     0.029 A 
ATOM     48  C   UNL A   1      38.882  33.214  34.669  1.00  0.00     0.049 A 
ATOM     49  H   UNL A   1      39.429  31.793  33.249  1.00  0.00     0.167 HD
ATOM     50  C   UNL A   1      40.413  28.800  30.210  1.00  0.00     0.037 A 
ATOM     51  C   UNL A   1      39.710  33.058  35.720  1.00  0.00     0.037 A 
ATOM     52  C   UNL A   1      41.394  28.616  31.247  1.00  0.00     0.049 A 
ATOM     53  C   UNL A   1      40.768  31.990  35.672  1.00  0.00     0.074 A 
ATOM     54  C   UNL A   1      42.460  27.735  31.281  1.00  0.00     0.029 A 
ATOM     55  N   UNL A   1      41.424  29.326  32.438  1.00  0.00    -0.354 N 
ATOM     56  N   UNL A   1      41.047  31.143  34.712  1.00  0.00    -0.248 NA
ATOM     57  C   UNL A   1      41.628  31.860  36.857  1.00  0.00     0.031 C 
ATOM     58  C   UNL A   1      43.105  27.876  32.515  1.00  0.00     0.029 A 
ATOM     59  C   UNL A   1      42.473  28.884  33.228  1.00  0.00     0.049 A 
ATOM     60  H   UNL A   1      40.791  30.038  32.687  1.00  0.00     0.167 HD
ATOM     61  C   UNL A   1      42.135  30.405  35.159  1.00  0.00     0.074 A 
ATOM     62  C   UNL A   1      42.469  30.909  36.474  1.00  0.00     0.031 C 
ATOM     63  C   UNL A   1      42.800  29.403  34.532  1.00  0.00     0.037 A 
BRANCH  50  64
ATOM     64  C   UNL A   1      40.449  27.890  29.015  1.00  0.00     0.064 A 
ATOM     65  C   UNL A   1      41.219  28.190  27.879  1.00  0.00     0.173 A 
ATOM     66  C   UNL A   1      39.700  26.703  29.001  1.00  0.00     0.173 A 
ATOM     67  F   UNL A   1      41.944  29.318  27.835  1.00  0.00    -0.203 F 
ATOM     68  C   UNL A   1      41.201  27.362  26.760  1.00  0.00     0.198 A 
ATOM     69  C   UNL A   1      39.713  25.860  27.894  1.00  0.00     0.198 A 
ATOM     70  F   UNL A   1      38.952  26.363  30.062  1.00  0.00    -0.203 F 
ATOM     71  F   UNL A   1      41.890  27.707  25.663  1.00  0.00    -0.200 F 
ATOM     72  C   UNL A   1      40.452  26.195  26.770  1.00  0.00     0.200 A 
ATOM     73  F   UNL A   1      38.998  24.725  27.909  1.00  0.00    -0.200 F 
ATOM     74  F   UNL A   1      40.433  25.402  25.691  1.00  0.00    -0.200 F 
ENDBRANCH  50  64
BRANCH  51  75
ATOM     75  C   UNL A   1      39.606  33.973  36.886  1.00  0.00     0.064 A 
ATOM     76  C   UNL A   1      38.844  33.612  38.007  1.00  0.00     0.173 A 
ATOM     77  C   UNL A   1      40.260  35.213  36.912  1.00  0.00     0.173 A 
ATOM     78  F   UNL A   1      38.183  32.446  38.018  1.00  0.00    -0.203 F 
ATOM     79  C   UNL A   1      38.731  34.462  39.105  1.00  0.00     0.198 A 
ATOM     80  C   UNL A   1      40.166  36.051  38.022  1.00  0.00     0.198 A 
ATOM     81  F   UNL A   1      41.003  35.603  35.866  1.00  0.00    -0.203 F 
ATOM     82  F   UNL A   1      37.967  34.108  40.147  1.00  0.00    -0.200 F 
ATOM     83  C   UNL A   1      39.397  35.678  39.114  1.00  0.00     0.200 A 
ATOM     84  F   UNL A   1      40.822  37.219  38.033  1.00  0.00    -0.200 F 
ATOM     85  F   UNL A   1      39.294  36.493  40.173  1.00  0.00    -0.200 F 
ENDBRANCH  51  75
BRANCH  63  86
ATOM     86  C   UNL A   1      43.984  28.813  35.242  1.00  0.00     0.064 A 
ATOM     87  C   UNL A   1      45.282  29.310  35.056  1.00  0.00     0.173 A 
ATOM     88  C   UNL A   1      43.810  27.756  36.149  1.00  0.00     0.173 A 
ATOM     89  F   UNL A   1      45.503  30.309  34.187  1.00  0.00    -0.203 F 
ATOM     90  C   UNL A   1      46.365  28.756  35.733  1.00  0.00     0.198 A 
ATOM     91  C   UNL A   1      44.890  27.226  36.848  1.00  0.00     0.198 A 
ATOM     92  F   UNL A   1      42.589  27.247  36.367  1.00  0.00    -0.203 F 
ATOM     93  F   UNL A   1      47.603  29.216  35.503  1.00  0.00    -0.200 F 
ATOM     94  C   UNL A   1      46.167  27.720  36.633  1.00  0.00     0.200 A 
ATOM     95  F   UNL A   1      44.696  26.232  37.727  1.00  0.00    -0.200 F 
ATOM     96  F   UNL A   1      47.210  27.192  37.289  1.00  0.00    -0.200 F 
ENDBRANCH  63  86
ENDBRANCH  37  38
ENDBRANCH  29  32
ENDBRANCH  27  28
ENDBRANCH  26  27
ENDBRANCH   1  26
TORSDOF 13
ENDMDL
MODEL 2
REMARK VINA RESULT:     -13.3      5.629     11.141
REMARK SMILES Cc1cc(C[N@H+]2CC[C@](C)(C(=O)NCCCCNC(=O)c3ccc(-c4c5nc(c(-c6c(F)c(F)c(F)c(F)c6F)c6ccc([nH]6)c(-c6c(F)c(F)c(F)c(F)c6F)c6nc(c(-c7c(F)c(F)c(F)c(F)c7F)c7ccc4[nH]7)C=C6)C=C5)cc3)C2)c2ccccc2n1
REMARK SMILES IDX 15 1 14 2 13 3 11 4 12 5 9 7 6 8 7 9 84 10 8 12 10 13 5 14
REMARK SMILES IDX 4 15 1 16 2 17 3 18 91 19 90 20 85 21 89 22 86 23 88 24
REMARK SMILES IDX 87 25 16 26 17 27 18 28 19 29 20 31 21 32 22 33 83 34 23 35
REMARK SMILES IDX 82 36 24 37 25 38 26 39 76 40 27 41 81 42 75 43 77 44 28 45
REMARK SMILES IDX 80 46 74 47 73 48 29 50 61 51 41 52 60 53 42 54 45 55 59 56
REMARK SMILES IDX 78 57 43 58 44 59 58 61 79 62 46 63 30 64 31 65 39 66 32 67
REMARK SMILES IDX 33 68 37 69 40 70 34 71 35 72 38 73 36 74 62 75 63 76 71 77
REMARK SMILES IDX 64 78 65 79 69 80 72 81 66 82 67 83 70 84 68 85 47 86 48 87
REMARK SMILES IDX 56 88 49 89 50 90 54 91 57 92 51 93 52 94 55 95 53 96
REMARK H PARENT 13 6 6 11 18 30 77 49 45 60
REMARK Flexibility Score: inf
ROOT
ATOM      1  C   UNL A   1      37.320  21.397  24.729  1.00  0.00     0.023 C 
ENDROOT
BRANCH   1   2
ATOM      2  C   UNL A   1      35.807  21.190  24.704  1.00  0.00     0.116 C 
BRANCH   2   3
ATOM      3  N   UNL A   1      35.214  21.083  26.029  1.00  0.00    -0.355 N 
ATOM      4  C   UNL A   1      34.227  21.812  26.639  1.00  0.00     0.231 C 
ATOM      5  O   UNL A   1      33.849  21.433  27.750  1.00  0.00    -0.274 OA
ATOM      6  H   UNL A   1      35.589  20.361  26.584  1.00  0.00     0.163 HD
BRANCH   4   7
ATOM      7  C   UNL A   1      33.614  23.035  25.951  1.00  0.00     0.100 C 
ATOM      8  N   UNL A   1      31.373  23.924  25.714  1.00  0.00    -0.330 N 
ATOM      9  C   UNL A   1      31.968  23.840  24.387  1.00  0.00     0.263 C 
ATOM     10  C   UNL A   1      32.330  23.424  26.690  1.00  0.00     0.279 C 
ATOM     11  H   UNL A   1      30.562  23.304  25.694  1.00  0.00     0.348 HD
ATOM     12  C   UNL A   1      33.037  22.754  24.552  1.00  0.00     0.084 C 
ATOM     13  C   UNL A   1      34.671  24.149  25.808  1.00  0.00     0.028 C 
BRANCH   8  14
ATOM     14  C   UNL A   1      30.596  25.106  26.083  1.00  0.00     0.299 C 
BRANCH  14  15
ATOM     15  C   UNL A   1      31.203  26.456  25.737  1.00  0.00     0.017 A 
ATOM     16  C   UNL A   1      34.085  28.588  26.968  1.00  0.00     0.067 C 
ATOM     17  C   UNL A   1      32.822  28.147  26.292  1.00  0.00     0.038 A 
ATOM     18  C   UNL A   1      32.321  26.869  26.475  1.00  0.00     0.033 A 
ATOM     19  N   UNL A   1      32.211  29.055  25.503  1.00  0.00    -0.253 NA
ATOM     20  C   UNL A   1      31.159  28.668  24.767  1.00  0.00     0.071 A 
ATOM     21  C   UNL A   1      30.671  27.344  24.764  1.00  0.00     0.009 A 
ATOM     22  C   UNL A   1      30.529  29.620  23.975  1.00  0.00     0.029 A 
ATOM     23  C   UNL A   1      29.692  27.005  23.796  1.00  0.00     0.011 A 
ATOM     24  C   UNL A   1      29.480  29.294  23.115  1.00  0.00     0.002 A 
ATOM     25  C   UNL A   1      29.087  27.972  22.993  1.00  0.00     0.001 A 
ENDBRANCH  14  15
ENDBRANCH   8  14
ENDBRANCH   4   7
ENDBRANCH   2   3
ENDBRANCH   1   2
BRANCH   1  26
ATOM     26  C   UNL A   1      38.137  20.134  24.985  1.00  0.00     0.023 C 
BRANCH  26  27
ATOM     27  C   UNL A   1      39.297  20.296  25.958  1.00  0.00     0.116 C 
BRANCH  27  28
ATOM     28  N   UNL A   1      40.245  19.192  25.932  1.00  0.00    -0.352 N 
ATOM     29  C   UNL A   1      41.614  19.229  26.085  1.00  0.00     0.251 C 
ATOM     30  H   UNL A   1      39.856  18.299  25.786  1.00  0.00     0.163 HD
ATOM     31  O   UNL A   1      42.283  18.217  25.940  1.00  0.00    -0.269 OA
BRANCH  29  32
ATOM     32  C   UNL A   1      42.272  20.520  26.385  1.00  0.00     0.039 A 
ATOM     33  C   UNL A   1      42.743  21.301  25.326  1.00  0.00     0.014 A 
ATOM     34  C   UNL A   1      42.378  20.977  27.700  1.00  0.00     0.014 A 
ATOM     35  C   UNL A   1      43.247  22.578  25.583  1.00  0.00     0.010 A 
ATOM     36  C   UNL A   1      42.799  22.279  27.944  1.00  0.00     0.010 A 
ATOM     37  C   UNL A   1      43.239  23.093  26.890  1.00  0.00    -0.014 A 
BRANCH  37  38
ATOM     38  C   UNL A   1      43.690  24.478  27.180  1.00  0.00     0.031 A 
ATOM     39  C   UNL A   1      42.709  25.497  27.691  1.00  0.00     0.074 A 
ATOM     40  C   UNL A   1      44.959  24.840  26.910  1.00  0.00     0.049 A 
ATOM     41  N   UNL A   1      42.887  26.770  27.937  1.00  0.00    -0.248 NA
ATOM     42  C   UNL A   1      41.335  25.026  27.924  1.00  0.00     0.031 C 
ATOM     43  C   UNL A   1      45.994  23.960  26.369  1.00  0.00     0.029 A 
ATOM     44  N   UNL A   1      45.592  26.050  27.053  1.00  0.00    -0.354 N 
ATOM     45  C   UNL A   1      41.647  27.253  28.333  1.00  0.00     0.074 A 
ATOM     46  C   UNL A   1      40.713  26.153  28.235  1.00  0.00     0.031 C 
ATOM     47  C   UNL A   1      47.142  24.647  26.259  1.00  0.00     0.029 A 
ATOM     48  C   UNL A   1      46.914  26.025  26.684  1.00  0.00     0.049 A 
ATOM     49  H   UNL A   1      45.140  26.858  27.386  1.00  0.00     0.167 HD
ATOM     50  C   UNL A   1      41.321  28.496  28.763  1.00  0.00     0.037 A 
ATOM     51  C   UNL A   1      47.839  27.005  26.693  1.00  0.00     0.037 A 
ATOM     52  C   UNL A   1      42.259  29.581  28.886  1.00  0.00     0.049 A 
ATOM     53  C   UNL A   1      47.450  28.380  27.161  1.00  0.00     0.074 A 
ATOM     54  C   UNL A   1      42.046  30.856  29.379  1.00  0.00     0.029 A 
ATOM     55  N   UNL A   1      43.591  29.517  28.505  1.00  0.00    -0.354 N 
ATOM     56  N   UNL A   1      46.294  28.808  27.605  1.00  0.00    -0.248 NA
ATOM     57  C   UNL A   1      48.499  29.409  27.129  1.00  0.00     0.031 C 
ATOM     58  C   UNL A   1      43.237  31.579  29.250  1.00  0.00     0.029 A 
ATOM     59  C   UNL A   1      44.207  30.739  28.726  1.00  0.00     0.049 A 
ATOM     60  H   UNL A   1      44.034  28.722  28.131  1.00  0.00     0.167 HD
ATOM     61  C   UNL A   1      46.483  30.142  27.941  1.00  0.00     0.074 A 
ATOM     62  C   UNL A   1      47.869  30.451  27.654  1.00  0.00     0.031 C 
ATOM     63  C   UNL A   1      45.590  31.029  28.445  1.00  0.00     0.037 A 
BRANCH  50  64
ATOM     64  C   UNL A   1      39.884  28.741  29.127  1.00  0.00     0.064 A 
ATOM     65  C   UNL A   1      38.966  29.264  28.202  1.00  0.00     0.173 A 
ATOM     66  C   UNL A   1      39.419  28.454  30.419  1.00  0.00     0.173 A 
ATOM     67  F   UNL A   1      39.361  29.568  26.956  1.00  0.00    -0.203 F 
ATOM     68  C   UNL A   1      37.650  29.534  28.570  1.00  0.00     0.198 A 
ATOM     69  C   UNL A   1      38.093  28.692  30.773  1.00  0.00     0.198 A 
ATOM     70  F   UNL A   1      40.251  27.947  31.341  1.00  0.00    -0.203 F 
ATOM     71  F   UNL A   1      36.812  30.098  27.689  1.00  0.00    -0.200 F 
ATOM     72  C   UNL A   1      37.213  29.243  29.854  1.00  0.00     0.200 A 
ATOM     73  F   UNL A   1      37.669  28.399  32.011  1.00  0.00    -0.200 F 
ATOM     74  F   UNL A   1      35.949  29.506  30.208  1.00  0.00    -0.200 F 
ENDBRANCH  50  64
BRANCH  51  75
ATOM     75  C   UNL A   1      49.238  26.705  26.294  1.00  0.00     0.064 A 
ATOM     76  C   UNL A   1      49.659  26.905  24.971  1.00  0.00     0.173 A 
ATOM     77  C   UNL A   1      50.180  26.222  27.213  1.00  0.00     0.173 A 
ATOM     78  F   UNL A   1      48.787  27.345  24.052  1.00  0.00    -0.203 F 
ATOM     79  C   UNL A   1      50.965  26.623  24.580  1.00  0.00     0.198 A 
ATOM     80  C   UNL A   1      51.495  25.964  26.826  1.00  0.00     0.198 A 
ATOM     81  F   UNL A   1      49.829  26.016  28.490  1.00  0.00    -0.203 F 
ATOM     82  F   UNL A   1      51.331  26.789  23.301  1.00  0.00    -0.200 F 
ATOM     83  C   UNL A   1      51.884  26.158  25.509  1.00  0.00     0.200 A 
ATOM     84  F   UNL A   1      52.383  25.528  27.728  1.00  0.00    -0.200 F 
ATOM     85  F   UNL A   1      53.143  25.893  25.134  1.00  0.00    -0.200 F 
ENDBRANCH  51  75
BRANCH  63  86
ATOM     86  C   UNL A   1      46.093  32.407  28.762  1.00  0.00     0.064 A 
ATOM     87  C   UNL A   1      46.655  32.722  30.008  1.00  0.00     0.173 A 
ATOM     88  C   UNL A   1      46.043  33.419  27.790  1.00  0.00     0.173 A 
ATOM     89  F   UNL A   1      46.712  31.794  30.977  1.00  0.00    -0.203 F 
ATOM     90  C   UNL A   1      47.127  34.004  30.277  1.00  0.00     0.198 A 
ATOM     91  C   UNL A   1      46.544  34.691  28.053  1.00  0.00     0.198 A 
ATOM     92  F   UNL A   1      45.520  33.169  26.581  1.00  0.00    -0.203 F 
ATOM     93  F   UNL A   1      47.616  34.294  31.492  1.00  0.00    -0.200 F 
ATOM     94  C   UNL A   1      47.078  34.984  29.298  1.00  0.00     0.200 A 
ATOM     95  F   UNL A   1      46.507  35.633  27.101  1.00  0.00    -0.200 F 
ATOM     96  F   UNL A   1      47.538  36.216  29.557  1.00  0.00    -0.200 F 
ENDBRANCH  63  86
ENDBRANCH  37  38
ENDBRANCH  29  32
ENDBRANCH  27  28
ENDBRANCH  26  27
ENDBRANCH   1  26
TORSDOF 13
ENDMDL
MODEL 3
REMARK VINA RESULT:     -13.2      0.097      1.578
REMARK SMILES Cc1cc(C[N@H+]2CC[C@](C)(C(=O)NCCCCNC(=O)c3ccc(-c4c5nc(c(-c6c(F)c(F)c(F)c(F)c6F)c6ccc([nH]6)c(-c6c(F)c(F)c(F)c(F)c6F)c6nc(c(-c7c(F)c(F)c(F)c(F)c7F)c7ccc4[nH]7)C=C6)C=C5)cc3)C2)c2ccccc2n1
REMARK SMILES IDX 15 1 14 2 13 3 11 4 12 5 9 7 6 8 7 9 84 10 8 12 10 13 5 14
REMARK SMILES IDX 4 15 1 16 2 17 3 18 91 19 90 20 85 21 89 22 86 23 88 24
REMARK SMILES IDX 87 25 16 26 17 27 18 28 19 29 20 31 21 32 22 33 83 34 23 35
REMARK SMILES IDX 82 36 24 37 25 38 26 39 76 40 27 41 81 42 75 43 77 44 28 45
REMARK SMILES IDX 80 46 74 47 73 48 29 50 61 51 41 52 60 53 42 54 45 55 59 56
REMARK SMILES IDX 78 57 43 58 44 59 58 61 79 62 46 63 30 64 31 65 39 66 32 67
REMARK SMILES IDX 33 68 37 69 40 70 34 71 35 72 38 73 36 74 62 75 63 76 71 77
REMARK SMILES IDX 64 78 65 79 69 80 72 81 66 82 67 83 70 84 68 85 47 86 48 87
REMARK SMILES IDX 56 88 49 89 50 90 54 91 57 92 51 93 52 94 55 95 53 96
REMARK H PARENT 13 6 6 11 18 30 77 49 45 60
REMARK Flexibility Score: inf
ROOT
ATOM      1  C   UNL A   1      32.101  30.200  26.626  1.00  0.00     0.023 C 
ENDROOT
BRANCH   1   2
ATOM      2  C   UNL A   1      31.723  29.588  25.279  1.00  0.00     0.116 C 
BRANCH   2   3
ATOM      3  N   UNL A   1      32.791  29.655  24.292  1.00  0.00    -0.355 N 
ATOM      4  C   UNL A   1      33.442  28.669  23.597  1.00  0.00     0.231 C 
ATOM      5  O   UNL A   1      34.252  29.025  22.737  1.00  0.00    -0.274 OA
ATOM      6  H   UNL A   1      33.099  30.568  24.089  1.00  0.00     0.163 HD
BRANCH   4   7
ATOM      7  C   UNL A   1      33.154  27.191  23.872  1.00  0.00     0.100 C 
ATOM      8  N   UNL A   1      32.702  25.248  22.499  1.00  0.00    -0.330 N 
ATOM      9  C   UNL A   1      31.658  25.339  23.510  1.00  0.00     0.263 C 
ATOM     10  C   UNL A   1      33.619  26.365  22.669  1.00  0.00     0.279 C 
ATOM     11  H   UNL A   1      32.228  25.340  21.600  1.00  0.00     0.348 HD
ATOM     12  C   UNL A   1      31.658  26.827  23.880  1.00  0.00     0.084 C 
ATOM     13  C   UNL A   1      33.744  26.781  25.237  1.00  0.00     0.028 C 
BRANCH   8  14
ATOM     14  C   UNL A   1      33.286  23.946  22.180  1.00  0.00     0.299 C 
BRANCH  14  15
ATOM     15  C   UNL A   1      34.001  23.225  23.310  1.00  0.00     0.017 A 
ATOM     16  C   UNL A   1      37.009  23.856  25.528  1.00  0.00     0.067 C 
ATOM     17  C   UNL A   1      35.882  23.178  24.810  1.00  0.00     0.038 A 
ATOM     18  C   UNL A   1      35.117  23.856  23.876  1.00  0.00     0.033 A 
ATOM     19  N   UNL A   1      35.657  21.885  25.124  1.00  0.00    -0.253 NA
ATOM     20  C   UNL A   1      34.576  21.275  24.615  1.00  0.00     0.071 A 
ATOM     21  C   UNL A   1      33.647  21.930  23.779  1.00  0.00     0.009 A 
ATOM     22  C   UNL A   1      34.370  19.938  24.933  1.00  0.00     0.029 A 
ATOM     23  C   UNL A   1      32.441  21.251  23.473  1.00  0.00     0.011 A 
ATOM     24  C   UNL A   1      33.232  19.243  24.519  1.00  0.00     0.002 A 
ATOM     25  C   UNL A   1      32.243  19.914  23.821  1.00  0.00     0.001 A 
ENDBRANCH  14  15
ENDBRANCH   8  14
ENDBRANCH   4   7
ENDBRANCH   2   3
ENDBRANCH   1   2
BRANCH   1  26
ATOM     26  C   UNL A   1      31.769  31.682  26.775  1.00  0.00     0.023 C 
BRANCH  26  27
ATOM     27  C   UNL A   1      32.911  32.556  27.277  1.00  0.00     0.116 C 
BRANCH  27  28
ATOM     28  N   UNL A   1      32.510  33.919  27.596  1.00  0.00    -0.352 N 
ATOM     29  C   UNL A   1      33.033  34.769  28.547  1.00  0.00     0.251 C 
ATOM     30  H   UNL A   1      31.768  34.282  27.061  1.00  0.00     0.163 HD
ATOM     31  O   UNL A   1      32.518  35.856  28.757  1.00  0.00    -0.269 OA
BRANCH  29  32
ATOM     32  C   UNL A   1      34.201  34.331  29.343  1.00  0.00     0.039 A 
ATOM     33  C   UNL A   1      33.985  33.725  30.584  1.00  0.00     0.014 A 
ATOM     34  C   UNL A   1      35.497  34.474  28.844  1.00  0.00     0.014 A 
ATOM     35  C   UNL A   1      35.067  33.189  31.287  1.00  0.00     0.010 A 
ATOM     36  C   UNL A   1      36.559  33.865  29.503  1.00  0.00     0.010 A 
ATOM     37  C   UNL A   1      36.357  33.217  30.730  1.00  0.00    -0.014 A 
BRANCH  37  38
ATOM     38  C   UNL A   1      37.510  32.581  31.416  1.00  0.00     0.031 A 
ATOM     39  C   UNL A   1      38.235  31.437  30.764  1.00  0.00     0.074 A 
ATOM     40  C   UNL A   1      37.856  32.979  32.656  1.00  0.00     0.049 A 
ATOM     41  N   UNL A   1      39.217  30.705  31.225  1.00  0.00    -0.248 NA
ATOM     42  C   UNL A   1      37.771  31.044  29.424  1.00  0.00     0.031 C 
ATOM     43  C   UNL A   1      37.202  34.044  33.416  1.00  0.00     0.029 A 
ATOM     44  N   UNL A   1      38.842  32.526  33.496  1.00  0.00    -0.354 N 
ATOM     45  C   UNL A   1      39.471  29.755  30.245  1.00  0.00     0.074 A 
ATOM     46  C   UNL A   1      38.502  29.964  29.191  1.00  0.00     0.031 C 
ATOM     47  C   UNL A   1      37.828  34.189  34.595  1.00  0.00     0.029 A 
ATOM     48  C   UNL A   1      38.900  33.202  34.690  1.00  0.00     0.049 A 
ATOM     49  H   UNL A   1      39.450  31.788  33.265  1.00  0.00     0.167 HD
ATOM     50  C   UNL A   1      40.440  28.809  30.213  1.00  0.00     0.037 A 
ATOM     51  C   UNL A   1      39.727  33.043  35.741  1.00  0.00     0.037 A 
ATOM     52  C   UNL A   1      41.420  28.622  31.250  1.00  0.00     0.049 A 
ATOM     53  C   UNL A   1      40.786  31.977  35.690  1.00  0.00     0.074 A 
ATOM     54  C   UNL A   1      42.488  27.742  31.282  1.00  0.00     0.029 A 
ATOM     55  N   UNL A   1      41.448  29.327  32.445  1.00  0.00    -0.354 N 
ATOM     56  N   UNL A   1      41.068  31.134  34.726  1.00  0.00    -0.248 NA
ATOM     57  C   UNL A   1      41.646  31.843  36.874  1.00  0.00     0.031 C 
ATOM     58  C   UNL A   1      43.131  27.880  32.517  1.00  0.00     0.029 A 
ATOM     59  C   UNL A   1      42.497  28.883  33.233  1.00  0.00     0.049 A 
ATOM     60  H   UNL A   1      40.815  30.038  32.696  1.00  0.00     0.167 HD
ATOM     61  C   UNL A   1      42.156  30.395  35.170  1.00  0.00     0.074 A 
ATOM     62  C   UNL A   1      42.489  30.895  36.488  1.00  0.00     0.031 C 
ATOM     63  C   UNL A   1      42.823  29.397  34.540  1.00  0.00     0.037 A 
BRANCH  50  64
ATOM     64  C   UNL A   1      40.478  27.904  29.015  1.00  0.00     0.064 A 
ATOM     65  C   UNL A   1      41.245  28.212  27.879  1.00  0.00     0.173 A 
ATOM     66  C   UNL A   1      39.734  26.714  28.998  1.00  0.00     0.173 A 
ATOM     67  F   UNL A   1      41.964  29.344  27.838  1.00  0.00    -0.203 F 
ATOM     68  C   UNL A   1      41.229  27.389  26.757  1.00  0.00     0.198 A 
ATOM     69  C   UNL A   1      39.749  25.875  27.887  1.00  0.00     0.198 A 
ATOM     70  F   UNL A   1      38.990  26.367  30.058  1.00  0.00    -0.203 F 
ATOM     71  F   UNL A   1      41.913  27.742  25.660  1.00  0.00    -0.200 F 
ATOM     72  C   UNL A   1      40.485  26.218  26.763  1.00  0.00     0.200 A 
ATOM     73  F   UNL A   1      39.040  24.738  27.899  1.00  0.00    -0.200 F 
ATOM     74  F   UNL A   1      40.468  25.429  25.681  1.00  0.00    -0.200 F 
ENDBRANCH  50  64
BRANCH  51  75
ATOM     75  C   UNL A   1      39.621  33.953  36.910  1.00  0.00     0.064 A 
ATOM     76  C   UNL A   1      40.280  35.192  36.910  1.00  0.00     0.173 A 
ATOM     77  C   UNL A   1      38.864  33.617  38.041  1.00  0.00     0.173 A 
ATOM     78  F   UNL A   1      41.033  35.547  35.859  1.00  0.00    -0.203 F 
ATOM     79  C   UNL A   1      40.195  36.053  38.001  1.00  0.00     0.198 A 
ATOM     80  C   UNL A   1      38.760  34.492  39.123  1.00  0.00     0.198 A 
ATOM     81  F   UNL A   1      38.212  32.446  38.091  1.00  0.00    -0.203 F 
ATOM     82  F   UNL A   1      40.865  37.214  37.989  1.00  0.00    -0.200 F 
ATOM     83  C   UNL A   1      39.431  35.705  39.103  1.00  0.00     0.200 A 
ATOM     84  F   UNL A   1      38.009  34.158  40.181  1.00  0.00    -0.200 F 
ATOM     85  F   UNL A   1      39.344  36.537  40.151  1.00  0.00    -0.200 F 
ENDBRANCH  51  75
BRANCH  63  86
ATOM     86  C   UNL A   1      44.007  28.806  35.248  1.00  0.00     0.064 A 
ATOM     87  C   UNL A   1      43.879  27.721  36.127  1.00  0.00     0.173 A 
ATOM     88  C   UNL A   1      45.296  29.313  35.015  1.00  0.00     0.173 A 
ATOM     89  F   UNL A   1      42.667  27.211  36.396  1.00  0.00    -0.203 F 
ATOM     90  C   UNL A   1      44.992  27.180  36.765  1.00  0.00     0.198 A 
ATOM     91  C   UNL A   1      46.410  28.750  35.630  1.00  0.00     0.198 A 
ATOM     92  F   UNL A   1      45.475  30.346  34.179  1.00  0.00    -0.203 F 
ATOM     93  F   UNL A   1      44.839  26.175  37.638  1.00  0.00    -0.200 F 
ATOM     94  C   UNL A   1      46.256  27.690  36.510  1.00  0.00     0.200 A 
ATOM     95  F   UNL A   1      47.632  29.235  35.373  1.00  0.00    -0.200 F 
ATOM     96  F   UNL A   1      47.328  27.164  37.120  1.00  0.00    -0.200 F 
ENDBRANCH  63  86
ENDBRANCH  37  38
ENDBRANCH  29  32
ENDBRANCH  27  28
ENDBRANCH  26  27
ENDBRANCH   1  26
TORSDOF 13
ENDMDL
