MODEL 1
REMARK VINA RESULT:     -13.4      0.000      0.000
REMARK SMILES O=C(NCCCCNC(=O)c1cc(Cl)c2c(c1)[C@H]1C=CC[C@H]1[C@H](c1ccc(S(=O)(=O)N3CCOCC3)cc1)N2)c1ccc(-c2c3nc(c(-c4c(F)c(F)c(F)c(F)c4F)c4ccc([nH]4)c(-c4c(F)c(F)c(F)c(F)c4F)c4nc(c(-c5c(F)c(F)c(F)c(F)c5F)c5ccc2[nH]5)C=C4)C=C3)cc1
REMARK SMILES IDX 6 1 5 2 4 3 3 4 1 5 2 6 40 8 41 9 102 10 42 11 101 12 43 13
REMARK SMILES IDX 44 14 45 15 95 16 46 17 100 18 94 19 96 20 47 21 99 22 93 23
REMARK SMILES IDX 92 24 48 26 80 27 60 28 79 29 61 30 64 31 78 32 97 33 62 34
REMARK SMILES IDX 63 35 77 37 98 38 65 39 49 40 50 41 58 42 51 43 52 44 56 45
REMARK SMILES IDX 59 46 53 47 54 48 57 49 55 50 81 51 82 52 90 53 83 54 84 55
REMARK SMILES IDX 88 56 91 57 85 58 86 59 89 60 87 61 66 62 67 63 75 64 68 65
REMARK SMILES IDX 69 66 73 67 76 68 70 69 71 70 74 71 72 72 7 73 8 74 9 75
REMARK SMILES IDX 10 77 11 78 12 79 17 80 13 81 16 82 14 83 15 84 18 85 39 86
REMARK SMILES IDX 19 87 22 88 23 89 20 91 21 92 24 93 25 94 38 95 26 96 37 97
REMARK SMILES IDX 27 98 28 99 29 100 30 101 31 102 32 103 36 104 33 105 35 106
REMARK SMILES IDX 34 107
REMARK H PARENT 3 7 96 25 64 36 8 76 39 90
REMARK Flexibility Score: inf
ROOT
ATOM      1  C   UNL A   1      44.623  23.286  24.899  1.00  0.00     0.023 C 
ENDROOT
BRANCH   1   2
ATOM      2  C   UNL A   1      45.263  23.284  26.286  1.00  0.00     0.023 C 
BRANCH   2   3
ATOM      3  C   UNL A   1      46.395  24.286  26.476  1.00  0.00     0.116 C 
BRANCH   3   4
ATOM      4  N   UNL A   1      46.457  25.268  25.405  1.00  0.00    -0.352 N 
ATOM      5  O   UNL A   1      45.918  27.173  24.315  1.00  0.00    -0.269 OA
ATOM      6  C   UNL A   1      45.907  26.525  25.357  1.00  0.00     0.251 C 
ATOM      7  H   UNL A   1      46.961  24.993  24.605  1.00  0.00     0.163 HD
BRANCH   6   8
ATOM      8  C   UNL A   1      45.275  27.085  26.567  1.00  0.00     0.039 A 
ATOM      9  C   UNL A   1      44.306  26.355  27.263  1.00  0.00     0.014 A 
ATOM     10  C   UNL A   1      45.648  28.360  26.997  1.00  0.00     0.014 A 
ATOM     11  C   UNL A   1      43.625  26.950  28.321  1.00  0.00     0.010 A 
ATOM     12  C   UNL A   1      44.999  28.937  28.090  1.00  0.00     0.010 A 
ATOM     13  C   UNL A   1      43.961  28.248  28.737  1.00  0.00    -0.014 A 
BRANCH  13  14
ATOM     14  C   UNL A   1      43.228  28.867  29.866  1.00  0.00     0.031 A 
ATOM     15  C   UNL A   1      41.825  29.369  29.684  1.00  0.00     0.074 A 
ATOM     16  C   UNL A   1      43.829  28.946  31.067  1.00  0.00     0.049 A 
ATOM     17  N   UNL A   1      41.022  29.909  30.567  1.00  0.00    -0.248 NA
ATOM     18  C   UNL A   1      41.243  29.246  28.339  1.00  0.00     0.031 C 
ATOM     19  C   UNL A   1      45.186  28.484  31.359  1.00  0.00     0.029 A 
ATOM     20  N   UNL A   1      43.374  29.431  32.266  1.00  0.00    -0.354 N 
ATOM     21  C   UNL A   1      39.843  30.184  29.889  1.00  0.00     0.074 A 
ATOM     22  C   UNL A   1      40.044  29.787  28.512  1.00  0.00     0.031 C 
ATOM     23  C   UNL A   1      45.446  28.686  32.660  1.00  0.00     0.029 A 
ATOM     24  C   UNL A   1      44.291  29.324  33.282  1.00  0.00     0.049 A 
ATOM     25  H   UNL A   1      42.477  29.818  32.387  1.00  0.00     0.167 HD
ATOM     26  C   UNL A   1      38.693  30.705  30.379  1.00  0.00     0.037 A 
ATOM     27  C   UNL A   1      44.210  29.708  34.570  1.00  0.00     0.037 A 
ATOM     28  C   UNL A   1      38.498  31.098  31.751  1.00  0.00     0.049 A 
ATOM     29  C   UNL A   1      42.944  30.344  35.069  1.00  0.00     0.074 A 
ATOM     30  C   UNL A   1      37.360  31.614  32.345  1.00  0.00     0.029 A 
ATOM     31  N   UNL A   1      39.468  31.024  32.739  1.00  0.00    -0.354 N 
ATOM     32  N   UNL A   1      41.824  30.567  34.428  1.00  0.00    -0.248 NA
ATOM     33  C   UNL A   1      42.932  30.783  36.472  1.00  0.00     0.031 C 
ATOM     34  C   UNL A   1      37.654  31.893  33.683  1.00  0.00     0.029 A 
ATOM     35  C   UNL A   1      38.962  31.509  33.934  1.00  0.00     0.049 A 
ATOM     36  H   UNL A   1      40.381  30.678  32.611  1.00  0.00     0.167 HD
ATOM     37  C   UNL A   1      40.967  31.155  35.348  1.00  0.00     0.074 A 
ATOM     38  C   UNL A   1      41.693  31.240  36.599  1.00  0.00     0.031 C 
ATOM     39  C   UNL A   1      39.696  31.588  35.170  1.00  0.00     0.037 A 
BRANCH  26  40
ATOM     40  C   UNL A   1      37.543  30.880  29.433  1.00  0.00     0.064 A 
ATOM     41  C   UNL A   1      36.673  29.820  29.138  1.00  0.00     0.173 A 
ATOM     42  C   UNL A   1      37.256  32.138  28.884  1.00  0.00     0.173 A 
ATOM     43  F   UNL A   1      36.911  28.595  29.631  1.00  0.00    -0.203 F 
ATOM     44  C   UNL A   1      35.562  30.012  28.321  1.00  0.00     0.198 A 
ATOM     45  C   UNL A   1      36.132  32.332  28.086  1.00  0.00     0.198 A 
ATOM     46  F   UNL A   1      38.053  33.186  29.139  1.00  0.00    -0.203 F 
ATOM     47  F   UNL A   1      34.756  28.980  28.035  1.00  0.00    -0.200 F 
ATOM     48  C   UNL A   1      35.287  31.269  27.804  1.00  0.00     0.200 A 
ATOM     49  F   UNL A   1      35.860  33.549  27.596  1.00  0.00    -0.200 F 
ATOM     50  F   UNL A   1      34.207  31.455  27.033  1.00  0.00    -0.200 F 
ENDBRANCH  26  40
BRANCH  27  51
ATOM     51  C   UNL A   1      45.365  29.484  35.475  1.00  0.00     0.064 A 
ATOM     52  C   UNL A   1      46.370  30.450  35.611  1.00  0.00     0.173 A 
ATOM     53  C   UNL A   1      45.478  28.310  36.235  1.00  0.00     0.173 A 
ATOM     54  F   UNL A   1      46.314  31.579  34.890  1.00  0.00    -0.203 F 
ATOM     55  C   UNL A   1      47.449  30.248  36.469  1.00  0.00     0.198 A 
ATOM     56  C   UNL A   1      46.543  28.120  37.110  1.00  0.00     0.198 A 
ATOM     57  F   UNL A   1      44.539  27.356  36.141  1.00  0.00    -0.203 F 
ATOM     58  F   UNL A   1      48.413  31.174  36.557  1.00  0.00    -0.200 F 
ATOM     59  C   UNL A   1      47.531  29.087  37.223  1.00  0.00     0.200 A 
ATOM     60  F   UNL A   1      46.612  27.003  37.847  1.00  0.00    -0.200 F 
ATOM     61  F   UNL A   1      48.565  28.898  38.054  1.00  0.00    -0.200 F 
ENDBRANCH  27  51
BRANCH  39  62
ATOM     62  C   UNL A   1      38.997  32.183  36.356  1.00  0.00     0.064 A 
ATOM     63  C   UNL A   1      38.125  31.420  37.146  1.00  0.00     0.173 A 
ATOM     64  C   UNL A   1      39.253  33.506  36.745  1.00  0.00     0.173 A 
ATOM     65  F   UNL A   1      37.838  30.155  36.806  1.00  0.00    -0.203 F 
ATOM     66  C   UNL A   1      37.525  31.967  38.277  1.00  0.00     0.198 A 
ATOM     67  C   UNL A   1      38.671  34.040  37.891  1.00  0.00     0.198 A 
ATOM     68  F   UNL A   1      40.086  34.273  36.026  1.00  0.00    -0.203 F 
ATOM     69  F   UNL A   1      36.669  31.231  39.000  1.00  0.00    -0.200 F 
ATOM     70  C   UNL A   1      37.805  33.272  38.653  1.00  0.00     0.200 A 
ATOM     71  F   UNL A   1      38.954  35.297  38.261  1.00  0.00    -0.200 F 
ATOM     72  F   UNL A   1      37.237  33.791  39.751  1.00  0.00    -0.200 F 
ENDBRANCH  39  62
ENDBRANCH  13  14
ENDBRANCH   6   8
ENDBRANCH   3   4
ENDBRANCH   2   3
ENDBRANCH   1   2
BRANCH   1  73
ATOM     73  C   UNL A   1      43.220  22.694  24.835  1.00  0.00     0.116 C 
BRANCH  73  74
ATOM     74  N   UNL A   1      43.104  21.439  25.565  1.00  0.00    -0.352 N 
ATOM     75  C   UNL A   1      42.030  20.959  26.269  1.00  0.00     0.251 C 
ATOM     76  H   UNL A   1      43.901  20.861  25.550  1.00  0.00     0.163 HD
ATOM     77  O   UNL A   1      42.113  19.936  26.938  1.00  0.00    -0.269 OA
BRANCH  75  78
ATOM     78  C   UNL A   1      40.776  21.728  26.245  1.00  0.00     0.041 A 
ATOM     79  C   UNL A   1      40.652  22.900  26.989  1.00  0.00     0.036 A 
ATOM     80  C   UNL A   1      39.703  21.231  25.511  1.00  0.00     0.020 A 
ATOM     81  C   UNL A   1      39.404  23.505  27.087  1.00  0.00     0.065 A 
ATOM     82  C   UNL A   1      38.452  21.861  25.585  1.00  0.00    -0.015 A 
ATOM     83  Cl  UNL A   1      39.256  24.903  28.096  1.00  0.00    -0.082 Cl
ATOM     84  C   UNL A   1      38.279  22.970  26.428  1.00  0.00     0.057 A 
ATOM     85  C   UNL A   1      37.326  21.351  24.732  1.00  0.00     0.049 C 
ATOM     86  N   UNL A   1      37.035  23.573  26.548  1.00  0.00    -0.376 N 
ATOM     87  C   UNL A   1      36.750  20.026  25.156  1.00  0.00    -0.023 C 
ATOM     88  C   UNL A   1      36.071  22.251  24.700  1.00  0.00     0.031 C 
ATOM     89  C   UNL A   1      35.835  22.888  26.094  1.00  0.00     0.114 C 
ATOM     90  H   UNL A   1      36.964  24.471  26.944  1.00  0.00     0.161 HD
ATOM     91  C   UNL A   1      35.441  19.969  24.882  1.00  0.00    -0.030 C 
ATOM     92  C   UNL A   1      34.979  21.252  24.263  1.00  0.00     0.034 C 
BRANCH  89  93
ATOM     93  C   UNL A   1      34.671  23.871  26.104  1.00  0.00    -0.025 A 
ATOM     94  C   UNL A   1      34.730  25.155  25.529  1.00  0.00     0.007 A 
ATOM     95  C   UNL A   1      33.475  23.475  26.710  1.00  0.00     0.007 A 
ATOM     96  C   UNL A   1      33.617  26.006  25.543  1.00  0.00     0.022 A 
ATOM     97  C   UNL A   1      32.360  24.302  26.685  1.00  0.00     0.022 A 
ATOM     98  C   UNL A   1      32.422  25.563  26.110  1.00  0.00     0.082 A 
BRANCH  98  99
ATOM     99  S   UNL A   1      30.990  26.618  26.065  1.00  0.00     0.243 S 
ATOM    100  O   UNL A   1      29.902  25.846  26.632  1.00  0.00    -0.207 OA
ATOM    101  O   UNL A   1      31.398  27.887  26.623  1.00  0.00    -0.207 OA
BRANCH  99 102
ATOM    102  N   UNL A   1      30.670  26.855  24.436  1.00  0.00    -0.193 NA
ATOM    103  C   UNL A   1      30.500  25.735  23.487  1.00  0.00     0.131 C 
ATOM    104  C   UNL A   1      30.592  28.202  23.846  1.00  0.00     0.131 C 
ATOM    105  C   UNL A   1      31.299  25.956  22.191  1.00  0.00     0.177 C 
ATOM    106  C   UNL A   1      31.484  28.285  22.605  1.00  0.00     0.177 C 
ATOM    107  O   UNL A   1      31.138  27.272  21.650  1.00  0.00    -0.379 OA
ENDBRANCH  99 102
ENDBRANCH  98  99
ENDBRANCH  89  93
ENDBRANCH  75  78
ENDBRANCH  73  74
ENDBRANCH   1  73
TORSDOF 14
ENDMDL
MODEL 2
REMARK VINA RESULT:     -13.0      0.666      6.974
REMARK SMILES O=C(NCCCCNC(=O)c1cc(Cl)c2c(c1)[C@H]1C=CC[C@H]1[C@H](c1ccc(S(=O)(=O)N3CCOCC3)cc1)N2)c1ccc(-c2c3nc(c(-c4c(F)c(F)c(F)c(F)c4F)c4ccc([nH]4)c(-c4c(F)c(F)c(F)c(F)c4F)c4nc(c(-c5c(F)c(F)c(F)c(F)c5F)c5ccc2[nH]5)C=C4)C=C3)cc1
REMARK SMILES IDX 6 1 5 2 4 3 3 4 1 5 2 6 40 8 41 9 102 10 42 11 101 12 43 13
REMARK SMILES IDX 44 14 45 15 95 16 46 17 100 18 94 19 96 20 47 21 99 22 93 23
REMARK SMILES IDX 92 24 48 26 80 27 60 28 79 29 61 30 64 31 78 32 97 33 62 34
REMARK SMILES IDX 63 35 77 37 98 38 65 39 49 40 50 41 58 42 51 43 52 44 56 45
REMARK SMILES IDX 59 46 53 47 54 48 57 49 55 50 81 51 82 52 90 53 83 54 84 55
REMARK SMILES IDX 88 56 91 57 85 58 86 59 89 60 87 61 66 62 67 63 75 64 68 65
REMARK SMILES IDX 69 66 73 67 76 68 70 69 71 70 74 71 72 72 7 73 8 74 9 75
REMARK SMILES IDX 10 77 11 78 12 79 17 80 13 81 16 82 14 83 15 84 18 85 39 86
REMARK SMILES IDX 19 87 22 88 23 89 20 91 21 92 24 93 25 94 38 95 26 96 37 97
REMARK SMILES IDX 27 98 28 99 29 100 30 101 31 102 32 103 36 104 33 105 35 106
REMARK SMILES IDX 34 107
REMARK H PARENT 3 7 96 25 64 36 8 76 39 90
REMARK Flexibility Score: inf
ROOT
ATOM      1  C   UNL A   1      44.591  22.252  24.466  1.00  0.00     0.023 C 
ENDROOT
BRANCH   1   2
ATOM      2  C   UNL A   1      45.802  22.597  25.330  1.00  0.00     0.023 C 
BRANCH   2   3
ATOM      3  C   UNL A   1      45.777  23.988  25.951  1.00  0.00     0.116 C 
BRANCH   3   4
ATOM      4  N   UNL A   1      46.375  24.994  25.088  1.00  0.00    -0.352 N 
ATOM      5  O   UNL A   1      46.633  27.048  24.180  1.00  0.00    -0.269 OA
ATOM      6  C   UNL A   1      46.170  26.352  25.077  1.00  0.00     0.251 C 
ATOM      7  H   UNL A   1      47.013  24.656  24.418  1.00  0.00     0.163 HD
BRANCH   6   8
ATOM      8  C   UNL A   1      45.358  26.969  26.145  1.00  0.00     0.039 A 
ATOM      9  C   UNL A   1      45.408  28.348  26.366  1.00  0.00     0.014 A 
ATOM     10  C   UNL A   1      44.553  26.151  26.940  1.00  0.00     0.014 A 
ATOM     11  C   UNL A   1      44.742  28.894  27.460  1.00  0.00     0.010 A 
ATOM     12  C   UNL A   1      43.844  26.707  28.006  1.00  0.00     0.010 A 
ATOM     13  C   UNL A   1      43.962  28.076  28.293  1.00  0.00    -0.014 A 
BRANCH  13  14
ATOM     14  C   UNL A   1      43.257  28.672  29.452  1.00  0.00     0.031 A 
ATOM     15  C   UNL A   1      43.949  28.814  30.777  1.00  0.00     0.074 A 
ATOM     16  C   UNL A   1      41.997  29.114  29.291  1.00  0.00     0.049 A 
ATOM     17  N   UNL A   1      43.499  29.338  31.889  1.00  0.00    -0.248 NA
ATOM     18  C   UNL A   1      45.326  28.304  30.868  1.00  0.00     0.031 C 
ATOM     19  C   UNL A   1      41.232  29.033  28.046  1.00  0.00     0.029 A 
ATOM     20  N   UNL A   1      41.143  29.725  30.172  1.00  0.00    -0.354 N 
ATOM     21  C   UNL A   1      44.534  29.229  32.806  1.00  0.00     0.074 A 
ATOM     22  C   UNL A   1      45.625  28.554  32.136  1.00  0.00     0.031 C 
ATOM     23  C   UNL A   1      40.029  29.597  28.236  1.00  0.00     0.029 A 
ATOM     24  C   UNL A   1      39.926  30.043  29.622  1.00  0.00     0.049 A 
ATOM     25  H   UNL A   1      41.380  29.918  31.107  1.00  0.00     0.167 HD
ATOM     26  C   UNL A   1      44.573  29.668  34.087  1.00  0.00     0.037 A 
ATOM     27  C   UNL A   1      38.845  30.620  30.178  1.00  0.00     0.037 A 
ATOM     28  C   UNL A   1      43.484  30.339  34.750  1.00  0.00     0.049 A 
ATOM     29  C   UNL A   1      38.895  31.037  31.620  1.00  0.00     0.074 A 
ATOM     30  C   UNL A   1      43.439  30.842  36.038  1.00  0.00     0.029 A 
ATOM     31  N   UNL A   1      42.248  30.595  34.177  1.00  0.00    -0.354 N 
ATOM     32  N   UNL A   1      39.891  30.960  32.467  1.00  0.00    -0.248 NA
ATOM     33  C   UNL A   1      37.669  31.622  32.184  1.00  0.00     0.031 C 
ATOM     34  C   UNL A   1      42.162  31.364  36.260  1.00  0.00     0.029 A 
ATOM     35  C   UNL A   1      41.424  31.226  35.095  1.00  0.00     0.049 A 
ATOM     36  H   UNL A   1      41.993  30.364  33.254  1.00  0.00     0.167 HD
ATOM     37  C   UNL A   1      39.422  31.499  33.658  1.00  0.00     0.074 A 
ATOM     38  C   UNL A   1      38.055  31.916  33.418  1.00  0.00     0.031 C 
ATOM     39  C   UNL A   1      40.066  31.634  34.842  1.00  0.00     0.037 A 
BRANCH  26  40
ATOM     40  C   UNL A   1      45.834  29.446  34.867  1.00  0.00     0.064 A 
ATOM     41  C   UNL A   1      46.814  30.444  34.966  1.00  0.00     0.173 A 
ATOM     42  C   UNL A   1      46.026  28.261  35.592  1.00  0.00     0.173 A 
ATOM     43  F   UNL A   1      46.682  31.590  34.284  1.00  0.00    -0.203 F 
ATOM     44  C   UNL A   1      47.946  30.259  35.757  1.00  0.00     0.198 A 
ATOM     45  C   UNL A   1      47.147  28.088  36.399  1.00  0.00     0.198 A 
ATOM     46  F   UNL A   1      45.114  27.278  35.535  1.00  0.00    -0.203 F 
ATOM     47  F   UNL A   1      48.881  31.217  35.821  1.00  0.00    -0.200 F 
ATOM     48  C   UNL A   1      48.106  29.086  36.480  1.00  0.00     0.200 A 
ATOM     49  F   UNL A   1      47.295  26.959  37.107  1.00  0.00    -0.200 F 
ATOM     50  F   UNL A   1      49.187  28.918  37.255  1.00  0.00    -0.200 F 
ENDBRANCH  26  40
BRANCH  27  51
ATOM     51  C   UNL A   1      37.631  30.847  29.355  1.00  0.00     0.064 A 
ATOM     52  C   UNL A   1      36.722  29.809  29.112  1.00  0.00     0.173 A 
ATOM     53  C   UNL A   1      37.344  32.109  28.812  1.00  0.00     0.173 A 
ATOM     54  F   UNL A   1      36.965  28.582  29.595  1.00  0.00    -0.203 F 
ATOM     55  C   UNL A   1      35.576  30.022  28.350  1.00  0.00     0.198 A 
ATOM     56  C   UNL A   1      36.186  32.326  28.072  1.00  0.00     0.198 A 
ATOM     57  F   UNL A   1      38.182  33.135  29.019  1.00  0.00    -0.203 F 
ATOM     58  F   UNL A   1      34.739  29.004  28.106  1.00  0.00    -0.200 F 
ATOM     59  C   UNL A   1      35.304  31.282  27.837  1.00  0.00     0.200 A 
ATOM     60  F   UNL A   1      35.920  33.548  27.589  1.00  0.00    -0.200 F 
ATOM     61  F   UNL A   1      34.196  31.487  27.112  1.00  0.00    -0.200 F 
ENDBRANCH  27  51
BRANCH  39  62
ATOM     62  C   UNL A   1      39.309  32.267  35.972  1.00  0.00     0.064 A 
ATOM     63  C   UNL A   1      38.435  31.519  36.773  1.00  0.00     0.173 A 
ATOM     64  C   UNL A   1      39.512  33.617  36.297  1.00  0.00     0.173 A 
ATOM     65  F   UNL A   1      38.199  30.229  36.492  1.00  0.00    -0.203 F 
ATOM     66  C   UNL A   1      37.781  32.104  37.853  1.00  0.00     0.198 A 
ATOM     67  C   UNL A   1      38.876  34.191  37.393  1.00  0.00     0.198 A 
ATOM     68  F   UNL A   1      40.345  34.371  35.564  1.00  0.00    -0.203 F 
ATOM     69  F   UNL A   1      36.924  31.380  38.587  1.00  0.00    -0.200 F 
ATOM     70  C   UNL A   1      38.008  33.436  38.167  1.00  0.00     0.200 A 
ATOM     71  F   UNL A   1      39.107  35.474  37.704  1.00  0.00    -0.200 F 
ATOM     72  F   UNL A   1      37.388  33.993  39.217  1.00  0.00    -0.200 F 
ENDBRANCH  39  62
ENDBRANCH  13  14
ENDBRANCH   6   8
ENDBRANCH   3   4
ENDBRANCH   2   3
ENDBRANCH   1   2
BRANCH   1  73
ATOM     73  C   UNL A   1      43.258  22.222  25.204  1.00  0.00     0.116 C 
BRANCH  73  74
ATOM     74  N   UNL A   1      42.992  20.936  25.832  1.00  0.00    -0.352 N 
ATOM     75  C   UNL A   1      41.827  20.492  26.405  1.00  0.00     0.251 C 
ATOM     76  H   UNL A   1      43.746  20.303  25.849  1.00  0.00     0.163 HD
ATOM     77  O   UNL A   1      41.780  19.426  27.006  1.00  0.00    -0.269 OA
BRANCH  75  78
ATOM     78  C   UNL A   1      40.635  21.350  26.323  1.00  0.00     0.041 A 
ATOM     79  C   UNL A   1      40.579  22.550  27.030  1.00  0.00     0.036 A 
ATOM     80  C   UNL A   1      39.547  20.911  25.573  1.00  0.00     0.020 A 
ATOM     81  C   UNL A   1      39.377  23.248  27.075  1.00  0.00     0.065 A 
ATOM     82  C   UNL A   1      38.346  21.634  25.594  1.00  0.00    -0.015 A 
ATOM     83  Cl  UNL A   1      39.306  24.683  28.039  1.00  0.00    -0.082 Cl
ATOM     84  C   UNL A   1      38.233  22.777  26.399  1.00  0.00     0.057 A 
ATOM     85  C   UNL A   1      37.208  21.182  24.724  1.00  0.00     0.049 C 
ATOM     86  N   UNL A   1      37.034  23.473  26.466  1.00  0.00    -0.376 N 
ATOM     87  C   UNL A   1      36.524  19.916  25.168  1.00  0.00    -0.023 C 
ATOM     88  C   UNL A   1      36.025  22.170  24.629  1.00  0.00     0.031 C 
ATOM     89  C   UNL A   1      35.799  22.865  25.997  1.00  0.00     0.114 C 
ATOM     90  H   UNL A   1      37.020  24.386  26.834  1.00  0.00     0.161 HD
ATOM     91  C   UNL A   1      35.222  19.947  24.858  1.00  0.00    -0.030 C 
ATOM     92  C   UNL A   1      34.873  21.241  24.190  1.00  0.00     0.034 C 
BRANCH  89  93
ATOM     93  C   UNL A   1      34.712  23.930  25.947  1.00  0.00    -0.025 A 
ATOM     94  C   UNL A   1      33.397  23.725  26.411  1.00  0.00     0.007 A 
ATOM     95  C   UNL A   1      35.036  25.184  25.420  1.00  0.00     0.007 A 
ATOM     96  C   UNL A   1      32.446  24.752  26.365  1.00  0.00     0.022 A 
ATOM     97  C   UNL A   1      34.106  26.214  25.417  1.00  0.00     0.022 A 
ATOM     98  C   UNL A   1      32.814  26.008  25.882  1.00  0.00     0.082 A 
BRANCH  98  99
ATOM     99  S   UNL A   1      31.624  27.331  25.890  1.00  0.00     0.243 S 
ATOM    100  O   UNL A   1      30.516  26.871  26.703  1.00  0.00    -0.207 OA
ATOM    101  O   UNL A   1      32.356  28.537  26.208  1.00  0.00    -0.207 OA
BRANCH  99 102
ATOM    102  N   UNL A   1      31.094  27.456  24.305  1.00  0.00    -0.193 NA
ATOM    103  C   UNL A   1      31.930  28.027  23.228  1.00  0.00     0.131 C 
ATOM    104  C   UNL A   1      29.737  27.048  23.903  1.00  0.00     0.131 C 
ATOM    105  C   UNL A   1      31.146  29.032  22.366  1.00  0.00     0.177 C 
ATOM    106  C   UNL A   1      29.064  28.170  23.110  1.00  0.00     0.177 C 
ATOM    107  O   UNL A   1      29.856  28.549  21.975  1.00  0.00    -0.379 OA
ENDBRANCH  99 102
ENDBRANCH  98  99
ENDBRANCH  89  93
ENDBRANCH  75  78
ENDBRANCH  73  74
ENDBRANCH   1  73
TORSDOF 14
ENDMDL
MODEL 3
REMARK VINA RESULT:     -12.9      5.649     11.156
REMARK SMILES O=C(NCCCCNC(=O)c1cc(Cl)c2c(c1)[C@H]1C=CC[C@H]1[C@H](c1ccc(S(=O)(=O)N3CCOCC3)cc1)N2)c1ccc(-c2c3nc(c(-c4c(F)c(F)c(F)c(F)c4F)c4ccc([nH]4)c(-c4c(F)c(F)c(F)c(F)c4F)c4nc(c(-c5c(F)c(F)c(F)c(F)c5F)c5ccc2[nH]5)C=C4)C=C3)cc1
REMARK SMILES IDX 6 1 5 2 4 3 3 4 1 5 2 6 40 8 41 9 102 10 42 11 101 12 43 13
REMARK SMILES IDX 44 14 45 15 95 16 46 17 100 18 94 19 96 20 47 21 99 22 93 23
REMARK SMILES IDX 92 24 48 26 80 27 60 28 79 29 61 30 64 31 78 32 97 33 62 34
REMARK SMILES IDX 63 35 77 37 98 38 65 39 49 40 50 41 58 42 51 43 52 44 56 45
REMARK SMILES IDX 59 46 53 47 54 48 57 49 55 50 81 51 82 52 90 53 83 54 84 55
REMARK SMILES IDX 88 56 91 57 85 58 86 59 89 60 87 61 66 62 67 63 75 64 68 65
REMARK SMILES IDX 69 66 73 67 76 68 70 69 71 70 74 71 72 72 7 73 8 74 9 75
REMARK SMILES IDX 10 77 11 78 12 79 17 80 13 81 16 82 14 83 15 84 18 85 39 86
REMARK SMILES IDX 19 87 22 88 23 89 20 91 21 92 24 93 25 94 38 95 26 96 37 97
REMARK SMILES IDX 27 98 28 99 29 100 30 101 31 102 32 103 36 104 33 105 35 106
REMARK SMILES IDX 34 107
REMARK H PARENT 3 7 96 25 64 36 8 76 39 90
REMARK Flexibility Score: inf
ROOT
ATOM      1  C   UNL A   1      37.032  34.205  34.769  1.00  0.00     0.023 C 
ENDROOT
BRANCH   1   2
ATOM      2  C   UNL A   1      38.496  34.470  34.426  1.00  0.00     0.023 C 
BRANCH   2   3
ATOM      3  C   UNL A   1      39.383  34.826  35.613  1.00  0.00     0.116 C 
BRANCH   3   4
ATOM      4  N   UNL A   1      39.129  33.985  36.772  1.00  0.00    -0.352 N 
ATOM      5  O   UNL A   1      39.099  32.066  37.965  1.00  0.00    -0.269 OA
ATOM      6  C   UNL A   1      39.529  32.692  37.002  1.00  0.00     0.251 C 
ATOM      7  H   UNL A   1      38.596  34.399  37.489  1.00  0.00     0.163 HD
BRANCH   6   8
ATOM      8  C   UNL A   1      40.464  32.046  36.060  1.00  0.00     0.039 A 
ATOM      9  C   UNL A   1      41.840  32.270  36.163  1.00  0.00     0.014 A 
ATOM     10  C   UNL A   1      39.951  31.223  35.056  1.00  0.00     0.014 A 
ATOM     11  C   UNL A   1      42.694  31.762  35.188  1.00  0.00     0.010 A 
ATOM     12  C   UNL A   1      40.815  30.672  34.107  1.00  0.00     0.010 A 
ATOM     13  C   UNL A   1      42.187  30.967  34.148  1.00  0.00    -0.014 A 
BRANCH  13  14
ATOM     14  C   UNL A   1      43.109  30.432  33.119  1.00  0.00     0.031 A 
ATOM     15  C   UNL A   1      43.461  31.248  31.910  1.00  0.00     0.074 A 
ATOM     16  C   UNL A   1      43.651  29.214  33.300  1.00  0.00     0.049 A 
ATOM     17  N   UNL A   1      44.273  30.955  30.925  1.00  0.00    -0.248 NA
ATOM     18  C   UNL A   1      42.823  32.569  31.788  1.00  0.00     0.031 C 
ATOM     19  C   UNL A   1      43.385  28.338  34.441  1.00  0.00     0.029 A 
ATOM     20  N   UNL A   1      44.543  28.509  32.535  1.00  0.00    -0.354 N 
ATOM     21  C   UNL A   1      44.249  32.050  30.074  1.00  0.00     0.074 A 
ATOM     22  C   UNL A   1      43.315  33.002  30.635  1.00  0.00     0.031 C 
ATOM     23  C   UNL A   1      44.117  27.221  34.313  1.00  0.00     0.029 A 
ATOM     24  C   UNL A   1      44.873  27.286  33.067  1.00  0.00     0.049 A 
ATOM     25  H   UNL A   1      44.912  28.846  31.687  1.00  0.00     0.167 HD
ATOM     26  C   UNL A   1      44.957  32.247  28.936  1.00  0.00     0.037 A 
ATOM     27  C   UNL A   1      45.686  26.324  32.595  1.00  0.00     0.037 A 
ATOM     28  C   UNL A   1      45.886  31.296  28.382  1.00  0.00     0.049 A 
ATOM     29  C   UNL A   1      46.408  26.544  31.295  1.00  0.00     0.074 A 
ATOM     30  C   UNL A   1      46.667  31.417  27.247  1.00  0.00     0.029 A 
ATOM     31  N   UNL A   1      46.153  30.046  28.921  1.00  0.00    -0.354 N 
ATOM     32  N   UNL A   1      46.405  27.598  30.518  1.00  0.00    -0.248 NA
ATOM     33  C   UNL A   1      47.247  25.439  30.809  1.00  0.00     0.031 C 
ATOM     34  C   UNL A   1      47.376  30.224  27.073  1.00  0.00     0.029 A 
ATOM     35  C   UNL A   1      47.069  29.376  28.126  1.00  0.00     0.049 A 
ATOM     36  H   UNL A   1      45.753  29.689  29.746  1.00  0.00     0.167 HD
ATOM     37  C   UNL A   1      47.250  27.293  29.459  1.00  0.00     0.074 A 
ATOM     38  C   UNL A   1      47.763  25.961  29.704  1.00  0.00     0.031 C 
ATOM     39  C   UNL A   1      47.569  28.050  28.382  1.00  0.00     0.037 A 
BRANCH  26  40
ATOM     40  C   UNL A   1      44.766  33.543  28.206  1.00  0.00     0.064 A 
ATOM     41  C   UNL A   1      43.964  33.621  27.058  1.00  0.00     0.173 A 
ATOM     42  C   UNL A   1      45.318  34.731  28.706  1.00  0.00     0.173 A 
ATOM     43  F   UNL A   1      43.423  32.511  26.536  1.00  0.00    -0.203 F 
ATOM     44  C   UNL A   1      43.728  34.843  26.433  1.00  0.00     0.198 A 
ATOM     45  C   UNL A   1      45.061  35.954  28.091  1.00  0.00     0.198 A 
ATOM     46  F   UNL A   1      46.088  34.711  29.804  1.00  0.00    -0.203 F 
ATOM     47  F   UNL A   1      42.976  34.893  25.324  1.00  0.00    -0.200 F 
ATOM     48  C   UNL A   1      44.269  36.009  26.955  1.00  0.00     0.200 A 
ATOM     49  F   UNL A   1      45.574  37.081  28.603  1.00  0.00    -0.200 F 
ATOM     50  F   UNL A   1      44.025  37.186  26.362  1.00  0.00    -0.200 F 
ENDBRANCH  26  40
BRANCH  27  51
ATOM     51  C   UNL A   1      45.866  25.072  33.370  1.00  0.00     0.064 A 
ATOM     52  C   UNL A   1      46.974  24.899  34.211  1.00  0.00     0.173 A 
ATOM     53  C   UNL A   1      44.927  24.031  33.302  1.00  0.00     0.173 A 
ATOM     54  F   UNL A   1      47.907  25.859  34.292  1.00  0.00    -0.203 F 
ATOM     55  C   UNL A   1      47.140  23.730  34.949  1.00  0.00     0.198 A 
ATOM     56  C   UNL A   1      45.081  22.874  34.060  1.00  0.00     0.198 A 
ATOM     57  F   UNL A   1      43.849  24.151  32.514  1.00  0.00    -0.203 F 
ATOM     58  F   UNL A   1      48.224  23.577  35.721  1.00  0.00    -0.200 F 
ATOM     59  C   UNL A   1      46.190  22.721  34.879  1.00  0.00     0.200 A 
ATOM     60  F   UNL A   1      44.155  21.907  34.000  1.00  0.00    -0.200 F 
ATOM     61  F   UNL A   1      46.347  21.601  35.597  1.00  0.00    -0.200 F 
ENDBRANCH  27  51
BRANCH  39  62
ATOM     62  C   UNL A   1      48.527  27.465  27.386  1.00  0.00     0.064 A 
ATOM     63  C   UNL A   1      48.070  26.786  26.248  1.00  0.00     0.173 A 
ATOM     64  C   UNL A   1      49.910  27.645  27.538  1.00  0.00     0.173 A 
ATOM     65  F   UNL A   1      46.757  26.578  26.067  1.00  0.00    -0.203 F 
ATOM     66  C   UNL A   1      48.967  26.296  25.302  1.00  0.00     0.198 A 
ATOM     67  C   UNL A   1      50.801  27.176  26.577  1.00  0.00     0.198 A 
ATOM     68  F   UNL A   1      50.395  28.294  28.607  1.00  0.00    -0.203 F 
ATOM     69  F   UNL A   1      48.511  25.621  24.238  1.00  0.00    -0.200 F 
ATOM     70  C   UNL A   1      50.329  26.499  25.463  1.00  0.00     0.200 A 
ATOM     71  F   UNL A   1      52.117  27.384  26.727  1.00  0.00    -0.200 F 
ATOM     72  F   UNL A   1      51.189  26.039  24.544  1.00  0.00    -0.200 F 
ENDBRANCH  39  62
ENDBRANCH  13  14
ENDBRANCH   6   8
ENDBRANCH   3   4
ENDBRANCH   2   3
ENDBRANCH   1   2
BRANCH   1  73
ATOM     73  C   UNL A   1      36.021  34.934  33.890  1.00  0.00     0.116 C 
BRANCH  73  74
ATOM     74  N   UNL A   1      34.755  34.224  33.782  1.00  0.00    -0.352 N 
ATOM     75  C   UNL A   1      34.426  33.191  32.943  1.00  0.00     0.251 C 
ATOM     76  H   UNL A   1      34.042  34.526  34.391  1.00  0.00     0.163 HD
ATOM     77  O   UNL A   1      33.279  32.766  32.876  1.00  0.00    -0.269 OA
BRANCH  75  78
ATOM     78  C   UNL A   1      35.476  32.627  32.081  1.00  0.00     0.041 A 
ATOM     79  C   UNL A   1      35.625  33.070  30.768  1.00  0.00     0.036 A 
ATOM     80  C   UNL A   1      36.277  31.606  32.585  1.00  0.00     0.020 A 
ATOM     81  C   UNL A   1      36.503  32.397  29.927  1.00  0.00     0.065 A 
ATOM     82  C   UNL A   1      37.186  30.949  31.744  1.00  0.00    -0.015 A 
ATOM     83  Cl  UNL A   1      36.598  32.905  28.275  1.00  0.00    -0.082 Cl
ATOM     84  C   UNL A   1      37.260  31.300  30.387  1.00  0.00     0.057 A 
ATOM     85  C   UNL A   1      38.089  29.899  32.324  1.00  0.00     0.049 C 
ATOM     86  N   UNL A   1      38.120  30.625  29.533  1.00  0.00    -0.376 N 
ATOM     87  C   UNL A   1      37.412  28.607  32.700  1.00  0.00    -0.023 C 
ATOM     88  C   UNL A   1      39.213  29.411  31.383  1.00  0.00     0.031 C 
ATOM     89  C   UNL A   1      38.696  29.347  29.923  1.00  0.00     0.114 C 
ATOM     90  H   UNL A   1      38.342  31.013  28.656  1.00  0.00     0.161 HD
ATOM     91  C   UNL A   1      38.240  27.570  32.526  1.00  0.00    -0.030 C 
ATOM     92  C   UNL A   1      39.560  28.036  31.995  1.00  0.00     0.034 C 
BRANCH  89  93
ATOM     93  C   UNL A   1      39.786  28.972  28.926  1.00  0.00    -0.025 A 
ATOM     94  C   UNL A   1      39.606  28.031  27.893  1.00  0.00     0.007 A 
ATOM     95  C   UNL A   1      41.029  29.601  29.036  1.00  0.00     0.007 A 
ATOM     96  C   UNL A   1      40.637  27.747  26.987  1.00  0.00     0.022 A 
ATOM     97  C   UNL A   1      42.034  29.351  28.111  1.00  0.00     0.022 A 
ATOM     98  C   UNL A   1      41.849  28.429  27.091  1.00  0.00     0.082 A 
BRANCH  98  99
ATOM     99  S   UNL A   1      43.132  28.118  25.897  1.00  0.00     0.243 S 
ATOM    100  O   UNL A   1      42.498  28.196  24.595  1.00  0.00    -0.207 OA
ATOM    101  O   UNL A   1      44.242  28.970  26.258  1.00  0.00    -0.207 OA
BRANCH  99 102
ATOM    102  N   UNL A   1      43.599  26.530  26.158  1.00  0.00    -0.193 NA
ATOM    103  C   UNL A   1      43.719  25.545  25.063  1.00  0.00     0.131 C 
ATOM    104  C   UNL A   1      43.868  26.009  27.510  1.00  0.00     0.131 C 
ATOM    105  C   UNL A   1      43.050  24.206  25.421  1.00  0.00     0.177 C 
ATOM    106  C   UNL A   1      43.087  24.713  27.739  1.00  0.00     0.177 C 
ATOM    107  O   UNL A   1      43.394  23.739  26.731  1.00  0.00    -0.379 OA
ENDBRANCH  99 102
ENDBRANCH  98  99
ENDBRANCH  89  93
ENDBRANCH  75  78
ENDBRANCH  73  74
ENDBRANCH   1  73
TORSDOF 14
ENDMDL
