MODEL 1
REMARK VINA RESULT:     -11.5      0.000      0.000
REMARK SMILES N#Cc1nccnc1N(CC(=O)NCCCCNC(=O)c1ccc(-c2c3nc(c(-c4c(F)c(F)c(F)c(F)c4F)c4ccc([nH]4)c(-c4c(F)c(F)c(F)c(F)c4F)c4nc(c(-c5c(F)c(F)c(F)c(F)c5F)c5ccc2[nH]5)C=C4)C=C3)cc1)CC(F)(F)F
REMARK SMILES IDX 15 1 14 2 13 3 11 4 12 5 10 7 9 8 8 9 3 10 4 11 5 12 7 13
REMARK SMILES IDX 6 14 2 15 1 16 84 17 85 18 86 19 87 20 88 21 16 22 17 23
REMARK SMILES IDX 18 24 19 25 20 27 21 28 22 29 83 30 23 31 82 32 24 33 25 34
REMARK SMILES IDX 26 35 76 36 27 37 81 38 75 39 77 40 28 41 80 42 74 43 73 44
REMARK SMILES IDX 29 46 61 47 41 48 60 49 42 50 45 51 59 52 78 53 43 54 44 55
REMARK SMILES IDX 58 57 79 58 46 59 30 60 31 61 39 62 32 63 33 64 37 65 40 66
REMARK SMILES IDX 34 67 35 68 38 69 36 70 62 71 63 72 71 73 64 74 65 75 69 76
REMARK SMILES IDX 72 77 66 78 67 79 70 80 68 81 47 82 48 83 56 84 49 85 50 86
REMARK SMILES IDX 54 87 57 88 51 89 52 90 55 91 53 92
REMARK H PARENT 13 6 18 26 77 45 45 56
REMARK Flexibility Score: inf
ROOT
ATOM      1  C   UNL A   1      32.036  30.318  26.887  1.00  0.00     0.023 C 
ENDROOT
BRANCH   1   2
ATOM      2  C   UNL A   1      33.460  29.875  26.561  1.00  0.00     0.116 C 
BRANCH   2   3
ATOM      3  N   UNL A   1      33.656  29.681  25.139  1.00  0.00    -0.355 N 
ATOM      4  C   UNL A   1      33.747  28.504  24.453  1.00  0.00     0.239 C 
ATOM      5  O   UNL A   1      33.970  28.541  23.240  1.00  0.00    -0.273 OA
ATOM      6  H   UNL A   1      33.732  30.502  24.599  1.00  0.00     0.163 HD
BRANCH   4   7
ATOM      7  C   UNL A   1      33.577  27.169  25.188  1.00  0.00     0.218 C 
BRANCH   7   8
ATOM      8  N   UNL A   1      32.357  26.428  24.767  1.00  0.00    -0.336 N 
BRANCH   8   9
ATOM      9  C   UNL A   1      32.518  25.138  24.281  1.00  0.00     0.166 A 
ATOM     10  C   UNL A   1      32.170  23.915  24.891  1.00  0.00     0.183 A 
ATOM     11  N   UNL A   1      32.331  22.688  24.296  1.00  0.00    -0.240 NA
ATOM     12  C   UNL A   1      32.866  22.681  23.065  1.00  0.00     0.133 A 
ATOM     13  N   UNL A   1      33.073  25.054  23.038  1.00  0.00    -0.235 NA
ATOM     14  C   UNL A   1      33.239  23.846  22.448  1.00  0.00     0.133 A 
BRANCH  10  15
ATOM     15  C   UNL A   1      31.653  23.793  26.222  1.00  0.00     0.123 C 
ATOM     16  N   UNL A   1      31.262  23.679  27.308  1.00  0.00    -0.191 NA
ENDBRANCH  10  15
ENDBRANCH   8   9
BRANCH   8  17
ATOM     17  C   UNL A   1      31.065  27.107  25.084  1.00  0.00     0.234 C 
BRANCH  17  18
ATOM     18  C   UNL A   1      30.351  27.832  23.924  1.00  0.00     0.405 C 
ATOM     19  F   UNL A   1      29.064  27.441  23.791  1.00  0.00    -0.169 F 
ATOM     20  F   UNL A   1      30.350  29.169  24.126  1.00  0.00    -0.169 F 
ATOM     21  F   UNL A   1      30.962  27.608  22.739  1.00  0.00    -0.169 F 
ENDBRANCH  17  18
ENDBRANCH   8  17
ENDBRANCH   7   8
ENDBRANCH   4   7
ENDBRANCH   2   3
ENDBRANCH   1   2
BRANCH   1  22
ATOM     22  C   UNL A   1      31.808  31.823  26.766  1.00  0.00     0.023 C 
BRANCH  22  23
ATOM     23  C   UNL A   1      32.854  32.659  27.483  1.00  0.00     0.116 C 
BRANCH  23  24
ATOM     24  N   UNL A   1      32.461  34.055  27.642  1.00  0.00    -0.352 N 
ATOM     25  C   UNL A   1      32.938  34.982  28.541  1.00  0.00     0.251 C 
ATOM     26  H   UNL A   1      31.764  34.376  27.027  1.00  0.00     0.163 HD
ATOM     27  O   UNL A   1      32.406  36.080  28.653  1.00  0.00    -0.269 OA
BRANCH  25  28
ATOM     28  C   UNL A   1      34.077  34.607  29.403  1.00  0.00     0.039 A 
ATOM     29  C   UNL A   1      35.361  34.549  28.864  1.00  0.00     0.014 A 
ATOM     30  C   UNL A   1      33.844  34.209  30.720  1.00  0.00     0.014 A 
ATOM     31  C   UNL A   1      36.354  33.869  29.551  1.00  0.00     0.010 A 
ATOM     32  C   UNL A   1      34.887  33.646  31.462  1.00  0.00     0.010 A 
ATOM     33  C   UNL A   1      36.131  33.403  30.857  1.00  0.00    -0.014 A 
BRANCH  33  34
ATOM     34  C   UNL A   1      37.207  32.630  31.537  1.00  0.00     0.031 A 
ATOM     35  C   UNL A   1      37.907  31.498  30.832  1.00  0.00     0.074 A 
ATOM     36  C   UNL A   1      37.613  33.013  32.764  1.00  0.00     0.049 A 
ATOM     37  N   UNL A   1      38.898  30.751  31.256  1.00  0.00    -0.248 NA
ATOM     38  C   UNL A   1      37.437  31.148  29.481  1.00  0.00     0.031 C 
ATOM     39  C   UNL A   1      37.023  34.104  33.541  1.00  0.00     0.029 A 
ATOM     40  N   UNL A   1      38.636  32.559  33.557  1.00  0.00    -0.354 N 
ATOM     41  C   UNL A   1      39.153  29.841  30.237  1.00  0.00     0.074 A 
ATOM     42  C   UNL A   1      38.185  30.093  29.193  1.00  0.00     0.031 C 
ATOM     43  C   UNL A   1      37.735  34.282  34.662  1.00  0.00     0.029 A 
ATOM     44  C   UNL A   1      38.779  33.266  34.727  1.00  0.00     0.049 A 
ATOM     45  H   UNL A   1      39.213  31.799  33.311  1.00  0.00     0.167 HD
ATOM     46  C   UNL A   1      40.124  28.900  30.166  1.00  0.00     0.037 A 
ATOM     47  C   UNL A   1      39.640  33.105  35.749  1.00  0.00     0.037 A 
ATOM     48  C   UNL A   1      41.108  28.674  31.195  1.00  0.00     0.049 A 
ATOM     49  C   UNL A   1      40.663  32.007  35.673  1.00  0.00     0.074 A 
ATOM     50  C   UNL A   1      42.150  27.764  31.202  1.00  0.00     0.029 A 
ATOM     51  N   UNL A   1      41.171  29.365  32.395  1.00  0.00    -0.354 N 
ATOM     52  N   UNL A   1      40.917  31.180  34.688  1.00  0.00    -0.248 NA
ATOM     53  C   UNL A   1      41.514  31.811  36.855  1.00  0.00     0.031 C 
ATOM     54  C   UNL A   1      42.802  27.858  32.432  1.00  0.00     0.029 A 
ATOM     55  C   UNL A   1      42.208  28.870  33.170  1.00  0.00     0.049 A 
ATOM     56  H   UNL A   1      40.567  30.098  32.659  1.00  0.00     0.167 HD
ATOM     57  C   UNL A   1      41.957  30.373  35.125  1.00  0.00     0.074 A 
ATOM     58  C   UNL A   1      42.313  30.833  36.451  1.00  0.00     0.031 C 
ATOM     59  C   UNL A   1      42.553  29.336  34.488  1.00  0.00     0.037 A 
BRANCH  46  60
ATOM     60  C   UNL A   1      40.183  28.034  28.940  1.00  0.00     0.064 A 
ATOM     61  C   UNL A   1      40.930  28.404  27.811  1.00  0.00     0.173 A 
ATOM     62  C   UNL A   1      39.550  26.780  28.922  1.00  0.00     0.173 A 
ATOM     63  F   UNL A   1      41.548  29.594  27.770  1.00  0.00    -0.203 F 
ATOM     64  C   UNL A   1      41.023  27.563  26.704  1.00  0.00     0.198 A 
ATOM     65  C   UNL A   1      39.675  25.927  27.829  1.00  0.00     0.198 A 
ATOM     66  F   UNL A   1      38.832  26.370  29.979  1.00  0.00    -0.203 F 
ATOM     67  F   UNL A   1      41.709  27.956  25.622  1.00  0.00    -0.200 F 
ATOM     68  C   UNL A   1      40.407  26.322  26.719  1.00  0.00     0.200 A 
ATOM     69  F   UNL A   1      39.094  24.720  27.853  1.00  0.00    -0.200 F 
ATOM     70  F   UNL A   1      40.516  25.504  25.662  1.00  0.00    -0.200 F 
ENDBRANCH  46  60
BRANCH  47  71
ATOM     71  C   UNL A   1      39.560  34.008  36.927  1.00  0.00     0.064 A 
ATOM     72  C   UNL A   1      38.828  33.646  38.065  1.00  0.00     0.173 A 
ATOM     73  C   UNL A   1      40.234  35.240  36.951  1.00  0.00     0.173 A 
ATOM     74  F   UNL A   1      38.151  32.488  38.086  1.00  0.00    -0.203 F 
ATOM     75  C   UNL A   1      38.765  34.483  39.177  1.00  0.00     0.198 A 
ATOM     76  C   UNL A   1      40.201  36.059  38.076  1.00  0.00     0.198 A 
ATOM     77  F   UNL A   1      40.952  35.634  35.889  1.00  0.00    -0.203 F 
ATOM     78  F   UNL A   1      38.027  34.130  40.238  1.00  0.00    -0.200 F 
ATOM     79  C   UNL A   1      39.460  35.684  39.186  1.00  0.00     0.200 A 
ATOM     80  F   UNL A   1      40.892  37.207  38.087  1.00  0.00    -0.200 F 
ATOM     81  F   UNL A   1      39.415  36.480  40.263  1.00  0.00    -0.200 F 
ENDBRANCH  47  71
BRANCH  59  82
ATOM     82  C   UNL A   1      43.649  28.610  35.212  1.00  0.00     0.064 A 
ATOM     83  C   UNL A   1      43.376  27.489  36.008  1.00  0.00     0.173 A 
ATOM     84  C   UNL A   1      44.993  28.973  35.026  1.00  0.00     0.173 A 
ATOM     85  F   UNL A   1      42.108  27.110  36.228  1.00  0.00    -0.203 F 
ATOM     86  C   UNL A   1      44.406  26.761  36.598  1.00  0.00     0.198 A 
ATOM     87  C   UNL A   1      46.021  28.221  35.588  1.00  0.00     0.198 A 
ATOM     88  F   UNL A   1      45.310  30.032  34.266  1.00  0.00    -0.203 F 
ATOM     89  F   UNL A   1      44.118  25.712  37.379  1.00  0.00    -0.200 F 
ATOM     90  C   UNL A   1      45.727  27.119  36.375  1.00  0.00     0.200 A 
ATOM     91  F   UNL A   1      47.298  28.555  35.354  1.00  0.00    -0.200 F 
ATOM     92  F   UNL A   1      46.718  26.398  36.919  1.00  0.00    -0.200 F 
ENDBRANCH  59  82
ENDBRANCH  33  34
ENDBRANCH  25  28
ENDBRANCH  23  24
ENDBRANCH  22  23
ENDBRANCH   1  22
TORSDOF 16
ENDMDL
MODEL 2
REMARK VINA RESULT:     -11.4      1.937      7.899
REMARK SMILES N#Cc1nccnc1N(CC(=O)NCCCCNC(=O)c1ccc(-c2c3nc(c(-c4c(F)c(F)c(F)c(F)c4F)c4ccc([nH]4)c(-c4c(F)c(F)c(F)c(F)c4F)c4nc(c(-c5c(F)c(F)c(F)c(F)c5F)c5ccc2[nH]5)C=C4)C=C3)cc1)CC(F)(F)F
REMARK SMILES IDX 15 1 14 2 13 3 11 4 12 5 10 7 9 8 8 9 3 10 4 11 5 12 7 13
REMARK SMILES IDX 6 14 2 15 1 16 84 17 85 18 86 19 87 20 88 21 16 22 17 23
REMARK SMILES IDX 18 24 19 25 20 27 21 28 22 29 83 30 23 31 82 32 24 33 25 34
REMARK SMILES IDX 26 35 76 36 27 37 81 38 75 39 77 40 28 41 80 42 74 43 73 44
REMARK SMILES IDX 29 46 61 47 41 48 60 49 42 50 45 51 59 52 78 53 43 54 44 55
REMARK SMILES IDX 58 57 79 58 46 59 30 60 31 61 39 62 32 63 33 64 37 65 40 66
REMARK SMILES IDX 34 67 35 68 38 69 36 70 62 71 63 72 71 73 64 74 65 75 69 76
REMARK SMILES IDX 72 77 66 78 67 79 70 80 68 81 47 82 48 83 56 84 49 85 50 86
REMARK SMILES IDX 54 87 57 88 51 89 52 90 55 91 53 92
REMARK H PARENT 13 6 18 26 77 45 45 56
REMARK Flexibility Score: inf
ROOT
ATOM      1  C   UNL A   1      31.909  29.047  24.256  1.00  0.00     0.023 C 
ENDROOT
BRANCH   1   2
ATOM      2  C   UNL A   1      30.794  28.392  23.446  1.00  0.00     0.116 C 
BRANCH   2   3
ATOM      3  N   UNL A   1      31.306  27.672  22.298  1.00  0.00    -0.355 N 
ATOM      4  C   UNL A   1      31.452  26.323  22.144  1.00  0.00     0.239 C 
ATOM      5  O   UNL A   1      31.961  25.897  21.104  1.00  0.00    -0.273 OA
ATOM      6  H   UNL A   1      31.585  28.226  21.533  1.00  0.00     0.163 HD
BRANCH   4   7
ATOM      7  C   UNL A   1      30.989  25.368  23.250  1.00  0.00     0.218 C 
BRANCH   7   8
ATOM      8  N   UNL A   1      32.122  24.764  24.004  1.00  0.00    -0.336 N 
BRANCH   8   9
ATOM      9  C   UNL A   1      32.138  23.386  24.157  1.00  0.00     0.166 A 
ATOM     10  C   UNL A   1      31.553  22.602  25.173  1.00  0.00     0.183 A 
ATOM     11  N   UNL A   1      31.590  21.230  25.202  1.00  0.00    -0.240 NA
ATOM     12  C   UNL A   1      32.241  20.624  24.195  1.00  0.00     0.133 A 
ATOM     13  N   UNL A   1      32.799  22.704  23.177  1.00  0.00    -0.235 NA
ATOM     14  C   UNL A   1      32.844  21.351  23.203  1.00  0.00     0.133 A 
BRANCH  10  15
ATOM     15  C   UNL A   1      30.891  23.136  26.326  1.00  0.00     0.123 C 
ATOM     16  N   UNL A   1      30.328  23.576  27.241  1.00  0.00    -0.191 NA
ENDBRANCH  10  15
ENDBRANCH   8   9
BRANCH   8  17
ATOM     17  C   UNL A   1      33.217  25.715  24.366  1.00  0.00     0.234 C 
BRANCH  17  18
ATOM     18  C   UNL A   1      33.432  25.999  25.867  1.00  0.00     0.405 C 
ATOM     19  F   UNL A   1      34.207  27.086  26.076  1.00  0.00    -0.169 F 
ATOM     20  F   UNL A   1      32.250  26.217  26.486  1.00  0.00    -0.169 F 
ATOM     21  F   UNL A   1      34.024  24.958  26.495  1.00  0.00    -0.169 F 
ENDBRANCH  17  18
ENDBRANCH   8  17
ENDBRANCH   7   8
ENDBRANCH   4   7
ENDBRANCH   2   3
ENDBRANCH   1   2
BRANCH   1  22
ATOM     22  C   UNL A   1      31.413  29.952  25.382  1.00  0.00     0.023 C 
BRANCH  22  23
ATOM     23  C   UNL A   1      32.515  30.432  26.311  1.00  0.00     0.116 C 
BRANCH  23  24
ATOM     24  N   UNL A   1      32.324  31.805  26.765  1.00  0.00    -0.352 N 
ATOM     25  C   UNL A   1      33.163  32.578  27.535  1.00  0.00     0.251 C 
ATOM     26  H   UNL A   1      31.485  32.235  26.484  1.00  0.00     0.163 HD
ATOM     27  O   UNL A   1      32.800  33.668  27.960  1.00  0.00    -0.269 OA
BRANCH  25  28
ATOM     28  C   UNL A   1      34.496  32.043  27.879  1.00  0.00     0.039 A 
ATOM     29  C   UNL A   1      34.630  30.702  28.237  1.00  0.00     0.014 A 
ATOM     30  C   UNL A   1      35.590  32.907  27.948  1.00  0.00     0.014 A 
ATOM     31  C   UNL A   1      35.779  30.288  28.892  1.00  0.00     0.010 A 
ATOM     32  C   UNL A   1      36.795  32.446  28.485  1.00  0.00     0.010 A 
ATOM     33  C   UNL A   1      36.877  31.155  29.031  1.00  0.00    -0.014 A 
BRANCH  33  34
ATOM     34  C   UNL A   1      38.069  30.686  29.788  1.00  0.00     0.031 A 
ATOM     35  C   UNL A   1      38.263  31.063  31.234  1.00  0.00     0.074 A 
ATOM     36  C   UNL A   1      38.934  29.842  29.191  1.00  0.00     0.049 A 
ATOM     37  N   UNL A   1      39.217  30.703  32.058  1.00  0.00    -0.248 NA
ATOM     38  C   UNL A   1      37.267  31.963  31.838  1.00  0.00     0.031 C 
ATOM     39  C   UNL A   1      38.844  29.392  27.801  1.00  0.00     0.029 A 
ATOM     40  N   UNL A   1      40.033  29.182  29.681  1.00  0.00    -0.354 N 
ATOM     41  C   UNL A   1      38.944  31.344  33.261  1.00  0.00     0.074 A 
ATOM     42  C   UNL A   1      37.765  32.154  33.051  1.00  0.00     0.031 C 
ATOM     43  C   UNL A   1      39.798  28.479  27.571  1.00  0.00     0.029 A 
ATOM     44  C   UNL A   1      40.620  28.340  28.767  1.00  0.00     0.049 A 
ATOM     45  H   UNL A   1      40.368  29.300  30.600  1.00  0.00     0.167 HD
ATOM     46  C   UNL A   1      39.601  31.245  34.441  1.00  0.00     0.037 A 
ATOM     47  C   UNL A   1      41.710  27.557  28.871  1.00  0.00     0.037 A 
ATOM     48  C   UNL A   1      40.756  30.411  34.655  1.00  0.00     0.049 A 
ATOM     49  C   UNL A   1      42.460  27.520  30.172  1.00  0.00     0.074 A 
ATOM     50  C   UNL A   1      41.473  30.221  35.824  1.00  0.00     0.029 A 
ATOM     51  N   UNL A   1      41.362  29.631  33.682  1.00  0.00    -0.354 N 
ATOM     52  N   UNL A   1      42.168  28.101  31.310  1.00  0.00    -0.248 NA
ATOM     53  C   UNL A   1      43.697  26.727  30.203  1.00  0.00     0.031 C 
ATOM     54  C   UNL A   1      42.550  29.378  35.542  1.00  0.00     0.029 A 
ATOM     55  C   UNL A   1      42.471  28.992  34.213  1.00  0.00     0.049 A 
ATOM     56  H   UNL A   1      41.050  29.545  32.751  1.00  0.00     0.167 HD
ATOM     57  C   UNL A   1      43.176  27.740  32.193  1.00  0.00     0.074 A 
ATOM     58  C   UNL A   1      44.069  26.860  31.469  1.00  0.00     0.031 C 
ATOM     59  C   UNL A   1      43.351  28.117  33.482  1.00  0.00     0.037 A 
BRANCH  46  60
ATOM     60  C   UNL A   1      39.096  32.053  35.603  1.00  0.00     0.064 A 
ATOM     61  C   UNL A   1      38.275  31.490  36.592  1.00  0.00     0.173 A 
ATOM     62  C   UNL A   1      39.503  33.387  35.773  1.00  0.00     0.173 A 
ATOM     63  F   UNL A   1      37.850  30.223  36.476  1.00  0.00    -0.203 F 
ATOM     64  C   UNL A   1      37.864  32.236  37.694  1.00  0.00     0.198 A 
ATOM     65  C   UNL A   1      39.119  34.118  36.894  1.00  0.00     0.198 A 
ATOM     66  F   UNL A   1      40.296  33.973  34.864  1.00  0.00    -0.203 F 
ATOM     67  F   UNL A   1      37.048  31.687  38.605  1.00  0.00    -0.200 F 
ATOM     68  C   UNL A   1      38.295  33.544  37.850  1.00  0.00     0.200 A 
ATOM     69  F   UNL A   1      39.553  35.376  37.052  1.00  0.00    -0.200 F 
ATOM     70  F   UNL A   1      37.917  34.253  38.923  1.00  0.00    -0.200 F 
ENDBRANCH  46  60
BRANCH  47  71
ATOM     71  C   UNL A   1      42.152  26.753  27.700  1.00  0.00     0.064 A 
ATOM     72  C   UNL A   1      43.112  27.245  26.807  1.00  0.00     0.173 A 
ATOM     73  C   UNL A   1      41.642  25.466  27.465  1.00  0.00     0.173 A 
ATOM     74  F   UNL A   1      43.616  28.477  26.977  1.00  0.00    -0.203 F 
ATOM     75  C   UNL A   1      43.539  26.487  25.719  1.00  0.00     0.198 A 
ATOM     76  C   UNL A   1      42.096  24.694  26.399  1.00  0.00     0.198 A 
ATOM     77  F   UNL A   1      40.723  24.944  28.291  1.00  0.00    -0.203 F 
ATOM     78  F   UNL A   1      44.430  26.996  24.858  1.00  0.00    -0.200 F 
ATOM     79  C   UNL A   1      43.039  25.208  25.522  1.00  0.00     0.200 A 
ATOM     80  F   UNL A   1      41.627  23.451  26.227  1.00  0.00    -0.200 F 
ATOM     81  F   UNL A   1      43.464  24.471  24.487  1.00  0.00    -0.200 F 
ENDBRANCH  47  71
BRANCH  59  82
ATOM     82  C   UNL A   1      44.558  27.593  34.205  1.00  0.00     0.064 A 
ATOM     83  C   UNL A   1      45.744  28.338  34.274  1.00  0.00     0.173 A 
ATOM     84  C   UNL A   1      44.497  26.386  34.921  1.00  0.00     0.173 A 
ATOM     85  F   UNL A   1      45.858  29.490  33.596  1.00  0.00    -0.203 F 
ATOM     86  C   UNL A   1      46.827  27.892  35.026  1.00  0.00     0.198 A 
ATOM     87  C   UNL A   1      45.569  25.962  35.701  1.00  0.00     0.198 A 
ATOM     88  F   UNL A   1      43.382  25.639  34.896  1.00  0.00    -0.203 F 
ATOM     89  F   UNL A   1      47.960  28.606  35.051  1.00  0.00    -0.200 F 
ATOM     90  C   UNL A   1      46.733  26.713  35.750  1.00  0.00     0.200 A 
ATOM     91  F   UNL A   1      45.469  24.834  36.417  1.00  0.00    -0.200 F 
ATOM     92  F   UNL A   1      47.766  26.301  36.498  1.00  0.00    -0.200 F 
ENDBRANCH  59  82
ENDBRANCH  33  34
ENDBRANCH  25  28
ENDBRANCH  23  24
ENDBRANCH  22  23
ENDBRANCH   1  22
TORSDOF 16
ENDMDL
MODEL 3
REMARK VINA RESULT:     -11.4      0.196      1.614
REMARK SMILES N#Cc1nccnc1N(CC(=O)NCCCCNC(=O)c1ccc(-c2c3nc(c(-c4c(F)c(F)c(F)c(F)c4F)c4ccc([nH]4)c(-c4c(F)c(F)c(F)c(F)c4F)c4nc(c(-c5c(F)c(F)c(F)c(F)c5F)c5ccc2[nH]5)C=C4)C=C3)cc1)CC(F)(F)F
REMARK SMILES IDX 15 1 14 2 13 3 11 4 12 5 10 7 9 8 8 9 3 10 4 11 5 12 7 13
REMARK SMILES IDX 6 14 2 15 1 16 84 17 85 18 86 19 87 20 88 21 16 22 17 23
REMARK SMILES IDX 18 24 19 25 20 27 21 28 22 29 83 30 23 31 82 32 24 33 25 34
REMARK SMILES IDX 26 35 76 36 27 37 81 38 75 39 77 40 28 41 80 42 74 43 73 44
REMARK SMILES IDX 29 46 61 47 41 48 60 49 42 50 45 51 59 52 78 53 43 54 44 55
REMARK SMILES IDX 58 57 79 58 46 59 30 60 31 61 39 62 32 63 33 64 37 65 40 66
REMARK SMILES IDX 34 67 35 68 38 69 36 70 62 71 63 72 71 73 64 74 65 75 69 76
REMARK SMILES IDX 72 77 66 78 67 79 70 80 68 81 47 82 48 83 56 84 49 85 50 86
REMARK SMILES IDX 54 87 57 88 51 89 52 90 55 91 53 92
REMARK H PARENT 13 6 18 26 77 45 45 56
REMARK Flexibility Score: inf
ROOT
ATOM      1  C   UNL A   1      32.019  30.237  26.937  1.00  0.00     0.023 C 
ENDROOT
BRANCH   1   2
ATOM      2  C   UNL A   1      33.451  29.816  26.617  1.00  0.00     0.116 C 
BRANCH   2   3
ATOM      3  N   UNL A   1      33.657  29.629  25.195  1.00  0.00    -0.355 N 
ATOM      4  C   UNL A   1      33.661  28.459  24.490  1.00  0.00     0.239 C 
ATOM      5  O   UNL A   1      33.909  28.497  23.282  1.00  0.00    -0.273 OA
ATOM      6  H   UNL A   1      33.813  30.449  24.672  1.00  0.00     0.163 HD
BRANCH   4   7
ATOM      7  C   UNL A   1      33.363  27.133  25.198  1.00  0.00     0.218 C 
BRANCH   7   8
ATOM      8  N   UNL A   1      32.147  26.455  24.670  1.00  0.00    -0.336 N 
BRANCH   8   9
ATOM      9  C   UNL A   1      32.288  25.170  24.168  1.00  0.00     0.166 A 
ATOM     10  C   UNL A   1      31.983  23.941  24.788  1.00  0.00     0.183 A 
ATOM     11  N   UNL A   1      32.118  22.718  24.177  1.00  0.00    -0.240 NA
ATOM     12  C   UNL A   1      32.582  22.723  22.917  1.00  0.00     0.133 A 
ATOM     13  N   UNL A   1      32.773  25.097  22.895  1.00  0.00    -0.235 NA
ATOM     14  C   UNL A   1      32.913  23.894  22.289  1.00  0.00     0.133 A 
BRANCH  10  15
ATOM     15  C   UNL A   1      31.542  23.806  26.145  1.00  0.00     0.123 C 
ATOM     16  N   UNL A   1      31.171  23.727  27.242  1.00  0.00    -0.191 NA
ENDBRANCH  10  15
ENDBRANCH   8   9
BRANCH   8  17
ATOM     17  C   UNL A   1      30.865  27.185  24.907  1.00  0.00     0.234 C 
BRANCH  17  18
ATOM     18  C   UNL A   1      30.139  27.747  23.667  1.00  0.00     0.405 C 
ATOM     19  F   UNL A   1      29.019  27.050  23.371  1.00  0.00    -0.169 F 
ATOM     20  F   UNL A   1      29.776  29.034  23.869  1.00  0.00    -0.169 F 
ATOM     21  F   UNL A   1      30.928  27.723  22.570  1.00  0.00    -0.169 F 
ENDBRANCH  17  18
ENDBRANCH   8  17
ENDBRANCH   7   8
ENDBRANCH   4   7
ENDBRANCH   2   3
ENDBRANCH   1   2
BRANCH   1  22
ATOM     22  C   UNL A   1      31.768  31.738  26.812  1.00  0.00     0.023 C 
BRANCH  22  23
ATOM     23  C   UNL A   1      32.842  32.593  27.462  1.00  0.00     0.116 C 
BRANCH  23  24
ATOM     24  N   UNL A   1      32.447  33.989  27.619  1.00  0.00    -0.352 N 
ATOM     25  C   UNL A   1      32.911  34.914  28.527  1.00  0.00     0.251 C 
ATOM     26  H   UNL A   1      31.759  34.311  26.995  1.00  0.00     0.163 HD
ATOM     27  O   UNL A   1      32.377  36.011  28.634  1.00  0.00    -0.269 OA
BRANCH  25  28
ATOM     28  C   UNL A   1      34.037  34.537  29.404  1.00  0.00     0.039 A 
ATOM     29  C   UNL A   1      35.337  34.551  28.902  1.00  0.00     0.014 A 
ATOM     30  C   UNL A   1      33.782  34.065  30.693  1.00  0.00     0.014 A 
ATOM     31  C   UNL A   1      36.334  33.874  29.585  1.00  0.00     0.010 A 
ATOM     32  C   UNL A   1      34.823  33.504  31.437  1.00  0.00     0.010 A 
ATOM     33  C   UNL A   1      36.091  33.335  30.860  1.00  0.00    -0.014 A 
BRANCH  33  34
ATOM     34  C   UNL A   1      37.175  32.569  31.533  1.00  0.00     0.031 A 
ATOM     35  C   UNL A   1      37.889  31.451  30.819  1.00  0.00     0.074 A 
ATOM     36  C   UNL A   1      37.575  32.944  32.764  1.00  0.00     0.049 A 
ATOM     37  N   UNL A   1      38.888  30.712  31.237  1.00  0.00    -0.248 NA
ATOM     38  C   UNL A   1      37.426  31.109  29.464  1.00  0.00     0.031 C 
ATOM     39  C   UNL A   1      36.972  34.021  33.552  1.00  0.00     0.029 A 
ATOM     40  N   UNL A   1      38.603  32.494  33.555  1.00  0.00    -0.354 N 
ATOM     41  C   UNL A   1      39.155  29.815  30.209  1.00  0.00     0.074 A 
ATOM     42  C   UNL A   1      38.186  30.065  29.167  1.00  0.00     0.031 C 
ATOM     43  C   UNL A   1      37.681  34.196  34.675  1.00  0.00     0.029 A 
ATOM     44  C   UNL A   1      38.736  33.191  34.731  1.00  0.00     0.049 A 
ATOM     45  H   UNL A   1      39.189  31.743  33.303  1.00  0.00     0.167 HD
ATOM     46  C   UNL A   1      40.137  28.885  30.131  1.00  0.00     0.037 A 
ATOM     47  C   UNL A   1      39.598  33.030  35.753  1.00  0.00     0.037 A 
ATOM     48  C   UNL A   1      41.121  28.661  31.159  1.00  0.00     0.049 A 
ATOM     49  C   UNL A   1      40.633  31.945  35.669  1.00  0.00     0.074 A 
ATOM     50  C   UNL A   1      42.174  27.762  31.159  1.00  0.00     0.029 A 
ATOM     51  N   UNL A   1      41.175  29.340  32.366  1.00  0.00    -0.354 N 
ATOM     52  N   UNL A   1      40.897  31.131  34.676  1.00  0.00    -0.248 NA
ATOM     53  C   UNL A   1      41.485  31.747  36.850  1.00  0.00     0.031 C 
ATOM     54  C   UNL A   1      42.824  27.852  32.391  1.00  0.00     0.029 A 
ATOM     55  C   UNL A   1      42.217  28.849  33.138  1.00  0.00     0.049 A 
ATOM     56  H   UNL A   1      40.563  30.064  32.636  1.00  0.00     0.167 HD
ATOM     57  C   UNL A   1      41.946  30.331  35.107  1.00  0.00     0.074 A 
ATOM     58  C   UNL A   1      42.295  30.782  36.438  1.00  0.00     0.031 C 
ATOM     59  C   UNL A   1      42.555  29.307  34.461  1.00  0.00     0.037 A 
BRANCH  46  60
ATOM     60  C   UNL A   1      40.208  28.031  28.897  1.00  0.00     0.064 A 
ATOM     61  C   UNL A   1      40.935  28.430  27.765  1.00  0.00     0.173 A 
ATOM     62  C   UNL A   1      39.606  26.762  28.873  1.00  0.00     0.173 A 
ATOM     63  F   UNL A   1      41.523  29.636  27.730  1.00  0.00    -0.203 F 
ATOM     64  C   UNL A   1      41.041  27.601  26.650  1.00  0.00     0.198 A 
ATOM     65  C   UNL A   1      39.743  25.922  27.771  1.00  0.00     0.198 A 
ATOM     66  F   UNL A   1      38.907  26.325  29.931  1.00  0.00    -0.203 F 
ATOM     67  F   UNL A   1      41.707  28.021  25.566  1.00  0.00    -0.200 F 
ATOM     68  C   UNL A   1      40.455  26.345  26.659  1.00  0.00     0.200 A 
ATOM     69  F   UNL A   1      39.193  24.701  27.789  1.00  0.00    -0.200 F 
ATOM     70  F   UNL A   1      40.576  25.540  25.593  1.00  0.00    -0.200 F 
ENDBRANCH  46  60
BRANCH  47  71
ATOM     71  C   UNL A   1      39.506  33.921  36.940  1.00  0.00     0.064 A 
ATOM     72  C   UNL A   1      40.139  35.171  36.956  1.00  0.00     0.173 A 
ATOM     73  C   UNL A   1      38.763  33.553  38.073  1.00  0.00     0.173 A 
ATOM     74  F   UNL A   1      40.877  35.561  35.906  1.00  0.00    -0.203 F 
ATOM     75  C   UNL A   1      40.040  36.013  38.061  1.00  0.00     0.198 A 
ATOM     76  C   UNL A   1      38.634  34.411  39.162  1.00  0.00     0.198 A 
ATOM     77  F   UNL A   1      38.133  32.369  38.110  1.00  0.00    -0.203 F 
ATOM     78  F   UNL A   1      40.686  37.187  38.065  1.00  0.00    -0.200 F 
ATOM     79  C   UNL A   1      39.279  35.638  39.158  1.00  0.00     0.200 A 
ATOM     80  F   UNL A   1      37.879  34.053  40.209  1.00  0.00    -0.200 F 
ATOM     81  F   UNL A   1      39.169  36.457  40.213  1.00  0.00    -0.200 F 
ENDBRANCH  47  71
BRANCH  59  82
ATOM     82  C   UNL A   1      43.659  28.587  35.179  1.00  0.00     0.064 A 
ATOM     83  C   UNL A   1      44.995  28.993  35.053  1.00  0.00     0.173 A 
ATOM     84  C   UNL A   1      43.369  27.548  36.078  1.00  0.00     0.173 A 
ATOM     85  F   UNL A   1      45.325  29.971  34.195  1.00  0.00    -0.203 F 
ATOM     86  C   UNL A   1      46.002  28.383  35.795  1.00  0.00     0.198 A 
ATOM     87  C   UNL A   1      44.374  26.965  36.846  1.00  0.00     0.198 A 
ATOM     88  F   UNL A   1      42.106  27.127  36.244  1.00  0.00    -0.203 F 
ATOM     89  F   UNL A   1      47.275  28.769  35.634  1.00  0.00    -0.200 F 
ATOM     90  C   UNL A   1      45.689  27.381  36.701  1.00  0.00     0.200 A 
ATOM     91  F   UNL A   1      44.068  26.012  37.736  1.00  0.00    -0.200 F 
ATOM     92  F   UNL A   1      46.657  26.817  37.437  1.00  0.00    -0.200 F 
ENDBRANCH  59  82
ENDBRANCH  33  34
ENDBRANCH  25  28
ENDBRANCH  23  24
ENDBRANCH  22  23
ENDBRANCH   1  22
TORSDOF 16
ENDMDL
