MODEL 1
REMARK VINA RESULT:     -11.9      0.000      0.000
REMARK SMILES C[C@@H]1[C@@H](C(=O)NCCCCNC(=O)c2ccc(-c3c4nc(c(-c5c(F)c(F)c(F)c(F)c5F)c5ccc([nH]5)c(-c5c(F)c(F)c(F)c(F)c5F)c5nc(c(-c6c(F)c(F)c(F)c(F)c6F)c6ccc3[nH]6)C=C5)C=C4)cc2)CCN1C(=O)CCCSc1ccccc1
REMARK SMILES IDX 4 1 5 2 6 3 3 5 1 6 2 7 79 8 77 9 78 10 80 11 81 12 82 13
REMARK SMILES IDX 83 14 84 15 85 16 86 17 87 18 91 19 88 20 90 21 89 22 7 23
REMARK SMILES IDX 8 24 9 25 10 26 11 27 12 28 13 30 14 31 15 32 76 33 16 34
REMARK SMILES IDX 75 35 17 36 18 37 19 38 69 39 20 40 74 41 68 42 70 43 21 44
REMARK SMILES IDX 73 45 67 46 66 47 22 49 54 50 34 51 53 52 35 53 38 54 52 55
REMARK SMILES IDX 71 56 36 57 37 58 51 60 72 61 39 62 23 63 24 64 32 65 25 66
REMARK SMILES IDX 26 67 30 68 33 69 27 70 28 71 31 72 29 73 55 74 56 75 64 76
REMARK SMILES IDX 57 77 58 78 62 79 65 80 59 81 60 82 63 83 61 84 40 85 41 86
REMARK SMILES IDX 49 87 42 88 43 89 47 90 50 91 44 92 45 93 48 94 46 95
REMARK H PARENT 6 4 11 29 70 48 38 59
REMARK Flexibility Score: inf
ROOT
ATOM      1  C   UNL A   1      35.431  23.667  23.878  1.00  0.00     0.225 C 
ATOM      2  O   UNL A   1      34.798  24.075  22.906  1.00  0.00    -0.275 OA
ATOM      3  N   UNL A   1      36.482  22.824  23.660  1.00  0.00    -0.356 N 
ATOM      4  H   UNL A   1      36.675  22.601  22.721  1.00  0.00     0.163 HD
ENDROOT
BRANCH   1   5
ATOM      5  C   UNL A   1      35.073  23.998  25.321  1.00  0.00     0.102 C 
ATOM      6  C   UNL A   1      34.082  22.953  27.368  1.00  0.00     0.032 C 
ATOM      7  C   UNL A   1      33.980  23.068  25.850  1.00  0.00     0.094 C 
ATOM      8  N   UNL A   1      32.742  23.713  25.413  1.00  0.00    -0.339 N 
ATOM      9  C   UNL A   1      34.410  25.373  25.477  1.00  0.00     0.037 C 
ATOM     10  C   UNL A   1      32.958  25.111  25.111  1.00  0.00     0.120 C 
BRANCH   8  11
ATOM     11  C   UNL A   1      31.590  23.077  24.987  1.00  0.00     0.222 C 
ATOM     12  O   UNL A   1      30.804  22.552  25.777  1.00  0.00    -0.275 OA
BRANCH  11  13
ATOM     13  C   UNL A   1      31.391  22.935  23.490  1.00  0.00     0.101 C 
BRANCH  13  14
ATOM     14  C   UNL A   1      32.235  21.899  22.753  1.00  0.00     0.021 C 
BRANCH  14  15
ATOM     15  C   UNL A   1      32.516  20.583  23.499  1.00  0.00     0.075 C 
BRANCH  15  16
ATOM     16  S   UNL A   1      32.153  18.960  22.688  1.00  0.00    -0.126 SA
BRANCH  16  17
ATOM     17  C   UNL A   1      32.952  17.741  23.712  1.00  0.00     0.007 A 
ATOM     18  C   UNL A   1      34.163  17.140  23.351  1.00  0.00     0.015 A 
ATOM     19  C   UNL A   1      32.319  17.326  24.889  1.00  0.00     0.015 A 
ATOM     20  C   UNL A   1      34.769  16.201  24.199  1.00  0.00     0.001 A 
ATOM     21  C   UNL A   1      32.938  16.419  25.751  1.00  0.00     0.001 A 
ATOM     22  C   UNL A   1      34.169  15.863  25.412  1.00  0.00     0.000 A 
ENDBRANCH  16  17
ENDBRANCH  15  16
ENDBRANCH  14  15
ENDBRANCH  13  14
ENDBRANCH  11  13
ENDBRANCH   8  11
ENDBRANCH   1   5
BRANCH   3  23
ATOM     23  C   UNL A   1      37.343  22.220  24.654  1.00  0.00     0.116 C 
BRANCH  23  24
ATOM     24  C   UNL A   1      36.923  20.809  25.023  1.00  0.00     0.023 C 
BRANCH  24  25
ATOM     25  C   UNL A   1      38.051  19.783  24.985  1.00  0.00     0.023 C 
BRANCH  25  26
ATOM     26  C   UNL A   1      39.306  20.172  25.757  1.00  0.00     0.116 C 
BRANCH  26  27
ATOM     27  N   UNL A   1      40.249  19.071  25.901  1.00  0.00    -0.352 N 
ATOM     28  C   UNL A   1      41.602  19.110  26.126  1.00  0.00     0.251 C 
ATOM     29  H   UNL A   1      39.860  18.169  25.825  1.00  0.00     0.163 HD
ATOM     30  O   UNL A   1      42.273  18.084  26.078  1.00  0.00    -0.269 OA
BRANCH  28  31
ATOM     31  C   UNL A   1      42.246  20.409  26.391  1.00  0.00     0.039 A 
ATOM     32  C   UNL A   1      42.756  21.144  25.320  1.00  0.00     0.014 A 
ATOM     33  C   UNL A   1      42.289  20.920  27.690  1.00  0.00     0.014 A 
ATOM     34  C   UNL A   1      43.246  22.429  25.544  1.00  0.00     0.010 A 
ATOM     35  C   UNL A   1      42.683  22.235  27.894  1.00  0.00     0.010 A 
ATOM     36  C   UNL A   1      43.176  23.001  26.826  1.00  0.00    -0.014 A 
BRANCH  36  37
ATOM     37  C   UNL A   1      43.636  24.387  27.080  1.00  0.00     0.031 A 
ATOM     38  C   UNL A   1      42.663  25.411  27.598  1.00  0.00     0.074 A 
ATOM     39  C   UNL A   1      44.901  24.742  26.784  1.00  0.00     0.049 A 
ATOM     40  N   UNL A   1      42.841  26.689  27.814  1.00  0.00    -0.248 NA
ATOM     41  C   UNL A   1      41.297  24.939  27.879  1.00  0.00     0.031 C 
ATOM     42  C   UNL A   1      45.922  23.853  26.228  1.00  0.00     0.029 A 
ATOM     43  N   UNL A   1      45.540  25.951  26.900  1.00  0.00    -0.354 N 
ATOM     44  C   UNL A   1      41.609  27.173  28.235  1.00  0.00     0.074 A 
ATOM     45  C   UNL A   1      40.677  26.069  28.180  1.00  0.00     0.031 C 
ATOM     46  C   UNL A   1      47.067  24.538  26.081  1.00  0.00     0.029 A 
ATOM     47  C   UNL A   1      46.852  25.922  26.492  1.00  0.00     0.049 A 
ATOM     48  H   UNL A   1      45.102  26.761  27.246  1.00  0.00     0.167 HD
ATOM     49  C   UNL A   1      41.290  28.419  28.659  1.00  0.00     0.037 A 
ATOM     50  C   UNL A   1      47.772  26.904  26.451  1.00  0.00     0.037 A 
ATOM     51  C   UNL A   1      42.229  29.507  28.737  1.00  0.00     0.049 A 
ATOM     52  C   UNL A   1      47.392  28.283  26.923  1.00  0.00     0.074 A 
ATOM     53  C   UNL A   1      42.022  30.792  29.203  1.00  0.00     0.029 A 
ATOM     54  N   UNL A   1      43.555  29.433  28.335  1.00  0.00    -0.354 N 
ATOM     55  N   UNL A   1      46.243  28.712  27.385  1.00  0.00    -0.248 NA
ATOM     56  C   UNL A   1      48.442  29.309  26.877  1.00  0.00     0.031 C 
ATOM     57  C   UNL A   1      43.210  31.512  29.037  1.00  0.00     0.029 A 
ATOM     58  C   UNL A   1      44.174  30.657  28.524  1.00  0.00     0.049 A 
ATOM     59  H   UNL A   1      43.990  28.629  27.970  1.00  0.00     0.167 HD
ATOM     60  C   UNL A   1      46.440  30.046  27.719  1.00  0.00     0.074 A 
ATOM     61  C   UNL A   1      47.824  30.349  27.416  1.00  0.00     0.031 C 
ATOM     62  C   UNL A   1      45.557  30.938  28.232  1.00  0.00     0.037 A 
BRANCH  49  63
ATOM     63  C   UNL A   1      39.868  28.665  29.075  1.00  0.00     0.064 A 
ATOM     64  C   UNL A   1      38.901  29.123  28.165  1.00  0.00     0.173 A 
ATOM     65  C   UNL A   1      39.460  28.423  30.396  1.00  0.00     0.173 A 
ATOM     66  F   UNL A   1      39.240  29.383  26.893  1.00  0.00    -0.203 F 
ATOM     67  C   UNL A   1      37.591  29.366  28.571  1.00  0.00     0.198 A 
ATOM     68  C   UNL A   1      38.141  28.633  30.789  1.00  0.00     0.198 A 
ATOM     69  F   UNL A   1      40.340  27.980  31.306  1.00  0.00    -0.203 F 
ATOM     70  F   UNL A   1      36.703  29.862  27.698  1.00  0.00    -0.200 F 
ATOM     71  C   UNL A   1      37.211  29.114  29.880  1.00  0.00     0.200 A 
ATOM     72  F   UNL A   1      37.770  28.375  32.051  1.00  0.00    -0.200 F 
ATOM     73  F   UNL A   1      35.948  29.342  30.267  1.00  0.00    -0.200 F 
ENDBRANCH  49  63
BRANCH  50  74
ATOM     74  C   UNL A   1      49.151  26.613  25.977  1.00  0.00     0.064 A 
ATOM     75  C   UNL A   1      50.100  26.039  26.836  1.00  0.00     0.173 A 
ATOM     76  C   UNL A   1      49.553  26.906  24.666  1.00  0.00     0.173 A 
ATOM     77  F   UNL A   1      49.768  25.757  28.104  1.00  0.00    -0.203 F 
ATOM     78  C   UNL A   1      51.402  25.791  26.409  1.00  0.00     0.198 A 
ATOM     79  C   UNL A   1      50.848  26.630  24.231  1.00  0.00     0.198 A 
ATOM     80  F   UNL A   1      48.682  27.450  23.802  1.00  0.00    -0.203 F 
ATOM     81  F   UNL A   1      52.300  25.287  27.265  1.00  0.00    -0.200 F 
ATOM     82  C   UNL A   1      51.774  26.082  25.105  1.00  0.00     0.200 A 
ATOM     83  F   UNL A   1      51.198  26.898  22.966  1.00  0.00    -0.200 F 
ATOM     84  F   UNL A   1      53.025  25.839  24.693  1.00  0.00    -0.200 F 
ENDBRANCH  50  74
BRANCH  62  85
ATOM     85  C   UNL A   1      46.071  32.312  28.552  1.00  0.00     0.064 A 
ATOM     86  C   UNL A   1      46.032  33.355  27.615  1.00  0.00     0.173 A 
ATOM     87  C   UNL A   1      46.574  32.597  29.831  1.00  0.00     0.173 A 
ATOM     88  F   UNL A   1      45.573  33.131  26.375  1.00  0.00    -0.203 F 
ATOM     89  C   UNL A   1      46.502  34.624  27.939  1.00  0.00     0.198 A 
ATOM     90  C   UNL A   1      47.011  33.875  30.162  1.00  0.00     0.198 A 
ATOM     91  F   UNL A   1      46.626  31.636  30.767  1.00  0.00    -0.203 F 
ATOM     92  F   UNL A   1      46.504  35.592  27.012  1.00  0.00    -0.200 F 
ATOM     93  C   UNL A   1      46.984  34.886  29.213  1.00  0.00     0.200 A 
ATOM     94  F   UNL A   1      47.461  34.130  31.398  1.00  0.00    -0.200 F 
ATOM     95  F   UNL A   1      47.430  36.111  29.525  1.00  0.00    -0.200 F 
ENDBRANCH  62  85
ENDBRANCH  36  37
ENDBRANCH  28  31
ENDBRANCH  26  27
ENDBRANCH  25  26
ENDBRANCH  24  25
ENDBRANCH  23  24
ENDBRANCH   3  23
TORSDOF 17
ENDMDL
MODEL 2
REMARK VINA RESULT:     -11.7      2.024      8.169
REMARK SMILES C[C@@H]1[C@@H](C(=O)NCCCCNC(=O)c2ccc(-c3c4nc(c(-c5c(F)c(F)c(F)c(F)c5F)c5ccc([nH]5)c(-c5c(F)c(F)c(F)c(F)c5F)c5nc(c(-c6c(F)c(F)c(F)c(F)c6F)c6ccc3[nH]6)C=C5)C=C4)cc2)CCN1C(=O)CCCSc1ccccc1
REMARK SMILES IDX 4 1 5 2 6 3 3 5 1 6 2 7 79 8 77 9 78 10 80 11 81 12 82 13
REMARK SMILES IDX 83 14 84 15 85 16 86 17 87 18 91 19 88 20 90 21 89 22 7 23
REMARK SMILES IDX 8 24 9 25 10 26 11 27 12 28 13 30 14 31 15 32 76 33 16 34
REMARK SMILES IDX 75 35 17 36 18 37 19 38 69 39 20 40 74 41 68 42 70 43 21 44
REMARK SMILES IDX 73 45 67 46 66 47 22 49 54 50 34 51 53 52 35 53 38 54 52 55
REMARK SMILES IDX 71 56 36 57 37 58 51 60 72 61 39 62 23 63 24 64 32 65 25 66
REMARK SMILES IDX 26 67 30 68 33 69 27 70 28 71 31 72 29 73 55 74 56 75 64 76
REMARK SMILES IDX 57 77 58 78 62 79 65 80 59 81 60 82 63 83 61 84 40 85 41 86
REMARK SMILES IDX 49 87 42 88 43 89 47 90 50 91 44 92 45 93 48 94 46 95
REMARK H PARENT 6 4 11 29 70 48 38 59
REMARK Flexibility Score: inf
ROOT
ATOM      1  C   UNL A   1      35.355  23.646  24.912  1.00  0.00     0.225 C 
ATOM      2  O   UNL A   1      35.082  24.589  25.651  1.00  0.00    -0.275 OA
ATOM      3  N   UNL A   1      36.561  23.026  25.069  1.00  0.00    -0.356 N 
ATOM      4  H   UNL A   1      37.140  23.374  25.786  1.00  0.00     0.163 HD
ENDROOT
BRANCH   1   5
ATOM      5  C   UNL A   1      34.452  23.166  23.783  1.00  0.00     0.102 C 
ATOM      6  C   UNL A   1      32.943  24.047  21.991  1.00  0.00     0.032 C 
ATOM      7  C   UNL A   1      33.387  24.209  23.442  1.00  0.00     0.094 C 
ATOM      8  N   UNL A   1      32.315  23.927  24.396  1.00  0.00    -0.339 N 
ATOM      9  C   UNL A   1      33.588  21.959  24.174  1.00  0.00     0.037 C 
ATOM     10  C   UNL A   1      32.424  22.585  24.925  1.00  0.00     0.120 C 
BRANCH   8  11
ATOM     11  C   UNL A   1      31.501  24.857  25.018  1.00  0.00     0.222 C 
ATOM     12  O   UNL A   1      31.685  25.210  26.184  1.00  0.00    -0.275 OA
BRANCH  11  13
ATOM     13  C   UNL A   1      30.284  25.336  24.250  1.00  0.00     0.101 C 
BRANCH  13  14
ATOM     14  C   UNL A   1      30.188  26.823  23.922  1.00  0.00     0.021 C 
BRANCH  14  15
ATOM     15  C   UNL A   1      31.014  27.318  22.722  1.00  0.00     0.075 C 
BRANCH  15  16
ATOM     16  S   UNL A   1      32.082  28.821  22.887  1.00  0.00    -0.126 SA
BRANCH  16  17
ATOM     17  C   UNL A   1      32.589  28.846  24.594  1.00  0.00     0.007 A 
ATOM     18  C   UNL A   1      32.046  29.743  25.522  1.00  0.00     0.015 A 
ATOM     19  C   UNL A   1      33.605  27.980  25.011  1.00  0.00     0.015 A 
ATOM     20  C   UNL A   1      32.459  29.712  26.862  1.00  0.00     0.001 A 
ATOM     21  C   UNL A   1      33.990  27.923  26.352  1.00  0.00     0.001 A 
ATOM     22  C   UNL A   1      33.410  28.782  27.281  1.00  0.00     0.000 A 
ENDBRANCH  16  17
ENDBRANCH  15  16
ENDBRANCH  14  15
ENDBRANCH  13  14
ENDBRANCH  11  13
ENDBRANCH   8  11
ENDBRANCH   1   5
BRANCH   3  23
ATOM     23  C   UNL A   1      37.084  21.916  24.303  1.00  0.00     0.116 C 
BRANCH  23  24
ATOM     24  C   UNL A   1      36.937  20.584  25.016  1.00  0.00     0.023 C 
BRANCH  24  25
ATOM     25  C   UNL A   1      38.163  19.681  24.928  1.00  0.00     0.023 C 
BRANCH  25  26
ATOM     26  C   UNL A   1      39.337  20.097  25.805  1.00  0.00     0.116 C 
BRANCH  26  27
ATOM     27  N   UNL A   1      40.377  19.080  25.885  1.00  0.00    -0.352 N 
ATOM     28  C   UNL A   1      41.721  19.227  26.123  1.00  0.00     0.251 C 
ATOM     29  H   UNL A   1      40.072  18.153  25.747  1.00  0.00     0.163 HD
ATOM     30  O   UNL A   1      42.483  18.272  26.014  1.00  0.00    -0.269 OA
BRANCH  28  31
ATOM     31  C   UNL A   1      42.242  20.559  26.477  1.00  0.00     0.039 A 
ATOM     32  C   UNL A   1      42.692  21.403  25.461  1.00  0.00     0.014 A 
ATOM     33  C   UNL A   1      42.230  20.989  27.806  1.00  0.00     0.014 A 
ATOM     34  C   UNL A   1      43.062  22.710  25.771  1.00  0.00     0.010 A 
ATOM     35  C   UNL A   1      42.503  22.318  28.097  1.00  0.00     0.010 A 
ATOM     36  C   UNL A   1      42.931  23.191  27.085  1.00  0.00    -0.014 A 
BRANCH  36  37
ATOM     37  C   UNL A   1      43.263  24.594  27.431  1.00  0.00     0.031 A 
ATOM     38  C   UNL A   1      44.701  25.034  27.461  1.00  0.00     0.074 A 
ATOM     39  C   UNL A   1      42.284  25.450  27.782  1.00  0.00     0.049 A 
ATOM     40  N   UNL A   1      45.208  26.188  27.809  1.00  0.00    -0.248 NA
ATOM     41  C   UNL A   1      45.705  24.028  27.079  1.00  0.00     0.031 C 
ATOM     42  C   UNL A   1      40.857  25.128  27.841  1.00  0.00     0.029 A 
ATOM     43  N   UNL A   1      42.343  26.767  28.164  1.00  0.00    -0.354 N 
ATOM     44  C   UNL A   1      46.585  26.039  27.707  1.00  0.00     0.074 A 
ATOM     45  C   UNL A   1      46.837  24.666  27.331  1.00  0.00     0.031 C 
ATOM     46  C   UNL A   1      40.174  26.225  28.207  1.00  0.00     0.029 A 
ATOM     47  C   UNL A   1      41.115  27.314  28.447  1.00  0.00     0.049 A 
ATOM     48  H   UNL A   1      43.185  27.272  28.228  1.00  0.00     0.167 HD
ATOM     49  C   UNL A   1      47.552  26.972  27.881  1.00  0.00     0.037 A 
ATOM     50  C   UNL A   1      40.789  28.554  28.858  1.00  0.00     0.037 A 
ATOM     51  C   UNL A   1      47.292  28.343  28.230  1.00  0.00     0.049 A 
ATOM     52  C   UNL A   1      41.883  29.572  29.050  1.00  0.00     0.074 A 
ATOM     53  C   UNL A   1      48.195  29.381  28.377  1.00  0.00     0.029 A 
ATOM     54  N   UNL A   1      46.033  28.866  28.487  1.00  0.00    -0.354 N 
ATOM     55  N   UNL A   1      43.176  29.440  28.883  1.00  0.00    -0.248 NA
ATOM     56  C   UNL A   1      41.467  30.915  29.477  1.00  0.00     0.031 C 
ATOM     57  C   UNL A   1      47.487  30.520  28.773  1.00  0.00     0.029 A 
ATOM     58  C   UNL A   1      46.137  30.208  28.812  1.00  0.00     0.049 A 
ATOM     59  H   UNL A   1      45.191  28.358  28.444  1.00  0.00     0.167 HD
ATOM     60  C   UNL A   1      43.725  30.687  29.148  1.00  0.00     0.074 A 
ATOM     61  C   UNL A   1      42.621  31.566  29.476  1.00  0.00     0.031 C 
ATOM     62  C   UNL A   1      45.025  31.072  29.120  1.00  0.00     0.037 A 
BRANCH  49  63
ATOM     63  C   UNL A   1      48.976  26.534  27.691  1.00  0.00     0.064 A 
ATOM     64  C   UNL A   1      49.551  26.428  26.415  1.00  0.00     0.173 A 
ATOM     65  C   UNL A   1      49.782  26.232  28.799  1.00  0.00     0.173 A 
ATOM     66  F   UNL A   1      48.821  26.691  25.320  1.00  0.00    -0.203 F 
ATOM     67  C   UNL A   1      50.867  26.000  26.254  1.00  0.00     0.198 A 
ATOM     68  C   UNL A   1      51.108  25.840  28.636  1.00  0.00     0.198 A 
ATOM     69  F   UNL A   1      49.286  26.321  30.043  1.00  0.00    -0.203 F 
ATOM     70  F   UNL A   1      51.373  25.847  25.022  1.00  0.00    -0.200 F 
ATOM     71  C   UNL A   1      51.646  25.714  27.364  1.00  0.00     0.200 A 
ATOM     72  F   UNL A   1      51.864  25.577  29.711  1.00  0.00    -0.200 F 
ATOM     73  F   UNL A   1      52.913  25.308  27.208  1.00  0.00    -0.200 F 
ENDBRANCH  49  63
BRANCH  50  74
ATOM     74  C   UNL A   1      39.364  28.914  29.083  1.00  0.00     0.064 A 
ATOM     75  C   UNL A   1      38.566  29.380  28.028  1.00  0.00     0.173 A 
ATOM     76  C   UNL A   1      38.773  28.809  30.350  1.00  0.00     0.173 A 
ATOM     77  F   UNL A   1      39.091  29.515  26.802  1.00  0.00    -0.203 F 
ATOM     78  C   UNL A   1      37.238  29.747  28.236  1.00  0.00     0.198 A 
ATOM     79  C   UNL A   1      37.436  29.149  30.551  1.00  0.00     0.198 A 
ATOM     80  F   UNL A   1      39.491  28.363  31.392  1.00  0.00    -0.203 F 
ATOM     81  F   UNL A   1      36.513  30.234  27.221  1.00  0.00    -0.200 F 
ATOM     82  C   UNL A   1      36.673  29.626  29.497  1.00  0.00     0.200 A 
ATOM     83  F   UNL A   1      36.889  29.014  31.767  1.00  0.00    -0.200 F 
ATOM     84  F   UNL A   1      35.395  29.976  29.696  1.00  0.00    -0.200 F 
ENDBRANCH  50  74
BRANCH  62  85
ATOM     85  C   UNL A   1      45.323  32.517  29.398  1.00  0.00     0.064 A 
ATOM     86  C   UNL A   1      45.626  32.977  30.688  1.00  0.00     0.173 A 
ATOM     87  C   UNL A   1      45.345  33.448  28.347  1.00  0.00     0.173 A 
ATOM     88  F   UNL A   1      45.606  32.131  31.728  1.00  0.00    -0.203 F 
ATOM     89  C   UNL A   1      45.912  34.320  30.919  1.00  0.00     0.198 A 
ATOM     90  C   UNL A   1      45.664  34.782  28.577  1.00  0.00     0.198 A 
ATOM     91  F   UNL A   1      45.070  33.058  27.093  1.00  0.00    -0.203 F 
ATOM     92  F   UNL A   1      46.147  34.747  32.168  1.00  0.00    -0.200 F 
ATOM     93  C   UNL A   1      45.938  35.219  29.864  1.00  0.00     0.200 A 
ATOM     94  F   UNL A   1      45.706  35.646  27.553  1.00  0.00    -0.200 F 
ATOM     95  F   UNL A   1      46.221  36.510  30.088  1.00  0.00    -0.200 F 
ENDBRANCH  62  85
ENDBRANCH  36  37
ENDBRANCH  28  31
ENDBRANCH  26  27
ENDBRANCH  25  26
ENDBRANCH  24  25
ENDBRANCH  23  24
ENDBRANCH   3  23
TORSDOF 17
ENDMDL
MODEL 3
REMARK VINA RESULT:     -11.7      5.827     10.980
REMARK SMILES C[C@@H]1[C@@H](C(=O)NCCCCNC(=O)c2ccc(-c3c4nc(c(-c5c(F)c(F)c(F)c(F)c5F)c5ccc([nH]5)c(-c5c(F)c(F)c(F)c(F)c5F)c5nc(c(-c6c(F)c(F)c(F)c(F)c6F)c6ccc3[nH]6)C=C5)C=C4)cc2)CCN1C(=O)CCCSc1ccccc1
REMARK SMILES IDX 4 1 5 2 6 3 3 5 1 6 2 7 79 8 77 9 78 10 80 11 81 12 82 13
REMARK SMILES IDX 83 14 84 15 85 16 86 17 87 18 91 19 88 20 90 21 89 22 7 23
REMARK SMILES IDX 8 24 9 25 10 26 11 27 12 28 13 30 14 31 15 32 76 33 16 34
REMARK SMILES IDX 75 35 17 36 18 37 19 38 69 39 20 40 74 41 68 42 70 43 21 44
REMARK SMILES IDX 73 45 67 46 66 47 22 49 54 50 34 51 53 52 35 53 38 54 52 55
REMARK SMILES IDX 71 56 36 57 37 58 51 60 72 61 39 62 23 63 24 64 32 65 25 66
REMARK SMILES IDX 26 67 30 68 33 69 27 70 28 71 31 72 29 73 55 74 56 75 64 76
REMARK SMILES IDX 57 77 58 78 62 79 65 80 59 81 60 82 63 83 61 84 40 85 41 86
REMARK SMILES IDX 49 87 42 88 43 89 47 90 50 91 44 92 45 93 48 94 46 95
REMARK H PARENT 6 4 11 29 70 48 38 59
REMARK Flexibility Score: inf
ROOT
ATOM      1  C   UNL A   1      32.884  27.613  25.725  1.00  0.00     0.225 C 
ATOM      2  O   UNL A   1      33.080  26.436  26.020  1.00  0.00    -0.275 OA
ATOM      3  N   UNL A   1      33.342  28.579  26.573  1.00  0.00    -0.356 N 
ATOM      4  H   UNL A   1      33.818  28.264  27.376  1.00  0.00     0.163 HD
ENDROOT
BRANCH   1   5
ATOM      5  C   UNL A   1      32.103  28.059  24.496  1.00  0.00     0.102 C 
ATOM      6  C   UNL A   1      30.437  27.205  22.835  1.00  0.00     0.032 C 
ATOM      7  C   UNL A   1      31.690  26.864  23.636  1.00  0.00     0.094 C 
ATOM      8  N   UNL A   1      32.859  26.634  22.787  1.00  0.00    -0.339 N 
ATOM      9  C   UNL A   1      32.947  28.874  23.507  1.00  0.00     0.037 C 
ATOM     10  C   UNL A   1      33.698  27.811  22.721  1.00  0.00     0.120 C 
BRANCH   8  11
ATOM     11  C   UNL A   1      33.344  25.408  22.369  1.00  0.00     0.222 C 
ATOM     12  O   UNL A   1      33.140  24.979  21.232  1.00  0.00    -0.275 OA
BRANCH  11  13
ATOM     13  C   UNL A   1      34.031  24.544  23.409  1.00  0.00     0.101 C 
BRANCH  13  14
ATOM     14  C   UNL A   1      33.882  23.030  23.289  1.00  0.00     0.021 C 
BRANCH  14  15
ATOM     15  C   UNL A   1      33.562  22.265  24.584  1.00  0.00     0.075 C 
BRANCH  15  16
ATOM     16  S   UNL A   1      32.197  21.015  24.612  1.00  0.00    -0.126 SA
BRANCH  16  17
ATOM     17  C   UNL A   1      32.960  19.483  24.118  1.00  0.00     0.007 A 
ATOM     18  C   UNL A   1      34.181  19.052  24.650  1.00  0.00     0.015 A 
ATOM     19  C   UNL A   1      32.350  18.713  23.122  1.00  0.00     0.015 A 
ATOM     20  C   UNL A   1      34.735  17.827  24.249  1.00  0.00     0.001 A 
ATOM     21  C   UNL A   1      32.881  17.477  22.749  1.00  0.00     0.001 A 
ATOM     22  C   UNL A   1      34.069  17.028  23.319  1.00  0.00     0.000 A 
ENDBRANCH  16  17
ENDBRANCH  15  16
ENDBRANCH  14  15
ENDBRANCH  13  14
ENDBRANCH  11  13
ENDBRANCH   8  11
ENDBRANCH   1   5
BRANCH   3  23
ATOM     23  C   UNL A   1      33.208  30.012  26.426  1.00  0.00     0.116 C 
BRANCH  23  24
ATOM     24  C   UNL A   1      31.827  30.518  26.801  1.00  0.00     0.023 C 
BRANCH  24  25
ATOM     25  C   UNL A   1      31.673  32.035  26.748  1.00  0.00     0.023 C 
BRANCH  25  26
ATOM     26  C   UNL A   1      32.860  32.825  27.286  1.00  0.00     0.116 C 
BRANCH  26  27
ATOM     27  N   UNL A   1      32.520  34.199  27.629  1.00  0.00    -0.352 N 
ATOM     28  C   UNL A   1      33.031  34.999  28.620  1.00  0.00     0.251 C 
ATOM     29  H   UNL A   1      31.823  34.613  27.070  1.00  0.00     0.163 HD
ATOM     30  O   UNL A   1      32.528  36.091  28.863  1.00  0.00    -0.269 OA
BRANCH  28  31
ATOM     31  C   UNL A   1      34.174  34.512  29.414  1.00  0.00     0.039 A 
ATOM     32  C   UNL A   1      33.930  33.858  30.622  1.00  0.00     0.014 A 
ATOM     33  C   UNL A   1      35.477  34.654  28.931  1.00  0.00     0.014 A 
ATOM     34  C   UNL A   1      34.993  33.278  31.313  1.00  0.00     0.010 A 
ATOM     35  C   UNL A   1      36.517  33.991  29.567  1.00  0.00     0.010 A 
ATOM     36  C   UNL A   1      36.289  33.305  30.770  1.00  0.00    -0.014 A 
BRANCH  36  37
ATOM     37  C   UNL A   1      37.427  32.646  31.456  1.00  0.00     0.031 A 
ATOM     38  C   UNL A   1      38.142  31.506  30.783  1.00  0.00     0.074 A 
ATOM     39  C   UNL A   1      37.773  33.024  32.701  1.00  0.00     0.049 A 
ATOM     40  N   UNL A   1      39.106  30.748  31.238  1.00  0.00    -0.248 NA
ATOM     41  C   UNL A   1      37.686  31.150  29.430  1.00  0.00     0.031 C 
ATOM     42  C   UNL A   1      37.123  34.081  33.478  1.00  0.00     0.029 A 
ATOM     43  N   UNL A   1      38.754  32.553  33.538  1.00  0.00    -0.354 N 
ATOM     44  C   UNL A   1      39.356  29.819  30.237  1.00  0.00     0.074 A 
ATOM     45  C   UNL A   1      38.399  30.063  29.181  1.00  0.00     0.031 C 
ATOM     46  C   UNL A   1      37.742  34.198  34.664  1.00  0.00     0.029 A 
ATOM     47  C   UNL A   1      38.803  33.200  34.749  1.00  0.00     0.049 A 
ATOM     48  H   UNL A   1      39.365  31.822  33.293  1.00  0.00     0.167 HD
ATOM     49  C   UNL A   1      40.317  28.866  30.189  1.00  0.00     0.037 A 
ATOM     50  C   UNL A   1      39.612  33.005  35.807  1.00  0.00     0.037 A 
ATOM     51  C   UNL A   1      41.283  28.645  31.232  1.00  0.00     0.049 A 
ATOM     52  C   UNL A   1      40.670  31.936  35.732  1.00  0.00     0.074 A 
ATOM     53  C   UNL A   1      42.331  27.744  31.260  1.00  0.00     0.029 A 
ATOM     54  N   UNL A   1      41.315  29.336  32.436  1.00  0.00    -0.354 N 
ATOM     55  N   UNL A   1      40.943  31.109  34.752  1.00  0.00    -0.248 NA
ATOM     56  C   UNL A   1      41.539  31.783  36.907  1.00  0.00     0.031 C 
ATOM     57  C   UNL A   1      42.968  27.854  32.500  1.00  0.00     0.029 A 
ATOM     58  C   UNL A   1      42.354  28.866  33.221  1.00  0.00     0.049 A 
ATOM     59  H   UNL A   1      40.692  30.053  32.691  1.00  0.00     0.167 HD
ATOM     60  C   UNL A   1      42.035  30.362  35.175  1.00  0.00     0.074 A 
ATOM     61  C   UNL A   1      42.380  30.845  36.497  1.00  0.00     0.031 C 
ATOM     62  C   UNL A   1      42.694  29.370  34.529  1.00  0.00     0.037 A 
BRANCH  49  63
ATOM     63  C   UNL A   1      40.368  27.997  28.965  1.00  0.00     0.064 A 
ATOM     64  C   UNL A   1      39.642  26.799  28.879  1.00  0.00     0.173 A 
ATOM     65  C   UNL A   1      41.140  28.375  27.856  1.00  0.00     0.173 A 
ATOM     66  F   UNL A   1      38.899  26.383  29.916  1.00  0.00    -0.203 F 
ATOM     67  C   UNL A   1      39.717  25.994  27.745  1.00  0.00     0.198 A 
ATOM     68  C   UNL A   1      41.183  27.585  26.710  1.00  0.00     0.198 A 
ATOM     69  F   UNL A   1      41.851  29.513  27.881  1.00  0.00    -0.203 F 
ATOM     70  F   UNL A   1      39.063  24.824  27.712  1.00  0.00    -0.200 F 
ATOM     71  C   UNL A   1      40.481  26.392  26.659  1.00  0.00     0.200 A 
ATOM     72  F   UNL A   1      41.911  27.978  25.655  1.00  0.00    -0.200 F 
ATOM     73  F   UNL A   1      40.547  25.619  25.566  1.00  0.00    -0.200 F 
ENDBRANCH  49  63
BRANCH  50  74
ATOM     74  C   UNL A   1      39.478  33.861  37.015  1.00  0.00     0.064 A 
ATOM     75  C   UNL A   1      38.726  33.434  38.119  1.00  0.00     0.173 A 
ATOM     76  C   UNL A   1      40.088  35.121  37.091  1.00  0.00     0.173 A 
ATOM     77  F   UNL A   1      38.108  32.244  38.087  1.00  0.00    -0.203 F 
ATOM     78  C   UNL A   1      38.572  34.243  39.243  1.00  0.00     0.198 A 
ATOM     79  C   UNL A   1      39.957  35.917  38.228  1.00  0.00     0.198 A 
ATOM     80  F   UNL A   1      40.824  35.575  36.065  1.00  0.00    -0.203 F 
ATOM     81  F   UNL A   1      37.808  33.829  40.263  1.00  0.00    -0.200 F 
ATOM     82  C   UNL A   1      39.192  35.482  39.299  1.00  0.00     0.200 A 
ATOM     83  F   UNL A   1      40.572  37.106  38.284  1.00  0.00    -0.200 F 
ATOM     84  F   UNL A   1      39.046  36.258  40.381  1.00  0.00    -0.200 F 
ENDBRANCH  50  74
BRANCH  62  85
ATOM     85  C   UNL A   1      43.890  28.774  35.214  1.00  0.00     0.064 A 
ATOM     86  C   UNL A   1      45.171  29.332  35.090  1.00  0.00     0.173 A 
ATOM     87  C   UNL A   1      43.741  27.649  36.041  1.00  0.00     0.173 A 
ATOM     88  F   UNL A   1      45.369  30.399  34.301  1.00  0.00    -0.203 F 
ATOM     89  C   UNL A   1      46.262  28.769  35.745  1.00  0.00     0.198 A 
ATOM     90  C   UNL A   1      44.828  27.109  36.721  1.00  0.00     0.198 A 
ATOM     91  F   UNL A   1      42.536  27.081  36.200  1.00  0.00    -0.203 F 
ATOM     92  F   UNL A   1      47.486  29.287  35.570  1.00  0.00    -0.200 F 
ATOM     93  C   UNL A   1      46.089  27.664  36.565  1.00  0.00     0.200 A 
ATOM     94  F   UNL A   1      44.656  26.052  37.526  1.00  0.00    -0.200 F 
ATOM     95  F   UNL A   1      47.141  27.128  37.201  1.00  0.00    -0.200 F 
ENDBRANCH  62  85
ENDBRANCH  36  37
ENDBRANCH  28  31
ENDBRANCH  26  27
ENDBRANCH  25  26
ENDBRANCH  24  25
ENDBRANCH  23  24
ENDBRANCH   3  23
TORSDOF 17
ENDMDL
