MODEL 1
REMARK VINA RESULT:     -14.8      0.000      0.000
REMARK SMILES COc1ccc(C2=NN(C(=O)CCC(=O)NCCCCNC(=O)c3ccc(-c4c5nc(c(-c6c(F)c(F)c(F)c(F)c6F)c6ccc([nH]6)c(-c6c(F)c(F)c(F)c(F)c6F)c6nc(c(-c7c(F)c(F)c(F)c(F)c7F)c7ccc4[nH]7)C=C6)C=C5)cc3)[C@H](c3ccc(Cl)cc3Cl)C2)cc1
REMARK SMILES IDX 17 1 16 2 14 3 15 4 13 6 12 7 10 8 11 9 9 10 7 11 8 12 96 13
REMARK SMILES IDX 87 14 6 15 3 16 4 17 98 18 5 19 97 20 2 21 1 22 88 23 89 24
REMARK SMILES IDX 94 25 90 26 93 27 95 28 91 29 92 30 18 31 19 32 20 33 21 34
REMARK SMILES IDX 22 35 23 37 24 38 25 39 86 40 26 41 85 42 27 43 28 44 29 45
REMARK SMILES IDX 79 46 30 47 84 48 78 49 80 50 31 51 83 52 77 53 76 54 32 56
REMARK SMILES IDX 64 57 44 58 63 59 45 60 48 61 62 62 81 63 46 64 47 65 61 67
REMARK SMILES IDX 82 68 49 69 33 70 34 71 42 72 35 73 36 74 40 75 43 76 37 77
REMARK SMILES IDX 38 78 41 79 39 80 65 81 66 82 74 83 67 84 68 85 72 86 75 87
REMARK SMILES IDX 69 88 70 89 73 90 71 91 50 92 51 93 59 94 52 95 53 96 57 97
REMARK SMILES IDX 60 98 54 99 55 100 58 101 56 102
REMARK H PARENT 16 5 21 36 80 55 48 66
REMARK Flexibility Score: inf
ROOT
ATOM      1  C   UNL A   1      34.247  30.712  27.374  1.00  0.00     0.116 C 
ENDROOT
BRANCH   1   2
ATOM      2  N   UNL A   1      32.879  30.208  26.797  1.00  0.00    -0.356 N 
ATOM      3  C   UNL A   1      32.566  29.192  25.950  1.00  0.00     0.220 C 
ATOM      4  O   UNL A   1      31.389  29.119  25.590  1.00  0.00    -0.275 OA
ATOM      5  H   UNL A   1      32.100  30.726  27.104  1.00  0.00     0.163 HD
BRANCH   3   6
ATOM      6  C   UNL A   1      33.601  28.188  25.508  1.00  0.00     0.110 C 
BRANCH   6   7
ATOM      7  C   UNL A   1      33.804  26.896  26.294  1.00  0.00     0.112 C 
BRANCH   7   8
ATOM      8  C   UNL A   1      34.198  25.674  25.502  1.00  0.00     0.243 C 
ATOM      9  O   UNL A   1      35.391  25.419  25.326  1.00  0.00    -0.273 OA
BRANCH   8  10
ATOM     10  N   UNL A   1      33.161  24.997  24.838  1.00  0.00    -0.225 N 
ATOM     11  C   UNL A   1      32.979  22.328  23.775  1.00  0.00     0.071 C 
ATOM     12  N   UNL A   1      33.439  23.174  25.017  1.00  0.00    -0.174 NA
ATOM     13  C   UNL A   1      32.318  23.637  22.248  1.00  0.00     0.091 C 
ATOM     14  C   UNL A   1      32.313  25.446  23.182  1.00  0.00     0.149 C 
BRANCH  11  15
ATOM     15  C   UNL A   1      32.741  20.788  24.261  1.00  0.00    -0.002 A 
ATOM     16  C   UNL A   1      32.407  17.976  24.765  1.00  0.00     0.118 A 
ATOM     17  C   UNL A   1      32.340  18.474  23.475  1.00  0.00     0.047 A 
ATOM     18  C   UNL A   1      32.824  18.805  25.774  1.00  0.00     0.047 A 
ATOM     19  C   UNL A   1      32.501  19.859  23.231  1.00  0.00     0.014 A 
ATOM     20  C   UNL A   1      32.989  20.173  25.509  1.00  0.00     0.014 A 
BRANCH  16  21
ATOM     21  O   UNL A   1      32.055  16.686  25.033  1.00  0.00    -0.497 OA
ATOM     22  C   UNL A   1      33.239  15.889  25.185  1.00  0.00     0.278 C 
ENDBRANCH  16  21
ENDBRANCH  11  15
BRANCH  14  23
ATOM     23  C   UNL A   1      31.048  26.418  23.479  1.00  0.00    -0.004 A 
ATOM     24  C   UNL A   1      30.818  27.642  22.818  1.00  0.00     0.009 A 
ATOM     25  C   UNL A   1      29.977  25.983  24.298  1.00  0.00     0.047 A 
ATOM     26  C   UNL A   1      29.541  28.225  22.743  1.00  0.00     0.021 A 
ATOM     27  C   UNL A   1      28.686  26.528  24.192  1.00  0.00     0.041 A 
ATOM     28  Cl  UNL A   1      30.218  24.965  25.681  1.00  0.00    -0.084 Cl
ATOM     29  C   UNL A   1      28.465  27.624  23.378  1.00  0.00     0.042 A 
ATOM     30  Cl  UNL A   1      26.886  28.283  23.216  1.00  0.00    -0.084 Cl
ENDBRANCH  14  23
ENDBRANCH   8  10
ENDBRANCH   7   8
ENDBRANCH   6   7
ENDBRANCH   3   6
ENDBRANCH   1   2
BRANCH   1  31
ATOM     31  C   UNL A   1      34.757  32.584  28.461  1.00  0.00     0.023 C 
BRANCH  31  32
ATOM     32  C   UNL A   1      33.484  33.971  28.675  1.00  0.00     0.023 C 
BRANCH  32  33
ATOM     33  C   UNL A   1      33.824  35.543  29.361  1.00  0.00     0.116 C 
BRANCH  33  34
ATOM     34  N   UNL A   1      32.847  36.193  30.324  1.00  0.00    -0.352 N 
ATOM     35  C   UNL A   1      32.571  35.985  31.658  1.00  0.00     0.251 C 
ATOM     36  H   UNL A   1      32.303  36.905  29.914  1.00  0.00     0.163 HD
ATOM     37  O   UNL A   1      31.575  36.440  32.202  1.00  0.00    -0.269 OA
BRANCH  35  38
ATOM     38  C   UNL A   1      33.540  35.201  32.394  1.00  0.00     0.039 A 
ATOM     39  C   UNL A   1      33.199  33.936  32.870  1.00  0.00     0.014 A 
ATOM     40  C   UNL A   1      34.845  35.680  32.352  1.00  0.00     0.014 A 
ATOM     41  C   UNL A   1      34.218  33.044  33.129  1.00  0.00     0.010 A 
ATOM     42  C   UNL A   1      35.859  34.793  32.601  1.00  0.00     0.010 A 
ATOM     43  C   UNL A   1      35.539  33.473  32.957  1.00  0.00    -0.014 A 
BRANCH  43  44
ATOM     44  C   UNL A   1      36.646  32.634  33.395  1.00  0.00     0.031 A 
ATOM     45  C   UNL A   1      37.171  32.946  34.750  1.00  0.00     0.074 A 
ATOM     46  C   UNL A   1      37.172  31.726  32.562  1.00  0.00     0.049 A 
ATOM     47  N   UNL A   1      38.305  32.621  35.293  1.00  0.00    -0.248 NA
ATOM     48  C   UNL A   1      36.305  33.792  35.595  1.00  0.00     0.031 C 
ATOM     49  C   UNL A   1      36.624  31.346  31.258  1.00  0.00     0.029 A 
ATOM     50  N   UNL A   1      38.299  30.968  32.689  1.00  0.00    -0.354 N 
ATOM     51  C   UNL A   1      38.307  33.258  36.524  1.00  0.00     0.074 A 
ATOM     52  C   UNL A   1      37.078  34.002  36.644  1.00  0.00     0.031 C 
ATOM     53  C   UNL A   1      37.422  30.415  30.706  1.00  0.00     0.029 A 
ATOM     54  C   UNL A   1      38.567  30.199  31.585  1.00  0.00     0.049 A 
ATOM     55  H   UNL A   1      38.864  30.972  33.495  1.00  0.00     0.167 HD
ATOM     56  C   UNL A   1      39.280  33.220  37.458  1.00  0.00     0.037 A 
ATOM     57  C   UNL A   1      39.654  29.447  31.329  1.00  0.00     0.037 A 
ATOM     58  C   UNL A   1      40.483  32.464  37.265  1.00  0.00     0.049 A 
ATOM     59  C   UNL A   1      40.746  29.452  32.373  1.00  0.00     0.074 A 
ATOM     60  C   UNL A   1      41.584  32.355  38.085  1.00  0.00     0.029 A 
ATOM     61  N   UNL A   1      40.727  31.676  36.143  1.00  0.00    -0.354 N 
ATOM     62  N   UNL A   1      40.789  30.093  33.521  1.00  0.00    -0.248 NA
ATOM     63  C   UNL A   1      41.942  28.656  32.086  1.00  0.00     0.031 C 
ATOM     64  C   UNL A   1      42.513  31.532  37.439  1.00  0.00     0.029 A 
ATOM     65  C   UNL A   1      41.966  31.080  36.243  1.00  0.00     0.049 A 
ATOM     66  H   UNL A   1      40.105  31.561  35.388  1.00  0.00     0.167 HD
ATOM     67  C   UNL A   1      42.002  29.760  34.106  1.00  0.00     0.074 A 
ATOM     68  C   UNL A   1      42.657  28.847  33.186  1.00  0.00     0.031 C 
ATOM     69  C   UNL A   1      42.541  30.167  35.283  1.00  0.00     0.037 A 
BRANCH  56  70
ATOM     70  C   UNL A   1      39.079  34.068  38.677  1.00  0.00     0.064 A 
ATOM     71  C   UNL A   1      39.480  35.413  38.721  1.00  0.00     0.173 A 
ATOM     72  C   UNL A   1      38.570  33.498  39.853  1.00  0.00     0.173 A 
ATOM     73  F   UNL A   1      40.019  35.993  37.637  1.00  0.00    -0.203 F 
ATOM     74  C   UNL A   1      39.419  36.142  39.906  1.00  0.00     0.198 A 
ATOM     75  C   UNL A   1      38.477  34.241  41.028  1.00  0.00     0.198 A 
ATOM     76  F   UNL A   1      38.196  32.210  39.875  1.00  0.00    -0.203 F 
ATOM     77  F   UNL A   1      39.890  37.396  39.945  1.00  0.00    -0.200 F 
ATOM     78  C   UNL A   1      38.913  35.557  41.057  1.00  0.00     0.200 A 
ATOM     79  F   UNL A   1      37.993  33.672  42.140  1.00  0.00    -0.200 F 
ATOM     80  F   UNL A   1      38.870  36.253  42.201  1.00  0.00    -0.200 F 
ENDBRANCH  56  70
BRANCH  57  81
ATOM     81  C   UNL A   1      39.772  28.680  30.059  1.00  0.00     0.064 A 
ATOM     82  C   UNL A   1      40.363  29.248  28.921  1.00  0.00     0.173 A 
ATOM     83  C   UNL A   1      39.299  27.363  29.947  1.00  0.00     0.173 A 
ATOM     84  F   UNL A   1      40.820  30.509  28.965  1.00  0.00    -0.203 F 
ATOM     85  C   UNL A   1      40.455  28.542  27.721  1.00  0.00     0.198 A 
ATOM     86  C   UNL A   1      39.421  26.646  28.756  1.00  0.00     0.198 A 
ATOM     87  F   UNL A   1      38.728  26.760  31.001  1.00  0.00    -0.203 F 
ATOM     88  F   UNL A   1      40.984  29.130  26.639  1.00  0.00    -0.200 F 
ATOM     89  C   UNL A   1      39.989  27.239  27.642  1.00  0.00     0.200 A 
ATOM     90  F   UNL A   1      38.984  25.380  28.692  1.00  0.00    -0.200 F 
ATOM     91  F   UNL A   1      40.083  26.558  26.490  1.00  0.00    -0.200 F 
ENDBRANCH  57  81
BRANCH  69  92
ATOM     92  C   UNL A   1      43.874  29.589  35.646  1.00  0.00     0.064 A 
ATOM     93  C   UNL A   1      45.068  30.254  35.343  1.00  0.00     0.173 A 
ATOM     94  C   UNL A   1      43.941  28.396  36.383  1.00  0.00     0.173 A 
ATOM     95  F   UNL A   1      45.048  31.391  34.631  1.00  0.00    -0.203 F 
ATOM     96  C   UNL A   1      46.291  29.735  35.752  1.00  0.00     0.198 A 
ATOM     97  C   UNL A   1      45.162  27.900  36.820  1.00  0.00     0.198 A 
ATOM     98  F   UNL A   1      42.819  27.735  36.704  1.00  0.00    -0.203 F 
ATOM     99  F   UNL A   1      47.427  30.364  35.421  1.00  0.00    -0.200 F 
ATOM    100  C   UNL A   1      46.336  28.566  36.499  1.00  0.00     0.200 A 
ATOM    101  F   UNL A   1      45.203  26.782  37.558  1.00  0.00    -0.200 F 
ATOM    102  F   UNL A   1      47.515  28.078  36.910  1.00  0.00    -0.200 F 
ENDBRANCH  69  92
ENDBRANCH  43  44
ENDBRANCH  35  38
ENDBRANCH  33  34
ENDBRANCH  32  33
ENDBRANCH  31  32
ENDBRANCH   1  31
TORSDOF 17
ENDMDL
MODEL 2
REMARK VINA RESULT:     -14.5      4.277      8.811
REMARK SMILES COc1ccc(C2=NN(C(=O)CCC(=O)NCCCCNC(=O)c3ccc(-c4c5nc(c(-c6c(F)c(F)c(F)c(F)c6F)c6ccc([nH]6)c(-c6c(F)c(F)c(F)c(F)c6F)c6nc(c(-c7c(F)c(F)c(F)c(F)c7F)c7ccc4[nH]7)C=C6)C=C5)cc3)[C@H](c3ccc(Cl)cc3Cl)C2)cc1
REMARK SMILES IDX 17 1 16 2 14 3 15 4 13 6 12 7 10 8 11 9 9 10 7 11 8 12 96 13
REMARK SMILES IDX 87 14 6 15 3 16 4 17 98 18 5 19 97 20 2 21 1 22 88 23 89 24
REMARK SMILES IDX 94 25 90 26 93 27 95 28 91 29 92 30 18 31 19 32 20 33 21 34
REMARK SMILES IDX 22 35 23 37 24 38 25 39 86 40 26 41 85 42 27 43 28 44 29 45
REMARK SMILES IDX 79 46 30 47 84 48 78 49 80 50 31 51 83 52 77 53 76 54 32 56
REMARK SMILES IDX 64 57 44 58 63 59 45 60 48 61 62 62 81 63 46 64 47 65 61 67
REMARK SMILES IDX 82 68 49 69 33 70 34 71 42 72 35 73 36 74 40 75 43 76 37 77
REMARK SMILES IDX 38 78 41 79 39 80 65 81 66 82 74 83 67 84 68 85 72 86 75 87
REMARK SMILES IDX 69 88 70 89 73 90 71 91 50 92 51 93 59 94 52 95 53 96 57 97
REMARK SMILES IDX 60 98 54 99 55 100 58 101 56 102
REMARK H PARENT 16 5 21 36 80 55 48 66
REMARK Flexibility Score: inf
ROOT
ATOM      1  C   UNL A   1      33.534  24.320  22.598  1.00  0.00     0.116 C 
ENDROOT
BRANCH   1   2
ATOM      2  N   UNL A   1      32.910  24.778  21.235  1.00  0.00    -0.356 N 
ATOM      3  C   UNL A   1      32.091  25.814  20.909  1.00  0.00     0.220 C 
ATOM      4  O   UNL A   1      31.676  25.843  19.749  1.00  0.00    -0.275 OA
ATOM      5  H   UNL A   1      33.156  24.209  20.470  1.00  0.00     0.163 HD
BRANCH   3   6
ATOM      6  C   UNL A   1      31.743  26.887  21.910  1.00  0.00     0.110 C 
BRANCH   6   7
ATOM      7  C   UNL A   1      30.297  27.084  22.354  1.00  0.00     0.112 C 
BRANCH   7   8
ATOM      8  C   UNL A   1      29.821  26.245  23.513  1.00  0.00     0.243 C 
ATOM      9  O   UNL A   1      28.613  26.139  23.735  1.00  0.00    -0.273 OA
BRANCH   8  10
ATOM     10  N   UNL A   1      30.809  25.785  24.400  1.00  0.00    -0.225 N 
ATOM     11  C   UNL A   1      31.414  23.158  25.410  1.00  0.00     0.071 C 
ATOM     12  N   UNL A   1      31.060  23.972  24.113  1.00  0.00    -0.174 NA
ATOM     13  C   UNL A   1      31.334  24.450  27.085  1.00  0.00     0.091 C 
ATOM     14  C   UNL A   1      31.096  26.280  26.226  1.00  0.00     0.149 C 
BRANCH  11  15
ATOM     15  C   UNL A   1      32.148  21.771  24.963  1.00  0.00    -0.002 A 
ATOM     16  C   UNL A   1      33.420  19.227  24.535  1.00  0.00     0.118 A 
ATOM     17  C   UNL A   1      33.393  19.798  25.796  1.00  0.00     0.047 A 
ATOM     18  C   UNL A   1      32.671  19.791  23.535  1.00  0.00     0.047 A 
ATOM     19  C   UNL A   1      32.769  21.053  26.001  1.00  0.00     0.014 A 
ATOM     20  C   UNL A   1      32.051  21.029  23.763  1.00  0.00     0.014 A 
BRANCH  16  21
ATOM     21  O   UNL A   1      34.187  18.127  24.285  1.00  0.00    -0.497 OA
ATOM     22  C   UNL A   1      33.612  17.379  23.203  1.00  0.00     0.278 C 
ENDBRANCH  16  21
ENDBRANCH  11  15
BRANCH  14  23
ATOM     23  C   UNL A   1      32.101  27.553  26.281  1.00  0.00    -0.004 A 
ATOM     24  C   UNL A   1      31.678  28.891  26.416  1.00  0.00     0.009 A 
ATOM     25  C   UNL A   1      33.501  27.365  26.395  1.00  0.00     0.047 A 
ATOM     26  C   UNL A   1      32.525  29.898  26.911  1.00  0.00     0.021 A 
ATOM     27  C   UNL A   1      34.345  28.350  26.936  1.00  0.00     0.041 A 
ATOM     28  Cl  UNL A   1      34.329  26.050  25.627  1.00  0.00    -0.084 Cl
ATOM     29  C   UNL A   1      33.841  29.603  27.233  1.00  0.00     0.042 A 
ATOM     30  Cl  UNL A   1      34.855  30.808  27.922  1.00  0.00    -0.084 Cl
ENDBRANCH  14  23
ENDBRANCH   8  10
ENDBRANCH   7   8
ENDBRANCH   6   7
ENDBRANCH   3   6
ENDBRANCH   1   2
BRANCH   1  31
ATOM     31  C   UNL A   1      35.284  23.013  23.021  1.00  0.00     0.023 C 
BRANCH  31  32
ATOM     32  C   UNL A   1      35.899  22.741  24.792  1.00  0.00     0.023 C 
BRANCH  32  33
ATOM     33  C   UNL A   1      37.237  23.594  25.528  1.00  0.00     0.116 C 
BRANCH  33  34
ATOM     34  N   UNL A   1      38.488  22.847  25.953  1.00  0.00    -0.352 N 
ATOM     35  C   UNL A   1      39.690  23.263  26.485  1.00  0.00     0.251 C 
ATOM     36  H   UNL A   1      38.430  21.872  25.823  1.00  0.00     0.163 HD
ATOM     37  O   UNL A   1      40.673  22.538  26.533  1.00  0.00    -0.269 OA
BRANCH  35  38
ATOM     38  C   UNL A   1      39.724  24.615  27.000  1.00  0.00     0.039 A 
ATOM     39  C   UNL A   1      39.358  24.869  28.322  1.00  0.00     0.014 A 
ATOM     40  C   UNL A   1      40.371  25.542  26.191  1.00  0.00     0.014 A 
ATOM     41  C   UNL A   1      39.833  26.019  28.916  1.00  0.00     0.010 A 
ATOM     42  C   UNL A   1      40.851  26.681  26.781  1.00  0.00     0.010 A 
ATOM     43  C   UNL A   1      40.606  26.897  28.147  1.00  0.00    -0.014 A 
BRANCH  43  44
ATOM     44  C   UNL A   1      40.969  28.206  28.672  1.00  0.00     0.031 A 
ATOM     45  C   UNL A   1      42.401  28.356  29.045  1.00  0.00     0.074 A 
ATOM     46  C   UNL A   1      40.027  29.137  28.869  1.00  0.00     0.049 A 
ATOM     47  N   UNL A   1      42.969  29.242  29.804  1.00  0.00    -0.248 NA
ATOM     48  C   UNL A   1      43.313  27.321  28.519  1.00  0.00     0.031 C 
ATOM     49  C   UNL A   1      38.630  29.041  28.438  1.00  0.00     0.029 A 
ATOM     50  N   UNL A   1      40.104  30.343  29.500  1.00  0.00    -0.354 N 
ATOM     51  C   UNL A   1      44.295  28.847  29.884  1.00  0.00     0.074 A 
ATOM     52  C   UNL A   1      44.448  27.637  29.116  1.00  0.00     0.031 C 
ATOM     53  C   UNL A   1      37.982  30.157  28.816  1.00  0.00     0.029 A 
ATOM     54  C   UNL A   1      38.900  30.997  29.578  1.00  0.00     0.049 A 
ATOM     55  H   UNL A   1      40.943  30.710  29.863  1.00  0.00     0.167 HD
ATOM     56  C   UNL A   1      45.287  29.459  30.564  1.00  0.00     0.037 A 
ATOM     57  C   UNL A   1      38.601  32.130  30.241  1.00  0.00     0.037 A 
ATOM     58  C   UNL A   1      45.059  30.658  31.317  1.00  0.00     0.049 A 
ATOM     59  C   UNL A   1      39.719  32.774  31.027  1.00  0.00     0.074 A 
ATOM     60  C   UNL A   1      45.937  31.377  32.098  1.00  0.00     0.029 A 
ATOM     61  N   UNL A   1      43.831  31.314  31.368  1.00  0.00    -0.354 N 
ATOM     62  N   UNL A   1      40.969  32.384  31.157  1.00  0.00    -0.248 NA
ATOM     63  C   UNL A   1      39.390  33.992  31.771  1.00  0.00     0.031 C 
ATOM     64  C   UNL A   1      45.228  32.447  32.656  1.00  0.00     0.029 A 
ATOM     65  C   UNL A   1      43.924  32.428  32.175  1.00  0.00     0.049 A 
ATOM     66  H   UNL A   1      43.017  31.024  30.897  1.00  0.00     0.167 HD
ATOM     67  C   UNL A   1      41.583  33.319  31.977  1.00  0.00     0.074 A 
ATOM     68  C   UNL A   1      40.566  34.304  32.300  1.00  0.00     0.031 C 
ATOM     69  C   UNL A   1      42.860  33.371  32.434  1.00  0.00     0.037 A 
BRANCH  56  70
ATOM     70  C   UNL A   1      46.624  28.783  30.561  1.00  0.00     0.064 A 
ATOM     71  C   UNL A   1      47.590  29.050  29.577  1.00  0.00     0.173 A 
ATOM     72  C   UNL A   1      46.906  27.778  31.498  1.00  0.00     0.173 A 
ATOM     73  F   UNL A   1      47.350  29.967  28.627  1.00  0.00    -0.203 F 
ATOM     74  C   UNL A   1      48.766  28.308  29.506  1.00  0.00     0.198 A 
ATOM     75  C   UNL A   1      48.099  27.062  31.445  1.00  0.00     0.198 A 
ATOM     76  F   UNL A   1      46.008  27.464  32.444  1.00  0.00    -0.203 F 
ATOM     77  F   UNL A   1      49.631  28.520  28.505  1.00  0.00    -0.200 F 
ATOM     78  C   UNL A   1      49.022  27.318  30.442  1.00  0.00     0.200 A 
ATOM     79  F   UNL A   1      48.342  26.102  32.348  1.00  0.00    -0.200 F 
ATOM     80  F   UNL A   1      50.146  26.593  30.364  1.00  0.00    -0.200 F 
ENDBRANCH  56  70
BRANCH  57  81
ATOM     81  C   UNL A   1      37.222  32.690  30.216  1.00  0.00     0.064 A 
ATOM     82  C   UNL A   1      36.817  33.572  29.204  1.00  0.00     0.173 A 
ATOM     83  C   UNL A   1      36.275  32.361  31.199  1.00  0.00     0.173 A 
ATOM     84  F   UNL A   1      37.683  33.934  28.246  1.00  0.00    -0.203 F 
ATOM     85  C   UNL A   1      35.533  34.119  29.189  1.00  0.00     0.198 A 
ATOM     86  C   UNL A   1      34.982  32.882  31.165  1.00  0.00     0.198 A 
ATOM     87  F   UNL A   1      36.599  31.518  32.191  1.00  0.00    -0.203 F 
ATOM     88  F   UNL A   1      35.192  34.995  28.233  1.00  0.00    -0.200 F 
ATOM     89  C   UNL A   1      34.614  33.768  30.166  1.00  0.00     0.200 A 
ATOM     90  F   UNL A   1      34.093  32.525  32.103  1.00  0.00    -0.200 F 
ATOM     91  F   UNL A   1      33.379  34.289  30.147  1.00  0.00    -0.200 F 
ENDBRANCH  57  81
BRANCH  69  92
ATOM     92  C   UNL A   1      43.221  34.548  33.286  1.00  0.00     0.064 A 
ATOM     93  C   UNL A   1      43.557  35.785  32.723  1.00  0.00     0.173 A 
ATOM     94  C   UNL A   1      43.140  34.450  34.684  1.00  0.00     0.173 A 
ATOM     95  F   UNL A   1      43.656  35.917  31.391  1.00  0.00    -0.203 F 
ATOM     96  C   UNL A   1      43.820  36.884  33.533  1.00  0.00     0.198 A 
ATOM     97  C   UNL A   1      43.368  35.559  35.488  1.00  0.00     0.198 A 
ATOM     98  F   UNL A   1      42.809  33.286  35.262  1.00  0.00    -0.203 F 
ATOM     99  F   UNL A   1      44.178  38.050  32.979  1.00  0.00    -0.200 F 
ATOM    100  C   UNL A   1      43.714  36.773  34.912  1.00  0.00     0.200 A 
ATOM    101  F   UNL A   1      43.246  35.456  36.818  1.00  0.00    -0.200 F 
ATOM    102  F   UNL A   1      43.946  37.840  35.690  1.00  0.00    -0.200 F 
ENDBRANCH  69  92
ENDBRANCH  43  44
ENDBRANCH  35  38
ENDBRANCH  33  34
ENDBRANCH  32  33
ENDBRANCH  31  32
ENDBRANCH   1  31
TORSDOF 17
ENDMDL
MODEL 3
REMARK VINA RESULT:     -14.5      2.320      4.766
REMARK SMILES COc1ccc(C2=NN(C(=O)CCC(=O)NCCCCNC(=O)c3ccc(-c4c5nc(c(-c6c(F)c(F)c(F)c(F)c6F)c6ccc([nH]6)c(-c6c(F)c(F)c(F)c(F)c6F)c6nc(c(-c7c(F)c(F)c(F)c(F)c7F)c7ccc4[nH]7)C=C6)C=C5)cc3)[C@H](c3ccc(Cl)cc3Cl)C2)cc1
REMARK SMILES IDX 17 1 16 2 14 3 15 4 13 6 12 7 10 8 11 9 9 10 7 11 8 12 96 13
REMARK SMILES IDX 87 14 6 15 3 16 4 17 98 18 5 19 97 20 2 21 1 22 88 23 89 24
REMARK SMILES IDX 94 25 90 26 93 27 95 28 91 29 92 30 18 31 19 32 20 33 21 34
REMARK SMILES IDX 22 35 23 37 24 38 25 39 86 40 26 41 85 42 27 43 28 44 29 45
REMARK SMILES IDX 79 46 30 47 84 48 78 49 80 50 31 51 83 52 77 53 76 54 32 56
REMARK SMILES IDX 64 57 44 58 63 59 45 60 48 61 62 62 81 63 46 64 47 65 61 67
REMARK SMILES IDX 82 68 49 69 33 70 34 71 42 72 35 73 36 74 40 75 43 76 37 77
REMARK SMILES IDX 38 78 41 79 39 80 65 81 66 82 74 83 67 84 68 85 72 86 75 87
REMARK SMILES IDX 69 88 70 89 73 90 71 91 50 92 51 93 59 94 52 95 53 96 57 97
REMARK SMILES IDX 60 98 54 99 55 100 58 101 56 102
REMARK H PARENT 16 5 21 36 80 55 48 66
REMARK Flexibility Score: inf
ROOT
ATOM      1  C   UNL A   1      33.999  32.207  27.994  1.00  0.00     0.116 C 
ENDROOT
BRANCH   1   2
ATOM      2  N   UNL A   1      35.487  31.823  27.685  1.00  0.00    -0.356 N 
ATOM      3  C   UNL A   1      36.147  30.635  27.714  1.00  0.00     0.220 C 
ATOM      4  O   UNL A   1      37.364  30.676  27.524  1.00  0.00    -0.275 OA
ATOM      5  H   UNL A   1      36.051  32.586  27.421  1.00  0.00     0.163 HD
BRANCH   3   6
ATOM      6  C   UNL A   1      35.416  29.334  27.932  1.00  0.00     0.110 C 
BRANCH   6   7
ATOM      7  C   UNL A   1      34.820  28.579  26.747  1.00  0.00     0.112 C 
BRANCH   7   8
ATOM      8  C   UNL A   1      33.366  28.193  26.849  1.00  0.00     0.243 C 
ATOM      9  O   UNL A   1      32.774  28.323  27.922  1.00  0.00    -0.273 OA
BRANCH   8  10
ATOM     10  N   UNL A   1      32.819  27.515  25.746  1.00  0.00    -0.225 N 
ATOM     11  C   UNL A   1      30.240  27.674  24.478  1.00  0.00     0.071 C 
ATOM     12  N   UNL A   1      31.422  28.525  25.069  1.00  0.00    -0.174 NA
ATOM     13  C   UNL A   1      30.629  25.620  24.810  1.00  0.00     0.091 C 
ATOM     14  C   UNL A   1      32.536  25.636  25.522  1.00  0.00     0.149 C 
BRANCH  11  15
ATOM     15  C   UNL A   1      29.396  28.613  23.443  1.00  0.00    -0.002 A 
ATOM     16  C   UNL A   1      28.224  30.286  21.419  1.00  0.00     0.118 A 
ATOM     17  C   UNL A   1      29.598  30.236  21.583  1.00  0.00     0.047 A 
ATOM     18  C   UNL A   1      27.442  29.389  22.098  1.00  0.00     0.047 A 
ATOM     19  C   UNL A   1      30.171  29.414  22.584  1.00  0.00     0.014 A 
ATOM     20  C   UNL A   1      28.031  28.574  23.077  1.00  0.00     0.014 A 
BRANCH  16  21
ATOM     21  O   UNL A   1      27.654  31.218  20.602  1.00  0.00    -0.497 OA
ATOM     22  C   UNL A   1      28.028  32.533  21.042  1.00  0.00     0.278 C 
ENDBRANCH  16  21
ENDBRANCH  11  15
BRANCH  14  23
ATOM     23  C   UNL A   1      33.860  24.974  24.858  1.00  0.00    -0.004 A 
ATOM     24  C   UNL A   1      35.093  24.828  25.527  1.00  0.00     0.009 A 
ATOM     25  C   UNL A   1      33.790  24.313  23.606  1.00  0.00     0.047 A 
ATOM     26  C   UNL A   1      36.052  23.879  25.132  1.00  0.00     0.021 A 
ATOM     27  C   UNL A   1      34.717  23.327  23.229  1.00  0.00     0.041 A 
ATOM     28  Cl  UNL A   1      32.751  24.853  22.328  1.00  0.00    -0.084 Cl
ATOM     29  C   UNL A   1      35.825  23.083  24.020  1.00  0.00     0.042 A 
ATOM     30  Cl  UNL A   1      36.952  21.860  23.585  1.00  0.00    -0.084 Cl
ENDBRANCH  14  23
ENDBRANCH   8  10
ENDBRANCH   7   8
ENDBRANCH   6   7
ENDBRANCH   3   6
ENDBRANCH   1   2
BRANCH   1  31
ATOM     31  C   UNL A   1      33.030  34.199  28.188  1.00  0.00     0.023 C 
BRANCH  31  32
ATOM     32  C   UNL A   1      34.050  35.755  28.545  1.00  0.00     0.023 C 
BRANCH  32  33
ATOM     33  C   UNL A   1      33.609  36.999  29.693  1.00  0.00     0.116 C 
BRANCH  33  34
ATOM     34  N   UNL A   1      32.670  36.688  30.844  1.00  0.00    -0.352 N 
ATOM     35  C   UNL A   1      32.664  35.699  31.805  1.00  0.00     0.251 C 
ATOM     36  H   UNL A   1      31.916  37.317  30.921  1.00  0.00     0.163 HD
ATOM     37  O   UNL A   1      31.687  35.467  32.502  1.00  0.00    -0.269 OA
BRANCH  35  38
ATOM     38  C   UNL A   1      33.894  34.949  31.954  1.00  0.00     0.039 A 
ATOM     39  C   UNL A   1      35.045  35.581  32.422  1.00  0.00     0.014 A 
ATOM     40  C   UNL A   1      33.762  33.569  31.853  1.00  0.00     0.014 A 
ATOM     41  C   UNL A   1      36.026  34.800  32.995  1.00  0.00     0.010 A 
ATOM     42  C   UNL A   1      34.731  32.791  32.428  1.00  0.00     0.010 A 
ATOM     43  C   UNL A   1      35.841  33.413  33.023  1.00  0.00    -0.014 A 
BRANCH  43  44
ATOM     44  C   UNL A   1      36.926  32.536  33.445  1.00  0.00     0.031 A 
ATOM     45  C   UNL A   1      37.484  32.833  34.791  1.00  0.00     0.074 A 
ATOM     46  C   UNL A   1      37.406  31.610  32.605  1.00  0.00     0.049 A 
ATOM     47  N   UNL A   1      38.614  32.469  35.315  1.00  0.00    -0.248 NA
ATOM     48  C   UNL A   1      36.661  33.709  35.648  1.00  0.00     0.031 C 
ATOM     49  C   UNL A   1      36.824  31.248  31.311  1.00  0.00     0.029 A 
ATOM     50  N   UNL A   1      38.508  30.814  32.715  1.00  0.00    -0.354 N 
ATOM     51  C   UNL A   1      38.659  33.108  36.545  1.00  0.00     0.074 A 
ATOM     52  C   UNL A   1      37.459  33.894  36.684  1.00  0.00     0.031 C 
ATOM     53  C   UNL A   1      37.580  30.288  30.748  1.00  0.00     0.029 A 
ATOM     54  C   UNL A   1      38.731  30.034  31.608  1.00  0.00     0.049 A 
ATOM     55  H   UNL A   1      39.087  30.800  33.512  1.00  0.00     0.167 HD
ATOM     56  C   UNL A   1      39.645  33.038  37.463  1.00  0.00     0.037 A 
ATOM     57  C   UNL A   1      39.788  29.246  31.336  1.00  0.00     0.037 A 
ATOM     58  C   UNL A   1      40.818  32.241  37.251  1.00  0.00     0.049 A 
ATOM     59  C   UNL A   1      40.896  29.214  32.361  1.00  0.00     0.074 A 
ATOM     60  C   UNL A   1      41.929  32.095  38.053  1.00  0.00     0.029 A 
ATOM     61  N   UNL A   1      41.016  31.443  36.126  1.00  0.00    -0.354 N 
ATOM     62  N   UNL A   1      40.980  29.855  33.507  1.00  0.00    -0.248 NA
ATOM     63  C   UNL A   1      42.059  28.377  32.056  1.00  0.00     0.031 C 
ATOM     64  C   UNL A   1      42.818  31.239  37.393  1.00  0.00     0.029 A 
ATOM     65  C   UNL A   1      42.236  30.805  36.207  1.00  0.00     0.049 A 
ATOM     66  H   UNL A   1      40.378  31.349  35.383  1.00  0.00     0.167 HD
ATOM     67  C   UNL A   1      42.190  29.482  34.073  1.00  0.00     0.074 A 
ATOM     68  C   UNL A   1      42.799  28.545  33.144  1.00  0.00     0.031 C 
ATOM     69  C   UNL A   1      42.764  29.871  35.240  1.00  0.00     0.037 A 
BRANCH  56  70
ATOM     70  C   UNL A   1      39.494  33.894  38.683  1.00  0.00     0.064 A 
ATOM     71  C   UNL A   1      38.774  33.463  39.809  1.00  0.00     0.173 A 
ATOM     72  C   UNL A   1      39.991  35.205  38.687  1.00  0.00     0.173 A 
ATOM     73  F   UNL A   1      38.234  32.234  39.835  1.00  0.00    -0.203 F 
ATOM     74  C   UNL A   1      38.521  34.326  40.872  1.00  0.00     0.198 A 
ATOM     75  C   UNL A   1      39.767  36.054  39.768  1.00  0.00     0.198 A 
ATOM     76  F   UNL A   1      40.665  35.677  37.627  1.00  0.00    -0.203 F 
ATOM     77  F   UNL A   1      37.756  33.920  41.895  1.00  0.00    -0.200 F 
ATOM     78  C   UNL A   1      39.022  35.618  40.854  1.00  0.00     0.200 A 
ATOM     79  F   UNL A   1      40.247  37.305  39.746  1.00  0.00    -0.200 F 
ATOM     80  F   UNL A   1      38.765  36.454  41.869  1.00  0.00    -0.200 F 
ENDBRANCH  56  70
BRANCH  57  81
ATOM     81  C   UNL A   1      39.858  28.473  30.065  1.00  0.00     0.064 A 
ATOM     82  C   UNL A   1      40.479  29.006  28.927  1.00  0.00     0.173 A 
ATOM     83  C   UNL A   1      39.307  27.186  29.954  1.00  0.00     0.173 A 
ATOM     84  F   UNL A   1      41.010  30.236  28.970  1.00  0.00    -0.203 F 
ATOM     85  C   UNL A   1      40.527  28.295  27.726  1.00  0.00     0.198 A 
ATOM     86  C   UNL A   1      39.384  26.463  28.763  1.00  0.00     0.198 A 
ATOM     87  F   UNL A   1      38.704  26.618  31.009  1.00  0.00    -0.203 F 
ATOM     88  F   UNL A   1      41.089  28.851  26.644  1.00  0.00    -0.200 F 
ATOM     89  C   UNL A   1      39.985  27.022  27.647  1.00  0.00     0.200 A 
ATOM     90  F   UNL A   1      38.874  25.226  28.700  1.00  0.00    -0.200 F 
ATOM     91  F   UNL A   1      40.037  26.337  26.496  1.00  0.00    -0.200 F 
ENDBRANCH  57  81
BRANCH  69  92
ATOM     92  C   UNL A   1      44.081  29.248  35.582  1.00  0.00     0.064 A 
ATOM     93  C   UNL A   1      44.160  28.048  36.299  1.00  0.00     0.173 A 
ATOM     94  C   UNL A   1      45.270  29.821  35.104  1.00  0.00     0.173 A 
ATOM     95  F   UNL A   1      43.048  27.474  36.782  1.00  0.00    -0.203 F 
ATOM     96  C   UNL A   1      45.391  27.449  36.544  1.00  0.00     0.198 A 
ATOM     97  C   UNL A   1      46.493  29.201  35.321  1.00  0.00     0.198 A 
ATOM     98  F   UNL A   1      45.236  30.964  34.402  1.00  0.00    -0.203 F 
ATOM     99  F   UNL A   1      45.452  26.321  37.265  1.00  0.00    -0.200 F 
ATOM    100  C   UNL A   1      46.554  28.020  36.045  1.00  0.00     0.200 A 
ATOM    101  F   UNL A   1      47.614  29.742  34.822  1.00  0.00    -0.200 F 
ATOM    102  F   UNL A   1      47.737  27.429  36.265  1.00  0.00    -0.200 F 
ENDBRANCH  69  92
ENDBRANCH  43  44
ENDBRANCH  35  38
ENDBRANCH  33  34
ENDBRANCH  32  33
ENDBRANCH  31  32
ENDBRANCH   1  31
TORSDOF 17
ENDMDL
