MODEL 1
REMARK VINA RESULT:     -12.8      0.000      0.000
REMARK SMILES [NH3+]Cc1c(-c2ccccc2)c(C(=O)NCCCCNC(=O)c2ccc(-c3c4nc(c(-c5c(F)c(F)c(F)c(F)c5F)c5ccc([nH]5)c(-c5c(F)c(F)c(F)c(F)c5F)c5nc(c(-c6c(F)c(F)c(F)c(F)c6F)c6ccc3[nH]6)C=C5)C=C4)cc2)c2ccccn12
REMARK SMILES IDX 16 1 15 2 14 3 12 4 13 5 11 7 3 8 4 9 90 10 85 11 89 12
REMARK SMILES IDX 86 13 88 14 87 15 2 16 1 17 5 21 6 22 10 23 7 24 9 25 8 26
REMARK SMILES IDX 17 27 18 28 19 29 20 30 21 32 22 33 23 34 84 35 24 36 83 37
REMARK SMILES IDX 25 38 26 39 27 40 77 41 28 42 82 43 76 44 78 45 29 46 81 47
REMARK SMILES IDX 75 48 74 49 30 51 62 52 42 53 61 54 43 55 46 56 60 57 79 58
REMARK SMILES IDX 44 59 45 60 59 62 80 63 47 64 31 65 32 66 40 67 33 68 34 69
REMARK SMILES IDX 38 70 41 71 35 72 36 73 39 74 37 75 63 76 64 77 72 78 65 79
REMARK SMILES IDX 66 80 70 81 73 82 67 83 68 84 71 85 69 86 48 87 49 88 57 89
REMARK SMILES IDX 50 90 51 91 55 92 58 93 52 94 53 95 56 96 54 97
REMARK H PARENT 14 6 1 18 1 19 1 20 19 31 78 50 46 61
REMARK Flexibility Score: inf
ROOT
ATOM      1  C   UNL A   1      31.529  30.833  25.791  1.00  0.00     0.023 C 
ENDROOT
BRANCH   1   2
ATOM      2  C   UNL A   1      32.719  29.893  25.954  1.00  0.00     0.116 C 
BRANCH   2   3
ATOM      3  N   UNL A   1      33.512  29.680  24.762  1.00  0.00    -0.352 N 
ATOM      4  C   UNL A   1      33.242  28.938  23.630  1.00  0.00     0.254 C 
ATOM      5  O   UNL A   1      34.063  29.008  22.719  1.00  0.00    -0.269 OA
ATOM      6  H   UNL A   1      34.383  30.139  24.759  1.00  0.00     0.163 HD
BRANCH   4   7
ATOM      7  C   UNL A   1      32.076  28.051  23.564  1.00  0.00     0.073 A 
ATOM      8  C   UNL A   1      30.771  26.167  23.760  1.00  0.00     0.086 A 
ATOM      9  C   UNL A   1      32.083  26.631  23.819  1.00  0.00     0.022 A 
ATOM     10  N   UNL A   1      29.967  27.257  23.479  1.00  0.00    -0.314 N 
ATOM     11  C   UNL A   1      30.783  28.337  23.145  1.00  0.00     0.059 A 
ATOM     12  C   UNL A   1      28.569  27.347  23.479  1.00  0.00     0.092 A 
ATOM     13  C   UNL A   1      30.138  29.456  22.532  1.00  0.00     0.027 A 
ATOM     14  C   UNL A   1      27.972  28.474  23.060  1.00  0.00     0.018 A 
ATOM     15  C   UNL A   1      28.795  29.537  22.519  1.00  0.00     0.004 A 
BRANCH   8  16
ATOM     16  C   UNL A   1      30.217  24.795  23.962  1.00  0.00     0.315 C 
BRANCH  16  17
ATOM     17  N   UNL A   1      30.035  24.525  25.383  1.00  0.00    -0.353 N 
ATOM     18  H   UNL A   1      30.741  25.030  25.919  1.00  0.00     0.344 HD
ATOM     19  H   UNL A   1      30.130  23.523  25.553  1.00  0.00     0.344 HD
ATOM     20  H   UNL A   1      29.106  24.832  25.670  1.00  0.00     0.344 HD
ENDBRANCH  16  17
ENDBRANCH   8  16
BRANCH   9  21
ATOM     21  C   UNL A   1      33.217  25.762  24.103  1.00  0.00    -0.016 A 
ATOM     22  C   UNL A   1      33.770  24.958  23.101  1.00  0.00     0.009 A 
ATOM     23  C   UNL A   1      33.744  25.701  25.400  1.00  0.00     0.009 A 
ATOM     24  C   UNL A   1      34.834  24.101  23.397  1.00  0.00     0.001 A 
ATOM     25  C   UNL A   1      34.811  24.849  25.692  1.00  0.00     0.001 A 
ATOM     26  C   UNL A   1      35.353  24.047  24.691  1.00  0.00     0.000 A 
ENDBRANCH   9  21
ENDBRANCH   4   7
ENDBRANCH   2   3
ENDBRANCH   1   2
BRANCH   1  27
ATOM     27  C   UNL A   1      31.367  31.936  26.833  1.00  0.00     0.023 C 
BRANCH  27  28
ATOM     28  C   UNL A   1      32.607  32.757  27.171  1.00  0.00     0.116 C 
BRANCH  28  29
ATOM     29  N   UNL A   1      32.325  34.121  27.587  1.00  0.00    -0.352 N 
ATOM     30  C   UNL A   1      32.955  34.922  28.512  1.00  0.00     0.251 C 
ATOM     31  H   UNL A   1      31.558  34.541  27.134  1.00  0.00     0.163 HD
ATOM     32  O   UNL A   1      32.512  36.041  28.750  1.00  0.00    -0.269 OA
BRANCH  30  33
ATOM     33  C   UNL A   1      34.136  34.432  29.259  1.00  0.00     0.039 A 
ATOM     34  C   UNL A   1      33.935  33.810  30.497  1.00  0.00     0.014 A 
ATOM     35  C   UNL A   1      35.432  34.572  28.760  1.00  0.00     0.014 A 
ATOM     36  C   UNL A   1      35.019  33.258  31.186  1.00  0.00     0.010 A 
ATOM     37  C   UNL A   1      36.496  33.943  29.401  1.00  0.00     0.010 A 
ATOM     38  C   UNL A   1      36.304  33.280  30.622  1.00  0.00    -0.014 A 
BRANCH  38  39
ATOM     39  C   UNL A   1      37.457  32.630  31.299  1.00  0.00     0.031 A 
ATOM     40  C   UNL A   1      38.195  31.505  30.624  1.00  0.00     0.074 A 
ATOM     41  C   UNL A   1      37.801  33.003  32.548  1.00  0.00     0.049 A 
ATOM     42  N   UNL A   1      39.178  30.767  31.076  1.00  0.00    -0.248 NA
ATOM     43  C   UNL A   1      37.746  31.138  29.272  1.00  0.00     0.031 C 
ATOM     44  C   UNL A   1      37.130  34.035  33.339  1.00  0.00     0.029 A 
ATOM     45  N   UNL A   1      38.797  32.547  33.377  1.00  0.00    -0.354 N 
ATOM     46  C   UNL A   1      39.445  29.839  30.078  1.00  0.00     0.074 A 
ATOM     47  C   UNL A   1      38.487  30.069  29.020  1.00  0.00     0.031 C 
ATOM     48  C   UNL A   1      37.748  34.153  34.526  1.00  0.00     0.029 A 
ATOM     49  C   UNL A   1      38.837  33.184  34.593  1.00  0.00     0.049 A 
ATOM     50  H   UNL A   1      39.423  31.831  33.123  1.00  0.00     0.167 HD
ATOM     51  C   UNL A   1      40.418  28.898  30.033  1.00  0.00     0.037 A 
ATOM     52  C   UNL A   1      39.662  33.008  35.644  1.00  0.00     0.037 A 
ATOM     53  C   UNL A   1      41.398  28.695  31.067  1.00  0.00     0.049 A 
ATOM     54  C   UNL A   1      40.760  31.982  35.553  1.00  0.00     0.074 A 
ATOM     55  C   UNL A   1      42.459  27.807  31.092  1.00  0.00     0.029 A 
ATOM     56  N   UNL A   1      41.438  29.398  32.263  1.00  0.00    -0.354 N 
ATOM     57  N   UNL A   1      41.044  31.157  34.574  1.00  0.00    -0.248 NA
ATOM     58  C   UNL A   1      41.662  31.873  36.708  1.00  0.00     0.031 C 
ATOM     59  C   UNL A   1      43.122  27.949  32.315  1.00  0.00     0.029 A 
ATOM     60  C   UNL A   1      42.503  28.959  33.033  1.00  0.00     0.049 A 
ATOM     61  H   UNL A   1      40.804  30.105  32.524  1.00  0.00     0.167 HD
ATOM     62  C   UNL A   1      42.176  30.462  34.978  1.00  0.00     0.074 A 
ATOM     63  C   UNL A   1      42.533  30.968  36.286  1.00  0.00     0.031 C 
ATOM     64  C   UNL A   1      42.858  29.490  34.324  1.00  0.00     0.037 A 
BRANCH  51  65
ATOM     65  C   UNL A   1      40.479  28.022  28.815  1.00  0.00     0.064 A 
ATOM     66  C   UNL A   1      39.779  26.807  28.746  1.00  0.00     0.173 A 
ATOM     67  C   UNL A   1      41.221  28.415  27.690  1.00  0.00     0.173 A 
ATOM     68  F   UNL A   1      39.066  26.380  29.799  1.00  0.00    -0.203 F 
ATOM     69  C   UNL A   1      39.846  26.004  27.612  1.00  0.00     0.198 A 
ATOM     70  C   UNL A   1      41.260  27.623  26.545  1.00  0.00     0.198 A 
ATOM     71  F   UNL A   1      41.904  29.570  27.699  1.00  0.00    -0.203 F 
ATOM     72  F   UNL A   1      39.212  24.824  27.590  1.00  0.00    -0.200 F 
ATOM     73  C   UNL A   1      40.580  26.415  26.509  1.00  0.00     0.200 A 
ATOM     74  F   UNL A   1      41.958  28.029  25.475  1.00  0.00    -0.200 F 
ATOM     75  F   UNL A   1      40.638  25.644  25.415  1.00  0.00    -0.200 F 
ENDBRANCH  51  65
BRANCH  52  76
ATOM     76  C   UNL A   1      39.515  33.853  36.857  1.00  0.00     0.064 A 
ATOM     77  C   UNL A   1      38.771  33.404  37.959  1.00  0.00     0.173 A 
ATOM     78  C   UNL A   1      40.097  35.126  36.939  1.00  0.00     0.173 A 
ATOM     79  F   UNL A   1      38.177  32.202  37.920  1.00  0.00    -0.203 F 
ATOM     80  C   UNL A   1      38.593  34.207  39.084  1.00  0.00     0.198 A 
ATOM     81  C   UNL A   1      39.943  35.916  38.076  1.00  0.00     0.198 A 
ATOM     82  F   UNL A   1      40.824  35.598  35.916  1.00  0.00    -0.203 F 
ATOM     83  F   UNL A   1      37.835  33.774  40.100  1.00  0.00    -0.200 F 
ATOM     84  C   UNL A   1      39.183  35.461  39.144  1.00  0.00     0.200 A 
ATOM     85  F   UNL A   1      40.525  37.122  38.136  1.00  0.00    -0.200 F 
ATOM     86  F   UNL A   1      39.012  36.232  40.226  1.00  0.00    -0.200 F 
ENDBRANCH  52  76
BRANCH  64  87
ATOM     87  C   UNL A   1      44.091  28.951  34.987  1.00  0.00     0.064 A 
ATOM     88  C   UNL A   1      44.047  27.840  35.843  1.00  0.00     0.173 A 
ATOM     89  C   UNL A   1      45.341  29.538  34.738  1.00  0.00     0.173 A 
ATOM     90  F   UNL A   1      42.874  27.251  36.124  1.00  0.00    -0.203 F 
ATOM     91  C   UNL A   1      45.203  27.359  36.450  1.00  0.00     0.198 A 
ATOM     92  C   UNL A   1      46.500  29.036  35.323  1.00  0.00     0.198 A 
ATOM     93  F   UNL A   1      45.438  30.599  33.921  1.00  0.00    -0.203 F 
ATOM     94  F   UNL A   1      45.130  26.330  37.306  1.00  0.00    -0.200 F 
ATOM     95  C   UNL A   1      46.429  27.953  36.185  1.00  0.00     0.200 A 
ATOM     96  F   UNL A   1      47.683  29.604  35.057  1.00  0.00    -0.200 F 
ATOM     97  F   UNL A   1      47.541  27.486  36.769  1.00  0.00    -0.200 F 
ENDBRANCH  64  87
ENDBRANCH  38  39
ENDBRANCH  30  33
ENDBRANCH  28  29
ENDBRANCH  27  28
ENDBRANCH   1  27
TORSDOF 14
ENDMDL
MODEL 2
REMARK VINA RESULT:     -12.8      0.694      7.297
REMARK SMILES [NH3+]Cc1c(-c2ccccc2)c(C(=O)NCCCCNC(=O)c2ccc(-c3c4nc(c(-c5c(F)c(F)c(F)c(F)c5F)c5ccc([nH]5)c(-c5c(F)c(F)c(F)c(F)c5F)c5nc(c(-c6c(F)c(F)c(F)c(F)c6F)c6ccc3[nH]6)C=C5)C=C4)cc2)c2ccccn12
REMARK SMILES IDX 16 1 15 2 14 3 12 4 13 5 11 7 3 8 4 9 90 10 85 11 89 12
REMARK SMILES IDX 86 13 88 14 87 15 2 16 1 17 5 21 6 22 10 23 7 24 9 25 8 26
REMARK SMILES IDX 17 27 18 28 19 29 20 30 21 32 22 33 23 34 84 35 24 36 83 37
REMARK SMILES IDX 25 38 26 39 27 40 77 41 28 42 82 43 76 44 78 45 29 46 81 47
REMARK SMILES IDX 75 48 74 49 30 51 62 52 42 53 61 54 43 55 46 56 60 57 79 58
REMARK SMILES IDX 44 59 45 60 59 62 80 63 47 64 31 65 32 66 40 67 33 68 34 69
REMARK SMILES IDX 38 70 41 71 35 72 36 73 39 74 37 75 63 76 64 77 72 78 65 79
REMARK SMILES IDX 66 80 70 81 73 82 67 83 68 84 71 85 69 86 48 87 49 88 57 89
REMARK SMILES IDX 50 90 51 91 55 92 58 93 52 94 53 95 56 96 54 97
REMARK H PARENT 14 6 1 18 1 19 1 20 19 31 78 50 46 61
REMARK Flexibility Score: inf
ROOT
ATOM      1  C   UNL A   1      31.484  30.836  25.776  1.00  0.00     0.023 C 
ENDROOT
BRANCH   1   2
ATOM      2  C   UNL A   1      32.662  29.891  25.983  1.00  0.00     0.116 C 
BRANCH   2   3
ATOM      3  N   UNL A   1      33.490  29.662  24.818  1.00  0.00    -0.352 N 
ATOM      4  C   UNL A   1      33.257  28.893  23.695  1.00  0.00     0.254 C 
ATOM      5  O   UNL A   1      34.102  28.953  22.806  1.00  0.00    -0.269 OA
ATOM      6  H   UNL A   1      34.356  30.129  24.829  1.00  0.00     0.163 HD
BRANCH   4   7
ATOM      7  C   UNL A   1      32.103  27.993  23.616  1.00  0.00     0.073 A 
ATOM      8  C   UNL A   1      30.818  26.093  23.794  1.00  0.00     0.086 A 
ATOM      9  C   UNL A   1      32.124  26.573  23.866  1.00  0.00     0.022 A 
ATOM     10  N   UNL A   1      30.004  27.175  23.511  1.00  0.00    -0.314 N 
ATOM     11  C   UNL A   1      30.809  28.266  23.188  1.00  0.00     0.059 A 
ATOM     12  C   UNL A   1      28.605  27.249  23.501  1.00  0.00     0.092 A 
ATOM     13  C   UNL A   1      30.156  29.380  22.574  1.00  0.00     0.027 A 
ATOM     14  C   UNL A   1      27.998  28.371  23.082  1.00  0.00     0.018 A 
ATOM     15  C   UNL A   1      28.812  29.445  22.552  1.00  0.00     0.004 A 
BRANCH   8  16
ATOM     16  C   UNL A   1      30.278  24.715  23.986  1.00  0.00     0.315 C 
BRANCH  16  17
ATOM     17  N   UNL A   1      30.278  24.361  25.400  1.00  0.00    -0.353 N 
ATOM     18  H   UNL A   1      31.172  23.937  25.645  1.00  0.00     0.344 HD
ATOM     19  H   UNL A   1      29.524  23.698  25.584  1.00  0.00     0.344 HD
ATOM     20  H   UNL A   1      30.135  25.201  25.960  1.00  0.00     0.344 HD
ENDBRANCH  16  17
ENDBRANCH   8  16
BRANCH   9  21
ATOM     21  C   UNL A   1      33.266  25.715  24.154  1.00  0.00    -0.016 A 
ATOM     22  C   UNL A   1      33.831  24.916  23.155  1.00  0.00     0.009 A 
ATOM     23  C   UNL A   1      33.787  25.661  25.454  1.00  0.00     0.009 A 
ATOM     24  C   UNL A   1      34.903  24.071  23.456  1.00  0.00     0.001 A 
ATOM     25  C   UNL A   1      34.862  24.820  25.751  1.00  0.00     0.001 A 
ATOM     26  C   UNL A   1      35.417  24.023  24.752  1.00  0.00     0.000 A 
ENDBRANCH   9  21
ENDBRANCH   4   7
ENDBRANCH   2   3
ENDBRANCH   1   2
BRANCH   1  27
ATOM     27  C   UNL A   1      31.352  32.006  26.747  1.00  0.00     0.023 C 
BRANCH  27  28
ATOM     28  C   UNL A   1      32.630  32.754  27.108  1.00  0.00     0.116 C 
BRANCH  28  29
ATOM     29  N   UNL A   1      32.412  34.095  27.626  1.00  0.00    -0.352 N 
ATOM     30  C   UNL A   1      33.084  34.798  28.599  1.00  0.00     0.251 C 
ATOM     31  H   UNL A   1      31.661  34.580  27.213  1.00  0.00     0.163 HD
ATOM     32  O   UNL A   1      32.693  35.914  28.923  1.00  0.00    -0.269 OA
BRANCH  30  33
ATOM     33  C   UNL A   1      34.249  34.204  29.295  1.00  0.00     0.039 A 
ATOM     34  C   UNL A   1      34.017  33.337  30.369  1.00  0.00     0.014 A 
ATOM     35  C   UNL A   1      35.560  34.485  28.905  1.00  0.00     0.014 A 
ATOM     36  C   UNL A   1      35.090  32.691  30.989  1.00  0.00     0.010 A 
ATOM     37  C   UNL A   1      36.619  33.773  29.462  1.00  0.00     0.010 A 
ATOM     38  C   UNL A   1      36.399  32.869  30.512  1.00  0.00    -0.014 A 
BRANCH  38  39
ATOM     39  C   UNL A   1      37.546  32.132  31.106  1.00  0.00     0.031 A 
ATOM     40  C   UNL A   1      38.024  32.466  32.493  1.00  0.00     0.074 A 
ATOM     41  C   UNL A   1      38.201  31.208  30.376  1.00  0.00     0.049 A 
ATOM     42  N   UNL A   1      39.045  31.987  33.157  1.00  0.00    -0.248 NA
ATOM     43  C   UNL A   1      37.273  33.503  33.219  1.00  0.00     0.031 C 
ATOM     44  C   UNL A   1      37.880  30.833  28.997  1.00  0.00     0.029 A 
ATOM     45  N   UNL A   1      39.283  30.421  30.688  1.00  0.00    -0.354 N 
ATOM     46  C   UNL A   1      39.072  32.679  34.361  1.00  0.00     0.074 A 
ATOM     47  C   UNL A   1      38.000  33.649  34.315  1.00  0.00     0.031 C 
ATOM     48  C   UNL A   1      38.727  29.872  28.593  1.00  0.00     0.029 A 
ATOM     49  C   UNL A   1      39.670  29.585  29.669  1.00  0.00     0.049 A 
ATOM     50  H   UNL A   1      39.738  30.454  31.560  1.00  0.00     0.167 HD
ATOM     51  C   UNL A   1      39.897  32.504  35.421  1.00  0.00     0.037 A 
ATOM     52  C   UNL A   1      40.672  28.686  29.610  1.00  0.00     0.037 A 
ATOM     53  C   UNL A   1      40.937  31.512  35.485  1.00  0.00     0.049 A 
ATOM     54  C   UNL A   1      41.550  28.484  30.817  1.00  0.00     0.074 A 
ATOM     55  C   UNL A   1      41.788  31.217  36.535  1.00  0.00     0.029 A 
ATOM     56  N   UNL A   1      41.264  30.647  34.451  1.00  0.00    -0.354 N 
ATOM     57  N   UNL A   1      41.521  29.098  31.975  1.00  0.00    -0.248 NA
ATOM     58  C   UNL A   1      42.591  27.453  30.713  1.00  0.00     0.031 C 
ATOM     59  C   UNL A   1      42.652  30.195  36.126  1.00  0.00     0.029 A 
ATOM     60  C   UNL A   1      42.307  29.822  34.837  1.00  0.00     0.049 A 
ATOM     61  H   UNL A   1      40.819  30.623  33.573  1.00  0.00     0.167 HD
ATOM     62  C   UNL A   1      42.509  28.503  32.747  1.00  0.00     0.074 A 
ATOM     63  C   UNL A   1      43.114  27.472  31.930  1.00  0.00     0.031 C 
ATOM     64  C   UNL A   1      42.882  28.785  34.019  1.00  0.00     0.037 A 
BRANCH  51  65
ATOM     65  C   UNL A   1      39.696  33.400  36.610  1.00  0.00     0.064 A 
ATOM     66  C   UNL A   1      40.362  34.630  36.725  1.00  0.00     0.173 A 
ATOM     67  C   UNL A   1      38.805  33.040  37.633  1.00  0.00     0.173 A 
ATOM     68  F   UNL A   1      41.235  35.015  35.781  1.00  0.00    -0.203 F 
ATOM     69  C   UNL A   1      40.169  35.451  37.832  1.00  0.00     0.198 A 
ATOM     70  C   UNL A   1      38.590  33.878  38.724  1.00  0.00     0.198 A 
ATOM     71  F   UNL A   1      38.136  31.878  37.570  1.00  0.00    -0.203 F 
ATOM     72  F   UNL A   1      40.856  36.594  37.945  1.00  0.00    -0.200 F 
ATOM     73  C   UNL A   1      39.278  35.077  38.828  1.00  0.00     0.200 A 
ATOM     74  F   UNL A   1      37.718  33.523  39.678  1.00  0.00    -0.200 F 
ATOM     75  F   UNL A   1      39.087  35.871  39.890  1.00  0.00    -0.200 F 
ENDBRANCH  51  65
BRANCH  52  76
ATOM     76  C   UNL A   1      40.875  27.874  28.383  1.00  0.00     0.064 A 
ATOM     77  C   UNL A   1      40.263  26.619  28.243  1.00  0.00     0.173 A 
ATOM     78  C   UNL A   1      41.691  28.322  27.335  1.00  0.00     0.173 A 
ATOM     79  F   UNL A   1      39.491  26.138  29.229  1.00  0.00    -0.203 F 
ATOM     80  C   UNL A   1      40.481  25.833  27.114  1.00  0.00     0.198 A 
ATOM     81  C   UNL A   1      41.885  27.547  26.193  1.00  0.00     0.198 A 
ATOM     82  F   UNL A   1      42.293  29.518  27.416  1.00  0.00    -0.203 F 
ATOM     83  F   UNL A   1      39.926  24.617  27.030  1.00  0.00    -0.200 F 
ATOM     84  C   UNL A   1      41.289  26.299  26.087  1.00  0.00     0.200 A 
ATOM     85  F   UNL A   1      42.655  28.006  25.196  1.00  0.00    -0.200 F 
ATOM     86  F   UNL A   1      41.498  25.543  25.001  1.00  0.00    -0.200 F 
ENDBRANCH  52  76
BRANCH  64  87
ATOM     87  C   UNL A   1      43.957  27.931  34.625  1.00  0.00     0.064 A 
ATOM     88  C   UNL A   1      43.668  26.712  35.255  1.00  0.00     0.173 A 
ATOM     89  C   UNL A   1      45.301  28.327  34.547  1.00  0.00     0.173 A 
ATOM     90  F   UNL A   1      42.397  26.295  35.368  1.00  0.00    -0.203 F 
ATOM     91  C   UNL A   1      44.680  25.937  35.813  1.00  0.00     0.198 A 
ATOM     92  C   UNL A   1      46.315  27.536  35.079  1.00  0.00     0.198 A 
ATOM     93  F   UNL A   1      45.632  29.482  33.948  1.00  0.00    -0.203 F 
ATOM     94  F   UNL A   1      44.376  24.802  36.457  1.00  0.00    -0.200 F 
ATOM     95  C   UNL A   1      46.003  26.346  35.720  1.00  0.00     0.200 A 
ATOM     96  F   UNL A   1      47.592  27.927  34.978  1.00  0.00    -0.200 F 
ATOM     97  F   UNL A   1      46.977  25.597  36.256  1.00  0.00    -0.200 F 
ENDBRANCH  64  87
ENDBRANCH  38  39
ENDBRANCH  30  33
ENDBRANCH  28  29
ENDBRANCH  27  28
ENDBRANCH   1  27
TORSDOF 14
ENDMDL
MODEL 3
REMARK VINA RESULT:     -12.8      0.088      1.586
REMARK SMILES [NH3+]Cc1c(-c2ccccc2)c(C(=O)NCCCCNC(=O)c2ccc(-c3c4nc(c(-c5c(F)c(F)c(F)c(F)c5F)c5ccc([nH]5)c(-c5c(F)c(F)c(F)c(F)c5F)c5nc(c(-c6c(F)c(F)c(F)c(F)c6F)c6ccc3[nH]6)C=C5)C=C4)cc2)c2ccccn12
REMARK SMILES IDX 16 1 15 2 14 3 12 4 13 5 11 7 3 8 4 9 90 10 85 11 89 12
REMARK SMILES IDX 86 13 88 14 87 15 2 16 1 17 5 21 6 22 10 23 7 24 9 25 8 26
REMARK SMILES IDX 17 27 18 28 19 29 20 30 21 32 22 33 23 34 84 35 24 36 83 37
REMARK SMILES IDX 25 38 26 39 27 40 77 41 28 42 82 43 76 44 78 45 29 46 81 47
REMARK SMILES IDX 75 48 74 49 30 51 62 52 42 53 61 54 43 55 46 56 60 57 79 58
REMARK SMILES IDX 44 59 45 60 59 62 80 63 47 64 31 65 32 66 40 67 33 68 34 69
REMARK SMILES IDX 38 70 41 71 35 72 36 73 39 74 37 75 63 76 64 77 72 78 65 79
REMARK SMILES IDX 66 80 70 81 73 82 67 83 68 84 71 85 69 86 48 87 49 88 57 89
REMARK SMILES IDX 50 90 51 91 55 92 58 93 52 94 53 95 56 96 54 97
REMARK H PARENT 14 6 1 18 1 19 1 20 19 31 78 50 46 61
REMARK Flexibility Score: inf
ROOT
ATOM      1  C   UNL A   1      31.557  30.818  25.784  1.00  0.00     0.023 C 
ENDROOT
BRANCH   1   2
ATOM      2  C   UNL A   1      32.728  29.865  26.000  1.00  0.00     0.116 C 
BRANCH   2   3
ATOM      3  N   UNL A   1      33.566  29.636  24.843  1.00  0.00    -0.352 N 
ATOM      4  C   UNL A   1      33.331  28.893  23.703  1.00  0.00     0.254 C 
ATOM      5  O   UNL A   1      34.190  28.948  22.826  1.00  0.00    -0.269 OA
ATOM      6  H   UNL A   1      34.443  30.082  24.873  1.00  0.00     0.163 HD
BRANCH   4   7
ATOM      7  C   UNL A   1      32.157  28.022  23.592  1.00  0.00     0.073 A 
ATOM      8  C   UNL A   1      30.826  26.150  23.717  1.00  0.00     0.086 A 
ATOM      9  C   UNL A   1      32.141  26.597  23.813  1.00  0.00     0.022 A 
ATOM     10  N   UNL A   1      30.041  27.257  23.447  1.00  0.00    -0.314 N 
ATOM     11  C   UNL A   1      30.875  28.334  23.155  1.00  0.00     0.059 A 
ATOM     12  C   UNL A   1      28.644  27.365  23.422  1.00  0.00     0.092 A 
ATOM     13  C   UNL A   1      30.256  29.476  22.556  1.00  0.00     0.027 A 
ATOM     14  C   UNL A   1      28.069  28.508  23.018  1.00  0.00     0.018 A 
ATOM     15  C   UNL A   1      28.915  29.574  22.520  1.00  0.00     0.004 A 
BRANCH   8  16
ATOM     16  C   UNL A   1      30.251  24.782  23.874  1.00  0.00     0.315 C 
BRANCH  16  17
ATOM     17  N   UNL A   1      30.219  24.403  25.281  1.00  0.00    -0.353 N 
ATOM     18  H   UNL A   1      31.144  24.083  25.569  1.00  0.00     0.344 HD
ATOM     19  H   UNL A   1      29.541  23.652  25.416  1.00  0.00     0.344 HD
ATOM     20  H   UNL A   1      29.948  25.209  25.844  1.00  0.00     0.344 HD
ENDBRANCH  16  17
ENDBRANCH   8  16
BRANCH   9  21
ATOM     21  C   UNL A   1      33.259  25.707  24.098  1.00  0.00    -0.016 A 
ATOM     22  C   UNL A   1      33.811  24.908  23.091  1.00  0.00     0.009 A 
ATOM     23  C   UNL A   1      33.770  25.622  25.400  1.00  0.00     0.009 A 
ATOM     24  C   UNL A   1      34.859  24.031  23.387  1.00  0.00     0.001 A 
ATOM     25  C   UNL A   1      34.821  24.750  25.692  1.00  0.00     0.001 A 
ATOM     26  C   UNL A   1      35.363  23.952  24.686  1.00  0.00     0.000 A 
ENDBRANCH   9  21
ENDBRANCH   4   7
ENDBRANCH   2   3
ENDBRANCH   1   2
BRANCH   1  27
ATOM     27  C   UNL A   1      31.371  31.934  26.808  1.00  0.00     0.023 C 
BRANCH  27  28
ATOM     28  C   UNL A   1      32.607  32.745  27.181  1.00  0.00     0.116 C 
BRANCH  28  29
ATOM     29  N   UNL A   1      32.326  34.113  27.585  1.00  0.00    -0.352 N 
ATOM     30  C   UNL A   1      32.952  34.920  28.506  1.00  0.00     0.251 C 
ATOM     31  H   UNL A   1      31.561  34.530  27.125  1.00  0.00     0.163 HD
ATOM     32  O   UNL A   1      32.510  36.041  28.733  1.00  0.00    -0.269 OA
BRANCH  30  33
ATOM     33  C   UNL A   1      34.130  34.434  29.262  1.00  0.00     0.039 A 
ATOM     34  C   UNL A   1      33.920  33.790  30.487  1.00  0.00     0.014 A 
ATOM     35  C   UNL A   1      35.431  34.601  28.783  1.00  0.00     0.014 A 
ATOM     36  C   UNL A   1      35.002  33.242  31.182  1.00  0.00     0.010 A 
ATOM     37  C   UNL A   1      36.495  33.977  29.429  1.00  0.00     0.010 A 
ATOM     38  C   UNL A   1      36.295  33.291  30.636  1.00  0.00    -0.014 A 
BRANCH  38  39
ATOM     39  C   UNL A   1      37.448  32.646  31.320  1.00  0.00     0.031 A 
ATOM     40  C   UNL A   1      38.193  31.523  30.650  1.00  0.00     0.074 A 
ATOM     41  C   UNL A   1      37.785  33.023  32.569  1.00  0.00     0.049 A 
ATOM     42  N   UNL A   1      39.176  30.790  31.107  1.00  0.00    -0.248 NA
ATOM     43  C   UNL A   1      37.751  31.152  29.296  1.00  0.00     0.031 C 
ATOM     44  C   UNL A   1      37.106  34.054  33.356  1.00  0.00     0.029 A 
ATOM     45  N   UNL A   1      38.779  32.572  33.403  1.00  0.00    -0.354 N 
ATOM     46  C   UNL A   1      39.451  29.862  30.111  1.00  0.00     0.074 A 
ATOM     47  C   UNL A   1      38.496  30.086  29.048  1.00  0.00     0.031 C 
ATOM     48  C   UNL A   1      37.718  34.176  34.545  1.00  0.00     0.029 A 
ATOM     49  C   UNL A   1      38.812  33.211  34.619  1.00  0.00     0.049 A 
ATOM     50  H   UNL A   1      39.408  31.858  33.153  1.00  0.00     0.167 HD
ATOM     51  C   UNL A   1      40.428  28.924  30.072  1.00  0.00     0.037 A 
ATOM     52  C   UNL A   1      39.633  33.040  35.673  1.00  0.00     0.037 A 
ATOM     53  C   UNL A   1      41.404  28.727  31.111  1.00  0.00     0.049 A 
ATOM     54  C   UNL A   1      40.735  32.018  35.588  1.00  0.00     0.074 A 
ATOM     55  C   UNL A   1      42.468  27.842  31.141  1.00  0.00     0.029 A 
ATOM     56  N   UNL A   1      41.437  29.431  32.305  1.00  0.00    -0.354 N 
ATOM     57  N   UNL A   1      41.026  31.193  34.612  1.00  0.00    -0.248 NA
ATOM     58  C   UNL A   1      41.632  31.914  36.748  1.00  0.00     0.031 C 
ATOM     59  C   UNL A   1      43.126  27.989  32.367  1.00  0.00     0.029 A 
ATOM     60  C   UNL A   1      42.500  28.998  33.081  1.00  0.00     0.049 A 
ATOM     61  H   UNL A   1      40.799  30.136  32.562  1.00  0.00     0.167 HD
ATOM     62  C   UNL A   1      42.158  30.502  35.022  1.00  0.00     0.074 A 
ATOM     63  C   UNL A   1      42.508  31.011  36.331  1.00  0.00     0.031 C 
ATOM     64  C   UNL A   1      42.847  29.532  34.372  1.00  0.00     0.037 A 
BRANCH  51  65
ATOM     65  C   UNL A   1      40.497  28.047  28.855  1.00  0.00     0.064 A 
ATOM     66  C   UNL A   1      39.791  26.836  28.779  1.00  0.00     0.173 A 
ATOM     67  C   UNL A   1      41.255  28.433  27.739  1.00  0.00     0.173 A 
ATOM     68  F   UNL A   1      39.062  26.414  29.825  1.00  0.00    -0.203 F 
ATOM     69  C   UNL A   1      39.865  26.031  27.647  1.00  0.00     0.198 A 
ATOM     70  C   UNL A   1      41.302  27.641  26.595  1.00  0.00     0.198 A 
ATOM     71  F   UNL A   1      41.945  29.584  27.755  1.00  0.00    -0.203 F 
ATOM     72  F   UNL A   1      39.225  24.855  27.619  1.00  0.00    -0.200 F 
ATOM     73  C   UNL A   1      40.615  26.437  26.552  1.00  0.00     0.200 A 
ATOM     74  F   UNL A   1      42.016  28.041  25.533  1.00  0.00    -0.200 F 
ATOM     75  F   UNL A   1      40.680  25.665  25.460  1.00  0.00    -0.200 F 
ENDBRANCH  51  65
BRANCH  52  76
ATOM     76  C   UNL A   1      39.477  33.886  36.885  1.00  0.00     0.064 A 
ATOM     77  C   UNL A   1      40.055  35.162  36.950  1.00  0.00     0.173 A 
ATOM     78  C   UNL A   1      38.764  33.435  38.005  1.00  0.00     0.173 A 
ATOM     79  F   UNL A   1      40.765  35.628  35.911  1.00  0.00    -0.203 F 
ATOM     80  C   UNL A   1      39.949  35.944  38.097  1.00  0.00     0.198 A 
ATOM     81  C   UNL A   1      38.634  34.231  39.142  1.00  0.00     0.198 A 
ATOM     82  F   UNL A   1      38.186  32.226  37.992  1.00  0.00    -0.203 F 
ATOM     83  F   UNL A   1      40.555  37.138  38.150  1.00  0.00    -0.200 F 
ATOM     84  C   UNL A   1      39.235  35.480  39.192  1.00  0.00     0.200 A 
ATOM     85  F   UNL A   1      37.932  33.785  40.193  1.00  0.00    -0.200 F 
ATOM     86  F   UNL A   1      39.133  36.233  40.296  1.00  0.00    -0.200 F 
ENDBRANCH  52  76
BRANCH  64  87
ATOM     87  C   UNL A   1      44.079  28.998  35.042  1.00  0.00     0.064 A 
ATOM     88  C   UNL A   1      45.347  29.553  34.813  1.00  0.00     0.173 A 
ATOM     89  C   UNL A   1      43.984  27.932  35.950  1.00  0.00     0.173 A 
ATOM     90  F   UNL A   1      45.493  30.564  33.943  1.00  0.00    -0.203 F 
ATOM     91  C   UNL A   1      46.476  29.040  35.442  1.00  0.00     0.198 A 
ATOM     92  C   UNL A   1      45.111  27.441  36.601  1.00  0.00     0.198 A 
ATOM     93  F   UNL A   1      42.793  27.371  36.210  1.00  0.00    -0.203 F 
ATOM     94  F   UNL A   1      47.685  29.551  35.167  1.00  0.00    -0.200 F 
ATOM     95  C   UNL A   1      46.358  27.989  36.340  1.00  0.00     0.200 A 
ATOM     96  F   UNL A   1      44.992  26.434  37.477  1.00  0.00    -0.200 F 
ATOM     97  F   UNL A   1      47.447  27.498  36.947  1.00  0.00    -0.200 F 
ENDBRANCH  64  87
ENDBRANCH  38  39
ENDBRANCH  30  33
ENDBRANCH  28  29
ENDBRANCH  27  28
ENDBRANCH   1  27
TORSDOF 14
ENDMDL
