MODEL 1
REMARK VINA RESULT:     -12.8      0.000      0.000
REMARK SMILES O=C(NCCCCNC(=O)c1cccc(OS(=O)(=O)c2cccc([N+](=O)[O-])c2)c1)c1ccc(-c2c3nc(c(-c4c(F)c(F)c(F)c(F)c4F)c4ccc([nH]4)c(-c4c(F)c(F)c(F)c(F)c4F)c4nc(c(-c5c(F)c(F)c(F)c(F)c5F)c5ccc2[nH]5)C=C4)C=C3)cc1
REMARK SMILES IDX 6 1 5 2 4 3 3 4 1 5 2 6 30 8 31 9 92 10 32 11 91 12 33 13
REMARK SMILES IDX 34 14 35 15 85 16 36 17 90 18 84 19 86 20 37 21 89 22 83 23
REMARK SMILES IDX 82 24 38 26 70 27 50 28 69 29 51 30 54 31 68 32 87 33 52 34
REMARK SMILES IDX 53 35 67 37 88 38 55 39 39 40 40 41 48 42 41 43 42 44 46 45
REMARK SMILES IDX 49 46 43 47 44 48 47 49 45 50 71 51 72 52 80 53 73 54 74 55
REMARK SMILES IDX 78 56 81 57 75 58 76 59 79 60 77 61 56 62 57 63 65 64 58 65
REMARK SMILES IDX 59 66 63 67 66 68 60 69 61 70 64 71 62 72 7 73 8 74 9 75
REMARK SMILES IDX 10 77 11 78 12 79 29 80 13 81 15 82 14 83 16 84 17 85 18 86
REMARK SMILES IDX 19 87 20 88 21 89 28 90 22 91 24 92 23 93 25 94 26 95 27 96
REMARK H PARENT 3 7 86 25 54 36 8 76
REMARK Flexibility Score: inf
ROOT
ATOM      1  C   UNL A   1      36.980  20.246  24.880  1.00  0.00     0.023 C 
ENDROOT
BRANCH   1   2
ATOM      2  C   UNL A   1      38.163  19.287  24.971  1.00  0.00     0.023 C 
BRANCH   2   3
ATOM      3  C   UNL A   1      39.380  19.827  25.710  1.00  0.00     0.116 C 
BRANCH   3   4
ATOM      4  N   UNL A   1      40.460  18.858  25.815  1.00  0.00    -0.352 N 
ATOM      5  O   UNL A   1      42.598  18.145  25.972  1.00  0.00    -0.269 OA
ATOM      6  C   UNL A   1      41.798  19.071  26.054  1.00  0.00     0.251 C 
ATOM      7  H   UNL A   1      40.195  17.916  25.700  1.00  0.00     0.163 HD
BRANCH   6   8
ATOM      8  C   UNL A   1      42.279  20.431  26.383  1.00  0.00     0.039 A 
ATOM      9  C   UNL A   1      42.349  20.861  27.710  1.00  0.00     0.014 A 
ATOM     10  C   UNL A   1      42.666  21.289  25.348  1.00  0.00     0.014 A 
ATOM     11  C   UNL A   1      42.655  22.188  27.990  1.00  0.00     0.010 A 
ATOM     12  C   UNL A   1      43.060  22.599  25.639  1.00  0.00     0.010 A 
ATOM     13  C   UNL A   1      43.026  23.068  26.960  1.00  0.00    -0.014 A 
BRANCH  13  14
ATOM     14  C   UNL A   1      43.433  24.452  27.313  1.00  0.00     0.031 A 
ATOM     15  C   UNL A   1      44.820  24.958  27.032  1.00  0.00     0.074 A 
ATOM     16  C   UNL A   1      42.507  25.274  27.844  1.00  0.00     0.049 A 
ATOM     17  N   UNL A   1      45.312  26.158  27.222  1.00  0.00    -0.248 NA
ATOM     18  C   UNL A   1      45.784  23.998  26.474  1.00  0.00     0.031 C 
ATOM     19  C   UNL A   1      41.135  24.885  28.179  1.00  0.00     0.029 A 
ATOM     20  N   UNL A   1      42.564  26.605  28.166  1.00  0.00    -0.354 N 
ATOM     21  C   UNL A   1      46.640  26.094  26.820  1.00  0.00     0.074 A 
ATOM     22  C   UNL A   1      46.887  24.732  26.397  1.00  0.00     0.031 C 
ATOM     23  C   UNL A   1      40.464  25.966  28.604  1.00  0.00     0.029 A 
ATOM     24  C   UNL A   1      41.370  27.108  28.622  1.00  0.00     0.049 A 
ATOM     25  H   UNL A   1      43.380  27.148  28.078  1.00  0.00     0.167 HD
ATOM     26  C   UNL A   1      47.561  27.087  26.799  1.00  0.00     0.037 A 
ATOM     27  C   UNL A   1      41.042  28.351  29.017  1.00  0.00     0.037 A 
ATOM     28  C   UNL A   1      47.307  28.446  27.203  1.00  0.00     0.049 A 
ATOM     29  C   UNL A   1      42.083  29.430  28.973  1.00  0.00     0.074 A 
ATOM     30  C   UNL A   1      48.173  29.526  27.199  1.00  0.00     0.029 A 
ATOM     31  N   UNL A   1      46.092  28.913  27.683  1.00  0.00    -0.354 N 
ATOM     32  N   UNL A   1      43.329  29.359  28.571  1.00  0.00    -0.248 NA
ATOM     33  C   UNL A   1      41.675  30.761  29.440  1.00  0.00     0.031 C 
ATOM     34  C   UNL A   1      47.491  30.639  27.704  1.00  0.00     0.029 A 
ATOM     35  C   UNL A   1      46.190  30.262  27.990  1.00  0.00     0.049 A 
ATOM     36  H   UNL A   1      45.279  28.368  27.790  1.00  0.00     0.167 HD
ATOM     37  C   UNL A   1      43.853  30.631  28.735  1.00  0.00     0.074 A 
ATOM     38  C   UNL A   1      42.781  31.463  29.242  1.00  0.00     0.031 C 
ATOM     39  C   UNL A   1      45.114  31.069  28.502  1.00  0.00     0.037 A 
BRANCH  26  40
ATOM     40  C   UNL A   1      48.944  26.748  26.325  1.00  0.00     0.064 A 
ATOM     41  C   UNL A   1      49.882  26.144  27.174  1.00  0.00     0.173 A 
ATOM     42  C   UNL A   1      49.309  26.959  24.986  1.00  0.00     0.173 A 
ATOM     43  F   UNL A   1      49.585  25.929  28.464  1.00  0.00    -0.203 F 
ATOM     44  C   UNL A   1      51.140  25.774  26.703  1.00  0.00     0.198 A 
ATOM     45  C   UNL A   1      50.559  26.569  24.514  1.00  0.00     0.198 A 
ATOM     46  F   UNL A   1      48.445  27.527  24.131  1.00  0.00    -0.203 F 
ATOM     47  F   UNL A   1      52.030  25.220  27.538  1.00  0.00    -0.200 F 
ATOM     48  C   UNL A   1      51.475  25.979  25.373  1.00  0.00     0.200 A 
ATOM     49  F   UNL A   1      50.877  26.758  23.225  1.00  0.00    -0.200 F 
ATOM     50  F   UNL A   1      52.680  25.609  24.918  1.00  0.00    -0.200 F 
ENDBRANCH  26  40
BRANCH  27  51
ATOM     51  C   UNL A   1      39.663  28.634  29.487  1.00  0.00     0.064 A 
ATOM     52  C   UNL A   1      39.298  28.430  30.825  1.00  0.00     0.173 A 
ATOM     53  C   UNL A   1      38.685  29.124  28.609  1.00  0.00     0.173 A 
ATOM     54  F   UNL A   1      40.194  27.943  31.696  1.00  0.00    -0.203 F 
ATOM     55  C   UNL A   1      38.003  28.692  31.263  1.00  0.00     0.198 A 
ATOM     56  C   UNL A   1      37.398  29.414  29.055  1.00  0.00     0.198 A 
ATOM     57  F   UNL A   1      38.987  29.340  27.320  1.00  0.00    -0.203 F 
ATOM     58  F   UNL A   1      37.668  28.451  32.538  1.00  0.00    -0.200 F 
ATOM     59  C   UNL A   1      37.056  29.190  30.381  1.00  0.00     0.200 A 
ATOM     60  F   UNL A   1      36.491  29.908  28.203  1.00  0.00    -0.200 F 
ATOM     61  F   UNL A   1      35.811  29.448  30.805  1.00  0.00    -0.200 F 
ENDBRANCH  27  51
BRANCH  39  62
ATOM     62  C   UNL A   1      45.391  32.512  28.794  1.00  0.00     0.064 A 
ATOM     63  C   UNL A   1      45.877  32.921  30.045  1.00  0.00     0.173 A 
ATOM     64  C   UNL A   1      45.175  33.494  27.815  1.00  0.00     0.173 A 
ATOM     65  F   UNL A   1      46.080  32.020  31.017  1.00  0.00    -0.203 F 
ATOM     66  C   UNL A   1      46.109  34.267  30.315  1.00  0.00     0.198 A 
ATOM     67  C   UNL A   1      45.432  34.835  28.082  1.00  0.00     0.198 A 
ATOM     68  F   UNL A   1      44.715  33.150  26.603  1.00  0.00    -0.203 F 
ATOM     69  F   UNL A   1      46.524  34.642  31.532  1.00  0.00    -0.200 F 
ATOM     70  C   UNL A   1      45.890  35.221  29.332  1.00  0.00     0.200 A 
ATOM     71  F   UNL A   1      45.227  35.756  27.130  1.00  0.00    -0.200 F 
ATOM     72  F   UNL A   1      46.110  36.517  29.596  1.00  0.00    -0.200 F 
ENDBRANCH  39  62
ENDBRANCH  13  14
ENDBRANCH   6   8
ENDBRANCH   3   4
ENDBRANCH   2   3
ENDBRANCH   1   2
BRANCH   1  73
ATOM     73  C   UNL A   1      37.305  21.710  25.165  1.00  0.00     0.116 C 
BRANCH  73  74
ATOM     74  N   UNL A   1      36.489  22.268  26.236  1.00  0.00    -0.352 N 
ATOM     75  C   UNL A   1      35.220  22.793  26.168  1.00  0.00     0.251 C 
ATOM     76  H   UNL A   1      36.902  22.270  27.129  1.00  0.00     0.163 HD
ATOM     77  O   UNL A   1      34.717  23.354  27.133  1.00  0.00    -0.269 OA
BRANCH  75  78
ATOM     78  C   UNL A   1      34.468  22.678  24.903  1.00  0.00     0.043 A 
ATOM     79  C   UNL A   1      33.565  21.631  24.729  1.00  0.00     0.014 A 
ATOM     80  C   UNL A   1      34.641  23.647  23.911  1.00  0.00     0.062 A 
ATOM     81  C   UNL A   1      32.781  21.596  23.577  1.00  0.00     0.005 A 
ATOM     82  C   UNL A   1      33.815  23.649  22.789  1.00  0.00     0.143 A 
ATOM     83  C   UNL A   1      32.894  22.611  22.618  1.00  0.00     0.048 A 
BRANCH  82  84
ATOM     84  O   UNL A   1      33.829  24.632  21.829  1.00  0.00    -0.379 OA
BRANCH  84  85
ATOM     85  S   UNL A   1      32.983  26.017  22.047  1.00  0.00     0.339 S 
ATOM     86  O   UNL A   1      33.792  27.128  21.579  1.00  0.00    -0.181 OA
ATOM     87  O   UNL A   1      31.629  25.822  21.568  1.00  0.00    -0.181 OA
BRANCH  85  88
ATOM     88  C   UNL A   1      32.832  26.216  23.805  1.00  0.00     0.112 A 
ATOM     89  C   UNL A   1      33.743  27.002  24.514  1.00  0.00     0.024 A 
ATOM     90  C   UNL A   1      31.801  25.530  24.460  1.00  0.00     0.109 A 
ATOM     91  C   UNL A   1      33.635  27.091  25.904  1.00  0.00     0.009 A 
ATOM     92  C   UNL A   1      31.708  25.623  25.852  1.00  0.00     0.270 A 
ATOM     93  C   UNL A   1      32.623  26.401  26.577  1.00  0.00     0.086 A 
BRANCH  92  94
ATOM     94  N   UNL A   1      30.655  24.883  26.562  1.00  0.00     0.062 N 
ATOM     95  O   UNL A   1      29.493  25.297  26.460  1.00  0.00    -0.258 OA
ATOM     96  O   UNL A   1      30.997  23.892  27.222  1.00  0.00    -0.258 OA
ENDBRANCH  92  94
ENDBRANCH  85  88
ENDBRANCH  84  85
ENDBRANCH  82  84
ENDBRANCH  75  78
ENDBRANCH  73  74
ENDBRANCH   1  73
TORSDOF 15
ENDMDL
MODEL 2
REMARK VINA RESULT:     -12.7      4.365      9.910
REMARK SMILES O=C(NCCCCNC(=O)c1cccc(OS(=O)(=O)c2cccc([N+](=O)[O-])c2)c1)c1ccc(-c2c3nc(c(-c4c(F)c(F)c(F)c(F)c4F)c4ccc([nH]4)c(-c4c(F)c(F)c(F)c(F)c4F)c4nc(c(-c5c(F)c(F)c(F)c(F)c5F)c5ccc2[nH]5)C=C4)C=C3)cc1
REMARK SMILES IDX 6 1 5 2 4 3 3 4 1 5 2 6 30 8 31 9 92 10 32 11 91 12 33 13
REMARK SMILES IDX 34 14 35 15 85 16 36 17 90 18 84 19 86 20 37 21 89 22 83 23
REMARK SMILES IDX 82 24 38 26 70 27 50 28 69 29 51 30 54 31 68 32 87 33 52 34
REMARK SMILES IDX 53 35 67 37 88 38 55 39 39 40 40 41 48 42 41 43 42 44 46 45
REMARK SMILES IDX 49 46 43 47 44 48 47 49 45 50 71 51 72 52 80 53 73 54 74 55
REMARK SMILES IDX 78 56 81 57 75 58 76 59 79 60 77 61 56 62 57 63 65 64 58 65
REMARK SMILES IDX 59 66 63 67 66 68 60 69 61 70 64 71 62 72 7 73 8 74 9 75
REMARK SMILES IDX 10 77 11 78 12 79 29 80 13 81 15 82 14 83 16 84 17 85 18 86
REMARK SMILES IDX 19 87 20 88 21 89 28 90 22 91 24 92 23 93 25 94 26 95 27 96
REMARK H PARENT 3 7 86 25 54 36 8 76
REMARK Flexibility Score: inf
ROOT
ATOM      1  C   UNL A   1      31.914  27.723  26.509  1.00  0.00     0.023 C 
ENDROOT
BRANCH   1   2
ATOM      2  C   UNL A   1      33.376  27.603  26.089  1.00  0.00     0.023 C 
BRANCH   2   3
ATOM      3  C   UNL A   1      34.008  28.886  25.566  1.00  0.00     0.116 C 
BRANCH   3   4
ATOM      4  N   UNL A   1      33.305  30.085  25.997  1.00  0.00    -0.352 N 
ATOM      5  O   UNL A   1      32.816  31.828  27.348  1.00  0.00    -0.269 OA
ATOM      6  C   UNL A   1      33.600  30.937  27.037  1.00  0.00     0.251 C 
ATOM      7  H   UNL A   1      32.507  30.319  25.471  1.00  0.00     0.163 HD
BRANCH   6   8
ATOM      8  C   UNL A   1      34.853  30.759  27.802  1.00  0.00     0.039 A 
ATOM      9  C   UNL A   1      35.813  31.773  27.843  1.00  0.00     0.014 A 
ATOM     10  C   UNL A   1      35.072  29.561  28.488  1.00  0.00     0.014 A 
ATOM     11  C   UNL A   1      37.046  31.531  28.436  1.00  0.00     0.010 A 
ATOM     12  C   UNL A   1      36.280  29.352  29.161  1.00  0.00     0.010 A 
ATOM     13  C   UNL A   1      37.290  30.324  29.112  1.00  0.00    -0.014 A 
BRANCH  13  14
ATOM     14  C   UNL A   1      38.589  30.144  29.809  1.00  0.00     0.031 A 
ATOM     15  C   UNL A   1      38.825  30.702  31.184  1.00  0.00     0.074 A 
ATOM     16  C   UNL A   1      39.543  29.411  29.202  1.00  0.00     0.049 A 
ATOM     17  N   UNL A   1      39.880  30.577  31.953  1.00  0.00    -0.248 NA
ATOM     18  C   UNL A   1      37.748  31.510  31.774  1.00  0.00     0.031 C 
ATOM     19  C   UNL A   1      39.431  28.837  27.859  1.00  0.00     0.029 A 
ATOM     20  N   UNL A   1      40.775  28.998  29.640  1.00  0.00    -0.354 N 
ATOM     21  C   UNL A   1      39.600  31.297  33.106  1.00  0.00     0.074 A 
ATOM     22  C   UNL A   1      38.286  31.878  32.931  1.00  0.00     0.031 C 
ATOM     23  C   UNL A   1      40.521  28.099  27.606  1.00  0.00     0.029 A 
ATOM     24  C   UNL A   1      41.430  28.191  28.742  1.00  0.00     0.049 A 
ATOM     25  H   UNL A   1      41.152  29.253  30.513  1.00  0.00     0.167 HD
ATOM     26  C   UNL A   1      40.368  31.449  34.212  1.00  0.00     0.037 A 
ATOM     27  C   UNL A   1      42.633  27.595  28.823  1.00  0.00     0.037 A 
ATOM     28  C   UNL A   1      41.668  30.853  34.390  1.00  0.00     0.049 A 
ATOM     29  C   UNL A   1      43.455  27.775  30.064  1.00  0.00     0.074 A 
ATOM     30  C   UNL A   1      42.514  30.935  35.484  1.00  0.00     0.029 A 
ATOM     31  N   UNL A   1      42.311  30.062  33.449  1.00  0.00    -0.354 N 
ATOM     32  N   UNL A   1      43.168  28.443  31.155  1.00  0.00    -0.248 NA
ATOM     33  C   UNL A   1      44.770  27.122  30.086  1.00  0.00     0.031 C 
ATOM     34  C   UNL A   1      43.679  30.219  35.192  1.00  0.00     0.029 A 
ATOM     35  C   UNL A   1      43.547  29.660  33.932  1.00  0.00     0.049 A 
ATOM     36  H   UNL A   1      41.943  29.821  32.568  1.00  0.00     0.167 HD
ATOM     37  C   UNL A   1      44.262  28.292  31.992  1.00  0.00     0.074 A 
ATOM     38  C   UNL A   1      45.206  27.440  31.296  1.00  0.00     0.031 C 
ATOM     39  C   UNL A   1      44.474  28.822  33.221  1.00  0.00     0.037 A 
BRANCH  26  40
ATOM     40  C   UNL A   1      39.831  32.297  35.326  1.00  0.00     0.064 A 
ATOM     41  C   UNL A   1      40.099  33.672  35.395  1.00  0.00     0.173 A 
ATOM     42  C   UNL A   1      38.976  31.746  36.293  1.00  0.00     0.173 A 
ATOM     43  F   UNL A   1      40.918  34.246  34.501  1.00  0.00    -0.203 F 
ATOM     44  C   UNL A   1      39.540  34.461  36.398  1.00  0.00     0.198 A 
ATOM     45  C   UNL A   1      38.402  32.541  37.281  1.00  0.00     0.198 A 
ATOM     46  F   UNL A   1      38.682  30.437  36.267  1.00  0.00    -0.203 F 
ATOM     47  F   UNL A   1      39.830  35.769  36.459  1.00  0.00    -0.200 F 
ATOM     48  C   UNL A   1      38.687  33.898  37.334  1.00  0.00     0.200 A 
ATOM     49  F   UNL A   1      37.569  31.997  38.179  1.00  0.00    -0.200 F 
ATOM     50  F   UNL A   1      38.138  34.661  38.289  1.00  0.00    -0.200 F 
ENDBRANCH  26  40
BRANCH  27  51
ATOM     51  C   UNL A   1      43.124  26.773  27.689  1.00  0.00     0.064 A 
ATOM     52  C   UNL A   1      43.844  27.351  26.635  1.00  0.00     0.173 A 
ATOM     53  C   UNL A   1      42.893  25.390  27.643  1.00  0.00     0.173 A 
ATOM     54  F   UNL A   1      44.073  28.672  26.626  1.00  0.00    -0.203 F 
ATOM     55  C   UNL A   1      44.301  26.579  25.570  1.00  0.00     0.198 A 
ATOM     56  C   UNL A   1      43.375  24.614  26.592  1.00  0.00     0.198 A 
ATOM     57  F   UNL A   1      42.212  24.790  28.631  1.00  0.00    -0.203 F 
ATOM     58  F   UNL A   1      44.953  27.161  24.555  1.00  0.00    -0.200 F 
ATOM     59  C   UNL A   1      44.073  25.210  25.553  1.00  0.00     0.200 A 
ATOM     60  F   UNL A   1      43.164  23.292  26.587  1.00  0.00    -0.200 F 
ATOM     61  F   UNL A   1      44.518  24.467  24.531  1.00  0.00    -0.200 F 
ENDBRANCH  27  51
BRANCH  39  62
ATOM     62  C   UNL A   1      45.777  28.489  33.882  1.00  0.00     0.064 A 
ATOM     63  C   UNL A   1      46.898  29.322  33.741  1.00  0.00     0.173 A 
ATOM     64  C   UNL A   1      45.907  27.335  34.667  1.00  0.00     0.173 A 
ATOM     65  F   UNL A   1      46.826  30.428  32.984  1.00  0.00    -0.203 F 
ATOM     66  C   UNL A   1      48.111  28.994  34.340  1.00  0.00     0.198 A 
ATOM     67  C   UNL A   1      47.114  27.023  35.283  1.00  0.00     0.198 A 
ATOM     68  F   UNL A   1      44.862  26.510  34.833  1.00  0.00    -0.203 F 
ATOM     69  F   UNL A   1      49.182  29.776  34.150  1.00  0.00    -0.200 F 
ATOM     70  C   UNL A   1      48.216  27.847  35.113  1.00  0.00     0.200 A 
ATOM     71  F   UNL A   1      47.215  25.918  36.036  1.00  0.00    -0.200 F 
ATOM     72  F   UNL A   1      49.386  27.530  35.684  1.00  0.00    -0.200 F 
ENDBRANCH  39  62
ENDBRANCH  13  14
ENDBRANCH   6   8
ENDBRANCH   3   4
ENDBRANCH   2   3
ENDBRANCH   1   2
BRANCH   1  73
ATOM     73  C   UNL A   1      30.955  26.762  25.812  1.00  0.00     0.116 C 
BRANCH  73  74
ATOM     74  N   UNL A   1      30.582  25.633  26.655  1.00  0.00    -0.352 N 
ATOM     75  C   UNL A   1      30.846  24.296  26.470  1.00  0.00     0.251 C 
ATOM     76  H   UNL A   1      30.071  25.857  27.465  1.00  0.00     0.163 HD
ATOM     77  O   UNL A   1      30.343  23.447  27.197  1.00  0.00    -0.269 OA
BRANCH  75  78
ATOM     78  C   UNL A   1      31.744  23.892  25.371  1.00  0.00     0.043 A 
ATOM     79  C   UNL A   1      31.206  23.528  24.138  1.00  0.00     0.014 A 
ATOM     80  C   UNL A   1      33.127  23.920  25.569  1.00  0.00     0.062 A 
ATOM     81  C   UNL A   1      32.067  23.256  23.076  1.00  0.00     0.005 A 
ATOM     82  C   UNL A   1      33.987  23.710  24.494  1.00  0.00     0.143 A 
ATOM     83  C   UNL A   1      33.453  23.362  23.249  1.00  0.00     0.048 A 
BRANCH  82  84
ATOM     84  O   UNL A   1      35.353  23.843  24.569  1.00  0.00    -0.379 OA
BRANCH  84  85
ATOM     85  S   UNL A   1      36.325  22.537  24.389  1.00  0.00     0.339 S 
ATOM     86  O   UNL A   1      35.607  21.363  24.853  1.00  0.00    -0.181 OA
ATOM     87  O   UNL A   1      36.926  22.575  23.071  1.00  0.00    -0.181 OA
BRANCH  85  88
ATOM     88  C   UNL A   1      37.671  22.780  25.522  1.00  0.00     0.112 A 
ATOM     89  C   UNL A   1      37.832  23.999  26.186  1.00  0.00     0.024 A 
ATOM     90  C   UNL A   1      38.582  21.731  25.696  1.00  0.00     0.109 A 
ATOM     91  C   UNL A   1      38.934  24.180  27.025  1.00  0.00     0.009 A 
ATOM     92  C   UNL A   1      39.685  21.929  26.534  1.00  0.00     0.270 A 
ATOM     93  C   UNL A   1      39.865  23.151  27.199  1.00  0.00     0.086 A 
BRANCH  92  94
ATOM     94  N   UNL A   1      40.673  20.854  26.703  1.00  0.00     0.062 N 
ATOM     95  O   UNL A   1      41.319  20.505  25.706  1.00  0.00    -0.258 OA
ATOM     96  O   UNL A   1      40.795  20.361  27.833  1.00  0.00    -0.258 OA
ENDBRANCH  92  94
ENDBRANCH  85  88
ENDBRANCH  84  85
ENDBRANCH  82  84
ENDBRANCH  75  78
ENDBRANCH  73  74
ENDBRANCH   1  73
TORSDOF 15
ENDMDL
MODEL 3
REMARK VINA RESULT:     -12.5      0.461      1.670
REMARK SMILES O=C(NCCCCNC(=O)c1cccc(OS(=O)(=O)c2cccc([N+](=O)[O-])c2)c1)c1ccc(-c2c3nc(c(-c4c(F)c(F)c(F)c(F)c4F)c4ccc([nH]4)c(-c4c(F)c(F)c(F)c(F)c4F)c4nc(c(-c5c(F)c(F)c(F)c(F)c5F)c5ccc2[nH]5)C=C4)C=C3)cc1
REMARK SMILES IDX 6 1 5 2 4 3 3 4 1 5 2 6 30 8 31 9 92 10 32 11 91 12 33 13
REMARK SMILES IDX 34 14 35 15 85 16 36 17 90 18 84 19 86 20 37 21 89 22 83 23
REMARK SMILES IDX 82 24 38 26 70 27 50 28 69 29 51 30 54 31 68 32 87 33 52 34
REMARK SMILES IDX 53 35 67 37 88 38 55 39 39 40 40 41 48 42 41 43 42 44 46 45
REMARK SMILES IDX 49 46 43 47 44 48 47 49 45 50 71 51 72 52 80 53 73 54 74 55
REMARK SMILES IDX 78 56 81 57 75 58 76 59 79 60 77 61 56 62 57 63 65 64 58 65
REMARK SMILES IDX 59 66 63 67 66 68 60 69 61 70 64 71 62 72 7 73 8 74 9 75
REMARK SMILES IDX 10 77 11 78 12 79 29 80 13 81 15 82 14 83 16 84 17 85 18 86
REMARK SMILES IDX 19 87 20 88 21 89 28 90 22 91 24 92 23 93 25 94 26 95 27 96
REMARK H PARENT 3 7 86 25 54 36 8 76
REMARK Flexibility Score: inf
ROOT
ATOM      1  C   UNL A   1      37.658  20.742  24.866  1.00  0.00     0.023 C 
ENDROOT
BRANCH   1   2
ATOM      2  C   UNL A   1      38.645  19.584  24.979  1.00  0.00     0.023 C 
BRANCH   2   3
ATOM      3  C   UNL A   1      39.675  19.716  26.093  1.00  0.00     0.116 C 
BRANCH   3   4
ATOM      4  N   UNL A   1      40.798  18.803  25.943  1.00  0.00    -0.352 N 
ATOM      5  O   UNL A   1      42.960  18.199  25.689  1.00  0.00    -0.269 OA
ATOM      6  C   UNL A   1      42.147  19.073  25.973  1.00  0.00     0.251 C 
ATOM      7  H   UNL A   1      40.558  17.859  25.802  1.00  0.00     0.163 HD
BRANCH   6   8
ATOM      8  C   UNL A   1      42.618  20.431  26.322  1.00  0.00     0.039 A 
ATOM      9  C   UNL A   1      42.634  20.861  27.650  1.00  0.00     0.014 A 
ATOM     10  C   UNL A   1      43.050  21.287  25.304  1.00  0.00     0.014 A 
ATOM     11  C   UNL A   1      42.933  22.187  27.943  1.00  0.00     0.010 A 
ATOM     12  C   UNL A   1      43.436  22.596  25.610  1.00  0.00     0.010 A 
ATOM     13  C   UNL A   1      43.348  23.066  26.929  1.00  0.00    -0.014 A 
BRANCH  13  14
ATOM     14  C   UNL A   1      43.745  24.448  27.299  1.00  0.00     0.031 A 
ATOM     15  C   UNL A   1      45.144  24.949  27.076  1.00  0.00     0.074 A 
ATOM     16  C   UNL A   1      42.800  25.274  27.789  1.00  0.00     0.049 A 
ATOM     17  N   UNL A   1      45.632  26.147  27.287  1.00  0.00    -0.248 NA
ATOM     18  C   UNL A   1      46.128  23.986  26.560  1.00  0.00     0.031 C 
ATOM     19  C   UNL A   1      41.414  24.890  28.066  1.00  0.00     0.029 A 
ATOM     20  N   UNL A   1      42.848  26.605  28.113  1.00  0.00    -0.354 N 
ATOM     21  C   UNL A   1      46.975  26.080  26.942  1.00  0.00     0.074 A 
ATOM     22  C   UNL A   1      47.236  24.716  26.530  1.00  0.00     0.031 C 
ATOM     23  C   UNL A   1      40.729  25.973  28.461  1.00  0.00     0.029 A 
ATOM     24  C   UNL A   1      41.638  27.112  28.517  1.00  0.00     0.049 A 
ATOM     25  H   UNL A   1      43.669  27.145  28.059  1.00  0.00     0.167 HD
ATOM     26  C   UNL A   1      47.900  27.069  26.959  1.00  0.00     0.037 A 
ATOM     27  C   UNL A   1      41.297  28.357  28.897  1.00  0.00     0.037 A 
ATOM     28  C   UNL A   1      47.633  28.429  27.352  1.00  0.00     0.049 A 
ATOM     29  C   UNL A   1      42.343  29.432  28.897  1.00  0.00     0.074 A 
ATOM     30  C   UNL A   1      48.502  29.506  27.384  1.00  0.00     0.029 A 
ATOM     31  N   UNL A   1      46.401  28.901  27.779  1.00  0.00    -0.354 N 
ATOM     32  N   UNL A   1      43.604  29.357  28.548  1.00  0.00    -0.248 NA
ATOM     33  C   UNL A   1      41.920  30.764  29.345  1.00  0.00     0.031 C 
ATOM     34  C   UNL A   1      47.804  30.621  27.859  1.00  0.00     0.029 A 
ATOM     35  C   UNL A   1      46.490  30.249  28.089  1.00  0.00     0.049 A 
ATOM     36  H   UNL A   1      45.582  28.358  27.852  1.00  0.00     0.167 HD
ATOM     37  C   UNL A   1      44.126  30.627  28.735  1.00  0.00     0.074 A 
ATOM     38  C   UNL A   1      43.035  31.463  29.194  1.00  0.00     0.031 C 
ATOM     39  C   UNL A   1      45.397  31.060  28.554  1.00  0.00     0.037 A 
BRANCH  26  40
ATOM     40  C   UNL A   1      49.301  26.725  26.545  1.00  0.00     0.064 A 
ATOM     41  C   UNL A   1      49.725  26.861  25.215  1.00  0.00     0.173 A 
ATOM     42  C   UNL A   1      50.249  26.328  27.500  1.00  0.00     0.173 A 
ATOM     43  F   UNL A   1      48.855  27.228  24.262  1.00  0.00    -0.203 F 
ATOM     44  C   UNL A   1      51.046  26.602  24.855  1.00  0.00     0.198 A 
ATOM     45  C   UNL A   1      51.573  26.091  27.141  1.00  0.00     0.198 A 
ATOM     46  F   UNL A   1      49.895  26.190  28.787  1.00  0.00    -0.203 F 
ATOM     47  F   UNL A   1      51.424  26.714  23.574  1.00  0.00    -0.200 F 
ATOM     48  C   UNL A   1      51.970  26.225  25.819  1.00  0.00     0.200 A 
ATOM     49  F   UNL A   1      52.467  25.737  28.075  1.00  0.00    -0.200 F 
ATOM     50  F   UNL A   1      53.244  25.990  25.473  1.00  0.00    -0.200 F 
ENDBRANCH  26  40
BRANCH  27  51
ATOM     51  C   UNL A   1      39.900  28.644  29.308  1.00  0.00     0.064 A 
ATOM     52  C   UNL A   1      38.963  29.136  28.389  1.00  0.00     0.173 A 
ATOM     53  C   UNL A   1      39.471  28.421  30.624  1.00  0.00     0.173 A 
ATOM     54  F   UNL A   1      39.332  29.383  27.124  1.00  0.00    -0.203 F 
ATOM     55  C   UNL A   1      37.654  29.408  28.776  1.00  0.00     0.198 A 
ATOM     56  C   UNL A   1      38.154  28.666  31.004  1.00  0.00     0.198 A 
ATOM     57  F   UNL A   1      40.330  27.947  31.539  1.00  0.00    -0.203 F 
ATOM     58  F   UNL A   1      36.787  29.915  27.889  1.00  0.00    -0.200 F 
ATOM     59  C   UNL A   1      37.247  29.166  30.081  1.00  0.00     0.200 A 
ATOM     60  F   UNL A   1      37.763  28.418  32.260  1.00  0.00    -0.200 F 
ATOM     61  F   UNL A   1      35.986  29.422  30.451  1.00  0.00    -0.200 F 
ENDBRANCH  27  51
BRANCH  39  62
ATOM     62  C   UNL A   1      45.666  32.503  28.857  1.00  0.00     0.064 A 
ATOM     63  C   UNL A   1      46.124  32.908  30.120  1.00  0.00     0.173 A 
ATOM     64  C   UNL A   1      45.470  33.487  27.878  1.00  0.00     0.173 A 
ATOM     65  F   UNL A   1      46.308  32.003  31.093  1.00  0.00    -0.203 F 
ATOM     66  C   UNL A   1      46.349  34.253  30.400  1.00  0.00     0.198 A 
ATOM     67  C   UNL A   1      45.720  34.828  28.154  1.00  0.00     0.198 A 
ATOM     68  F   UNL A   1      45.036  33.147  26.655  1.00  0.00    -0.203 F 
ATOM     69  F   UNL A   1      46.738  34.624  31.627  1.00  0.00    -0.200 F 
ATOM     70  C   UNL A   1      46.150  35.211  29.416  1.00  0.00     0.200 A 
ATOM     71  F   UNL A   1      45.534  35.753  27.202  1.00  0.00    -0.200 F 
ATOM     72  F   UNL A   1      46.363  36.505  29.689  1.00  0.00    -0.200 F 
ENDBRANCH  39  62
ENDBRANCH  13  14
ENDBRANCH   6   8
ENDBRANCH   3   4
ENDBRANCH   2   3
ENDBRANCH   1   2
BRANCH   1  73
ATOM     73  C   UNL A   1      36.188  20.361  25.015  1.00  0.00     0.116 C 
BRANCH  73  74
ATOM     74  N   UNL A   1      35.507  21.144  26.039  1.00  0.00    -0.352 N 
ATOM     75  C   UNL A   1      34.484  22.051  25.892  1.00  0.00     0.251 C 
ATOM     76  H   UNL A   1      35.823  21.006  26.961  1.00  0.00     0.163 HD
ATOM     77  O   UNL A   1      34.108  22.737  26.835  1.00  0.00    -0.269 OA
BRANCH  75  78
ATOM     78  C   UNL A   1      33.843  22.194  24.570  1.00  0.00     0.043 A 
ATOM     79  C   UNL A   1      32.827  21.317  24.196  1.00  0.00     0.014 A 
ATOM     80  C   UNL A   1      34.236  23.237  23.726  1.00  0.00     0.062 A 
ATOM     81  C   UNL A   1      32.155  21.530  22.993  1.00  0.00     0.005 A 
ATOM     82  C   UNL A   1      33.524  23.489  22.555  1.00  0.00     0.143 A 
ATOM     83  C   UNL A   1      32.492  22.623  22.183  1.00  0.00     0.048 A 
BRANCH  82  84
ATOM     84  O   UNL A   1      33.760  24.565  21.733  1.00  0.00    -0.379 OA
BRANCH  84  85
ATOM     85  S   UNL A   1      32.966  25.978  21.968  1.00  0.00     0.339 S 
ATOM     86  O   UNL A   1      33.813  27.063  21.504  1.00  0.00    -0.181 OA
ATOM     87  O   UNL A   1      31.604  25.837  21.496  1.00  0.00    -0.181 OA
BRANCH  85  88
ATOM     88  C   UNL A   1      32.833  26.167  23.729  1.00  0.00     0.112 A 
ATOM     89  C   UNL A   1      33.800  26.878  24.444  1.00  0.00     0.024 A 
ATOM     90  C   UNL A   1      31.757  25.549  24.379  1.00  0.00     0.109 A 
ATOM     91  C   UNL A   1      33.701  26.959  25.835  1.00  0.00     0.009 A 
ATOM     92  C   UNL A   1      31.674  25.633  25.772  1.00  0.00     0.270 A 
ATOM     93  C   UNL A   1      32.644  26.335  26.504  1.00  0.00     0.086 A 
BRANCH  92  94
ATOM     94  N   UNL A   1      30.573  24.962  26.477  1.00  0.00     0.062 N 
ATOM     95  O   UNL A   1      30.845  23.957  27.146  1.00  0.00    -0.258 OA
ATOM     96  O   UNL A   1      29.437  25.443  26.355  1.00  0.00    -0.258 OA
ENDBRANCH  92  94
ENDBRANCH  85  88
ENDBRANCH  84  85
ENDBRANCH  82  84
ENDBRANCH  75  78
ENDBRANCH  73  74
ENDBRANCH   1  73
TORSDOF 15
ENDMDL
