MODEL 1
REMARK VINA RESULT:     -12.2      0.000      0.000
REMARK SMILES CN(CC(C)(C)O)S(=O)(=O)c1cc(Cl)cc(C(=O)NCCCCNC(=O)c2ccc(-c3c4nc(c(-c5c(F)c(F)c(F)c(F)c5F)c5ccc([nH]5)c(-c5c(F)c(F)c(F)c(F)c5F)c5nc(c(-c6c(F)c(F)c(F)c(F)c6F)c6ccc3[nH]6)C=C5)C=C4)cc2)c1Cl
REMARK SMILES IDX 20 1 19 2 17 3 18 4 16 6 11 7 12 8 90 9 13 10 91 11 14 12
REMARK SMILES IDX 15 13 8 14 9 15 10 16 2 17 1 18 3 19 4 20 5 21 6 22 7 23
REMARK SMILES IDX 21 25 22 26 23 27 24 28 25 29 26 31 27 32 28 33 89 34 29 35
REMARK SMILES IDX 88 36 30 37 31 38 32 39 82 40 33 41 87 42 81 43 83 44 34 45
REMARK SMILES IDX 86 46 80 47 79 48 35 50 67 51 47 52 66 53 48 54 51 55 65 56
REMARK SMILES IDX 84 57 49 58 50 59 64 61 85 62 52 63 36 64 37 65 45 66 38 67
REMARK SMILES IDX 39 68 43 69 46 70 40 71 41 72 44 73 42 74 68 75 69 76 77 77
REMARK SMILES IDX 70 78 71 79 75 80 78 81 72 82 73 83 76 84 74 85 53 86 54 87
REMARK SMILES IDX 62 88 55 89 56 90 60 91 63 92 57 93 58 94 61 95 59 96
REMARK H PARENT 19 5 7 24 24 30 83 49 51 60
REMARK Flexibility Score: inf
ROOT
ATOM      1  C   UNL A   1      33.047  29.472  26.066  1.00  0.00     0.116 C 
ENDROOT
BRANCH   1   2
ATOM      2  N   UNL A   1      33.219  29.647  24.629  1.00  0.00    -0.352 N 
ATOM      3  C   UNL A   1      32.720  28.895  23.582  1.00  0.00     0.252 C 
ATOM      4  O   UNL A   1      32.931  29.251  22.425  1.00  0.00    -0.269 OA
ATOM      5  H   UNL A   1      33.774  30.415  24.365  1.00  0.00     0.163 HD
BRANCH   3   6
ATOM      6  C   UNL A   1      32.023  27.604  23.816  1.00  0.00     0.061 A 
ATOM      7  C   UNL A   1      31.955  25.197  23.853  1.00  0.00     0.103 A 
ATOM      8  C   UNL A   1      30.551  25.231  23.853  1.00  0.00     0.044 A 
ATOM      9  C   UNL A   1      32.689  26.383  23.969  1.00  0.00     0.073 A 
ATOM     10  C   UNL A   1      29.895  26.455  23.925  1.00  0.00     0.043 A 
ATOM     11  Cl  UNL A   1      34.317  26.403  24.554  1.00  0.00    -0.082 Cl
ATOM     12  Cl  UNL A   1      28.180  26.501  24.017  1.00  0.00    -0.084 Cl
ATOM     13  C   UNL A   1      30.620  27.641  23.856  1.00  0.00     0.036 A 
BRANCH   7  14
ATOM     14  S   UNL A   1      32.713  23.689  23.298  1.00  0.00     0.244 S 
ATOM     15  O   UNL A   1      33.573  23.956  22.169  1.00  0.00    -0.207 OA
ATOM     16  O   UNL A   1      31.616  22.755  23.133  1.00  0.00    -0.207 OA
BRANCH  14  17
ATOM     17  N   UNL A   1      33.651  23.122  24.576  1.00  0.00    -0.198 NA
ATOM     18  C   UNL A   1      32.907  23.017  25.853  1.00  0.00     0.124 C 
BRANCH  17  19
ATOM     19  C   UNL A   1      34.742  22.127  24.406  1.00  0.00     0.136 C 
BRANCH  19  20
ATOM     20  C   UNL A   1      36.192  22.623  24.158  1.00  0.00     0.073 C 
ATOM     21  C   UNL A   1      36.634  23.733  25.102  1.00  0.00     0.043 C 
ATOM     22  C   UNL A   1      37.137  21.427  24.362  1.00  0.00     0.043 C 
BRANCH  20  23
ATOM     23  O   UNL A   1      36.364  23.055  22.806  1.00  0.00    -0.389 OA
ATOM     24  H   UNL A   1      35.591  23.570  22.530  1.00  0.00     0.211 HD
ENDBRANCH  20  23
ENDBRANCH  19  20
ENDBRANCH  17  19
ENDBRANCH  14  17
ENDBRANCH   7  14
ENDBRANCH   3   6
ENDBRANCH   1   2
BRANCH   1  25
ATOM     25  C   UNL A   1      31.787  30.091  26.658  1.00  0.00     0.023 C 
BRANCH  25  26
ATOM     26  C   UNL A   1      31.681  31.613  26.587  1.00  0.00     0.023 C 
BRANCH  26  27
ATOM     27  C   UNL A   1      32.760  32.424  27.302  1.00  0.00     0.116 C 
BRANCH  27  28
ATOM     28  N   UNL A   1      32.389  33.800  27.600  1.00  0.00    -0.352 N 
ATOM     29  C   UNL A   1      32.975  34.724  28.436  1.00  0.00     0.251 C 
ATOM     30  H   UNL A   1      31.589  34.123  27.126  1.00  0.00     0.163 HD
ATOM     31  O   UNL A   1      32.471  35.836  28.572  1.00  0.00    -0.269 OA
BRANCH  29  32
ATOM     32  C   UNL A   1      34.179  34.374  29.222  1.00  0.00     0.039 A 
ATOM     33  C   UNL A   1      34.012  33.905  30.528  1.00  0.00     0.014 A 
ATOM     34  C   UNL A   1      35.461  34.478  28.679  1.00  0.00     0.014 A 
ATOM     35  C   UNL A   1      35.114  33.430  31.243  1.00  0.00     0.010 A 
ATOM     36  C   UNL A   1      36.545  33.926  29.358  1.00  0.00     0.010 A 
ATOM     37  C   UNL A   1      36.380  33.378  30.640  1.00  0.00    -0.014 A 
BRANCH  37  38
ATOM     38  C   UNL A   1      37.533  32.719  31.311  1.00  0.00     0.031 A 
ATOM     39  C   UNL A   1      38.235  31.561  30.658  1.00  0.00     0.074 A 
ATOM     40  C   UNL A   1      37.888  33.103  32.554  1.00  0.00     0.049 A 
ATOM     41  N   UNL A   1      39.185  30.794  31.131  1.00  0.00    -0.248 NA
ATOM     42  C   UNL A   1      37.789  31.198  29.304  1.00  0.00     0.031 C 
ATOM     43  C   UNL A   1      37.250  34.172  33.325  1.00  0.00     0.029 A 
ATOM     44  N   UNL A   1      38.864  32.628  33.395  1.00  0.00    -0.354 N 
ATOM     45  C   UNL A   1      39.430  29.845  30.148  1.00  0.00     0.074 A 
ATOM     46  C   UNL A   1      38.499  30.104  29.070  1.00  0.00     0.031 C 
ATOM     47  C   UNL A   1      37.863  34.284  34.515  1.00  0.00     0.029 A 
ATOM     48  C   UNL A   1      38.912  33.274  34.607  1.00  0.00     0.049 A 
ATOM     49  H   UNL A   1      39.473  31.892  33.152  1.00  0.00     0.167 HD
ATOM     50  C   UNL A   1      40.359  28.860  30.136  1.00  0.00     0.037 A 
ATOM     51  C   UNL A   1      39.706  33.071  35.675  1.00  0.00     0.037 A 
ATOM     52  C   UNL A   1      41.312  28.628  31.189  1.00  0.00     0.049 A 
ATOM     53  C   UNL A   1      40.748  31.987  35.624  1.00  0.00     0.074 A 
ATOM     54  C   UNL A   1      42.339  27.701  31.234  1.00  0.00     0.029 A 
ATOM     55  N   UNL A   1      41.355  29.332  32.383  1.00  0.00    -0.354 N 
ATOM     56  N   UNL A   1      41.014  31.141  34.660  1.00  0.00    -0.248 NA
ATOM     57  C   UNL A   1      41.604  31.836  36.810  1.00  0.00     0.031 C 
ATOM     58  C   UNL A   1      42.984  27.822  32.471  1.00  0.00     0.029 A 
ATOM     59  C   UNL A   1      42.383  28.851  33.178  1.00  0.00     0.049 A 
ATOM     60  H   UNL A   1      40.746  30.065  32.629  1.00  0.00     0.167 HD
ATOM     61  C   UNL A   1      42.082  30.376  35.108  1.00  0.00     0.074 A 
ATOM     62  C   UNL A   1      42.425  30.867  36.427  1.00  0.00     0.031 C 
ATOM     63  C   UNL A   1      42.720  29.358  34.483  1.00  0.00     0.037 A 
BRANCH  50  64
ATOM     64  C   UNL A   1      40.401  27.962  28.934  1.00  0.00     0.064 A 
ATOM     65  C   UNL A   1      39.656  26.775  28.879  1.00  0.00     0.173 A 
ATOM     66  C   UNL A   1      41.166  28.310  27.811  1.00  0.00     0.173 A 
ATOM     67  F   UNL A   1      38.917  26.393  29.932  1.00  0.00    -0.203 F 
ATOM     68  C   UNL A   1      39.697  25.954  27.755  1.00  0.00     0.198 A 
ATOM     69  C   UNL A   1      41.183  27.501  26.677  1.00  0.00     0.198 A 
ATOM     70  F   UNL A   1      41.892  29.438  27.809  1.00  0.00    -0.203 F 
ATOM     71  F   UNL A   1      39.015  24.801  27.744  1.00  0.00    -0.200 F 
ATOM     72  C   UNL A   1      40.455  26.321  26.653  1.00  0.00     0.200 A 
ATOM     73  F   UNL A   1      41.907  27.863  25.609  1.00  0.00    -0.200 F 
ATOM     74  F   UNL A   1      40.490  25.533  25.570  1.00  0.00    -0.200 F 
ENDBRANCH  50  64
BRANCH  51  75
ATOM     75  C   UNL A   1      39.568  33.933  36.877  1.00  0.00     0.064 A 
ATOM     76  C   UNL A   1      40.215  35.176  36.945  1.00  0.00     0.173 A 
ATOM     77  C   UNL A   1      38.798  33.536  37.979  1.00  0.00     0.173 A 
ATOM     78  F   UNL A   1      40.980  35.587  35.924  1.00  0.00    -0.203 F 
ATOM     79  C   UNL A   1      40.113  35.979  38.078  1.00  0.00     0.198 A 
ATOM     80  C   UNL A   1      38.676  34.352  39.102  1.00  0.00     0.198 A 
ATOM     81  F   UNL A   1      38.157  32.359  37.962  1.00  0.00    -0.203 F 
ATOM     82  F   UNL A   1      40.777  37.141  38.134  1.00  0.00    -0.200 F 
ATOM     83  C   UNL A   1      39.340  35.570  39.154  1.00  0.00     0.200 A 
ATOM     84  F   UNL A   1      37.918  33.959  40.135  1.00  0.00    -0.200 F 
ATOM     85  F   UNL A   1      39.240  36.344  40.243  1.00  0.00    -0.200 F 
ENDBRANCH  51  75
BRANCH  63  86
ATOM     86  C   UNL A   1      43.879  28.729  35.199  1.00  0.00     0.064 A 
ATOM     87  C   UNL A   1      45.190  29.195  35.025  1.00  0.00     0.173 A 
ATOM     88  C   UNL A   1      43.667  27.676  36.101  1.00  0.00     0.173 A 
ATOM     89  F   UNL A   1      45.444  30.189  34.161  1.00  0.00    -0.203 F 
ATOM     90  C   UNL A   1      46.251  28.614  35.715  1.00  0.00     0.198 A 
ATOM     91  C   UNL A   1      44.727  27.115  36.807  1.00  0.00     0.198 A 
ATOM     92  F   UNL A   1      42.430  27.198  36.304  1.00  0.00    -0.203 F 
ATOM     93  F   UNL A   1      47.502  29.047  35.504  1.00  0.00    -0.200 F 
ATOM     94  C   UNL A   1      46.018  27.580  36.610  1.00  0.00     0.200 A 
ATOM     95  F   UNL A   1      44.498  26.124  37.680  1.00  0.00    -0.200 F 
ATOM     96  F   UNL A   1      47.040  27.028  37.278  1.00  0.00    -0.200 F 
ENDBRANCH  63  86
ENDBRANCH  37  38
ENDBRANCH  29  32
ENDBRANCH  27  28
ENDBRANCH  26  27
ENDBRANCH  25  26
ENDBRANCH   1  25
TORSDOF 16
ENDMDL
MODEL 2
REMARK VINA RESULT:     -12.1      0.637      1.743
REMARK SMILES CN(CC(C)(C)O)S(=O)(=O)c1cc(Cl)cc(C(=O)NCCCCNC(=O)c2ccc(-c3c4nc(c(-c5c(F)c(F)c(F)c(F)c5F)c5ccc([nH]5)c(-c5c(F)c(F)c(F)c(F)c5F)c5nc(c(-c6c(F)c(F)c(F)c(F)c6F)c6ccc3[nH]6)C=C5)C=C4)cc2)c1Cl
REMARK SMILES IDX 20 1 19 2 17 3 18 4 16 6 11 7 12 8 90 9 13 10 91 11 14 12
REMARK SMILES IDX 15 13 8 14 9 15 10 16 2 17 1 18 3 19 4 20 5 21 6 22 7 23
REMARK SMILES IDX 21 25 22 26 23 27 24 28 25 29 26 31 27 32 28 33 89 34 29 35
REMARK SMILES IDX 88 36 30 37 31 38 32 39 82 40 33 41 87 42 81 43 83 44 34 45
REMARK SMILES IDX 86 46 80 47 79 48 35 50 67 51 47 52 66 53 48 54 51 55 65 56
REMARK SMILES IDX 84 57 49 58 50 59 64 61 85 62 52 63 36 64 37 65 45 66 38 67
REMARK SMILES IDX 39 68 43 69 46 70 40 71 41 72 44 73 42 74 68 75 69 76 77 77
REMARK SMILES IDX 70 78 71 79 75 80 78 81 72 82 73 83 76 84 74 85 53 86 54 87
REMARK SMILES IDX 62 88 55 89 56 90 60 91 63 92 57 93 58 94 61 95 59 96
REMARK H PARENT 19 5 7 24 24 30 83 49 51 60
REMARK Flexibility Score: inf
ROOT
ATOM      1  C   UNL A   1      33.066  29.536  26.552  1.00  0.00     0.116 C 
ENDROOT
BRANCH   1   2
ATOM      2  N   UNL A   1      33.520  29.658  25.173  1.00  0.00    -0.352 N 
ATOM      3  C   UNL A   1      33.118  28.967  24.045  1.00  0.00     0.252 C 
ATOM      4  O   UNL A   1      33.586  29.268  22.950  1.00  0.00    -0.269 OA
ATOM      5  H   UNL A   1      34.221  30.333  25.021  1.00  0.00     0.163 HD
BRANCH   3   6
ATOM      6  C   UNL A   1      32.210  27.794  24.136  1.00  0.00     0.061 A 
ATOM      7  C   UNL A   1      31.787  25.424  24.132  1.00  0.00     0.103 A 
ATOM      8  C   UNL A   1      30.426  25.661  23.883  1.00  0.00     0.044 A 
ATOM      9  C   UNL A   1      32.654  26.491  24.391  1.00  0.00     0.073 A 
ATOM     10  C   UNL A   1      29.952  26.968  23.853  1.00  0.00     0.043 A 
ATOM     11  Cl  UNL A   1      34.137  26.283  25.255  1.00  0.00    -0.082 Cl
ATOM     12  Cl  UNL A   1      28.273  27.265  23.641  1.00  0.00    -0.084 Cl
ATOM     13  C   UNL A   1      30.843  28.035  23.928  1.00  0.00     0.036 A 
BRANCH   7  14
ATOM     14  S   UNL A   1      32.403  23.814  23.702  1.00  0.00     0.244 S 
ATOM     15  O   UNL A   1      33.504  23.940  22.775  1.00  0.00    -0.207 OA
ATOM     16  O   UNL A   1      31.233  23.060  23.296  1.00  0.00    -0.207 OA
BRANCH  14  17
ATOM     17  N   UNL A   1      32.967  23.116  25.127  1.00  0.00    -0.198 NA
ATOM     18  C   UNL A   1      32.077  23.348  26.289  1.00  0.00     0.124 C 
BRANCH  17  19
ATOM     19  C   UNL A   1      33.720  21.835  25.163  1.00  0.00     0.136 C 
BRANCH  19  20
ATOM     20  C   UNL A   1      35.165  21.819  25.729  1.00  0.00     0.073 C 
ATOM     21  C   UNL A   1      36.034  20.700  25.170  1.00  0.00     0.043 C 
ATOM     22  C   UNL A   1      35.826  23.158  25.362  1.00  0.00     0.043 C 
BRANCH  20  23
ATOM     23  O   UNL A   1      35.157  21.743  27.157  1.00  0.00    -0.389 OA
ATOM     24  H   UNL A   1      34.342  22.143  27.498  1.00  0.00     0.211 HD
ENDBRANCH  20  23
ENDBRANCH  19  20
ENDBRANCH  17  19
ENDBRANCH  14  17
ENDBRANCH   7  14
ENDBRANCH   3   6
ENDBRANCH   1   2
BRANCH   1  25
ATOM     25  C   UNL A   1      31.745  30.224  26.873  1.00  0.00     0.023 C 
BRANCH  25  26
ATOM     26  C   UNL A   1      31.696  31.735  26.653  1.00  0.00     0.023 C 
BRANCH  26  27
ATOM     27  C   UNL A   1      32.799  32.572  27.299  1.00  0.00     0.116 C 
BRANCH  27  28
ATOM     28  N   UNL A   1      32.407  33.930  27.644  1.00  0.00    -0.352 N 
ATOM     29  C   UNL A   1      32.973  34.830  28.520  1.00  0.00     0.251 C 
ATOM     30  H   UNL A   1      31.608  34.261  27.175  1.00  0.00     0.163 HD
ATOM     31  O   UNL A   1      32.454  35.929  28.694  1.00  0.00    -0.269 OA
BRANCH  29  32
ATOM     32  C   UNL A   1      34.175  34.466  29.304  1.00  0.00     0.039 A 
ATOM     33  C   UNL A   1      34.003  33.983  30.606  1.00  0.00     0.014 A 
ATOM     34  C   UNL A   1      35.458  34.569  28.765  1.00  0.00     0.014 A 
ATOM     35  C   UNL A   1      35.102  33.495  31.317  1.00  0.00     0.010 A 
ATOM     36  C   UNL A   1      36.539  34.005  29.439  1.00  0.00     0.010 A 
ATOM     37  C   UNL A   1      36.369  33.444  30.715  1.00  0.00    -0.014 A 
BRANCH  37  38
ATOM     38  C   UNL A   1      37.517  32.772  31.381  1.00  0.00     0.031 A 
ATOM     39  C   UNL A   1      38.202  31.605  30.725  1.00  0.00     0.074 A 
ATOM     40  C   UNL A   1      37.884  33.153  32.621  1.00  0.00     0.049 A 
ATOM     41  N   UNL A   1      39.146  30.827  31.194  1.00  0.00    -0.248 NA
ATOM     42  C   UNL A   1      37.744  31.246  29.375  1.00  0.00     0.031 C 
ATOM     43  C   UNL A   1      37.262  34.230  33.394  1.00  0.00     0.029 A 
ATOM     44  N   UNL A   1      38.858  32.667  33.457  1.00  0.00    -0.354 N 
ATOM     45  C   UNL A   1      39.374  29.874  30.211  1.00  0.00     0.074 A 
ATOM     46  C   UNL A   1      38.440  30.143  29.138  1.00  0.00     0.031 C 
ATOM     47  C   UNL A   1      37.884  34.337  34.580  1.00  0.00     0.029 A 
ATOM     48  C   UNL A   1      38.920  33.315  34.668  1.00  0.00     0.049 A 
ATOM     49  H   UNL A   1      39.458  31.925  33.212  1.00  0.00     0.167 HD
ATOM     50  C   UNL A   1      40.291  28.878  30.195  1.00  0.00     0.037 A 
ATOM     51  C   UNL A   1      39.718  33.104  35.733  1.00  0.00     0.037 A 
ATOM     52  C   UNL A   1      41.247  28.636  31.244  1.00  0.00     0.049 A 
ATOM     53  C   UNL A   1      40.747  32.008  35.677  1.00  0.00     0.074 A 
ATOM     54  C   UNL A   1      42.264  27.698  31.284  1.00  0.00     0.029 A 
ATOM     55  N   UNL A   1      41.305  29.341  32.436  1.00  0.00    -0.354 N 
ATOM     56  N   UNL A   1      40.998  31.158  34.713  1.00  0.00    -0.248 NA
ATOM     57  C   UNL A   1      41.608  31.848  36.859  1.00  0.00     0.031 C 
ATOM     58  C   UNL A   1      42.917  27.813  32.518  1.00  0.00     0.029 A 
ATOM     59  C   UNL A   1      42.332  28.850  33.226  1.00  0.00     0.049 A 
ATOM     60  H   UNL A   1      40.706  30.082  32.685  1.00  0.00     0.167 HD
ATOM     61  C   UNL A   1      42.059  30.381  35.156  1.00  0.00     0.074 A 
ATOM     62  C   UNL A   1      42.415  30.869  36.472  1.00  0.00     0.031 C 
ATOM     63  C   UNL A   1      42.682  29.354  34.528  1.00  0.00     0.037 A 
BRANCH  50  64
ATOM     64  C   UNL A   1      40.316  27.979  28.994  1.00  0.00     0.064 A 
ATOM     65  C   UNL A   1      41.077  28.291  27.858  1.00  0.00     0.173 A 
ATOM     66  C   UNL A   1      39.598  26.773  28.993  1.00  0.00     0.173 A 
ATOM     67  F   UNL A   1      41.772  29.438  27.807  1.00  0.00    -0.203 F 
ATOM     68  C   UNL A   1      41.098  27.445  26.754  1.00  0.00     0.198 A 
ATOM     69  C   UNL A   1      39.643  25.915  27.897  1.00  0.00     0.198 A 
ATOM     70  F   UNL A   1      38.859  26.423  30.056  1.00  0.00    -0.203 F 
ATOM     71  F   UNL A   1      41.794  27.787  25.661  1.00  0.00    -0.200 F 
ATOM     72  C   UNL A   1      40.386  26.255  26.776  1.00  0.00     0.200 A 
ATOM     73  F   UNL A   1      38.965  24.759  27.924  1.00  0.00    -0.200 F 
ATOM     74  F   UNL A   1      40.411  25.437  25.714  1.00  0.00    -0.200 F 
ENDBRANCH  50  64
BRANCH  51  75
ATOM     75  C   UNL A   1      39.597  33.969  36.934  1.00  0.00     0.064 A 
ATOM     76  C   UNL A   1      38.804  33.576  38.021  1.00  0.00     0.173 A 
ATOM     77  C   UNL A   1      40.260  35.201  37.020  1.00  0.00     0.173 A 
ATOM     78  F   UNL A   1      38.133  32.417  37.975  1.00  0.00    -0.203 F 
ATOM     79  C   UNL A   1      38.662  34.393  39.141  1.00  0.00     0.198 A 
ATOM     80  C   UNL A   1      40.138  36.006  38.151  1.00  0.00     0.198 A 
ATOM     81  F   UNL A   1      41.034  35.620  36.008  1.00  0.00    -0.203 F 
ATOM     82  F   UNL A   1      37.863  34.013  40.147  1.00  0.00    -0.200 F 
ATOM     83  C   UNL A   1      39.334  35.604  39.208  1.00  0.00     0.200 A 
ATOM     84  F   UNL A   1      40.798  37.170  38.218  1.00  0.00    -0.200 F 
ATOM     85  F   UNL A   1      39.199  36.389  40.286  1.00  0.00    -0.200 F 
ENDBRANCH  51  75
BRANCH  63  86
ATOM     86  C   UNL A   1      43.837  28.712  35.239  1.00  0.00     0.064 A 
ATOM     87  C   UNL A   1      45.153  29.159  35.055  1.00  0.00     0.173 A 
ATOM     88  C   UNL A   1      43.617  27.666  36.147  1.00  0.00     0.173 A 
ATOM     89  F   UNL A   1      45.415  30.147  34.185  1.00  0.00    -0.203 F 
ATOM     90  C   UNL A   1      46.211  28.567  35.739  1.00  0.00     0.198 A 
ATOM     91  C   UNL A   1      44.674  27.094  36.848  1.00  0.00     0.198 A 
ATOM     92  F   UNL A   1      42.375  27.206  36.361  1.00  0.00    -0.203 F 
ATOM     93  F   UNL A   1      47.466  28.983  35.518  1.00  0.00    -0.200 F 
ATOM     94  C   UNL A   1      45.970  27.540  36.640  1.00  0.00     0.200 A 
ATOM     95  F   UNL A   1      44.438  26.109  37.727  1.00  0.00    -0.200 F 
ATOM     96  F   UNL A   1      46.990  26.977  37.303  1.00  0.00    -0.200 F 
ENDBRANCH  63  86
ENDBRANCH  37  38
ENDBRANCH  29  32
ENDBRANCH  27  28
ENDBRANCH  26  27
ENDBRANCH  25  26
ENDBRANCH   1  25
TORSDOF 16
ENDMDL
MODEL 3
REMARK VINA RESULT:     -12.0      0.813      7.277
REMARK SMILES CN(CC(C)(C)O)S(=O)(=O)c1cc(Cl)cc(C(=O)NCCCCNC(=O)c2ccc(-c3c4nc(c(-c5c(F)c(F)c(F)c(F)c5F)c5ccc([nH]5)c(-c5c(F)c(F)c(F)c(F)c5F)c5nc(c(-c6c(F)c(F)c(F)c(F)c6F)c6ccc3[nH]6)C=C5)C=C4)cc2)c1Cl
REMARK SMILES IDX 20 1 19 2 17 3 18 4 16 6 11 7 12 8 90 9 13 10 91 11 14 12
REMARK SMILES IDX 15 13 8 14 9 15 10 16 2 17 1 18 3 19 4 20 5 21 6 22 7 23
REMARK SMILES IDX 21 25 22 26 23 27 24 28 25 29 26 31 27 32 28 33 89 34 29 35
REMARK SMILES IDX 88 36 30 37 31 38 32 39 82 40 33 41 87 42 81 43 83 44 34 45
REMARK SMILES IDX 86 46 80 47 79 48 35 50 67 51 47 52 66 53 48 54 51 55 65 56
REMARK SMILES IDX 84 57 49 58 50 59 64 61 85 62 52 63 36 64 37 65 45 66 38 67
REMARK SMILES IDX 39 68 43 69 46 70 40 71 41 72 44 73 42 74 68 75 69 76 77 77
REMARK SMILES IDX 70 78 71 79 75 80 78 81 72 82 73 83 76 84 74 85 53 86 54 87
REMARK SMILES IDX 62 88 55 89 56 90 60 91 63 92 57 93 58 94 61 95 59 96
REMARK H PARENT 19 5 7 24 24 30 83 49 51 60
REMARK Flexibility Score: inf
ROOT
ATOM      1  C   UNL A   1      32.882  29.721  26.390  1.00  0.00     0.116 C 
ENDROOT
BRANCH   1   2
ATOM      2  N   UNL A   1      33.349  29.749  25.010  1.00  0.00    -0.352 N 
ATOM      3  C   UNL A   1      32.972  28.968  23.934  1.00  0.00     0.252 C 
ATOM      4  O   UNL A   1      33.445  29.196  22.823  1.00  0.00    -0.269 OA
ATOM      5  H   UNL A   1      34.038  30.424  24.815  1.00  0.00     0.163 HD
BRANCH   3   6
ATOM      6  C   UNL A   1      32.086  27.787  24.104  1.00  0.00     0.061 A 
ATOM      7  C   UNL A   1      31.702  25.414  24.230  1.00  0.00     0.103 A 
ATOM      8  C   UNL A   1      30.332  25.616  23.998  1.00  0.00     0.044 A 
ATOM      9  C   UNL A   1      32.556  26.506  24.416  1.00  0.00     0.073 A 
ATOM     10  C   UNL A   1      29.836  26.913  23.909  1.00  0.00     0.043 A 
ATOM     11  Cl  UNL A   1      34.059  26.367  25.259  1.00  0.00    -0.082 Cl
ATOM     12  Cl  UNL A   1      28.149  27.171  23.716  1.00  0.00    -0.084 Cl
ATOM     13  C   UNL A   1      30.711  27.996  23.911  1.00  0.00     0.036 A 
BRANCH   7  14
ATOM     14  S   UNL A   1      32.337  23.793  23.872  1.00  0.00     0.244 S 
ATOM     15  O   UNL A   1      33.493  23.896  23.012  1.00  0.00    -0.207 OA
ATOM     16  O   UNL A   1      31.191  23.034  23.410  1.00  0.00    -0.207 OA
BRANCH  14  17
ATOM     17  N   UNL A   1      32.808  23.123  25.343  1.00  0.00    -0.198 NA
ATOM     18  C   UNL A   1      31.865  23.408  26.450  1.00  0.00     0.124 C 
BRANCH  17  19
ATOM     19  C   UNL A   1      33.527  21.827  25.453  1.00  0.00     0.136 C 
BRANCH  19  20
ATOM     20  C   UNL A   1      34.979  21.807  26.004  1.00  0.00     0.073 C 
ATOM     21  C   UNL A   1      35.908  20.858  25.260  1.00  0.00     0.043 C 
ATOM     22  C   UNL A   1      35.550  23.229  25.868  1.00  0.00     0.043 C 
BRANCH  20  23
ATOM     23  O   UNL A   1      34.996  21.490  27.398  1.00  0.00    -0.389 OA
ATOM     24  H   UNL A   1      34.099  21.567  27.758  1.00  0.00     0.211 HD
ENDBRANCH  20  23
ENDBRANCH  19  20
ENDBRANCH  17  19
ENDBRANCH  14  17
ENDBRANCH   7  14
ENDBRANCH   3   6
ENDBRANCH   1   2
BRANCH   1  25
ATOM     25  C   UNL A   1      31.549  30.412  26.648  1.00  0.00     0.023 C 
BRANCH  25  26
ATOM     26  C   UNL A   1      31.552  31.938  26.581  1.00  0.00     0.023 C 
BRANCH  26  27
ATOM     27  C   UNL A   1      32.699  32.667  27.278  1.00  0.00     0.116 C 
BRANCH  27  28
ATOM     28  N   UNL A   1      32.394  34.031  27.684  1.00  0.00    -0.352 N 
ATOM     29  C   UNL A   1      33.017  34.853  28.598  1.00  0.00     0.251 C 
ATOM     30  H   UNL A   1      31.618  34.432  27.232  1.00  0.00     0.163 HD
ATOM     31  O   UNL A   1      32.569  35.974  28.820  1.00  0.00    -0.269 OA
BRANCH  29  32
ATOM     32  C   UNL A   1      34.192  34.378  29.362  1.00  0.00     0.039 A 
ATOM     33  C   UNL A   1      33.980  33.751  30.594  1.00  0.00     0.014 A 
ATOM     34  C   UNL A   1      35.490  34.520  28.869  1.00  0.00     0.014 A 
ATOM     35  C   UNL A   1      35.053  33.164  31.269  1.00  0.00     0.010 A 
ATOM     36  C   UNL A   1      36.544  33.862  29.498  1.00  0.00     0.010 A 
ATOM     37  C   UNL A   1      36.334  33.160  30.695  1.00  0.00    -0.014 A 
BRANCH  37  38
ATOM     38  C   UNL A   1      37.454  32.395  31.305  1.00  0.00     0.031 A 
ATOM     39  C   UNL A   1      37.976  32.762  32.666  1.00  0.00     0.074 A 
ATOM     40  C   UNL A   1      38.065  31.427  30.593  1.00  0.00     0.049 A 
ATOM     41  N   UNL A   1      39.009  32.284  33.315  1.00  0.00    -0.248 NA
ATOM     42  C   UNL A   1      37.261  33.831  33.380  1.00  0.00     0.031 C 
ATOM     43  C   UNL A   1      37.697  31.012  29.237  1.00  0.00     0.029 A 
ATOM     44  N   UNL A   1      39.135  30.625  30.903  1.00  0.00    -0.354 N 
ATOM     45  C   UNL A   1      39.082  33.010  34.496  1.00  0.00     0.074 A 
ATOM     46  C   UNL A   1      38.018  33.990  34.456  1.00  0.00     0.031 C 
ATOM     47  C   UNL A   1      38.513  30.021  28.841  1.00  0.00     0.029 A 
ATOM     48  C   UNL A   1      39.484  29.754  29.897  1.00  0.00     0.049 A 
ATOM     49  H   UNL A   1      39.610  30.668  31.765  1.00  0.00     0.167 HD
ATOM     50  C   UNL A   1      39.945  32.859  35.529  1.00  0.00     0.037 A 
ATOM     51  C   UNL A   1      40.478  28.848  29.830  1.00  0.00     0.037 A 
ATOM     52  C   UNL A   1      40.977  31.858  35.587  1.00  0.00     0.049 A 
ATOM     53  C   UNL A   1      41.406  28.684  31.003  1.00  0.00     0.074 A 
ATOM     54  C   UNL A   1      41.852  31.581  36.623  1.00  0.00     0.029 A 
ATOM     55  N   UNL A   1      41.270  30.967  34.566  1.00  0.00    -0.354 N 
ATOM     56  N   UNL A   1      41.421  29.330  32.142  1.00  0.00    -0.248 NA
ATOM     57  C   UNL A   1      42.451  27.657  30.881  1.00  0.00     0.031 C 
ATOM     58  C   UNL A   1      42.699  30.543  36.215  1.00  0.00     0.029 A 
ATOM     59  C   UNL A   1      42.323  30.148  34.941  1.00  0.00     0.049 A 
ATOM     60  H   UNL A   1      40.800  30.923  33.701  1.00  0.00     0.167 HD
ATOM     61  C   UNL A   1      42.454  28.774  32.883  1.00  0.00     0.074 A 
ATOM     62  C   UNL A   1      43.036  27.727  32.069  1.00  0.00     0.031 C 
ATOM     63  C   UNL A   1      42.883  29.102  34.125  1.00  0.00     0.037 A 
BRANCH  50  64
ATOM     64  C   UNL A   1      39.801  33.795  36.693  1.00  0.00     0.064 A 
ATOM     65  C   UNL A   1      40.460  35.033  36.726  1.00  0.00     0.173 A 
ATOM     66  C   UNL A   1      38.967  33.466  37.773  1.00  0.00     0.173 A 
ATOM     67  F   UNL A   1      41.277  35.389  35.723  1.00  0.00    -0.203 F 
ATOM     68  C   UNL A   1      40.312  35.895  37.809  1.00  0.00     0.198 A 
ATOM     69  C   UNL A   1      38.799  34.343  38.841  1.00  0.00     0.198 A 
ATOM     70  F   UNL A   1      38.309  32.298  37.788  1.00  0.00    -0.203 F 
ATOM     71  F   UNL A   1      40.989  37.052  37.839  1.00  0.00    -0.200 F 
ATOM     72  C   UNL A   1      39.478  35.553  38.862  1.00  0.00     0.200 A 
ATOM     73  F   UNL A   1      37.984  34.017  39.853  1.00  0.00    -0.200 F 
ATOM     74  F   UNL A   1      39.331  36.386  39.901  1.00  0.00    -0.200 F 
ENDBRANCH  50  64
BRANCH  51  75
ATOM     75  C   UNL A   1      40.631  28.003  28.618  1.00  0.00     0.064 A 
ATOM     76  C   UNL A   1      41.413  28.438  27.538  1.00  0.00     0.173 A 
ATOM     77  C   UNL A   1      40.001  26.756  28.509  1.00  0.00     0.173 A 
ATOM     78  F   UNL A   1      42.016  29.633  27.587  1.00  0.00    -0.203 F 
ATOM     79  C   UNL A   1      41.542  27.664  26.386  1.00  0.00     0.198 A 
ATOM     80  C   UNL A   1      40.151  25.972  27.368  1.00  0.00     0.198 A 
ATOM     81  F   UNL A   1      39.247  26.294  29.517  1.00  0.00    -0.203 F 
ATOM     82  F   UNL A   1      42.258  28.122  25.351  1.00  0.00    -0.200 F 
ATOM     83  C   UNL A   1      40.915  26.430  26.304  1.00  0.00     0.200 A 
ATOM     84  F   UNL A   1      39.555  24.774  27.296  1.00  0.00    -0.200 F 
ATOM     85  F   UNL A   1      41.041  25.685  25.197  1.00  0.00    -0.200 F 
ENDBRANCH  51  75
BRANCH  63  86
ATOM     86  C   UNL A   1      44.012  28.298  34.698  1.00  0.00     0.064 A 
ATOM     87  C   UNL A   1      45.347  28.705  34.560  1.00  0.00     0.173 A 
ATOM     88  C   UNL A   1      43.751  27.130  35.429  1.00  0.00     0.173 A 
ATOM     89  F   UNL A   1      45.648  29.807  33.856  1.00  0.00    -0.203 F 
ATOM     90  C   UNL A   1      46.382  27.959  35.118  1.00  0.00     0.198 A 
ATOM     91  C   UNL A   1      44.787  26.401  36.007  1.00  0.00     0.198 A 
ATOM     92  F   UNL A   1      42.490  26.702  35.593  1.00  0.00    -0.203 F 
ATOM     93  F   UNL A   1      47.654  28.344  34.940  1.00  0.00    -0.200 F 
ATOM     94  C   UNL A   1      46.101  26.812  35.846  1.00  0.00     0.200 A 
ATOM     95  F   UNL A   1      44.512  25.300  36.720  1.00  0.00    -0.200 F 
ATOM     96  F   UNL A   1      47.099  26.100  36.388  1.00  0.00    -0.200 F 
ENDBRANCH  63  86
ENDBRANCH  37  38
ENDBRANCH  29  32
ENDBRANCH  27  28
ENDBRANCH  26  27
ENDBRANCH  25  26
ENDBRANCH   1  25
TORSDOF 16
ENDMDL
