MODEL 1
REMARK VINA RESULT:     -12.9      0.000      0.000
REMARK SMILES C/C(=N\Nc1nc(-c2ccc(Cl)cc2)cs1)c1nnn(-c2ccc(C(=O)NCCCCNC(=O)c3ccc(-c4c5nc(c(-c6c(F)c(F)c(F)c(F)c6F)c6ccc([nH]6)c(-c6c(F)c(F)c(F)c(F)c6F)c6nc(c(-c7c(F)c(F)c(F)c(F)c7F)c7ccc4[nH]7)C=C6)C=C5)cc3)cc2)c1C
REMARK SMILES IDX 28 1 27 2 25 3 26 4 24 6 21 7 22 8 99 9 23 10 98 11 20 12
REMARK SMILES IDX 17 13 18 14 100 15 19 16 101 17 2 18 1 19 3 20 4 21 5 23
REMARK SMILES IDX 6 24 16 25 7 26 15 27 8 28 9 29 14 30 10 31 13 32 11 33
REMARK SMILES IDX 12 34 29 35 30 36 31 37 32 38 33 39 34 41 35 42 36 43 97 44
REMARK SMILES IDX 37 45 96 46 38 47 39 48 40 49 90 50 41 51 95 52 89 53 91 54
REMARK SMILES IDX 42 55 94 56 88 57 87 58 43 60 75 61 55 62 74 63 56 64 59 65
REMARK SMILES IDX 73 66 92 67 57 68 58 69 72 71 93 72 60 73 44 74 45 75 53 76
REMARK SMILES IDX 46 77 47 78 51 79 54 80 48 81 49 82 52 83 50 84 76 85 77 86
REMARK SMILES IDX 85 87 78 88 79 89 83 90 86 91 80 92 81 93 84 94 82 95 61 96
REMARK SMILES IDX 62 97 70 98 63 99 64 100 68 101 71 102 65 103 66 104 69 105
REMARK SMILES IDX 67 106
REMARK H PARENT 27 5 4 22 32 40 91 59 59 70
REMARK Flexibility Score: inf
ROOT
ATOM      1  C   UNL A   1      41.863  26.911  34.924  1.00  0.00     0.116 C 
ENDROOT
BRANCH   1   2
ATOM      2  N   UNL A   1      42.501  27.331  33.689  1.00  0.00    -0.352 N 
ATOM      3  C   UNL A   1      42.157  28.242  32.715  1.00  0.00     0.251 C 
ATOM      4  O   UNL A   1      42.967  28.422  31.805  1.00  0.00    -0.269 OA
ATOM      5  H   UNL A   1      43.354  26.872  33.511  1.00  0.00     0.163 HD
BRANCH   3   6
ATOM      6  C   UNL A   1      40.903  29.053  32.737  1.00  0.00     0.039 A 
ATOM      7  C   UNL A   1      38.502  30.468  32.486  1.00  0.00     0.067 A 
ATOM      8  C   UNL A   1      38.465  29.074  32.504  1.00  0.00     0.029 A 
ATOM      9  C   UNL A   1      39.694  31.153  32.709  1.00  0.00     0.029 A 
ATOM     10  C   UNL A   1      39.674  28.374  32.606  1.00  0.00     0.016 A 
ATOM     11  C   UNL A   1      40.877  30.441  32.873  1.00  0.00     0.016 A 
BRANCH   7  12
ATOM     12  N   UNL A   1      37.377  31.205  32.080  1.00  0.00    -0.217 N 
ATOM     13  C   UNL A   1      35.846  32.185  30.892  1.00  0.00     0.132 A 
ATOM     14  N   UNL A   1      35.422  32.130  32.191  1.00  0.00    -0.128 NA
ATOM     15  C   UNL A   1      37.101  31.607  30.789  1.00  0.00     0.071 A 
ATOM     16  N   UNL A   1      36.329  31.453  32.890  1.00  0.00    -0.061 NA
ATOM     17  C   UNL A   1      37.910  31.242  29.595  1.00  0.00     0.069 C 
BRANCH  13  18
ATOM     18  C   UNL A   1      35.004  32.542  29.762  1.00  0.00     0.087 C 
ATOM     19  C   UNL A   1      34.452  33.946  29.835  1.00  0.00     0.071 C 
ATOM     20  N   UNL A   1      34.767  31.607  28.886  1.00  0.00    -0.176 NA
BRANCH  20  21
ATOM     21  N   UNL A   1      33.869  31.752  27.850  1.00  0.00    -0.252 N 
ATOM     22  H   UNL A   1      33.728  32.680  27.553  1.00  0.00     0.193 HD
BRANCH  21  23
ATOM     23  C   UNL A   1      33.148  30.820  27.176  1.00  0.00     0.203 A 
ATOM     24  N   UNL A   1      33.518  29.584  26.941  1.00  0.00    -0.219 NA
ATOM     25  S   UNL A   1      31.657  31.254  26.415  1.00  0.00    -0.103 S 
ATOM     26  C   UNL A   1      32.813  29.063  25.877  1.00  0.00     0.084 A 
ATOM     27  C   UNL A   1      31.755  29.835  25.445  1.00  0.00     0.097 A 
BRANCH  26  28
ATOM     28  C   UNL A   1      33.277  27.842  25.245  1.00  0.00     0.001 A 
ATOM     29  C   UNL A   1      33.248  27.741  23.849  1.00  0.00     0.012 A 
ATOM     30  C   UNL A   1      33.629  26.719  26.009  1.00  0.00     0.012 A 
ATOM     31  C   UNL A   1      33.597  26.544  23.217  1.00  0.00     0.021 A 
ATOM     32  C   UNL A   1      33.966  25.518  25.377  1.00  0.00     0.021 A 
ATOM     33  C   UNL A   1      33.956  25.438  23.985  1.00  0.00     0.041 A 
ATOM     34  Cl  UNL A   1      34.371  23.960  23.210  1.00  0.00    -0.084 Cl
ENDBRANCH  26  28
ENDBRANCH  21  23
ENDBRANCH  20  21
ENDBRANCH  13  18
ENDBRANCH   7  12
ENDBRANCH   3   6
ENDBRANCH   1   2
BRANCH   1  35
ATOM     35  C   UNL A   1      42.526  27.537  36.161  1.00  0.00     0.023 C 
BRANCH  35  36
ATOM     36  C   UNL A   1      42.869  26.572  37.305  1.00  0.00     0.023 C 
BRANCH  36  37
ATOM     37  C   UNL A   1      42.632  25.101  37.001  1.00  0.00     0.116 C 
BRANCH  37  38
ATOM     38  N   UNL A   1      43.800  24.245  37.256  1.00  0.00    -0.352 N 
ATOM     39  C   UNL A   1      44.655  23.658  36.328  1.00  0.00     0.251 C 
ATOM     40  H   UNL A   1      44.003  24.064  38.203  1.00  0.00     0.163 HD
ATOM     41  O   UNL A   1      45.339  22.691  36.598  1.00  0.00    -0.269 OA
BRANCH  39  42
ATOM     42  C   UNL A   1      44.734  24.286  34.999  1.00  0.00     0.039 A 
ATOM     43  C   UNL A   1      45.426  25.474  34.738  1.00  0.00     0.014 A 
ATOM     44  C   UNL A   1      44.152  23.559  33.975  1.00  0.00     0.014 A 
ATOM     45  C   UNL A   1      45.579  25.868  33.409  1.00  0.00     0.010 A 
ATOM     46  C   UNL A   1      44.566  23.779  32.700  1.00  0.00     0.010 A 
ATOM     47  C   UNL A   1      45.151  24.996  32.396  1.00  0.00    -0.014 A 
BRANCH  47  48
ATOM     48  C   UNL A   1      45.273  25.289  30.980  1.00  0.00     0.031 A 
ATOM     49  C   UNL A   1      46.338  26.244  30.601  1.00  0.00     0.074 A 
ATOM     50  C   UNL A   1      44.598  24.567  30.057  1.00  0.00     0.049 A 
ATOM     51  N   UNL A   1      46.173  27.431  30.125  1.00  0.00    -0.248 NA
ATOM     52  C   UNL A   1      47.741  25.900  30.872  1.00  0.00     0.031 C 
ATOM     53  C   UNL A   1      43.721  23.398  30.237  1.00  0.00     0.029 A 
ATOM     54  N   UNL A   1      44.640  24.691  28.709  1.00  0.00    -0.354 N 
ATOM     55  C   UNL A   1      47.442  27.942  29.886  1.00  0.00     0.074 A 
ATOM     56  C   UNL A   1      48.368  27.018  30.492  1.00  0.00     0.031 C 
ATOM     57  C   UNL A   1      43.511  22.796  29.047  1.00  0.00     0.029 A 
ATOM     58  C   UNL A   1      44.077  23.634  28.010  1.00  0.00     0.049 A 
ATOM     59  H   UNL A   1      45.038  25.471  28.261  1.00  0.00     0.167 HD
ATOM     60  C   UNL A   1      47.623  28.995  29.041  1.00  0.00     0.037 A 
ATOM     61  C   UNL A   1      44.094  23.465  26.666  1.00  0.00     0.037 A 
ATOM     62  C   UNL A   1      46.365  29.614  28.705  1.00  0.00     0.049 A 
ATOM     63  C   UNL A   1      44.311  24.811  26.071  1.00  0.00     0.074 A 
ATOM     64  C   UNL A   1      45.394  30.275  29.431  1.00  0.00     0.029 A 
ATOM     65  N   UNL A   1      45.759  29.235  27.530  1.00  0.00    -0.354 N 
ATOM     66  N   UNL A   1      43.436  25.778  26.161  1.00  0.00    -0.248 NA
ATOM     67  C   UNL A   1      45.686  25.236  25.842  1.00  0.00     0.031 C 
ATOM     68  C   UNL A   1      44.157  29.817  28.890  1.00  0.00     0.029 A 
ATOM     69  C   UNL A   1      44.442  28.969  27.819  1.00  0.00     0.049 A 
ATOM     70  H   UNL A   1      46.188  29.166  26.647  1.00  0.00     0.167 HD
ATOM     71  C   UNL A   1      44.186  26.914  26.433  1.00  0.00     0.074 A 
ATOM     72  C   UNL A   1      45.570  26.533  26.145  1.00  0.00     0.031 C 
ATOM     73  C   UNL A   1      43.662  27.957  27.145  1.00  0.00     0.037 A 
BRANCH  60  74
ATOM     74  C   UNL A   1      48.871  29.284  28.256  1.00  0.00     0.064 A 
ATOM     75  C   UNL A   1      49.485  30.546  28.381  1.00  0.00     0.173 A 
ATOM     76  C   UNL A   1      49.307  28.490  27.177  1.00  0.00     0.173 A 
ATOM     77  F   UNL A   1      49.137  31.380  29.372  1.00  0.00    -0.203 F 
ATOM     78  C   UNL A   1      50.406  31.011  27.440  1.00  0.00     0.198 A 
ATOM     79  C   UNL A   1      50.265  28.938  26.269  1.00  0.00     0.198 A 
ATOM     80  F   UNL A   1      48.743  27.310  26.895  1.00  0.00    -0.203 F 
ATOM     81  F   UNL A   1      50.872  32.265  27.527  1.00  0.00    -0.200 F 
ATOM     82  C   UNL A   1      50.789  30.210  26.380  1.00  0.00     0.200 A 
ATOM     83  F   UNL A   1      50.611  28.155  25.238  1.00  0.00    -0.200 F 
ATOM     84  F   UNL A   1      51.620  30.677  25.440  1.00  0.00    -0.200 F 
ENDBRANCH  60  74
BRANCH  61  85
ATOM     85  C   UNL A   1      44.269  22.193  25.928  1.00  0.00     0.064 A 
ATOM     86  C   UNL A   1      45.538  21.749  25.529  1.00  0.00     0.173 A 
ATOM     87  C   UNL A   1      43.218  21.256  25.827  1.00  0.00     0.173 A 
ATOM     88  F   UNL A   1      46.598  22.563  25.631  1.00  0.00    -0.203 F 
ATOM     89  C   UNL A   1      45.749  20.438  25.082  1.00  0.00     0.198 A 
ATOM     90  C   UNL A   1      43.428  19.953  25.377  1.00  0.00     0.198 A 
ATOM     91  F   UNL A   1      41.982  21.560  26.249  1.00  0.00    -0.203 F 
ATOM     92  F   UNL A   1      46.986  20.032  24.762  1.00  0.00    -0.200 F 
ATOM     93  C   UNL A   1      44.696  19.539  25.017  1.00  0.00     0.200 A 
ATOM     94  F   UNL A   1      42.407  19.085  25.352  1.00  0.00    -0.200 F 
ATOM     95  F   UNL A   1      44.909  18.269  24.646  1.00  0.00    -0.200 F 
ENDBRANCH  61  85
BRANCH  73  96
ATOM     96  C   UNL A   1      42.188  27.927  27.449  1.00  0.00     0.064 A 
ATOM     97  C   UNL A   1      41.631  27.283  28.569  1.00  0.00     0.173 A 
ATOM     98  C   UNL A   1      41.325  28.703  26.667  1.00  0.00     0.173 A 
ATOM     99  F   UNL A   1      42.401  26.613  29.431  1.00  0.00    -0.203 F 
ATOM    100  C   UNL A   1      40.272  27.370  28.862  1.00  0.00     0.198 A 
ATOM    101  C   UNL A   1      39.972  28.819  26.981  1.00  0.00     0.198 A 
ATOM    102  F   UNL A   1      41.806  29.396  25.624  1.00  0.00    -0.203 F 
ATOM    103  F   UNL A   1      39.773  26.735  29.933  1.00  0.00    -0.200 F 
ATOM    104  C   UNL A   1      39.444  28.143  28.070  1.00  0.00     0.200 A 
ATOM    105  F   UNL A   1      39.184  29.612  26.242  1.00  0.00    -0.200 F 
ATOM    106  F   UNL A   1      38.143  28.262  28.370  1.00  0.00    -0.200 F 
ENDBRANCH  73  96
ENDBRANCH  47  48
ENDBRANCH  39  42
ENDBRANCH  37  38
ENDBRANCH  36  37
ENDBRANCH  35  36
ENDBRANCH   1  35
TORSDOF 16
ENDMDL
MODEL 2
REMARK VINA RESULT:     -12.9      5.269     11.943
REMARK SMILES C/C(=N\Nc1nc(-c2ccc(Cl)cc2)cs1)c1nnn(-c2ccc(C(=O)NCCCCNC(=O)c3ccc(-c4c5nc(c(-c6c(F)c(F)c(F)c(F)c6F)c6ccc([nH]6)c(-c6c(F)c(F)c(F)c(F)c6F)c6nc(c(-c7c(F)c(F)c(F)c(F)c7F)c7ccc4[nH]7)C=C6)C=C5)cc3)cc2)c1C
REMARK SMILES IDX 28 1 27 2 25 3 26 4 24 6 21 7 22 8 99 9 23 10 98 11 20 12
REMARK SMILES IDX 17 13 18 14 100 15 19 16 101 17 2 18 1 19 3 20 4 21 5 23
REMARK SMILES IDX 6 24 16 25 7 26 15 27 8 28 9 29 14 30 10 31 13 32 11 33
REMARK SMILES IDX 12 34 29 35 30 36 31 37 32 38 33 39 34 41 35 42 36 43 97 44
REMARK SMILES IDX 37 45 96 46 38 47 39 48 40 49 90 50 41 51 95 52 89 53 91 54
REMARK SMILES IDX 42 55 94 56 88 57 87 58 43 60 75 61 55 62 74 63 56 64 59 65
REMARK SMILES IDX 73 66 92 67 57 68 58 69 72 71 93 72 60 73 44 74 45 75 53 76
REMARK SMILES IDX 46 77 47 78 51 79 54 80 48 81 49 82 52 83 50 84 76 85 77 86
REMARK SMILES IDX 85 87 78 88 79 89 83 90 86 91 80 92 81 93 84 94 82 95 61 96
REMARK SMILES IDX 62 97 70 98 63 99 64 100 68 101 71 102 65 103 66 104 69 105
REMARK SMILES IDX 67 106
REMARK H PARENT 27 5 4 22 32 40 91 59 59 70
REMARK Flexibility Score: inf
ROOT
ATOM      1  C   UNL A   1      46.096  23.685  26.400  1.00  0.00     0.116 C 
ENDROOT
BRANCH   1   2
ATOM      2  N   UNL A   1      46.584  25.019  26.094  1.00  0.00    -0.352 N 
ATOM      3  C   UNL A   1      46.712  26.168  26.842  1.00  0.00     0.251 C 
ATOM      4  O   UNL A   1      47.240  27.137  26.295  1.00  0.00    -0.269 OA
ATOM      5  H   UNL A   1      46.886  25.123  25.163  1.00  0.00     0.163 HD
BRANCH   3   6
ATOM      6  C   UNL A   1      46.306  26.280  28.275  1.00  0.00     0.039 A 
ATOM      7  C   UNL A   1      45.661  26.199  30.997  1.00  0.00     0.067 A 
ATOM      8  C   UNL A   1      47.005  26.189  30.622  1.00  0.00     0.029 A 
ATOM      9  C   UNL A   1      44.657  26.368  30.048  1.00  0.00     0.029 A 
ATOM     10  C   UNL A   1      47.317  26.206  29.255  1.00  0.00     0.016 A 
ATOM     11  C   UNL A   1      44.988  26.448  28.700  1.00  0.00     0.016 A 
BRANCH   7  12
ATOM     12  N   UNL A   1      45.288  25.875  32.311  1.00  0.00    -0.217 N 
ATOM     13  C   UNL A   1      44.653  24.810  34.095  1.00  0.00     0.132 A 
ATOM     14  N   UNL A   1      45.150  26.029  34.467  1.00  0.00    -0.128 NA
ATOM     15  C   UNL A   1      44.720  24.684  32.717  1.00  0.00     0.071 A 
ATOM     16  N   UNL A   1      45.613  26.634  33.377  1.00  0.00    -0.061 NA
ATOM     17  C   UNL A   1      44.494  23.507  31.835  1.00  0.00     0.069 C 
BRANCH  13  18
ATOM     18  C   UNL A   1      44.359  23.722  35.012  1.00  0.00     0.087 C 
ATOM     19  C   UNL A   1      42.907  23.650  35.425  1.00  0.00     0.071 C 
ATOM     20  N   UNL A   1      45.370  23.008  35.422  1.00  0.00    -0.176 NA
BRANCH  20  21
ATOM     21  N   UNL A   1      45.267  22.047  36.404  1.00  0.00    -0.252 N 
ATOM     22  H   UNL A   1      44.456  22.109  36.960  1.00  0.00     0.193 HD
BRANCH  21  23
ATOM     23  C   UNL A   1      46.104  21.029  36.729  1.00  0.00     0.203 A 
ATOM     24  N   UNL A   1      45.806  19.999  37.484  1.00  0.00    -0.219 NA
ATOM     25  S   UNL A   1      47.767  21.082  36.253  1.00  0.00    -0.103 S 
ATOM     26  C   UNL A   1      46.952  19.422  37.987  1.00  0.00     0.084 A 
ATOM     27  C   UNL A   1      48.128  19.885  37.437  1.00  0.00     0.097 A 
BRANCH  26  28
ATOM     28  C   UNL A   1      46.851  18.482  39.089  1.00  0.00     0.001 A 
ATOM     29  C   UNL A   1      45.699  17.697  39.214  1.00  0.00     0.012 A 
ATOM     30  C   UNL A   1      47.824  18.442  40.099  1.00  0.00     0.012 A 
ATOM     31  C   UNL A   1      45.531  16.856  40.317  1.00  0.00     0.021 A 
ATOM     32  C   UNL A   1      47.651  17.609  41.208  1.00  0.00     0.021 A 
ATOM     33  C   UNL A   1      46.509  16.814  41.309  1.00  0.00     0.041 A 
ATOM     34  Cl  UNL A   1      46.298  15.791  42.675  1.00  0.00    -0.084 Cl
ENDBRANCH  26  28
ENDBRANCH  21  23
ENDBRANCH  20  21
ENDBRANCH  13  18
ENDBRANCH   7  12
ENDBRANCH   3   6
ENDBRANCH   1   2
BRANCH   1  35
ATOM     35  C   UNL A   1      45.344  23.058  25.216  1.00  0.00     0.023 C 
BRANCH  35  36
ATOM     36  C   UNL A   1      44.152  22.158  25.572  1.00  0.00     0.023 C 
BRANCH  36  37
ATOM     37  C   UNL A   1      42.787  22.722  25.206  1.00  0.00     0.116 C 
BRANCH  37  38
ATOM     38  N   UNL A   1      41.670  22.088  25.922  1.00  0.00    -0.352 N 
ATOM     39  C   UNL A   1      40.962  22.576  27.017  1.00  0.00     0.251 C 
ATOM     40  H   UNL A   1      41.386  21.207  25.584  1.00  0.00     0.163 HD
ATOM     41  O   UNL A   1      40.332  21.848  27.758  1.00  0.00    -0.269 OA
BRANCH  39  42
ATOM     42  C   UNL A   1      40.969  24.034  27.223  1.00  0.00     0.039 A 
ATOM     43  C   UNL A   1      40.082  24.914  26.596  1.00  0.00     0.014 A 
ATOM     44  C   UNL A   1      41.866  24.483  28.178  1.00  0.00     0.014 A 
ATOM     45  C   UNL A   1      40.071  26.245  27.013  1.00  0.00     0.010 A 
ATOM     46  C   UNL A   1      41.636  25.679  28.779  1.00  0.00     0.010 A 
ATOM     47  C   UNL A   1      40.851  26.609  28.121  1.00  0.00    -0.014 A 
BRANCH  47  48
ATOM     48  C   UNL A   1      40.908  27.957  28.655  1.00  0.00     0.031 A 
ATOM     49  C   UNL A   1      41.962  28.834  28.099  1.00  0.00     0.074 A 
ATOM     50  C   UNL A   1      39.923  28.436  29.448  1.00  0.00     0.049 A 
ATOM     51  N   UNL A   1      42.996  29.286  28.725  1.00  0.00    -0.248 NA
ATOM     52  C   UNL A   1      41.937  29.170  26.669  1.00  0.00     0.031 C 
ATOM     53  C   UNL A   1      38.662  27.802  29.866  1.00  0.00     0.029 A 
ATOM     54  N   UNL A   1      39.814  29.676  29.984  1.00  0.00    -0.354 N 
ATOM     55  C   UNL A   1      43.683  30.090  27.824  1.00  0.00     0.074 A 
ATOM     56  C   UNL A   1      43.067  29.872  26.539  1.00  0.00     0.031 C 
ATOM     57  C   UNL A   1      37.832  28.732  30.386  1.00  0.00     0.029 A 
ATOM     58  C   UNL A   1      38.566  29.975  30.507  1.00  0.00     0.049 A 
ATOM     59  H   UNL A   1      40.563  30.313  30.003  1.00  0.00     0.167 HD
ATOM     60  C   UNL A   1      44.587  31.011  28.260  1.00  0.00     0.037 A 
ATOM     61  C   UNL A   1      38.169  31.176  30.993  1.00  0.00     0.037 A 
ATOM     62  C   UNL A   1      44.893  30.820  29.656  1.00  0.00     0.049 A 
ATOM     63  C   UNL A   1      39.406  31.912  31.367  1.00  0.00     0.074 A 
ATOM     64  C   UNL A   1      45.479  29.800  30.380  1.00  0.00     0.029 A 
ATOM     65  N   UNL A   1      44.208  31.582  30.573  1.00  0.00    -0.354 N 
ATOM     66  N   UNL A   1      40.195  31.531  32.337  1.00  0.00    -0.248 NA
ATOM     67  C   UNL A   1      40.032  32.746  30.349  1.00  0.00     0.031 C 
ATOM     68  C   UNL A   1      44.713  29.716  31.580  1.00  0.00     0.029 A 
ATOM     69  C   UNL A   1      43.758  30.733  31.554  1.00  0.00     0.049 A 
ATOM     70  H   UNL A   1      44.066  32.556  30.533  1.00  0.00     0.167 HD
ATOM     71  C   UNL A   1      41.480  31.702  31.841  1.00  0.00     0.074 A 
ATOM     72  C   UNL A   1      41.318  32.528  30.643  1.00  0.00     0.031 C 
ATOM     73  C   UNL A   1      42.516  30.920  32.269  1.00  0.00     0.037 A 
BRANCH  60  74
ATOM     74  C   UNL A   1      44.960  32.279  27.545  1.00  0.00     0.064 A 
ATOM     75  C   UNL A   1      46.212  32.365  26.906  1.00  0.00     0.173 A 
ATOM     76  C   UNL A   1      44.272  33.496  27.720  1.00  0.00     0.173 A 
ATOM     77  F   UNL A   1      46.949  31.264  26.696  1.00  0.00    -0.203 F 
ATOM     78  C   UNL A   1      46.770  33.593  26.545  1.00  0.00     0.198 A 
ATOM     79  C   UNL A   1      44.810  34.715  27.312  1.00  0.00     0.198 A 
ATOM     80  F   UNL A   1      43.115  33.565  28.390  1.00  0.00    -0.203 F 
ATOM     81  F   UNL A   1      48.017  33.639  26.054  1.00  0.00    -0.200 F 
ATOM     82  C   UNL A   1      46.073  34.768  26.757  1.00  0.00     0.200 A 
ATOM     83  F   UNL A   1      44.128  35.846  27.541  1.00  0.00    -0.200 F 
ATOM     84  F   UNL A   1      46.632  35.951  26.475  1.00  0.00    -0.200 F 
ENDBRANCH  60  74
BRANCH  61  85
ATOM     85  C   UNL A   1      36.842  31.813  30.828  1.00  0.00     0.064 A 
ATOM     86  C   UNL A   1      36.008  32.060  31.929  1.00  0.00     0.173 A 
ATOM     87  C   UNL A   1      36.474  32.431  29.614  1.00  0.00     0.173 A 
ATOM     88  F   UNL A   1      36.308  31.544  33.128  1.00  0.00    -0.203 F 
ATOM     89  C   UNL A   1      34.889  32.896  31.827  1.00  0.00     0.198 A 
ATOM     90  C   UNL A   1      35.357  33.260  29.513  1.00  0.00     0.198 A 
ATOM     91  F   UNL A   1      37.243  32.314  28.521  1.00  0.00    -0.203 F 
ATOM     92  F   UNL A   1      34.148  33.154  32.914  1.00  0.00    -0.200 F 
ATOM     93  C   UNL A   1      34.571  33.504  30.623  1.00  0.00     0.200 A 
ATOM     94  F   UNL A   1      35.082  33.867  28.350  1.00  0.00    -0.200 F 
ATOM     95  F   UNL A   1      33.536  34.351  30.541  1.00  0.00    -0.200 F 
ENDBRANCH  61  85
BRANCH  73  96
ATOM     96  C   UNL A   1      42.267  30.007  33.440  1.00  0.00     0.064 A 
ATOM     97  C   UNL A   1      41.912  28.652  33.316  1.00  0.00     0.173 A 
ATOM     98  C   UNL A   1      42.546  30.477  34.728  1.00  0.00     0.173 A 
ATOM     99  F   UNL A   1      41.738  28.092  32.116  1.00  0.00    -0.203 F 
ATOM    100  C   UNL A   1      41.794  27.822  34.430  1.00  0.00     0.198 A 
ATOM    101  C   UNL A   1      42.461  29.639  35.839  1.00  0.00     0.198 A 
ATOM    102  F   UNL A   1      42.953  31.743  34.907  1.00  0.00    -0.203 F 
ATOM    103  F   UNL A   1      41.444  26.537  34.276  1.00  0.00    -0.200 F 
ATOM    104  C   UNL A   1      42.073  28.316  35.690  1.00  0.00     0.200 A 
ATOM    105  F   UNL A   1      42.784  30.107  37.052  1.00  0.00    -0.200 F 
ATOM    106  F   UNL A   1      41.997  27.512  36.761  1.00  0.00    -0.200 F 
ENDBRANCH  73  96
ENDBRANCH  47  48
ENDBRANCH  39  42
ENDBRANCH  37  38
ENDBRANCH  36  37
ENDBRANCH  35  36
ENDBRANCH   1  35
TORSDOF 16
ENDMDL
MODEL 3
REMARK VINA RESULT:     -12.6      1.670      2.462
REMARK SMILES C/C(=N\Nc1nc(-c2ccc(Cl)cc2)cs1)c1nnn(-c2ccc(C(=O)NCCCCNC(=O)c3ccc(-c4c5nc(c(-c6c(F)c(F)c(F)c(F)c6F)c6ccc([nH]6)c(-c6c(F)c(F)c(F)c(F)c6F)c6nc(c(-c7c(F)c(F)c(F)c(F)c7F)c7ccc4[nH]7)C=C6)C=C5)cc3)cc2)c1C
REMARK SMILES IDX 28 1 27 2 25 3 26 4 24 6 21 7 22 8 99 9 23 10 98 11 20 12
REMARK SMILES IDX 17 13 18 14 100 15 19 16 101 17 2 18 1 19 3 20 4 21 5 23
REMARK SMILES IDX 6 24 16 25 7 26 15 27 8 28 9 29 14 30 10 31 13 32 11 33
REMARK SMILES IDX 12 34 29 35 30 36 31 37 32 38 33 39 34 41 35 42 36 43 97 44
REMARK SMILES IDX 37 45 96 46 38 47 39 48 40 49 90 50 41 51 95 52 89 53 91 54
REMARK SMILES IDX 42 55 94 56 88 57 87 58 43 60 75 61 55 62 74 63 56 64 59 65
REMARK SMILES IDX 73 66 92 67 57 68 58 69 72 71 93 72 60 73 44 74 45 75 53 76
REMARK SMILES IDX 46 77 47 78 51 79 54 80 48 81 49 82 52 83 50 84 76 85 77 86
REMARK SMILES IDX 85 87 78 88 79 89 83 90 86 91 80 92 81 93 84 94 82 95 61 96
REMARK SMILES IDX 62 97 70 98 63 99 64 100 68 101 71 102 65 103 66 104 69 105
REMARK SMILES IDX 67 106
REMARK H PARENT 27 5 4 22 32 40 91 59 59 70
REMARK Flexibility Score: inf
ROOT
ATOM      1  C   UNL A   1      42.689  26.735  34.469  1.00  0.00     0.116 C 
ENDROOT
BRANCH   1   2
ATOM      2  N   UNL A   1      42.987  27.404  33.214  1.00  0.00    -0.352 N 
ATOM      3  C   UNL A   1      42.480  28.532  32.606  1.00  0.00     0.251 C 
ATOM      4  O   UNL A   1      43.009  28.885  31.551  1.00  0.00    -0.269 OA
ATOM      5  H   UNL A   1      43.695  26.963  32.692  1.00  0.00     0.163 HD
BRANCH   3   6
ATOM      6  C   UNL A   1      41.385  29.369  33.181  1.00  0.00     0.039 A 
ATOM      7  C   UNL A   1      39.209  30.943  33.968  1.00  0.00     0.067 A 
ATOM      8  C   UNL A   1      38.977  29.635  33.545  1.00  0.00     0.029 A 
ATOM      9  C   UNL A   1      40.507  31.425  34.115  1.00  0.00     0.029 A 
ATOM     10  C   UNL A   1      40.070  28.862  33.130  1.00  0.00     0.016 A 
ATOM     11  C   UNL A   1      41.585  30.622  33.760  1.00  0.00     0.016 A 
BRANCH   7  12
ATOM     12  N   UNL A   1      38.144  31.849  34.096  1.00  0.00    -0.217 N 
ATOM     13  C   UNL A   1      36.477  33.178  33.680  1.00  0.00     0.132 A 
ATOM     14  N   UNL A   1      36.511  32.927  35.024  1.00  0.00    -0.128 NA
ATOM     15  C   UNL A   1      37.517  32.506  33.057  1.00  0.00     0.071 A 
ATOM     16  N   UNL A   1      37.481  32.047  35.253  1.00  0.00    -0.061 NA
ATOM     17  C   UNL A   1      37.810  32.289  31.615  1.00  0.00     0.069 C 
BRANCH  13  18
ATOM     18  C   UNL A   1      35.372  33.818  32.986  1.00  0.00     0.087 C 
ATOM     19  C   UNL A   1      34.011  33.356  33.453  1.00  0.00     0.071 C 
ATOM     20  N   UNL A   1      35.678  34.631  32.014  1.00  0.00    -0.176 NA
BRANCH  20  21
ATOM     21  N   UNL A   1      34.741  35.189  31.172  1.00  0.00    -0.252 N 
ATOM     22  H   UNL A   1      34.517  36.128  31.368  1.00  0.00     0.193 HD
BRANCH  21  23
ATOM     23  C   UNL A   1      34.078  34.652  30.117  1.00  0.00     0.203 A 
ATOM     24  N   UNL A   1      34.005  33.376  29.824  1.00  0.00    -0.219 NA
ATOM     25  S   UNL A   1      33.346  35.678  28.932  1.00  0.00    -0.103 S 
ATOM     26  C   UNL A   1      33.679  33.203  28.495  1.00  0.00     0.084 A 
ATOM     27  C   UNL A   1      33.292  34.351  27.837  1.00  0.00     0.097 A 
BRANCH  26  28
ATOM     28  C   UNL A   1      33.858  31.900  27.882  1.00  0.00     0.001 A 
ATOM     29  C   UNL A   1      32.801  31.333  27.161  1.00  0.00     0.012 A 
ATOM     30  C   UNL A   1      35.019  31.145  28.110  1.00  0.00     0.012 A 
ATOM     31  C   UNL A   1      32.910  30.039  26.643  1.00  0.00     0.021 A 
ATOM     32  C   UNL A   1      35.123  29.847  27.602  1.00  0.00     0.021 A 
ATOM     33  C   UNL A   1      34.072  29.303  26.865  1.00  0.00     0.041 A 
ATOM     34  Cl  UNL A   1      34.203  27.705  26.240  1.00  0.00    -0.084 Cl
ENDBRANCH  26  28
ENDBRANCH  21  23
ENDBRANCH  20  21
ENDBRANCH  13  18
ENDBRANCH   7  12
ENDBRANCH   3   6
ENDBRANCH   1   2
BRANCH   1  35
ATOM     35  C   UNL A   1      43.206  27.521  35.683  1.00  0.00     0.023 C 
BRANCH  35  36
ATOM     36  C   UNL A   1      43.431  26.712  36.968  1.00  0.00     0.023 C 
BRANCH  36  37
ATOM     37  C   UNL A   1      43.520  25.205  36.774  1.00  0.00     0.116 C 
BRANCH  37  38
ATOM     38  N   UNL A   1      44.865  24.655  36.995  1.00  0.00    -0.352 N 
ATOM     39  C   UNL A   1      45.772  24.191  36.047  1.00  0.00     0.251 C 
ATOM     40  H   UNL A   1      45.161  24.607  37.934  1.00  0.00     0.163 HD
ATOM     41  O   UNL A   1      46.672  23.427  36.331  1.00  0.00    -0.269 OA
BRANCH  39  42
ATOM     42  C   UNL A   1      45.625  24.702  34.674  1.00  0.00     0.039 A 
ATOM     43  C   UNL A   1      46.276  25.843  34.193  1.00  0.00     0.014 A 
ATOM     44  C   UNL A   1      44.861  23.908  33.835  1.00  0.00     0.014 A 
ATOM     45  C   UNL A   1      46.199  26.118  32.827  1.00  0.00     0.010 A 
ATOM     46  C   UNL A   1      45.048  24.007  32.493  1.00  0.00     0.010 A 
ATOM     47  C   UNL A   1      45.587  25.176  31.986  1.00  0.00    -0.014 A 
BRANCH  47  48
ATOM     48  C   UNL A   1      45.462  25.344  30.550  1.00  0.00     0.031 A 
ATOM     49  C   UNL A   1      46.492  26.184  29.899  1.00  0.00     0.074 A 
ATOM     50  C   UNL A   1      44.587  24.601  29.834  1.00  0.00     0.049 A 
ATOM     51  N   UNL A   1      46.310  27.338  29.353  1.00  0.00    -0.248 NA
ATOM     52  C   UNL A   1      47.898  25.760  29.945  1.00  0.00     0.031 C 
ATOM     53  C   UNL A   1      43.693  23.519  30.275  1.00  0.00     0.029 A 
ATOM     54  N   UNL A   1      44.386  24.614  28.494  1.00  0.00    -0.354 N 
ATOM     55  C   UNL A   1      47.541  27.733  28.844  1.00  0.00     0.074 A 
ATOM     56  C   UNL A   1      48.508  26.794  29.357  1.00  0.00     0.031 C 
ATOM     57  C   UNL A   1      43.232  22.840  29.203  1.00  0.00     0.029 A 
ATOM     58  C   UNL A   1      43.644  23.548  28.008  1.00  0.00     0.049 A 
ATOM     59  H   UNL A   1      44.739  25.323  27.911  1.00  0.00     0.167 HD
ATOM     60  C   UNL A   1      47.624  28.698  27.886  1.00  0.00     0.037 A 
ATOM     61  C   UNL A   1      43.402  23.271  26.705  1.00  0.00     0.037 A 
ATOM     62  C   UNL A   1      46.363  29.379  27.725  1.00  0.00     0.049 A 
ATOM     63  C   UNL A   1      43.583  24.544  25.958  1.00  0.00     0.074 A 
ATOM     64  C   UNL A   1      45.583  30.166  28.549  1.00  0.00     0.029 A 
ATOM     65  N   UNL A   1      45.529  28.952  26.718  1.00  0.00    -0.354 N 
ATOM     66  N   UNL A   1      42.797  25.577  26.114  1.00  0.00    -0.248 NA
ATOM     67  C   UNL A   1      44.914  24.847  25.448  1.00  0.00     0.031 C 
ATOM     68  C   UNL A   1      44.242  29.759  28.282  1.00  0.00     0.029 A 
ATOM     69  C   UNL A   1      44.276  28.809  27.261  1.00  0.00     0.049 A 
ATOM     70  H   UNL A   1      45.783  28.781  25.782  1.00  0.00     0.167 HD
ATOM     71  C   UNL A   1      43.649  26.673  26.139  1.00  0.00     0.074 A 
ATOM     72  C   UNL A   1      44.931  26.169  25.646  1.00  0.00     0.031 C 
ATOM     73  C   UNL A   1      43.327  27.806  26.834  1.00  0.00     0.037 A 
BRANCH  60  74
ATOM     74  C   UNL A   1      48.720  28.830  26.867  1.00  0.00     0.064 A 
ATOM     75  C   UNL A   1      48.881  27.823  25.896  1.00  0.00     0.173 A 
ATOM     76  C   UNL A   1      49.787  29.741  26.993  1.00  0.00     0.173 A 
ATOM     77  F   UNL A   1      47.924  26.903  25.701  1.00  0.00    -0.203 F 
ATOM     78  C   UNL A   1      50.063  27.689  25.165  1.00  0.00     0.198 A 
ATOM     79  C   UNL A   1      50.945  29.635  26.226  1.00  0.00     0.198 A 
ATOM     80  F   UNL A   1      49.799  30.690  27.937  1.00  0.00    -0.203 F 
ATOM     81  F   UNL A   1      50.223  26.643  24.342  1.00  0.00    -0.200 F 
ATOM     82  C   UNL A   1      51.098  28.589  25.337  1.00  0.00     0.200 A 
ATOM     83  F   UNL A   1      51.945  30.506  26.418  1.00  0.00    -0.200 F 
ATOM     84  F   UNL A   1      52.257  28.426  24.688  1.00  0.00    -0.200 F 
ENDBRANCH  60  74
BRANCH  61  85
ATOM     85  C   UNL A   1      43.364  21.934  26.068  1.00  0.00     0.064 A 
ATOM     86  C   UNL A   1      44.536  21.300  25.629  1.00  0.00     0.173 A 
ATOM     87  C   UNL A   1      42.202  21.135  26.116  1.00  0.00     0.173 A 
ATOM     88  F   UNL A   1      45.692  21.976  25.592  1.00  0.00    -0.203 F 
ATOM     89  C   UNL A   1      44.550  19.943  25.282  1.00  0.00     0.198 A 
ATOM     90  C   UNL A   1      42.216  19.784  25.767  1.00  0.00     0.198 A 
ATOM     91  F   UNL A   1      41.047  21.626  26.588  1.00  0.00    -0.203 F 
ATOM     92  F   UNL A   1      45.700  19.358  24.920  1.00  0.00    -0.200 F 
ATOM     93  C   UNL A   1      43.393  19.184  25.362  1.00  0.00     0.200 A 
ATOM     94  F   UNL A   1      41.096  19.056  25.881  1.00  0.00    -0.200 F 
ATOM     95  F   UNL A   1      43.419  17.873  25.089  1.00  0.00    -0.200 F 
ENDBRANCH  61  85
BRANCH  73  96
ATOM     96  C   UNL A   1      41.936  27.909  27.399  1.00  0.00     0.064 A 
ATOM     97  C   UNL A   1      41.567  27.432  28.670  1.00  0.00     0.173 A 
ATOM     98  C   UNL A   1      40.979  28.651  26.696  1.00  0.00     0.173 A 
ATOM     99  F   UNL A   1      42.452  26.811  29.455  1.00  0.00    -0.203 F 
ATOM    100  C   UNL A   1      40.292  27.643  29.189  1.00  0.00     0.198 A 
ATOM    101  C   UNL A   1      39.714  28.892  27.230  1.00  0.00     0.198 A 
ATOM    102  F   UNL A   1      41.290  29.190  25.507  1.00  0.00    -0.203 F 
ATOM    103  F   UNL A   1      39.971  27.166  30.400  1.00  0.00    -0.200 F 
ATOM    104  C   UNL A   1      39.367  28.378  28.470  1.00  0.00     0.200 A 
ATOM    105  F   UNL A   1      38.840  29.650  26.554  1.00  0.00    -0.200 F 
ATOM    106  F   UNL A   1      38.151  28.617  28.982  1.00  0.00    -0.200 F 
ENDBRANCH  73  96
ENDBRANCH  47  48
ENDBRANCH  39  42
ENDBRANCH  37  38
ENDBRANCH  36  37
ENDBRANCH  35  36
ENDBRANCH   1  35
TORSDOF 16
ENDMDL
