MODEL 1
REMARK VINA RESULT:     -12.9      0.000      0.000
REMARK SMILES CS(=O)(=O)CC[C@@H](C(=O)NCCCCNC(=O)c1ccc(-c2c3nc(c(-c4c(F)c(F)c(F)c(F)c4F)c4ccc([nH]4)c(-c4c(F)c(F)c(F)c(F)c4F)c4nc(c(-c5c(F)c(F)c(F)c(F)c5F)c5ccc2[nH]5)C=C4)C=C3)cc1)N1C(=O)c2ccccc2C1=O
REMARK SMILES IDX 12 1 11 2 10 3 8 4 9 5 7 7 6 8 5 9 2 10 1 11 3 12 4 13 81 14
REMARK SMILES IDX 82 15 90 16 83 17 84 18 89 19 91 20 85 21 88 22 86 23 87 24
REMARK SMILES IDX 13 25 14 26 15 27 16 28 17 30 18 31 19 32 80 33 20 34 79 35
REMARK SMILES IDX 21 36 22 37 23 38 73 39 24 40 78 41 72 42 74 43 25 44 77 45
REMARK SMILES IDX 71 46 70 47 26 49 58 50 38 51 57 52 39 53 42 54 56 55 75 56
REMARK SMILES IDX 40 57 41 58 55 60 76 61 43 62 27 63 28 64 36 65 29 66 30 67
REMARK SMILES IDX 34 68 37 69 31 70 32 71 35 72 33 73 59 74 60 75 68 76 61 77
REMARK SMILES IDX 62 78 66 79 69 80 63 81 64 82 67 83 65 84 44 85 45 86 53 87
REMARK SMILES IDX 46 88 47 89 51 90 54 91 48 92 49 93 52 94 50 95
REMARK H PARENT 10 6 15 29 74 48 42 59
REMARK Flexibility Score: inf
ROOT
ATOM      1  C   UNL A   1      32.192  30.487  26.878  1.00  0.00     0.023 C 
ENDROOT
BRANCH   1   2
ATOM      2  C   UNL A   1      31.782  29.737  25.613  1.00  0.00     0.116 C 
BRANCH   2   3
ATOM      3  N   UNL A   1      32.855  29.690  24.658  1.00  0.00    -0.354 N 
ATOM      4  C   UNL A   1      33.113  28.872  23.611  1.00  0.00     0.243 C 
ATOM      5  O   UNL A   1      34.055  29.261  22.902  1.00  0.00    -0.273 OA
ATOM      6  H   UNL A   1      33.535  30.390  24.792  1.00  0.00     0.163 HD
BRANCH   4   7
ATOM      7  C   UNL A   1      32.233  27.644  23.196  1.00  0.00     0.184 C 
BRANCH   7   8
ATOM      8  C   UNL A   1      30.797  27.379  23.700  1.00  0.00     0.052 C 
BRANCH   8   9
ATOM      9  C   UNL A   1      29.525  27.743  22.966  1.00  0.00     0.139 C 
BRANCH   9  10
ATOM     10  S   UNL A   1      29.049  29.437  22.705  1.00  0.00     0.147 S 
ATOM     11  C   UNL A   1      27.312  29.641  23.011  1.00  0.00     0.158 C 
ATOM     12  O   UNL A   1      29.242  29.683  21.286  1.00  0.00    -0.229 OA
ATOM     13  O   UNL A   1      29.744  30.237  23.694  1.00  0.00    -0.229 OA
ENDBRANCH   9  10
ENDBRANCH   8   9
ENDBRANCH   7   8
BRANCH   7  14
ATOM     14  N   UNL A   1      33.050  26.500  23.674  1.00  0.00    -0.262 N 
ATOM     15  C   UNL A   1      33.665  25.611  22.821  1.00  0.00     0.262 C 
ATOM     16  C   UNL A   1      33.198  26.120  24.978  1.00  0.00     0.262 C 
ATOM     17  O   UNL A   1      33.702  25.606  21.609  1.00  0.00    -0.269 OA
ATOM     18  C   UNL A   1      34.310  24.608  23.653  1.00  0.00     0.053 A 
ATOM     19  C   UNL A   1      34.022  24.906  24.972  1.00  0.00     0.053 A 
ATOM     20  O   UNL A   1      32.776  26.673  25.979  1.00  0.00    -0.269 OA
ATOM     21  C   UNL A   1      35.098  23.537  23.282  1.00  0.00     0.015 A 
ATOM     22  C   UNL A   1      34.509  24.128  26.003  1.00  0.00     0.015 A 
ATOM     23  C   UNL A   1      35.608  22.742  24.308  1.00  0.00     0.001 A 
ATOM     24  C   UNL A   1      35.314  23.033  25.656  1.00  0.00     0.001 A 
ENDBRANCH   7  14
ENDBRANCH   4   7
ENDBRANCH   2   3
ENDBRANCH   1   2
BRANCH   1  25
ATOM     25  C   UNL A   1      31.835  31.964  26.863  1.00  0.00     0.023 C 
BRANCH  25  26
ATOM     26  C   UNL A   1      32.948  32.878  27.351  1.00  0.00     0.116 C 
BRANCH  26  27
ATOM     27  N   UNL A   1      32.507  34.223  27.700  1.00  0.00    -0.352 N 
ATOM     28  C   UNL A   1      33.022  35.049  28.674  1.00  0.00     0.251 C 
ATOM     29  H   UNL A   1      31.753  34.582  27.179  1.00  0.00     0.163 HD
ATOM     30  O   UNL A   1      32.505  36.127  28.937  1.00  0.00    -0.269 OA
BRANCH  28  31
ATOM     31  C   UNL A   1      34.192  34.577  29.438  1.00  0.00     0.039 A 
ATOM     32  C   UNL A   1      33.988  33.945  30.665  1.00  0.00     0.014 A 
ATOM     33  C   UNL A   1      35.467  34.647  28.870  1.00  0.00     0.014 A 
ATOM     34  C   UNL A   1      35.059  33.304  31.286  1.00  0.00     0.010 A 
ATOM     35  C   UNL A   1      36.504  33.920  29.438  1.00  0.00     0.010 A 
ATOM     36  C   UNL A   1      36.312  33.243  30.653  1.00  0.00    -0.014 A 
BRANCH  36  37
ATOM     37  C   UNL A   1      37.440  32.478  31.244  1.00  0.00     0.031 A 
ATOM     38  C   UNL A   1      37.950  32.838  32.612  1.00  0.00     0.074 A 
ATOM     39  C   UNL A   1      38.048  31.513  30.525  1.00  0.00     0.049 A 
ATOM     40  N   UNL A   1      38.962  32.341  33.276  1.00  0.00    -0.248 NA
ATOM     41  C   UNL A   1      37.249  33.926  33.313  1.00  0.00     0.031 C 
ATOM     42  C   UNL A   1      37.684  31.111  29.165  1.00  0.00     0.029 A 
ATOM     43  N   UNL A   1      39.106  30.698  30.838  1.00  0.00    -0.354 N 
ATOM     44  C   UNL A   1      39.029  33.067  34.457  1.00  0.00     0.074 A 
ATOM     45  C   UNL A   1      38.001  34.081  34.392  1.00  0.00     0.031 C 
ATOM     46  C   UNL A   1      38.481  30.104  28.775  1.00  0.00     0.029 A 
ATOM     47  C   UNL A   1      39.440  29.816  29.837  1.00  0.00     0.049 A 
ATOM     48  H   UNL A   1      39.584  30.741  31.698  1.00  0.00     0.167 HD
ATOM     49  C   UNL A   1      39.853  32.885  35.515  1.00  0.00     0.037 A 
ATOM     50  C   UNL A   1      40.410  28.885  29.785  1.00  0.00     0.037 A 
ATOM     51  C   UNL A   1      40.852  31.853  35.589  1.00  0.00     0.049 A 
ATOM     52  C   UNL A   1      41.318  28.706  30.973  1.00  0.00     0.074 A 
ATOM     53  C   UNL A   1      41.690  31.537  36.642  1.00  0.00     0.029 A 
ATOM     54  N   UNL A   1      41.150  30.969  34.561  1.00  0.00    -0.354 N 
ATOM     55  N   UNL A   1      41.319  29.344  32.119  1.00  0.00    -0.248 NA
ATOM     56  C   UNL A   1      42.356  27.672  30.864  1.00  0.00     0.031 C 
ATOM     57  C   UNL A   1      42.534  30.500  36.234  1.00  0.00     0.029 A 
ATOM     58  C   UNL A   1      42.180  30.127  34.947  1.00  0.00     0.049 A 
ATOM     59  H   UNL A   1      40.697  30.944  33.687  1.00  0.00     0.167 HD
ATOM     60  C   UNL A   1      42.330  28.769  32.876  1.00  0.00     0.074 A 
ATOM     61  C   UNL A   1      42.913  27.720  32.065  1.00  0.00     0.031 C 
ATOM     62  C   UNL A   1      42.740  29.080  34.131  1.00  0.00     0.037 A 
BRANCH  49  63
ATOM     63  C   UNL A   1      39.706  33.823  36.679  1.00  0.00     0.064 A 
ATOM     64  C   UNL A   1      40.385  35.051  36.729  1.00  0.00     0.173 A 
ATOM     65  C   UNL A   1      38.855  33.504  37.746  1.00  0.00     0.173 A 
ATOM     66  F   UNL A   1      41.223  35.400  35.740  1.00  0.00    -0.203 F 
ATOM     67  C   UNL A   1      40.243  35.906  37.818  1.00  0.00     0.198 A 
ATOM     68  C   UNL A   1      38.687  34.377  38.817  1.00  0.00     0.198 A 
ATOM     69  F   UNL A   1      38.178  32.345  37.749  1.00  0.00    -0.203 F 
ATOM     70  F   UNL A   1      40.947  37.045  37.869  1.00  0.00    -0.200 F 
ATOM     71  C   UNL A   1      39.389  35.572  38.857  1.00  0.00     0.200 A 
ATOM     72  F   UNL A   1      37.850  34.060  39.814  1.00  0.00    -0.200 F 
ATOM     73  F   UNL A   1      39.246  36.400  39.902  1.00  0.00    -0.200 F 
ENDBRANCH  49  63
BRANCH  50  74
ATOM     74  C   UNL A   1      40.559  28.026  28.579  1.00  0.00     0.064 A 
ATOM     75  C   UNL A   1      41.329  28.447  27.486  1.00  0.00     0.173 A 
ATOM     76  C   UNL A   1      39.925  26.778  28.485  1.00  0.00     0.173 A 
ATOM     77  F   UNL A   1      41.940  29.642  27.518  1.00  0.00    -0.203 F 
ATOM     78  C   UNL A   1      41.440  27.667  26.337  1.00  0.00     0.198 A 
ATOM     79  C   UNL A   1      40.062  25.985  27.347  1.00  0.00     0.198 A 
ATOM     80  F   UNL A   1      39.178  26.325  29.503  1.00  0.00    -0.203 F 
ATOM     81  F   UNL A   1      42.141  28.119  25.287  1.00  0.00    -0.200 F 
ATOM     82  C   UNL A   1      40.811  26.434  26.270  1.00  0.00     0.200 A 
ATOM     83  F   UNL A   1      39.464  24.787  27.293  1.00  0.00    -0.200 F 
ATOM     84  F   UNL A   1      40.918  25.683  25.166  1.00  0.00    -0.200 F 
ENDBRANCH  50  74
BRANCH  62  85
ATOM     85  C   UNL A   1      43.844  28.251  34.722  1.00  0.00     0.064 A 
ATOM     86  C   UNL A   1      45.188  28.643  34.644  1.00  0.00     0.173 A 
ATOM     87  C   UNL A   1      43.544  27.069  35.417  1.00  0.00     0.173 A 
ATOM     88  F   UNL A   1      45.529  29.758  33.979  1.00  0.00    -0.203 F 
ATOM     89  C   UNL A   1      46.194  27.868  35.214  1.00  0.00     0.198 A 
ATOM     90  C   UNL A   1      44.549  26.315  36.016  1.00  0.00     0.198 A 
ATOM     91  F   UNL A   1      42.274  26.652  35.530  1.00  0.00    -0.203 F 
ATOM     92  F   UNL A   1      47.476  28.236  35.082  1.00  0.00    -0.200 F 
ATOM     93  C   UNL A   1      45.874  26.710  35.907  1.00  0.00     0.200 A 
ATOM     94  F   UNL A   1      44.235  25.206  36.701  1.00  0.00    -0.200 F 
ATOM     95  F   UNL A   1      46.843  25.972  36.465  1.00  0.00    -0.200 F 
ENDBRANCH  62  85
ENDBRANCH  36  37
ENDBRANCH  28  31
ENDBRANCH  26  27
ENDBRANCH  25  26
ENDBRANCH   1  25
TORSDOF 15
ENDMDL
MODEL 2
REMARK VINA RESULT:     -12.9      0.560      7.339
REMARK SMILES CS(=O)(=O)CC[C@@H](C(=O)NCCCCNC(=O)c1ccc(-c2c3nc(c(-c4c(F)c(F)c(F)c(F)c4F)c4ccc([nH]4)c(-c4c(F)c(F)c(F)c(F)c4F)c4nc(c(-c5c(F)c(F)c(F)c(F)c5F)c5ccc2[nH]5)C=C4)C=C3)cc1)N1C(=O)c2ccccc2C1=O
REMARK SMILES IDX 12 1 11 2 10 3 8 4 9 5 7 7 6 8 5 9 2 10 1 11 3 12 4 13 81 14
REMARK SMILES IDX 82 15 90 16 83 17 84 18 89 19 91 20 85 21 88 22 86 23 87 24
REMARK SMILES IDX 13 25 14 26 15 27 16 28 17 30 18 31 19 32 80 33 20 34 79 35
REMARK SMILES IDX 21 36 22 37 23 38 73 39 24 40 78 41 72 42 74 43 25 44 77 45
REMARK SMILES IDX 71 46 70 47 26 49 58 50 38 51 57 52 39 53 42 54 56 55 75 56
REMARK SMILES IDX 40 57 41 58 55 60 76 61 43 62 27 63 28 64 36 65 29 66 30 67
REMARK SMILES IDX 34 68 37 69 31 70 32 71 35 72 33 73 59 74 60 75 68 76 61 77
REMARK SMILES IDX 62 78 66 79 69 80 63 81 64 82 67 83 65 84 44 85 45 86 53 87
REMARK SMILES IDX 46 88 47 89 51 90 54 91 48 92 49 93 52 94 50 95
REMARK H PARENT 10 6 15 29 74 48 42 59
REMARK Flexibility Score: inf
ROOT
ATOM      1  C   UNL A   1      32.538  30.395  26.766  1.00  0.00     0.023 C 
ENDROOT
BRANCH   1   2
ATOM      2  C   UNL A   1      32.029  29.738  25.487  1.00  0.00     0.116 C 
BRANCH   2   3
ATOM      3  N   UNL A   1      33.075  29.602  24.512  1.00  0.00    -0.354 N 
ATOM      4  C   UNL A   1      33.269  28.735  23.490  1.00  0.00     0.243 C 
ATOM      5  O   UNL A   1      34.212  29.050  22.748  1.00  0.00    -0.273 OA
ATOM      6  H   UNL A   1      33.792  30.271  24.606  1.00  0.00     0.163 HD
BRANCH   4   7
ATOM      7  C   UNL A   1      32.319  27.539  23.140  1.00  0.00     0.184 C 
BRANCH   7   8
ATOM      8  C   UNL A   1      30.901  27.341  23.719  1.00  0.00     0.052 C 
BRANCH   8   9
ATOM      9  C   UNL A   1      29.614  27.811  23.078  1.00  0.00     0.139 C 
BRANCH   9  10
ATOM     10  S   UNL A   1      29.369  29.509  22.610  1.00  0.00     0.147 S 
ATOM     11  C   UNL A   1      27.697  29.762  22.068  1.00  0.00     0.158 C 
ATOM     12  O   UNL A   1      30.209  29.718  21.442  1.00  0.00    -0.229 OA
ATOM     13  O   UNL A   1      29.548  30.315  23.801  1.00  0.00    -0.229 OA
ENDBRANCH   9  10
ENDBRANCH   8   9
ENDBRANCH   7   8
BRANCH   7  14
ATOM     14  N   UNL A   1      33.111  26.369  23.594  1.00  0.00    -0.262 N 
ATOM     15  C   UNL A   1      33.645  25.444  22.725  1.00  0.00     0.262 C 
ATOM     16  C   UNL A   1      33.310  26.001  24.895  1.00  0.00     0.262 C 
ATOM     17  O   UNL A   1      33.621  25.421  21.513  1.00  0.00    -0.269 OA
ATOM     18  C   UNL A   1      34.291  24.426  23.540  1.00  0.00     0.053 A 
ATOM     19  C   UNL A   1      34.082  24.754  24.866  1.00  0.00     0.053 A 
ATOM     20  O   UNL A   1      32.962  26.584  25.906  1.00  0.00    -0.269 OA
ATOM     21  C   UNL A   1      35.015  23.318  23.146  1.00  0.00     0.015 A 
ATOM     22  C   UNL A   1      34.589  23.970  25.884  1.00  0.00     0.015 A 
ATOM     23  C   UNL A   1      35.543  22.517  24.158  1.00  0.00     0.001 A 
ATOM     24  C   UNL A   1      35.329  22.837  25.514  1.00  0.00     0.001 A 
ENDBRANCH   7  14
ENDBRANCH   4   7
ENDBRANCH   2   3
ENDBRANCH   1   2
BRANCH   1  25
ATOM     25  C   UNL A   1      32.032  31.813  26.976  1.00  0.00     0.023 C 
BRANCH  25  26
ATOM     26  C   UNL A   1      33.086  32.779  27.494  1.00  0.00     0.116 C 
BRANCH  26  27
ATOM     27  N   UNL A   1      32.591  34.129  27.737  1.00  0.00    -0.352 N 
ATOM     28  C   UNL A   1      33.049  35.037  28.664  1.00  0.00     0.251 C 
ATOM     29  H   UNL A   1      31.841  34.425  27.171  1.00  0.00     0.163 HD
ATOM     30  O   UNL A   1      32.490  36.112  28.837  1.00  0.00    -0.269 OA
BRANCH  28  31
ATOM     31  C   UNL A   1      34.212  34.659  29.490  1.00  0.00     0.039 A 
ATOM     32  C   UNL A   1      33.994  34.147  30.770  1.00  0.00     0.014 A 
ATOM     33  C   UNL A   1      35.496  34.692  28.941  1.00  0.00     0.014 A 
ATOM     34  C   UNL A   1      35.060  33.586  31.470  1.00  0.00     0.010 A 
ATOM     35  C   UNL A   1      36.531  34.040  29.595  1.00  0.00     0.010 A 
ATOM     36  C   UNL A   1      36.326  33.482  30.867  1.00  0.00    -0.014 A 
BRANCH  36  37
ATOM     37  C   UNL A   1      37.452  32.795  31.549  1.00  0.00     0.031 A 
ATOM     38  C   UNL A   1      38.132  31.632  30.881  1.00  0.00     0.074 A 
ATOM     39  C   UNL A   1      37.815  33.170  32.792  1.00  0.00     0.049 A 
ATOM     40  N   UNL A   1      39.085  30.858  31.333  1.00  0.00    -0.248 NA
ATOM     41  C   UNL A   1      37.651  31.269  29.538  1.00  0.00     0.031 C 
ATOM     42  C   UNL A   1      37.195  34.244  33.570  1.00  0.00     0.029 A 
ATOM     43  N   UNL A   1      38.791  32.683  33.624  1.00  0.00    -0.354 N 
ATOM     44  C   UNL A   1      39.301  29.911  30.342  1.00  0.00     0.074 A 
ATOM     45  C   UNL A   1      38.337  30.163  29.294  1.00  0.00     0.031 C 
ATOM     46  C   UNL A   1      37.828  34.358  34.748  1.00  0.00     0.029 A 
ATOM     47  C   UNL A   1      38.870  33.339  34.830  1.00  0.00     0.049 A 
ATOM     48  H   UNL A   1      39.381  31.933  33.381  1.00  0.00     0.167 HD
ATOM     49  C   UNL A   1      40.240  28.937  30.294  1.00  0.00     0.037 A 
ATOM     50  C   UNL A   1      39.687  33.138  35.880  1.00  0.00     0.037 A 
ATOM     51  C   UNL A   1      41.219  28.712  31.324  1.00  0.00     0.049 A 
ATOM     52  C   UNL A   1      40.720  32.044  35.804  1.00  0.00     0.074 A 
ATOM     53  C   UNL A   1      42.258  27.799  31.341  1.00  0.00     0.029 A 
ATOM     54  N   UNL A   1      41.276  29.407  32.523  1.00  0.00    -0.354 N 
ATOM     55  N   UNL A   1      40.969  31.206  34.826  1.00  0.00    -0.248 NA
ATOM     56  C   UNL A   1      41.589  31.871  36.976  1.00  0.00     0.031 C 
ATOM     57  C   UNL A   1      42.909  27.902  32.574  1.00  0.00     0.029 A 
ATOM     58  C   UNL A   1      42.315  28.923  33.300  1.00  0.00     0.049 A 
ATOM     59  H   UNL A   1      40.667  30.136  32.784  1.00  0.00     0.167 HD
ATOM     60  C   UNL A   1      42.041  30.432  35.250  1.00  0.00     0.074 A 
ATOM     61  C   UNL A   1      42.405  30.910  36.568  1.00  0.00     0.031 C 
ATOM     62  C   UNL A   1      42.670  29.418  34.606  1.00  0.00     0.037 A 
BRANCH  49  63
ATOM     63  C   UNL A   1      40.253  28.043  29.087  1.00  0.00     0.064 A 
ATOM     64  C   UNL A   1      40.979  28.371  27.932  1.00  0.00     0.173 A 
ATOM     65  C   UNL A   1      39.554  26.828  29.096  1.00  0.00     0.173 A 
ATOM     66  F   UNL A   1      41.655  29.529  27.864  1.00  0.00    -0.203 F 
ATOM     67  C   UNL A   1      40.975  27.534  26.819  1.00  0.00     0.198 A 
ATOM     68  C   UNL A   1      39.582  25.975  27.995  1.00  0.00     0.198 A 
ATOM     69  F   UNL A   1      38.847  26.461  30.176  1.00  0.00    -0.203 F 
ATOM     70  F   UNL A   1      41.628  27.898  25.707  1.00  0.00    -0.200 F 
ATOM     71  C   UNL A   1      40.283  26.334  26.855  1.00  0.00     0.200 A 
ATOM     72  F   UNL A   1      38.924  24.808  28.037  1.00  0.00    -0.200 F 
ATOM     73  F   UNL A   1      40.287  25.524  25.787  1.00  0.00    -0.200 F 
ENDBRANCH  49  63
BRANCH  50  74
ATOM     74  C   UNL A   1      39.589  34.008  37.082  1.00  0.00     0.064 A 
ATOM     75  C   UNL A   1      38.851  33.604  38.204  1.00  0.00     0.173 A 
ATOM     76  C   UNL A   1      40.213  35.263  37.133  1.00  0.00     0.173 A 
ATOM     77  F   UNL A   1      38.218  32.420  38.198  1.00  0.00    -0.203 F 
ATOM     78  C   UNL A   1      38.720  34.430  39.318  1.00  0.00     0.198 A 
ATOM     79  C   UNL A   1      40.107  36.075  38.260  1.00  0.00     0.198 A 
ATOM     80  F   UNL A   1      40.934  35.697  36.088  1.00  0.00    -0.203 F 
ATOM     81  F   UNL A   1      37.966  34.039  40.355  1.00  0.00    -0.200 F 
ATOM     82  C   UNL A   1      39.353  35.663  39.348  1.00  0.00     0.200 A 
ATOM     83  F   UNL A   1      40.732  37.260  38.290  1.00  0.00    -0.200 F 
ATOM     84  F   UNL A   1      39.228  36.457  40.420  1.00  0.00    -0.200 F 
ENDBRANCH  50  74
BRANCH  62  85
ATOM     85  C   UNL A   1      43.842  28.782  35.298  1.00  0.00     0.064 A 
ATOM     86  C   UNL A   1      43.685  27.703  36.179  1.00  0.00     0.173 A 
ATOM     87  C   UNL A   1      45.145  29.233  35.036  1.00  0.00     0.173 A 
ATOM     88  F   UNL A   1      42.459  27.243  36.473  1.00  0.00    -0.203 F 
ATOM     89  C   UNL A   1      44.787  27.118  36.796  1.00  0.00     0.198 A 
ATOM     90  C   UNL A   1      46.247  28.622  35.628  1.00  0.00     0.198 A 
ATOM     91  F   UNL A   1      45.353  30.256  34.194  1.00  0.00    -0.203 F 
ATOM     92  F   UNL A   1      44.609  26.121  37.675  1.00  0.00    -0.200 F 
ATOM     93  C   UNL A   1      46.067  27.571  36.514  1.00  0.00     0.200 A 
ATOM     94  F   UNL A   1      47.484  29.051  35.339  1.00  0.00    -0.200 F 
ATOM     95  F   UNL A   1      47.127  26.998  37.100  1.00  0.00    -0.200 F 
ENDBRANCH  62  85
ENDBRANCH  36  37
ENDBRANCH  28  31
ENDBRANCH  26  27
ENDBRANCH  25  26
ENDBRANCH   1  25
TORSDOF 15
ENDMDL
MODEL 3
REMARK VINA RESULT:     -12.8      0.846      1.821
REMARK SMILES CS(=O)(=O)CC[C@@H](C(=O)NCCCCNC(=O)c1ccc(-c2c3nc(c(-c4c(F)c(F)c(F)c(F)c4F)c4ccc([nH]4)c(-c4c(F)c(F)c(F)c(F)c4F)c4nc(c(-c5c(F)c(F)c(F)c(F)c5F)c5ccc2[nH]5)C=C4)C=C3)cc1)N1C(=O)c2ccccc2C1=O
REMARK SMILES IDX 12 1 11 2 10 3 8 4 9 5 7 7 6 8 5 9 2 10 1 11 3 12 4 13 81 14
REMARK SMILES IDX 82 15 90 16 83 17 84 18 89 19 91 20 85 21 88 22 86 23 87 24
REMARK SMILES IDX 13 25 14 26 15 27 16 28 17 30 18 31 19 32 80 33 20 34 79 35
REMARK SMILES IDX 21 36 22 37 23 38 73 39 24 40 78 41 72 42 74 43 25 44 77 45
REMARK SMILES IDX 71 46 70 47 26 49 58 50 38 51 57 52 39 53 42 54 56 55 75 56
REMARK SMILES IDX 40 57 41 58 55 60 76 61 43 62 27 63 28 64 36 65 29 66 30 67
REMARK SMILES IDX 34 68 37 69 31 70 32 71 35 72 33 73 59 74 60 75 68 76 61 77
REMARK SMILES IDX 62 78 66 79 69 80 63 81 64 82 67 83 65 84 44 85 45 86 53 87
REMARK SMILES IDX 46 88 47 89 51 90 54 91 48 92 49 93 52 94 50 95
REMARK H PARENT 10 6 15 29 74 48 42 59
REMARK Flexibility Score: inf
ROOT
ATOM      1  C   UNL A   1      32.023  30.495  26.650  1.00  0.00     0.023 C 
ENDROOT
BRANCH   1   2
ATOM      2  C   UNL A   1      31.772  29.932  25.253  1.00  0.00     0.116 C 
BRANCH   2   3
ATOM      3  N   UNL A   1      33.001  29.570  24.603  1.00  0.00    -0.354 N 
ATOM      4  C   UNL A   1      33.269  28.867  23.478  1.00  0.00     0.243 C 
ATOM      5  O   UNL A   1      34.460  28.919  23.135  1.00  0.00    -0.273 OA
ATOM      6  H   UNL A   1      33.805  29.899  25.066  1.00  0.00     0.163 HD
BRANCH   4   7
ATOM      7  C   UNL A   1      32.189  28.184  22.571  1.00  0.00     0.184 C 
BRANCH   7   8
ATOM      8  C   UNL A   1      30.670  28.456  22.652  1.00  0.00     0.052 C 
BRANCH   8   9
ATOM      9  C   UNL A   1      30.005  29.801  22.458  1.00  0.00     0.139 C 
BRANCH   9  10
ATOM     10  S   UNL A   1      28.242  29.953  22.275  1.00  0.00     0.147 S 
ATOM     11  C   UNL A   1      27.656  31.386  23.144  1.00  0.00     0.158 C 
ATOM     12  O   UNL A   1      27.677  28.803  22.961  1.00  0.00    -0.229 OA
ATOM     13  O   UNL A   1      27.973  30.179  20.868  1.00  0.00    -0.229 OA
ENDBRANCH   9  10
ENDBRANCH   8   9
ENDBRANCH   7   8
BRANCH   7  14
ATOM     14  N   UNL A   1      32.364  26.748  22.906  1.00  0.00    -0.262 N 
ATOM     15  C   UNL A   1      32.878  25.830  22.019  1.00  0.00     0.262 C 
ATOM     16  C   UNL A   1      31.943  26.145  24.057  1.00  0.00     0.262 C 
ATOM     17  O   UNL A   1      33.301  25.996  20.895  1.00  0.00    -0.269 OA
ATOM     18  C   UNL A   1      32.835  24.535  22.682  1.00  0.00     0.053 A 
ATOM     19  C   UNL A   1      32.256  24.718  23.924  1.00  0.00     0.053 A 
ATOM     20  O   UNL A   1      31.437  26.660  25.039  1.00  0.00    -0.269 OA
ATOM     21  C   UNL A   1      33.284  23.308  22.237  1.00  0.00     0.015 A 
ATOM     22  C   UNL A   1      32.087  23.660  24.795  1.00  0.00     0.015 A 
ATOM     23  C   UNL A   1      33.130  22.227  23.105  1.00  0.00     0.001 A 
ATOM     24  C   UNL A   1      32.534  22.400  24.371  1.00  0.00     0.001 A 
ENDBRANCH   7  14
ENDBRANCH   4   7
ENDBRANCH   2   3
ENDBRANCH   1   2
BRANCH   1  25
ATOM     25  C   UNL A   1      31.669  31.966  26.795  1.00  0.00     0.023 C 
BRANCH  25  26
ATOM     26  C   UNL A   1      32.788  32.820  27.370  1.00  0.00     0.116 C 
BRANCH  26  27
ATOM     27  N   UNL A   1      32.398  34.194  27.664  1.00  0.00    -0.352 N 
ATOM     28  C   UNL A   1      32.964  35.049  28.583  1.00  0.00     0.251 C 
ATOM     29  H   UNL A   1      31.643  34.553  27.144  1.00  0.00     0.163 HD
ATOM     30  O   UNL A   1      32.489  36.155  28.806  1.00  0.00    -0.269 OA
BRANCH  28  31
ATOM     31  C   UNL A   1      34.139  34.575  29.341  1.00  0.00     0.039 A 
ATOM     32  C   UNL A   1      33.943  33.963  30.579  1.00  0.00     0.014 A 
ATOM     33  C   UNL A   1      35.408  34.625  28.759  1.00  0.00     0.014 A 
ATOM     34  C   UNL A   1      35.014  33.319  31.197  1.00  0.00     0.010 A 
ATOM     35  C   UNL A   1      36.444  33.897  29.324  1.00  0.00     0.010 A 
ATOM     36  C   UNL A   1      36.259  33.238  30.551  1.00  0.00    -0.014 A 
BRANCH  36  37
ATOM     37  C   UNL A   1      37.386  32.470  31.139  1.00  0.00     0.031 A 
ATOM     38  C   UNL A   1      37.888  32.816  32.514  1.00  0.00     0.074 A 
ATOM     39  C   UNL A   1      38.000  31.514  30.414  1.00  0.00     0.049 A 
ATOM     40  N   UNL A   1      38.898  32.316  33.178  1.00  0.00    -0.248 NA
ATOM     41  C   UNL A   1      37.180  33.895  33.223  1.00  0.00     0.031 C 
ATOM     42  C   UNL A   1      37.645  31.126  29.048  1.00  0.00     0.029 A 
ATOM     43  N   UNL A   1      39.060  30.699  30.723  1.00  0.00    -0.354 N 
ATOM     44  C   UNL A   1      38.956  33.029  34.367  1.00  0.00     0.074 A 
ATOM     45  C   UNL A   1      37.926  34.041  34.307  1.00  0.00     0.031 C 
ATOM     46  C   UNL A   1      38.447  30.125  28.651  1.00  0.00     0.029 A 
ATOM     47  C   UNL A   1      39.401  29.829  29.715  1.00  0.00     0.049 A 
ATOM     48  H   UNL A   1      39.532  30.734  31.587  1.00  0.00     0.167 HD
ATOM     49  C   UNL A   1      39.775  32.839  35.428  1.00  0.00     0.037 A 
ATOM     50  C   UNL A   1      40.375  28.901  29.658  1.00  0.00     0.037 A 
ATOM     51  C   UNL A   1      40.777  31.809  35.495  1.00  0.00     0.049 A 
ATOM     52  C   UNL A   1      41.276  28.712  30.849  1.00  0.00     0.074 A 
ATOM     53  C   UNL A   1      41.610  31.484  36.550  1.00  0.00     0.029 A 
ATOM     54  N   UNL A   1      41.083  30.937  34.460  1.00  0.00    -0.354 N 
ATOM     55  N   UNL A   1      41.269  29.338  32.002  1.00  0.00    -0.248 NA
ATOM     56  C   UNL A   1      42.318  27.682  30.734  1.00  0.00     0.031 C 
ATOM     57  C   UNL A   1      42.460  30.454  36.135  1.00  0.00     0.029 A 
ATOM     58  C   UNL A   1      42.113  30.093  34.843  1.00  0.00     0.049 A 
ATOM     59  H   UNL A   1      40.635  30.920  33.584  1.00  0.00     0.167 HD
ATOM     60  C   UNL A   1      42.278  28.758  32.759  1.00  0.00     0.074 A 
ATOM     61  C   UNL A   1      42.868  27.719  31.940  1.00  0.00     0.031 C 
ATOM     62  C   UNL A   1      42.681  29.057  34.018  1.00  0.00     0.037 A 
BRANCH  49  63
ATOM     63  C   UNL A   1      39.620  33.764  36.601  1.00  0.00     0.064 A 
ATOM     64  C   UNL A   1      38.832  33.423  37.711  1.00  0.00     0.173 A 
ATOM     65  C   UNL A   1      40.290  34.995  36.628  1.00  0.00     0.173 A 
ATOM     66  F   UNL A   1      38.158  32.262  37.731  1.00  0.00    -0.203 F 
ATOM     67  C   UNL A   1      38.694  34.295  38.788  1.00  0.00     0.198 A 
ATOM     68  C   UNL A   1      40.179  35.848  37.722  1.00  0.00     0.198 A 
ATOM     69  F   UNL A   1      41.061  35.370  35.595  1.00  0.00    -0.203 F 
ATOM     70  F   UNL A   1      37.889  33.971  39.810  1.00  0.00    -0.200 F 
ATOM     71  C   UNL A   1      39.373  35.502  38.796  1.00  0.00     0.200 A 
ATOM     72  F   UNL A   1      40.848  37.010  37.735  1.00  0.00    -0.200 F 
ATOM     73  F   UNL A   1      39.246  36.338  39.837  1.00  0.00    -0.200 F 
ENDBRANCH  49  63
BRANCH  50  74
ATOM     74  C   UNL A   1      40.532  28.055  28.445  1.00  0.00     0.064 A 
ATOM     75  C   UNL A   1      39.921  26.795  28.361  1.00  0.00     0.173 A 
ATOM     76  C   UNL A   1      41.305  28.476  27.352  1.00  0.00     0.173 A 
ATOM     77  F   UNL A   1      39.188  26.337  29.388  1.00  0.00    -0.203 F 
ATOM     78  C   UNL A   1      40.097  25.980  27.245  1.00  0.00     0.198 A 
ATOM     79  C   UNL A   1      41.454  27.672  26.223  1.00  0.00     0.198 A 
ATOM     80  F   UNL A   1      41.908  29.673  27.378  1.00  0.00    -0.203 F 
ATOM     81  F   UNL A   1      39.544  24.759  27.216  1.00  0.00    -0.200 F 
ATOM     82  C   UNL A   1      40.859  26.421  26.174  1.00  0.00     0.200 A 
ATOM     83  F   UNL A   1      42.180  28.109  25.184  1.00  0.00    -0.200 F 
ATOM     84  F   UNL A   1      41.027  25.638  25.101  1.00  0.00    -0.200 F 
ENDBRANCH  50  74
BRANCH  62  85
ATOM     85  C   UNL A   1      43.784  28.224  34.607  1.00  0.00     0.064 A 
ATOM     86  C   UNL A   1      45.127  28.625  34.545  1.00  0.00     0.173 A 
ATOM     87  C   UNL A   1      43.485  27.031  35.282  1.00  0.00     0.173 A 
ATOM     88  F   UNL A   1      45.467  29.750  33.900  1.00  0.00    -0.203 F 
ATOM     89  C   UNL A   1      46.131  27.846  35.113  1.00  0.00     0.198 A 
ATOM     90  C   UNL A   1      44.488  26.273  35.879  1.00  0.00     0.198 A 
ATOM     91  F   UNL A   1      42.216  26.606  35.378  1.00  0.00    -0.203 F 
ATOM     92  F   UNL A   1      47.413  28.222  34.997  1.00  0.00    -0.200 F 
ATOM     93  C   UNL A   1      45.812  26.677  35.786  1.00  0.00     0.200 A 
ATOM     94  F   UNL A   1      44.174  25.153  36.544  1.00  0.00    -0.200 F 
ATOM     95  F   UNL A   1      46.780  25.935  36.341  1.00  0.00    -0.200 F 
ENDBRANCH  62  85
ENDBRANCH  36  37
ENDBRANCH  28  31
ENDBRANCH  26  27
ENDBRANCH  25  26
ENDBRANCH   1  25
TORSDOF 15
ENDMDL
