MODEL 1
REMARK VINA RESULT:     -14.8      0.000      0.000
REMARK SMILES Cc1ccccc1[C@@H]1[NH2+][C@@H](C(=O)NCCCCNC(=O)c2ccc(-c3c4nc(c(-c5c(F)c(F)c(F)c(F)c5F)c5ccc([nH]5)c(-c5c(F)c(F)c(F)c(F)c5F)c5nc(c(-c6c(F)c(F)c(F)c(F)c6F)c6ccc3[nH]6)C=C5)C=C4)cc2)CC2=c3ccccc3=N[C@@H]21
REMARK SMILES IDX 16 1 15 2 14 3 13 4 11 5 12 6 10 8 8 9 9 10 93 11 85 14
REMARK SMILES IDX 92 15 84 16 86 17 91 18 87 19 90 20 88 21 89 22 7 23 1 24
REMARK SMILES IDX 2 25 3 26 4 27 6 28 5 29 17 30 18 31 19 32 20 34 21 35 22 36
REMARK SMILES IDX 83 37 23 38 82 39 24 40 25 41 26 42 76 43 27 44 81 45 75 46
REMARK SMILES IDX 77 47 28 48 80 49 74 50 73 51 29 53 61 54 41 55 60 56 42 57
REMARK SMILES IDX 45 58 59 59 78 60 43 61 44 62 58 64 79 65 46 66 30 67 31 68
REMARK SMILES IDX 39 69 32 70 33 71 37 72 40 73 34 74 35 75 38 76 36 77 62 78
REMARK SMILES IDX 63 79 71 80 64 81 65 82 69 83 72 84 66 85 67 86 70 87 68 88
REMARK SMILES IDX 47 89 48 90 56 91 49 92 50 93 54 94 57 95 51 96 52 97 55 98
REMARK SMILES IDX 53 99
REMARK H PARENT 13 7 9 12 9 13 18 33 77 52 45 63
REMARK Flexibility Score: inf
ROOT
ATOM      1  C   UNL A   1      33.555  31.518  27.626  1.00  0.00     0.023 C 
ENDROOT
BRANCH   1   2
ATOM      2  C   UNL A   1      33.292  30.060  27.159  1.00  0.00     0.023 C 
BRANCH   2   3
ATOM      3  C   UNL A   1      32.948  29.694  25.678  1.00  0.00     0.116 C 
BRANCH   3   4
ATOM      4  N   UNL A   1      33.853  29.356  24.561  1.00  0.00    -0.351 N 
ATOM      5  C   UNL A   1      33.845  28.336  23.612  1.00  0.00     0.278 C 
ATOM      6  O   UNL A   1      34.405  28.473  22.529  1.00  0.00    -0.268 OA
ATOM      7  H   UNL A   1      34.614  29.973  24.470  1.00  0.00     0.163 HD
BRANCH   5   8
ATOM      8  C   UNL A   1      33.175  27.057  24.058  1.00  0.00     0.277 C 
ATOM      9  C   UNL A   1      30.695  27.176  24.229  1.00  0.00     0.243 C 
ATOM     10  N   UNL A   1      31.880  27.104  23.364  1.00  0.00    -0.327 N 
ATOM     11  C   UNL A   1      30.681  25.677  24.797  1.00  0.00     0.196 C 
ATOM     12  H   UNL A   1      31.877  27.926  22.761  1.00  0.00     0.347 HD
ATOM     13  H   UNL A   1      31.803  26.220  22.862  1.00  0.00     0.347 HD
ATOM     14  C   UNL A   1      32.098  25.396  25.391  1.00  0.00    -0.024 C 
ATOM     15  N   UNL A   1      30.599  24.647  23.692  1.00  0.00    -0.270 NA
ATOM     16  C   UNL A   1      33.016  26.620  25.531  1.00  0.00     0.109 C 
ATOM     17  C   UNL A   1      32.624  24.255  24.915  1.00  0.00     0.002 A 
ATOM     18  C   UNL A   1      31.683  23.929  23.816  1.00  0.00     0.066 A 
ATOM     19  C   UNL A   1      34.001  23.824  24.849  1.00  0.00     0.010 A 
ATOM     20  C   UNL A   1      32.170  22.928  22.825  1.00  0.00     0.028 A 
ATOM     21  C   UNL A   1      34.400  23.025  23.848  1.00  0.00     0.001 A 
ATOM     22  C   UNL A   1      33.458  22.538  22.860  1.00  0.00     0.002 A 
BRANCH   9  23
ATOM     23  C   UNL A   1      29.638  27.994  23.445  1.00  0.00     0.015 A 
ATOM     24  C   UNL A   1      27.612  26.599  24.134  1.00  0.00     0.045 C 
ATOM     25  C   UNL A   1      28.254  27.758  23.436  1.00  0.00    -0.042 A 
ATOM     26  C   UNL A   1      27.380  28.733  22.878  1.00  0.00     0.004 A 
ATOM     27  C   UNL A   1      27.840  29.931  22.328  1.00  0.00     0.000 A 
ATOM     28  C   UNL A   1      30.048  29.259  22.911  1.00  0.00     0.010 A 
ATOM     29  C   UNL A   1      29.189  30.197  22.343  1.00  0.00     0.001 A 
ENDBRANCH   9  23
ENDBRANCH   5   8
ENDBRANCH   3   4
ENDBRANCH   2   3
ENDBRANCH   1   2
BRANCH   1  30
ATOM     30  C   UNL A   1      35.008  31.833  27.922  1.00  0.00     0.116 C 
BRANCH  30  31
ATOM     31  N   UNL A   1      35.321  32.117  29.324  1.00  0.00    -0.352 N 
ATOM     32  C   UNL A   1      35.946  31.271  30.237  1.00  0.00     0.251 C 
ATOM     33  H   UNL A   1      35.060  33.005  29.659  1.00  0.00     0.163 HD
ATOM     34  O   UNL A   1      36.108  31.570  31.401  1.00  0.00    -0.269 OA
BRANCH  32  35
ATOM     35  C   UNL A   1      36.514  30.018  29.686  1.00  0.00     0.039 A 
ATOM     36  C   UNL A   1      37.083  29.136  30.607  1.00  0.00     0.014 A 
ATOM     37  C   UNL A   1      36.866  29.989  28.337  1.00  0.00     0.014 A 
ATOM     38  C   UNL A   1      38.208  28.410  30.229  1.00  0.00     0.010 A 
ATOM     39  C   UNL A   1      38.041  29.341  27.992  1.00  0.00     0.010 A 
ATOM     40  C   UNL A   1      38.754  28.616  28.957  1.00  0.00    -0.014 A 
BRANCH  40  41
ATOM     41  C   UNL A   1      40.104  28.175  28.615  1.00  0.00     0.031 A 
ATOM     42  C   UNL A   1      40.343  26.750  28.321  1.00  0.00     0.074 A 
ATOM     43  C   UNL A   1      41.188  28.979  28.699  1.00  0.00     0.049 A 
ATOM     44  N   UNL A   1      41.367  26.098  28.764  1.00  0.00    -0.248 NA
ATOM     45  C   UNL A   1      39.414  25.938  27.551  1.00  0.00     0.031 C 
ATOM     46  C   UNL A   1      42.549  28.670  28.259  1.00  0.00     0.029 A 
ATOM     47  N   UNL A   1      41.322  30.189  29.359  1.00  0.00    -0.354 N 
ATOM     48  C   UNL A   1      41.364  24.871  28.151  1.00  0.00     0.074 A 
ATOM     49  C   UNL A   1      40.096  24.793  27.459  1.00  0.00     0.031 C 
ATOM     50  C   UNL A   1      43.406  29.521  28.843  1.00  0.00     0.029 A 
ATOM     51  C   UNL A   1      42.654  30.365  29.753  1.00  0.00     0.049 A 
ATOM     52  H   UNL A   1      40.593  30.828  29.526  1.00  0.00     0.167 HD
ATOM     53  C   UNL A   1      42.483  24.093  28.168  1.00  0.00     0.037 A 
ATOM     54  C   UNL A   1      43.005  30.675  31.034  1.00  0.00     0.037 A 
ATOM     55  C   UNL A   1      43.602  24.750  28.833  1.00  0.00     0.049 A 
ATOM     56  C   UNL A   1      43.843  29.613  31.700  1.00  0.00     0.074 A 
ATOM     57  C   UNL A   1      44.667  25.482  28.333  1.00  0.00     0.029 A 
ATOM     58  N   UNL A   1      43.580  24.981  30.206  1.00  0.00    -0.354 N 
ATOM     59  N   UNL A   1      44.040  28.428  31.195  1.00  0.00    -0.248 NA
ATOM     60  C   UNL A   1      44.433  29.760  33.030  1.00  0.00     0.031 C 
ATOM     61  C   UNL A   1      45.284  26.161  29.407  1.00  0.00     0.029 A 
ATOM     62  C   UNL A   1      44.594  25.851  30.566  1.00  0.00     0.049 A 
ATOM     63  H   UNL A   1      42.935  24.580  30.832  1.00  0.00     0.167 HD
ATOM     64  C   UNL A   1      44.635  27.633  32.136  1.00  0.00     0.074 A 
ATOM     65  C   UNL A   1      44.919  28.526  33.242  1.00  0.00     0.031 C 
ATOM     66  C   UNL A   1      44.779  26.290  31.941  1.00  0.00     0.037 A 
BRANCH  53  67
ATOM     67  C   UNL A   1      42.619  22.893  27.264  1.00  0.00     0.064 A 
ATOM     68  C   UNL A   1      41.991  21.669  27.565  1.00  0.00     0.173 A 
ATOM     69  C   UNL A   1      43.425  22.883  26.111  1.00  0.00     0.173 A 
ATOM     70  F   UNL A   1      41.097  21.562  28.555  1.00  0.00    -0.203 F 
ATOM     71  C   UNL A   1      42.269  20.496  26.860  1.00  0.00     0.198 A 
ATOM     72  C   UNL A   1      43.754  21.701  25.443  1.00  0.00     0.198 A 
ATOM     73  F   UNL A   1      43.904  24.027  25.596  1.00  0.00    -0.203 F 
ATOM     74  F   UNL A   1      41.658  19.353  27.202  1.00  0.00    -0.200 F 
ATOM     75  C   UNL A   1      43.187  20.503  25.829  1.00  0.00     0.200 A 
ATOM     76  F   UNL A   1      44.635  21.729  24.433  1.00  0.00    -0.200 F 
ATOM     77  F   UNL A   1      43.509  19.365  25.200  1.00  0.00    -0.200 F 
ENDBRANCH  53  67
BRANCH  54  78
ATOM     78  C   UNL A   1      41.966  31.469  31.735  1.00  0.00     0.064 A 
ATOM     79  C   UNL A   1      41.847  32.825  31.387  1.00  0.00     0.173 A 
ATOM     80  C   UNL A   1      40.864  30.843  32.333  1.00  0.00     0.173 A 
ATOM     81  F   UNL A   1      42.877  33.465  30.811  1.00  0.00    -0.203 F 
ATOM     82  C   UNL A   1      40.620  33.472  31.464  1.00  0.00     0.198 A 
ATOM     83  C   UNL A   1      39.641  31.504  32.422  1.00  0.00     0.198 A 
ATOM     84  F   UNL A   1      40.928  29.553  32.692  1.00  0.00    -0.203 F 
ATOM     85  F   UNL A   1      40.490  34.707  30.963  1.00  0.00    -0.200 F 
ATOM     86  C   UNL A   1      39.507  32.797  31.937  1.00  0.00     0.200 A 
ATOM     87  F   UNL A   1      38.562  30.850  32.874  1.00  0.00    -0.200 F 
ATOM     88  F   UNL A   1      38.300  33.372  31.865  1.00  0.00    -0.200 F 
ENDBRANCH  54  78
BRANCH  66  89
ATOM     89  C   UNL A   1      45.204  25.309  33.000  1.00  0.00     0.064 A 
ATOM     90  C   UNL A   1      46.531  24.884  33.184  1.00  0.00     0.173 A 
ATOM     91  C   UNL A   1      44.273  24.841  33.954  1.00  0.00     0.173 A 
ATOM     92  F   UNL A   1      47.528  25.370  32.431  1.00  0.00    -0.203 F 
ATOM     93  C   UNL A   1      46.885  23.981  34.188  1.00  0.00     0.198 A 
ATOM     94  C   UNL A   1      44.640  23.983  34.991  1.00  0.00     0.198 A 
ATOM     95  F   UNL A   1      42.986  25.217  33.916  1.00  0.00    -0.203 F 
ATOM     96  F   UNL A   1      48.154  23.561  34.285  1.00  0.00    -0.200 F 
ATOM     97  C   UNL A   1      45.942  23.534  35.093  1.00  0.00     0.200 A 
ATOM     98  F   UNL A   1      43.727  23.603  35.896  1.00  0.00    -0.200 F 
ATOM     99  F   UNL A   1      46.290  22.691  36.073  1.00  0.00    -0.200 F 
ENDBRANCH  66  89
ENDBRANCH  40  41
ENDBRANCH  32  35
ENDBRANCH  30  31
ENDBRANCH   1  30
TORSDOF 12
ENDMDL
MODEL 2
REMARK VINA RESULT:     -14.7      1.864      2.681
REMARK SMILES Cc1ccccc1[C@@H]1[NH2+][C@@H](C(=O)NCCCCNC(=O)c2ccc(-c3c4nc(c(-c5c(F)c(F)c(F)c(F)c5F)c5ccc([nH]5)c(-c5c(F)c(F)c(F)c(F)c5F)c5nc(c(-c6c(F)c(F)c(F)c(F)c6F)c6ccc3[nH]6)C=C5)C=C4)cc2)CC2=c3ccccc3=N[C@@H]21
REMARK SMILES IDX 16 1 15 2 14 3 13 4 11 5 12 6 10 8 8 9 9 10 93 11 85 14
REMARK SMILES IDX 92 15 84 16 86 17 91 18 87 19 90 20 88 21 89 22 7 23 1 24
REMARK SMILES IDX 2 25 3 26 4 27 6 28 5 29 17 30 18 31 19 32 20 34 21 35 22 36
REMARK SMILES IDX 83 37 23 38 82 39 24 40 25 41 26 42 76 43 27 44 81 45 75 46
REMARK SMILES IDX 77 47 28 48 80 49 74 50 73 51 29 53 61 54 41 55 60 56 42 57
REMARK SMILES IDX 45 58 59 59 78 60 43 61 44 62 58 64 79 65 46 66 30 67 31 68
REMARK SMILES IDX 39 69 32 70 33 71 37 72 40 73 34 74 35 75 38 76 36 77 62 78
REMARK SMILES IDX 63 79 71 80 64 81 65 82 69 83 72 84 66 85 67 86 70 87 68 88
REMARK SMILES IDX 47 89 48 90 56 91 49 92 50 93 54 94 57 95 51 96 52 97 55 98
REMARK SMILES IDX 53 99
REMARK H PARENT 13 7 9 12 9 13 18 33 77 52 45 63
REMARK Flexibility Score: inf
ROOT
ATOM      1  C   UNL A   1      32.644  28.983  27.576  1.00  0.00     0.023 C 
ENDROOT
BRANCH   1   2
ATOM      2  C   UNL A   1      31.969  28.050  26.534  1.00  0.00     0.023 C 
BRANCH   2   3
ATOM      3  C   UNL A   1      32.124  26.495  26.563  1.00  0.00     0.116 C 
BRANCH   3   4
ATOM      4  N   UNL A   1      31.107  25.456  26.824  1.00  0.00    -0.351 N 
ATOM      5  C   UNL A   1      31.070  24.085  26.583  1.00  0.00     0.278 C 
ATOM      6  O   UNL A   1      30.359  23.341  27.251  1.00  0.00    -0.268 OA
ATOM      7  H   UNL A   1      30.291  25.802  27.253  1.00  0.00     0.163 HD
BRANCH   5   8
ATOM      8  C   UNL A   1      31.900  23.623  25.406  1.00  0.00     0.277 C 
ATOM      9  C   UNL A   1      31.595  24.948  23.323  1.00  0.00     0.243 C 
ATOM     10  N   UNL A   1      32.160  24.871  24.676  1.00  0.00    -0.327 N 
ATOM     11  C   UNL A   1      32.579  23.939  22.559  1.00  0.00     0.196 C 
ATOM     12  H   UNL A   1      31.771  25.641  25.222  1.00  0.00     0.347 HD
ATOM     13  H   UNL A   1      33.172  24.916  24.556  1.00  0.00     0.347 HD
ATOM     14  C   UNL A   1      32.575  22.598  23.360  1.00  0.00    -0.024 C 
ATOM     15  N   UNL A   1      34.028  24.361  22.667  1.00  0.00    -0.270 NA
ATOM     16  C   UNL A   1      31.500  22.478  24.451  1.00  0.00     0.109 C 
ATOM     17  C   UNL A   1      33.821  22.180  23.641  1.00  0.00     0.002 A 
ATOM     18  C   UNL A   1      34.625  23.368  23.269  1.00  0.00     0.066 A 
ATOM     19  C   UNL A   1      34.286  21.275  24.666  1.00  0.00     0.010 A 
ATOM     20  C   UNL A   1      36.017  23.398  23.802  1.00  0.00     0.028 A 
ATOM     21  C   UNL A   1      35.506  21.443  25.198  1.00  0.00     0.001 A 
ATOM     22  C   UNL A   1      36.391  22.486  24.720  1.00  0.00     0.002 A 
BRANCH   9  23
ATOM     23  C   UNL A   1      31.255  26.441  23.082  1.00  0.00     0.015 A 
ATOM     24  C   UNL A   1      28.832  26.328  23.881  1.00  0.00     0.045 C 
ATOM     25  C   UNL A   1      30.032  27.065  23.370  1.00  0.00    -0.042 A 
ATOM     26  C   UNL A   1      29.942  28.485  23.333  1.00  0.00     0.004 A 
ATOM     27  C   UNL A   1      31.029  29.301  23.016  1.00  0.00     0.000 A 
ATOM     28  C   UNL A   1      32.347  27.329  22.810  1.00  0.00     0.010 A 
ATOM     29  C   UNL A   1      32.246  28.717  22.751  1.00  0.00     0.001 A 
ENDBRANCH   9  23
ENDBRANCH   5   8
ENDBRANCH   3   4
ENDBRANCH   2   3
ENDBRANCH   1   2
BRANCH   1  30
ATOM     30  C   UNL A   1      33.460  30.111  26.978  1.00  0.00     0.116 C 
BRANCH  30  31
ATOM     31  N   UNL A   1      33.881  31.155  27.915  1.00  0.00    -0.352 N 
ATOM     32  C   UNL A   1      35.008  31.151  28.733  1.00  0.00     0.251 C 
ATOM     33  H   UNL A   1      33.302  31.948  27.974  1.00  0.00     0.163 HD
ATOM     34  O   UNL A   1      35.243  32.035  29.528  1.00  0.00    -0.269 OA
BRANCH  32  35
ATOM     35  C   UNL A   1      35.980  30.055  28.502  1.00  0.00     0.039 A 
ATOM     36  C   UNL A   1      36.446  29.389  29.638  1.00  0.00     0.014 A 
ATOM     37  C   UNL A   1      36.700  30.051  27.309  1.00  0.00     0.014 A 
ATOM     38  C   UNL A   1      37.766  28.952  29.660  1.00  0.00     0.010 A 
ATOM     39  C   UNL A   1      38.040  29.703  27.367  1.00  0.00     0.010 A 
ATOM     40  C   UNL A   1      38.592  29.227  28.565  1.00  0.00    -0.014 A 
BRANCH  40  41
ATOM     41  C   UNL A   1      40.047  29.123  28.649  1.00  0.00     0.031 A 
ATOM     42  C   UNL A   1      40.714  27.917  28.126  1.00  0.00     0.074 A 
ATOM     43  C   UNL A   1      40.815  30.013  29.319  1.00  0.00     0.049 A 
ATOM     44  N   UNL A   1      41.680  27.319  28.743  1.00  0.00    -0.248 NA
ATOM     45  C   UNL A   1      40.303  27.260  26.895  1.00  0.00     0.031 C 
ATOM     46  C   UNL A   1      42.276  30.065  29.351  1.00  0.00     0.029 A 
ATOM     47  N   UNL A   1      40.430  30.958  30.255  1.00  0.00    -0.354 N 
ATOM     48  C   UNL A   1      42.174  26.362  27.893  1.00  0.00     0.074 A 
ATOM     49  C   UNL A   1      41.244  26.318  26.786  1.00  0.00     0.031 C 
ATOM     50  C   UNL A   1      42.669  30.807  30.398  1.00  0.00     0.029 A 
ATOM     51  C   UNL A   1      41.486  31.198  31.142  1.00  0.00     0.049 A 
ATOM     52  H   UNL A   1      39.550  31.395  30.291  1.00  0.00     0.167 HD
ATOM     53  C   UNL A   1      43.390  25.795  28.132  1.00  0.00     0.037 A 
ATOM     54  C   UNL A   1      41.335  31.136  32.496  1.00  0.00     0.037 A 
ATOM     55  C   UNL A   1      44.047  26.368  29.301  1.00  0.00     0.049 A 
ATOM     56  C   UNL A   1      42.164  30.056  33.144  1.00  0.00     0.074 A 
ATOM     57  C   UNL A   1      44.994  27.371  29.423  1.00  0.00     0.029 A 
ATOM     58  N   UNL A   1      43.544  26.148  30.580  1.00  0.00    -0.354 N 
ATOM     59  N   UNL A   1      42.796  29.135  32.476  1.00  0.00    -0.248 NA
ATOM     60  C   UNL A   1      42.256  29.864  34.590  1.00  0.00     0.031 C 
ATOM     61  C   UNL A   1      45.059  27.760  30.779  1.00  0.00     0.029 A 
ATOM     62  C   UNL A   1      44.145  27.001  31.489  1.00  0.00     0.049 A 
ATOM     63  H   UNL A   1      42.858  25.479  30.807  1.00  0.00     0.167 HD
ATOM     64  C   UNL A   1      43.251  28.182  33.346  1.00  0.00     0.074 A 
ATOM     65  C   UNL A   1      42.946  28.713  34.660  1.00  0.00     0.031 C 
ATOM     66  C   UNL A   1      43.780  27.007  32.897  1.00  0.00     0.037 A 
BRANCH  53  67
ATOM     67  C   UNL A   1      44.094  24.976  27.079  1.00  0.00     0.064 A 
ATOM     68  C   UNL A   1      43.865  23.593  26.945  1.00  0.00     0.173 A 
ATOM     69  C   UNL A   1      45.069  25.506  26.213  1.00  0.00     0.173 A 
ATOM     70  F   UNL A   1      42.881  22.976  27.610  1.00  0.00    -0.203 F 
ATOM     71  C   UNL A   1      44.652  22.783  26.124  1.00  0.00     0.198 A 
ATOM     72  C   UNL A   1      45.899  24.691  25.439  1.00  0.00     0.198 A 
ATOM     73  F   UNL A   1      45.230  26.833  26.089  1.00  0.00    -0.203 F 
ATOM     74  F   UNL A   1      44.403  21.468  26.050  1.00  0.00    -0.200 F 
ATOM     75  C   UNL A   1      45.700  23.325  25.408  1.00  0.00     0.200 A 
ATOM     76  F   UNL A   1      46.901  25.237  24.736  1.00  0.00    -0.200 F 
ATOM     77  F   UNL A   1      46.501  22.539  24.677  1.00  0.00    -0.200 F 
ENDBRANCH  53  67
BRANCH  54  78
ATOM     78  C   UNL A   1      39.966  31.504  32.935  1.00  0.00     0.064 A 
ATOM     79  C   UNL A   1      39.599  32.857  32.836  1.00  0.00     0.173 A 
ATOM     80  C   UNL A   1      38.944  30.546  32.984  1.00  0.00     0.173 A 
ATOM     81  F   UNL A   1      40.543  33.809  32.785  1.00  0.00    -0.203 F 
ATOM     82  C   UNL A   1      38.276  33.218  32.608  1.00  0.00     0.198 A 
ATOM     83  C   UNL A   1      37.619  30.919  32.771  1.00  0.00     0.198 A 
ATOM     84  F   UNL A   1      39.240  29.243  33.087  1.00  0.00    -0.203 F 
ATOM     85  F   UNL A   1      37.976  34.495  32.341  1.00  0.00    -0.200 F 
ATOM     86  C   UNL A   1      37.294  32.245  32.529  1.00  0.00     0.200 A 
ATOM     87  F   UNL A   1      36.668  29.977  32.689  1.00  0.00    -0.200 F 
ATOM     88  F   UNL A   1      36.053  32.582  32.158  1.00  0.00    -0.200 F 
ENDBRANCH  54  78
BRANCH  66  89
ATOM     89  C   UNL A   1      44.088  25.817  33.766  1.00  0.00     0.064 A 
ATOM     90  C   UNL A   1      45.375  25.274  33.919  1.00  0.00     0.173 A 
ATOM     91  C   UNL A   1      43.080  25.243  34.573  1.00  0.00     0.173 A 
ATOM     92  F   UNL A   1      46.438  25.823  33.314  1.00  0.00    -0.203 F 
ATOM     93  C   UNL A   1      45.620  24.176  34.745  1.00  0.00     0.198 A 
ATOM     94  C   UNL A   1      43.339  24.182  35.441  1.00  0.00     0.198 A 
ATOM     95  F   UNL A   1      41.823  25.708  34.556  1.00  0.00    -0.203 F 
ATOM     96  F   UNL A   1      46.854  23.657  34.812  1.00  0.00    -0.200 F 
ATOM     97  C   UNL A   1      44.604  23.632  35.509  1.00  0.00     0.200 A 
ATOM     98  F   UNL A   1      42.358  23.703  36.219  1.00  0.00    -0.200 F 
ATOM     99  F   UNL A   1      44.849  22.597  36.323  1.00  0.00    -0.200 F 
ENDBRANCH  66  89
ENDBRANCH  40  41
ENDBRANCH  32  35
ENDBRANCH  30  31
ENDBRANCH   1  30
TORSDOF 12
ENDMDL
MODEL 3
REMARK VINA RESULT:     -14.5      3.636      9.719
REMARK SMILES Cc1ccccc1[C@@H]1[NH2+][C@@H](C(=O)NCCCCNC(=O)c2ccc(-c3c4nc(c(-c5c(F)c(F)c(F)c(F)c5F)c5ccc([nH]5)c(-c5c(F)c(F)c(F)c(F)c5F)c5nc(c(-c6c(F)c(F)c(F)c(F)c6F)c6ccc3[nH]6)C=C5)C=C4)cc2)CC2=c3ccccc3=N[C@@H]21
REMARK SMILES IDX 16 1 15 2 14 3 13 4 11 5 12 6 10 8 8 9 9 10 93 11 85 14
REMARK SMILES IDX 92 15 84 16 86 17 91 18 87 19 90 20 88 21 89 22 7 23 1 24
REMARK SMILES IDX 2 25 3 26 4 27 6 28 5 29 17 30 18 31 19 32 20 34 21 35 22 36
REMARK SMILES IDX 83 37 23 38 82 39 24 40 25 41 26 42 76 43 27 44 81 45 75 46
REMARK SMILES IDX 77 47 28 48 80 49 74 50 73 51 29 53 61 54 41 55 60 56 42 57
REMARK SMILES IDX 45 58 59 59 78 60 43 61 44 62 58 64 79 65 46 66 30 67 31 68
REMARK SMILES IDX 39 69 32 70 33 71 37 72 40 73 34 74 35 75 38 76 36 77 62 78
REMARK SMILES IDX 63 79 71 80 64 81 65 82 69 83 72 84 66 85 67 86 70 87 68 88
REMARK SMILES IDX 47 89 48 90 56 91 49 92 50 93 54 94 57 95 51 96 52 97 55 98
REMARK SMILES IDX 53 99
REMARK H PARENT 13 7 9 12 9 13 18 33 77 52 45 63
REMARK Flexibility Score: inf
ROOT
ATOM      1  C   UNL A   1      40.255  21.842  27.109  1.00  0.00     0.023 C 
ENDROOT
BRANCH   1   2
ATOM      2  C   UNL A   1      39.515  21.265  25.872  1.00  0.00     0.023 C 
BRANCH   2   3
ATOM      3  C   UNL A   1      38.043  21.649  25.509  1.00  0.00     0.116 C 
BRANCH   3   4
ATOM      4  N   UNL A   1      37.512  22.267  24.277  1.00  0.00    -0.351 N 
ATOM      5  C   UNL A   1      36.219  22.522  23.827  1.00  0.00     0.278 C 
ATOM      6  O   UNL A   1      35.993  23.414  23.016  1.00  0.00    -0.268 OA
ATOM      7  H   UNL A   1      38.212  22.554  23.647  1.00  0.00     0.163 HD
BRANCH   5   8
ATOM      8  C   UNL A   1      35.164  21.575  24.353  1.00  0.00     0.277 C 
ATOM      9  C   UNL A   1      33.059  22.664  25.110  1.00  0.00     0.243 C 
ATOM     10  N   UNL A   1      33.908  22.244  23.988  1.00  0.00    -0.327 N 
ATOM     11  C   UNL A   1      32.513  21.235  25.588  1.00  0.00     0.196 C 
ATOM     12  H   UNL A   1      34.142  23.075  23.445  1.00  0.00     0.347 HD
ATOM     13  H   UNL A   1      33.365  21.551  23.473  1.00  0.00     0.347 HD
ATOM     14  C   UNL A   1      33.758  20.319  25.816  1.00  0.00    -0.024 C 
ATOM     15  N   UNL A   1      31.787  20.500  24.482  1.00  0.00    -0.270 NA
ATOM     16  C   UNL A   1      35.120  21.030  25.797  1.00  0.00     0.109 C 
ATOM     17  C   UNL A   1      33.641  19.146  25.171  1.00  0.00     0.002 A 
ATOM     18  C   UNL A   1      32.460  19.395  24.311  1.00  0.00     0.066 A 
ATOM     19  C   UNL A   1      34.660  18.208  24.761  1.00  0.00     0.010 A 
ATOM     20  C   UNL A   1      32.271  18.439  23.183  1.00  0.00     0.028 A 
ATOM     21  C   UNL A   1      34.478  17.471  23.654  1.00  0.00     0.001 A 
ATOM     22  C   UNL A   1      33.248  17.558  22.893  1.00  0.00     0.002 A 
BRANCH   9  23
ATOM     23  C   UNL A   1      32.326  23.945  24.640  1.00  0.00     0.015 A 
ATOM     24  C   UNL A   1      34.149  25.599  25.322  1.00  0.00     0.045 C 
ATOM     25  C   UNL A   1      32.832  25.254  24.699  1.00  0.00    -0.042 A 
ATOM     26  C   UNL A   1      32.158  26.299  24.005  1.00  0.00     0.004 A 
ATOM     27  C   UNL A   1      30.998  26.083  23.260  1.00  0.00     0.000 A 
ATOM     28  C   UNL A   1      31.161  23.775  23.823  1.00  0.00     0.010 A 
ATOM     29  C   UNL A   1      30.492  24.807  23.168  1.00  0.00     0.001 A 
ENDBRANCH   9  23
ENDBRANCH   5   8
ENDBRANCH   3   4
ENDBRANCH   2   3
ENDBRANCH   1   2
BRANCH   1  30
ATOM     30  C   UNL A   1      40.448  23.345  27.085  1.00  0.00     0.116 C 
BRANCH  30  31
ATOM     31  N   UNL A   1      41.636  23.820  26.372  1.00  0.00    -0.352 N 
ATOM     32  C   UNL A   1      41.851  25.088  25.840  1.00  0.00     0.251 C 
ATOM     33  H   UNL A   1      42.365  23.168  26.257  1.00  0.00     0.163 HD
ATOM     34  O   UNL A   1      42.845  25.373  25.208  1.00  0.00    -0.269 OA
BRANCH  32  35
ATOM     35  C   UNL A   1      40.844  26.121  26.184  1.00  0.00     0.039 A 
ATOM     36  C   UNL A   1      41.157  27.435  25.829  1.00  0.00     0.014 A 
ATOM     37  C   UNL A   1      39.926  25.838  27.194  1.00  0.00     0.014 A 
ATOM     38  C   UNL A   1      40.758  28.466  26.672  1.00  0.00     0.010 A 
ATOM     39  C   UNL A   1      39.613  26.855  28.082  1.00  0.00     0.010 A 
ATOM     40  C   UNL A   1      40.095  28.153  27.863  1.00  0.00    -0.014 A 
BRANCH  40  41
ATOM     41  C   UNL A   1      39.960  29.120  28.950  1.00  0.00     0.031 A 
ATOM     42  C   UNL A   1      38.874  30.115  28.898  1.00  0.00     0.074 A 
ATOM     43  C   UNL A   1      40.873  29.253  29.939  1.00  0.00     0.049 A 
ATOM     44  N   UNL A   1      39.037  31.359  29.209  1.00  0.00    -0.248 NA
ATOM     45  C   UNL A   1      37.532  29.794  28.435  1.00  0.00     0.031 C 
ATOM     46  C   UNL A   1      40.763  30.095  31.131  1.00  0.00     0.029 A 
ATOM     47  N   UNL A   1      42.174  28.781  29.989  1.00  0.00    -0.354 N 
ATOM     48  C   UNL A   1      37.795  31.941  29.224  1.00  0.00     0.074 A 
ATOM     49  C   UNL A   1      36.901  30.947  28.672  1.00  0.00     0.031 C 
ATOM     50  C   UNL A   1      41.982  30.269  31.663  1.00  0.00     0.029 A 
ATOM     51  C   UNL A   1      42.948  29.622  30.796  1.00  0.00     0.049 A 
ATOM     52  H   UNL A   1      42.503  27.977  29.527  1.00  0.00     0.167 HD
ATOM     53  C   UNL A   1      37.611  33.150  29.827  1.00  0.00     0.037 A 
ATOM     54  C   UNL A   1      44.133  30.154  30.377  1.00  0.00     0.037 A 
ATOM     55  C   UNL A   1      38.832  33.647  30.450  1.00  0.00     0.049 A 
ATOM     56  C   UNL A   1      44.119  31.660  30.299  1.00  0.00     0.074 A 
ATOM     57  C   UNL A   1      39.293  33.574  31.755  1.00  0.00     0.029 A 
ATOM     58  N   UNL A   1      39.916  34.048  29.675  1.00  0.00    -0.354 N 
ATOM     59  N   UNL A   1      43.037  32.377  30.409  1.00  0.00    -0.248 NA
ATOM     60  C   UNL A   1      45.296  32.466  29.982  1.00  0.00     0.031 C 
ATOM     61  C   UNL A   1      40.660  33.927  31.764  1.00  0.00     0.029 A 
ATOM     62  C   UNL A   1      41.041  34.210  30.464  1.00  0.00     0.049 A 
ATOM     63  H   UNL A   1      39.886  34.198  28.702  1.00  0.00     0.167 HD
ATOM     64  C   UNL A   1      43.319  33.670  30.061  1.00  0.00     0.074 A 
ATOM     65  C   UNL A   1      44.755  33.690  29.864  1.00  0.00     0.031 C 
ATOM     66  C   UNL A   1      42.327  34.593  29.902  1.00  0.00     0.037 A 
BRANCH  53  67
ATOM     67  C   UNL A   1      36.229  33.675  30.128  1.00  0.00     0.064 A 
ATOM     68  C   UNL A   1      35.391  34.169  29.110  1.00  0.00     0.173 A 
ATOM     69  C   UNL A   1      35.710  33.776  31.432  1.00  0.00     0.173 A 
ATOM     70  F   UNL A   1      35.696  34.025  27.815  1.00  0.00    -0.203 F 
ATOM     71  C   UNL A   1      34.201  34.846  29.389  1.00  0.00     0.198 A 
ATOM     72  C   UNL A   1      34.554  34.506  31.718  1.00  0.00     0.198 A 
ATOM     73  F   UNL A   1      36.307  33.154  32.461  1.00  0.00    -0.203 F 
ATOM     74  F   UNL A   1      33.451  35.314  28.381  1.00  0.00    -0.200 F 
ATOM     75  C   UNL A   1      33.807  35.056  30.695  1.00  0.00     0.200 A 
ATOM     76  F   UNL A   1      34.177  34.686  32.992  1.00  0.00    -0.200 F 
ATOM     77  F   UNL A   1      32.706  35.769  30.964  1.00  0.00    -0.200 F 
ENDBRANCH  53  67
BRANCH  54  78
ATOM     78  C   UNL A   1      44.840  29.281  29.407  1.00  0.00     0.064 A 
ATOM     79  C   UNL A   1      45.506  28.155  29.920  1.00  0.00     0.173 A 
ATOM     80  C   UNL A   1      44.484  29.276  28.052  1.00  0.00     0.173 A 
ATOM     81  F   UNL A   1      45.865  28.115  31.213  1.00  0.00    -0.203 F 
ATOM     82  C   UNL A   1      45.642  27.003  29.156  1.00  0.00     0.198 A 
ATOM     83  C   UNL A   1      44.640  28.122  27.288  1.00  0.00     0.198 A 
ATOM     84  F   UNL A   1      43.855  30.329  27.511  1.00  0.00    -0.203 F 
ATOM     85  F   UNL A   1      46.119  25.887  29.720  1.00  0.00    -0.200 F 
ATOM     86  C   UNL A   1      45.166  26.971  27.855  1.00  0.00     0.200 A 
ATOM     87  F   UNL A   1      44.175  28.089  26.030  1.00  0.00    -0.200 F 
ATOM     88  F   UNL A   1      45.160  25.817  27.177  1.00  0.00    -0.200 F 
ENDBRANCH  54  78
BRANCH  66  89
ATOM     89  C   UNL A   1      42.515  35.960  29.302  1.00  0.00     0.064 A 
ATOM     90  C   UNL A   1      41.917  36.374  28.099  1.00  0.00     0.173 A 
ATOM     91  C   UNL A   1      43.239  36.953  29.999  1.00  0.00     0.173 A 
ATOM     92  F   UNL A   1      41.091  35.567  27.419  1.00  0.00    -0.203 F 
ATOM     93  C   UNL A   1      42.108  37.658  27.582  1.00  0.00     0.198 A 
ATOM     94  C   UNL A   1      43.381  38.252  29.509  1.00  0.00     0.198 A 
ATOM     95  F   UNL A   1      43.812  36.695  31.184  1.00  0.00    -0.203 F 
ATOM     96  F   UNL A   1      41.564  37.985  26.402  1.00  0.00    -0.200 F 
ATOM     97  C   UNL A   1      42.836  38.596  28.288  1.00  0.00     0.200 A 
ATOM     98  F   UNL A   1      44.040  39.168  30.232  1.00  0.00    -0.200 F 
ATOM     99  F   UNL A   1      42.992  39.835  27.805  1.00  0.00    -0.200 F 
ENDBRANCH  66  89
ENDBRANCH  40  41
ENDBRANCH  32  35
ENDBRANCH  30  31
ENDBRANCH   1  30
TORSDOF 12
ENDMDL
