MODEL 1
REMARK VINA RESULT:     -14.0      0.000      0.000
REMARK SMILES O=C(N/N=C/c1ccccc1O)C(=O)Nc1cccc(C(=O)NCCCCNC(=O)c2ccc(-c3c4nc(c(-c5c(F)c(F)c(F)c(F)c5F)c5ccc([nH]5)c(-c5c(F)c(F)c(F)c(F)c5F)c5nc(c(-c6c(F)c(F)c(F)c(F)c6F)c6ccc3[nH]6)C=C5)C=C4)cc2)c1
REMARK SMILES IDX 24 1 23 2 21 3 22 4 20 6 16 7 17 8 94 9 18 10 19 11 15 12
REMARK SMILES IDX 13 13 14 14 2 16 1 17 3 18 4 20 5 21 6 22 7 23 11 24 8 25
REMARK SMILES IDX 10 26 9 27 12 28 25 30 26 31 27 32 28 33 29 34 30 36 31 37
REMARK SMILES IDX 32 38 93 39 33 40 92 41 34 42 35 43 36 44 86 45 37 46 91 47
REMARK SMILES IDX 85 48 87 49 38 50 90 51 84 52 83 53 39 55 71 56 51 57 70 58
REMARK SMILES IDX 52 59 55 60 69 61 88 62 53 63 54 64 68 66 89 67 56 68 40 69
REMARK SMILES IDX 41 70 49 71 42 72 43 73 47 74 50 75 44 76 45 77 48 78 46 79
REMARK SMILES IDX 72 80 73 81 81 82 74 83 75 84 79 85 82 86 76 87 77 88 80 89
REMARK SMILES IDX 78 90 57 91 58 92 66 93 59 94 60 95 64 96 67 97 61 98 62 99
REMARK SMILES IDX 65 100 63 101
REMARK H PARENT 23 5 15 15 3 19 12 29 28 35 87 54 55 65
REMARK Flexibility Score: inf
ROOT
ATOM      1  C   UNL A   1      35.907  21.589  25.251  1.00  0.00     0.116 C 
ENDROOT
BRANCH   1   2
ATOM      2  N   UNL A   1      35.175  20.343  25.344  1.00  0.00    -0.352 N 
ATOM      3  C   UNL A   1      33.852  20.069  25.129  1.00  0.00     0.251 C 
ATOM      4  O   UNL A   1      33.463  18.898  25.159  1.00  0.00    -0.269 OA
ATOM      5  H   UNL A   1      35.719  19.565  25.605  1.00  0.00     0.163 HD
BRANCH   3   6
ATOM      6  C   UNL A   1      32.822  21.109  24.864  1.00  0.00     0.041 A 
ATOM      7  C   UNL A   1      31.035  23.578  25.679  1.00  0.00     0.042 A 
ATOM      8  C   UNL A   1      30.806  24.023  23.915  1.00  0.00     0.026 A 
ATOM      9  C   UNL A   1      31.953  22.083  26.153  1.00  0.00     0.040 A 
ATOM     10  C   UNL A   1      31.516  22.935  22.628  1.00  0.00     0.003 A 
ATOM     11  C   UNL A   1      32.554  21.524  23.104  1.00  0.00     0.014 A 
BRANCH   7  12
ATOM     12  N   UNL A   1      31.067  24.670  26.546  1.00  0.00    -0.318 N 
ATOM     13  C   UNL A   1      32.066  25.634  26.618  1.00  0.00     0.315 C 
ATOM     14  O   UNL A   1      31.845  26.622  27.325  1.00  0.00    -0.263 OA
ATOM     15  H   UNL A   1      30.309  24.767  27.166  1.00  0.00     0.170 HD
BRANCH  13  16
ATOM     16  C   UNL A   1      33.403  25.614  25.831  1.00  0.00     0.329 C 
ATOM     17  O   UNL A   1      34.148  24.642  25.950  1.00  0.00    -0.262 OA
ATOM     18  N   UNL A   1      33.840  26.735  25.112  1.00  0.00    -0.239 N 
ATOM     19  H   UNL A   1      34.566  27.316  25.435  1.00  0.00     0.194 HD
BRANCH  18  20
ATOM     20  N   UNL A   1      33.184  26.969  23.926  1.00  0.00    -0.180 NA
ATOM     21  C   UNL A   1      32.296  28.019  23.951  1.00  0.00     0.145 C 
BRANCH  21  22
ATOM     22  C   UNL A   1      30.370  28.470  23.155  1.00  0.00     0.036 A 
ATOM     23  C   UNL A   1      29.043  27.766  23.454  1.00  0.00     0.013 A 
ATOM     24  C   UNL A   1      29.818  29.548  22.214  1.00  0.00     0.124 A 
ATOM     25  C   UNL A   1      27.690  28.165  23.244  1.00  0.00     0.001 A 
ATOM     26  C   UNL A   1      28.461  29.985  22.029  1.00  0.00     0.047 A 
ATOM     27  C   UNL A   1      27.400  29.330  22.597  1.00  0.00     0.004 A 
BRANCH  24  28
ATOM     28  O   UNL A   1      30.513  30.183  21.181  1.00  0.00    -0.507 OA
ATOM     29  H   UNL A   1      30.767  31.080  21.270  1.00  0.00     0.293 HD
ENDBRANCH  24  28
ENDBRANCH  21  22
ENDBRANCH  18  20
ENDBRANCH  13  16
ENDBRANCH   7  12
ENDBRANCH   3   6
ENDBRANCH   1   2
BRANCH   1  30
ATOM     30  C   UNL A   1      37.267  21.396  24.585  1.00  0.00     0.023 C 
BRANCH  30  31
ATOM     31  C   UNL A   1      38.007  20.138  25.031  1.00  0.00     0.023 C 
BRANCH  31  32
ATOM     32  C   UNL A   1      39.307  20.395  25.783  1.00  0.00     0.116 C 
BRANCH  32  33
ATOM     33  N   UNL A   1      40.175  19.230  25.876  1.00  0.00    -0.352 N 
ATOM     34  C   UNL A   1      41.527  19.206  26.124  1.00  0.00     0.251 C 
ATOM     35  H   UNL A   1      39.742  18.355  25.747  1.00  0.00     0.163 HD
ATOM     36  O   UNL A   1      42.167  18.164  26.071  1.00  0.00    -0.269 OA
BRANCH  34  37
ATOM     37  C   UNL A   1      42.208  20.481  26.412  1.00  0.00     0.039 A 
ATOM     38  C   UNL A   1      42.660  21.261  25.345  1.00  0.00     0.014 A 
ATOM     39  C   UNL A   1      42.323  20.935  27.729  1.00  0.00     0.014 A 
ATOM     40  C   UNL A   1      43.163  22.537  25.597  1.00  0.00     0.010 A 
ATOM     41  C   UNL A   1      42.753  22.233  27.969  1.00  0.00     0.010 A 
ATOM     42  C   UNL A   1      43.175  23.046  26.906  1.00  0.00    -0.014 A 
BRANCH  42  43
ATOM     43  C   UNL A   1      43.624  24.431  27.186  1.00  0.00     0.031 A 
ATOM     44  C   UNL A   1      42.647  25.442  27.712  1.00  0.00     0.074 A 
ATOM     45  C   UNL A   1      44.889  24.791  26.895  1.00  0.00     0.049 A 
ATOM     46  N   UNL A   1      42.824  26.716  27.953  1.00  0.00    -0.248 NA
ATOM     47  C   UNL A   1      41.281  24.965  27.974  1.00  0.00     0.031 C 
ATOM     48  C   UNL A   1      45.910  23.911  26.324  1.00  0.00     0.029 A 
ATOM     49  N   UNL A   1      45.528  25.999  27.029  1.00  0.00    -0.354 N 
ATOM     50  C   UNL A   1      41.591  27.193  28.376  1.00  0.00     0.074 A 
ATOM     51  C   UNL A   1      40.661  26.087  28.306  1.00  0.00     0.031 C 
ATOM     52  C   UNL A   1      47.053  24.601  26.178  1.00  0.00     0.029 A 
ATOM     53  C   UNL A   1      46.836  25.977  26.613  1.00  0.00     0.049 A 
ATOM     54  H   UNL A   1      45.089  26.802  27.389  1.00  0.00     0.167 HD
ATOM     55  C   UNL A   1      41.271  28.435  28.809  1.00  0.00     0.037 A 
ATOM     56  C   UNL A   1      47.755  26.962  26.583  1.00  0.00     0.037 A 
ATOM     57  C   UNL A   1      42.208  29.521  28.906  1.00  0.00     0.049 A 
ATOM     58  C   UNL A   1      47.376  28.330  27.081  1.00  0.00     0.074 A 
ATOM     59  C   UNL A   1      42.002  30.799  29.394  1.00  0.00     0.029 A 
ATOM     60  N   UNL A   1      43.535  29.455  28.503  1.00  0.00    -0.354 N 
ATOM     61  N   UNL A   1      46.227  28.752  27.551  1.00  0.00    -0.248 NA
ATOM     62  C   UNL A   1      48.426  29.359  27.053  1.00  0.00     0.031 C 
ATOM     63  C   UNL A   1      43.192  31.519  29.250  1.00  0.00     0.029 A 
ATOM     64  C   UNL A   1      44.154  30.676  28.715  1.00  0.00     0.049 A 
ATOM     65  H   UNL A   1      43.971  28.659  28.123  1.00  0.00     0.167 HD
ATOM     66  C   UNL A   1      46.421  30.080  27.899  1.00  0.00     0.074 A 
ATOM     67  C   UNL A   1      47.803  30.393  27.599  1.00  0.00     0.031 C 
ATOM     68  C   UNL A   1      45.534  30.964  28.419  1.00  0.00     0.037 A 
BRANCH  55  69
ATOM     69  C   UNL A   1      39.848  28.680  29.217  1.00  0.00     0.064 A 
ATOM     70  C   UNL A   1      39.411  28.455  30.531  1.00  0.00     0.173 A 
ATOM     71  C   UNL A   1      38.915  29.171  28.291  1.00  0.00     0.173 A 
ATOM     72  F   UNL A   1      40.260  27.973  31.452  1.00  0.00    -0.203 F 
ATOM     73  C   UNL A   1      38.087  28.682  30.896  1.00  0.00     0.198 A 
ATOM     74  C   UNL A   1      37.600  29.428  28.666  1.00  0.00     0.198 A 
ATOM     75  F   UNL A   1      39.281  29.408  27.023  1.00  0.00    -0.203 F 
ATOM     76  F   UNL A   1      37.681  28.411  32.144  1.00  0.00    -0.200 F 
ATOM     77  C   UNL A   1      37.184  29.176  29.966  1.00  0.00     0.200 A 
ATOM     78  F   UNL A   1      36.731  29.916  27.770  1.00  0.00    -0.200 F 
ATOM     79  F   UNL A   1      35.912  29.401  30.319  1.00  0.00    -0.200 F 
ENDBRANCH  55  69
BRANCH  56  80
ATOM     80  C   UNL A   1      49.129  26.681  26.093  1.00  0.00     0.064 A 
ATOM     81  C   UNL A   1      49.494  26.975  24.771  1.00  0.00     0.173 A 
ATOM     82  C   UNL A   1      50.101  26.112  26.928  1.00  0.00     0.173 A 
ATOM     83  F   UNL A   1      48.593  27.500  23.929  1.00  0.00    -0.203 F 
ATOM     84  C   UNL A   1      50.774  26.691  24.297  1.00  0.00     0.198 A 
ATOM     85  C   UNL A   1      51.389  25.854  26.460  1.00  0.00     0.198 A 
ATOM     86  F   UNL A   1      49.804  25.817  28.201  1.00  0.00    -0.203 F 
ATOM     87  F   UNL A   1      51.082  26.940  23.018  1.00  0.00    -0.200 F 
ATOM     88  C   UNL A   1      51.721  26.136  25.144  1.00  0.00     0.200 A 
ATOM     89  F   UNL A   1      52.306  25.330  27.285  1.00  0.00    -0.200 F 
ATOM     90  F   UNL A   1      52.952  25.866  24.689  1.00  0.00    -0.200 F 
ENDBRANCH  56  80
BRANCH  68  91
ATOM     91  C   UNL A   1      46.039  32.343  28.729  1.00  0.00     0.064 A 
ATOM     92  C   UNL A   1      46.613  32.653  29.969  1.00  0.00     0.173 A 
ATOM     93  C   UNL A   1      45.986  33.352  27.756  1.00  0.00     0.173 A 
ATOM     94  F   UNL A   1      46.673  31.726  30.937  1.00  0.00    -0.203 F 
ATOM     95  C   UNL A   1      47.096  33.932  30.233  1.00  0.00     0.198 A 
ATOM     96  C   UNL A   1      46.497  34.621  28.012  1.00  0.00     0.198 A 
ATOM     97  F   UNL A   1      45.452  33.103  26.551  1.00  0.00    -0.203 F 
ATOM     98  F   UNL A   1      47.601  34.219  31.440  1.00  0.00    -0.200 F 
ATOM     99  C   UNL A   1      47.046  34.912  29.252  1.00  0.00     0.200 A 
ATOM    100  F   UNL A   1      46.458  35.563  27.060  1.00  0.00    -0.200 F 
ATOM    101  F   UNL A   1      47.519  36.140  29.505  1.00  0.00    -0.200 F 
ENDBRANCH  68  91
ENDBRANCH  42  43
ENDBRANCH  34  37
ENDBRANCH  32  33
ENDBRANCH  31  32
ENDBRANCH  30  31
ENDBRANCH   1  30
TORSDOF 16
ENDMDL
MODEL 2
REMARK VINA RESULT:     -14.0      1.727      4.242
REMARK SMILES O=C(N/N=C/c1ccccc1O)C(=O)Nc1cccc(C(=O)NCCCCNC(=O)c2ccc(-c3c4nc(c(-c5c(F)c(F)c(F)c(F)c5F)c5ccc([nH]5)c(-c5c(F)c(F)c(F)c(F)c5F)c5nc(c(-c6c(F)c(F)c(F)c(F)c6F)c6ccc3[nH]6)C=C5)C=C4)cc2)c1
REMARK SMILES IDX 24 1 23 2 21 3 22 4 20 6 16 7 17 8 94 9 18 10 19 11 15 12
REMARK SMILES IDX 13 13 14 14 2 16 1 17 3 18 4 20 5 21 6 22 7 23 11 24 8 25
REMARK SMILES IDX 10 26 9 27 12 28 25 30 26 31 27 32 28 33 29 34 30 36 31 37
REMARK SMILES IDX 32 38 93 39 33 40 92 41 34 42 35 43 36 44 86 45 37 46 91 47
REMARK SMILES IDX 85 48 87 49 38 50 90 51 84 52 83 53 39 55 71 56 51 57 70 58
REMARK SMILES IDX 52 59 55 60 69 61 88 62 53 63 54 64 68 66 89 67 56 68 40 69
REMARK SMILES IDX 41 70 49 71 42 72 43 73 47 74 50 75 44 76 45 77 48 78 46 79
REMARK SMILES IDX 72 80 73 81 81 82 74 83 75 84 79 85 82 86 76 87 77 88 80 89
REMARK SMILES IDX 78 90 57 91 58 92 66 93 59 94 60 95 64 96 67 97 61 98 62 99
REMARK SMILES IDX 65 100 63 101
REMARK H PARENT 23 5 15 15 3 19 12 29 28 35 87 54 55 65
REMARK Flexibility Score: inf
ROOT
ATOM      1  C   UNL A   1      38.327  23.623  26.132  1.00  0.00     0.116 C 
ENDROOT
BRANCH   1   2
ATOM      2  N   UNL A   1      37.778  23.311  24.828  1.00  0.00    -0.352 N 
ATOM      3  C   UNL A   1      36.481  23.280  24.393  1.00  0.00     0.251 C 
ATOM      4  O   UNL A   1      36.249  23.095  23.195  1.00  0.00    -0.269 OA
ATOM      5  H   UNL A   1      38.447  23.085  24.143  1.00  0.00     0.163 HD
BRANCH   3   6
ATOM      6  C   UNL A   1      35.302  23.450  25.284  1.00  0.00     0.041 A 
ATOM      7  C   UNL A   1      32.576  24.796  26.127  1.00  0.00     0.042 A 
ATOM      8  C   UNL A   1      32.136  23.327  27.133  1.00  0.00     0.026 A 
ATOM      9  C   UNL A   1      34.183  24.903  25.285  1.00  0.00     0.040 A 
ATOM     10  C   UNL A   1      33.344  21.963  27.283  1.00  0.00     0.003 A 
ATOM     11  C   UNL A   1      34.886  22.007  26.326  1.00  0.00     0.014 A 
BRANCH   7  12
ATOM     12  N   UNL A   1      31.484  25.437  25.542  1.00  0.00    -0.318 N 
ATOM     13  C   UNL A   1      30.987  25.213  24.262  1.00  0.00     0.315 C 
ATOM     14  O   UNL A   1      29.912  25.747  23.975  1.00  0.00    -0.263 OA
ATOM     15  H   UNL A   1      31.022  26.114  26.086  1.00  0.00     0.170 HD
BRANCH  13  16
ATOM     16  C   UNL A   1      31.627  24.292  23.190  1.00  0.00     0.329 C 
ATOM     17  O   UNL A   1      32.384  24.788  22.357  1.00  0.00    -0.262 OA
ATOM     18  N   UNL A   1      31.246  22.949  23.066  1.00  0.00    -0.239 N 
ATOM     19  H   UNL A   1      30.668  22.633  22.335  1.00  0.00     0.194 HD
BRANCH  18  20
ATOM     20  N   UNL A   1      31.734  22.103  24.035  1.00  0.00    -0.180 NA
ATOM     21  C   UNL A   1      32.562  21.107  23.572  1.00  0.00     0.145 C 
BRANCH  21  22
ATOM     22  C   UNL A   1      32.922  19.045  23.978  1.00  0.00     0.036 A 
ATOM     23  C   UNL A   1      33.146  17.916  22.968  1.00  0.00     0.013 A 
ATOM     24  C   UNL A   1      33.104  18.213  25.254  1.00  0.00     0.124 A 
ATOM     25  C   UNL A   1      33.698  16.609  23.115  1.00  0.00     0.001 A 
ATOM     26  C   UNL A   1      33.699  16.914  25.415  1.00  0.00     0.047 A 
ATOM     27  C   UNL A   1      34.055  16.137  24.344  1.00  0.00     0.004 A 
BRANCH  24  28
ATOM     28  O   UNL A   1      32.528  18.469  26.501  1.00  0.00    -0.507 OA
ATOM     29  H   UNL A   1      31.809  17.949  26.801  1.00  0.00     0.293 HD
ENDBRANCH  24  28
ENDBRANCH  21  22
ENDBRANCH  18  20
ENDBRANCH  13  16
ENDBRANCH   7  12
ENDBRANCH   3   6
ENDBRANCH   1   2
BRANCH   1  30
ATOM     30  C   UNL A   1      39.554  22.771  26.445  1.00  0.00     0.023 C 
BRANCH  30  31
ATOM     31  C   UNL A   1      39.523  21.379  25.820  1.00  0.00     0.023 C 
BRANCH  31  32
ATOM     32  C   UNL A   1      39.734  20.233  26.801  1.00  0.00     0.116 C 
BRANCH  32  33
ATOM     33  N   UNL A   1      40.643  19.203  26.319  1.00  0.00    -0.352 N 
ATOM     34  C   UNL A   1      41.982  19.328  26.038  1.00  0.00     0.251 C 
ATOM     35  H   UNL A   1      40.251  18.310  26.179  1.00  0.00     0.163 HD
ATOM     36  O   UNL A   1      42.617  18.410  25.534  1.00  0.00    -0.269 OA
BRANCH  34  37
ATOM     37  C   UNL A   1      42.638  20.620  26.313  1.00  0.00     0.039 A 
ATOM     38  C   UNL A   1      43.090  21.389  25.240  1.00  0.00     0.014 A 
ATOM     39  C   UNL A   1      42.727  21.096  27.624  1.00  0.00     0.014 A 
ATOM     40  C   UNL A   1      43.567  22.678  25.477  1.00  0.00     0.010 A 
ATOM     41  C   UNL A   1      43.132  22.405  27.849  1.00  0.00     0.010 A 
ATOM     42  C   UNL A   1      43.554  23.209  26.777  1.00  0.00    -0.014 A 
BRANCH  42  43
ATOM     43  C   UNL A   1      43.975  24.605  27.040  1.00  0.00     0.031 A 
ATOM     44  C   UNL A   1      42.974  25.607  27.539  1.00  0.00     0.074 A 
ATOM     45  C   UNL A   1      45.237  24.983  26.759  1.00  0.00     0.049 A 
ATOM     46  N   UNL A   1      43.126  26.888  27.761  1.00  0.00    -0.248 NA
ATOM     47  C   UNL A   1      41.613  25.110  27.792  1.00  0.00     0.031 C 
ATOM     48  C   UNL A   1      46.280  24.112  26.214  1.00  0.00     0.029 A 
ATOM     49  N   UNL A   1      45.853  26.204  26.880  1.00  0.00    -0.354 N 
ATOM     50  C   UNL A   1      41.879  27.349  28.161  1.00  0.00     0.074 A 
ATOM     51  C   UNL A   1      40.970  26.226  28.098  1.00  0.00     0.031 C 
ATOM     52  C   UNL A   1      47.413  24.820  26.070  1.00  0.00     0.029 A 
ATOM     53  C   UNL A   1      47.166  26.199  26.480  1.00  0.00     0.049 A 
ATOM     54  H   UNL A   1      45.396  27.005  27.222  1.00  0.00     0.167 HD
ATOM     55  C   UNL A   1      41.533  28.592  28.570  1.00  0.00     0.037 A 
ATOM     56  C   UNL A   1      48.068  27.199  26.445  1.00  0.00     0.037 A 
ATOM     57  C   UNL A   1      42.449  29.697  28.661  1.00  0.00     0.049 A 
ATOM     58  C   UNL A   1      47.660  28.568  26.917  1.00  0.00     0.074 A 
ATOM     59  C   UNL A   1      42.215  30.978  29.126  1.00  0.00     0.029 A 
ATOM     60  N   UNL A   1      43.782  29.648  28.275  1.00  0.00    -0.354 N 
ATOM     61  N   UNL A   1      46.497  28.977  27.366  1.00  0.00    -0.248 NA
ATOM     62  C   UNL A   1      48.691  29.614  26.884  1.00  0.00     0.031 C 
ATOM     63  C   UNL A   1      43.394  31.717  28.984  1.00  0.00     0.029 A 
ATOM     64  C   UNL A   1      44.377  30.883  28.475  1.00  0.00     0.049 A 
ATOM     65  H   UNL A   1      44.237  28.853  27.913  1.00  0.00     0.167 HD
ATOM     66  C   UNL A   1      46.664  30.314  27.695  1.00  0.00     0.074 A 
ATOM     67  C   UNL A   1      48.044  30.646  27.407  1.00  0.00     0.031 C 
ATOM     68  C   UNL A   1      45.755  31.190  28.190  1.00  0.00     0.037 A 
BRANCH  55  69
ATOM     69  C   UNL A   1      40.100  28.818  28.957  1.00  0.00     0.064 A 
ATOM     70  C   UNL A   1      39.131  29.179  28.009  1.00  0.00     0.173 A 
ATOM     71  C   UNL A   1      39.686  28.645  30.286  1.00  0.00     0.173 A 
ATOM     72  F   UNL A   1      39.478  29.371  26.727  1.00  0.00    -0.203 F 
ATOM     73  C   UNL A   1      37.806  29.389  28.382  1.00  0.00     0.198 A 
ATOM     74  C   UNL A   1      38.355  28.825  30.651  1.00  0.00     0.198 A 
ATOM     75  F   UNL A   1      40.571  28.295  31.231  1.00  0.00    -0.203 F 
ATOM     76  F   UNL A   1      36.909  29.784  27.469  1.00  0.00    -0.200 F 
ATOM     77  C   UNL A   1      37.418  29.205  29.701  1.00  0.00     0.200 A 
ATOM     78  F   UNL A   1      37.978  28.634  31.922  1.00  0.00    -0.200 F 
ATOM     79  F   UNL A   1      36.141  29.400  30.058  1.00  0.00    -0.200 F 
ENDBRANCH  55  69
BRANCH  56  80
ATOM     80  C   UNL A   1      49.453  26.934  25.976  1.00  0.00     0.064 A 
ATOM     81  C   UNL A   1      50.451  26.535  26.876  1.00  0.00     0.173 A 
ATOM     82  C   UNL A   1      49.808  27.077  24.627  1.00  0.00     0.173 A 
ATOM     83  F   UNL A   1      50.164  26.405  28.180  1.00  0.00    -0.203 F 
ATOM     84  C   UNL A   1      51.758  26.308  26.448  1.00  0.00     0.198 A 
ATOM     85  C   UNL A   1      51.109  26.823  24.196  1.00  0.00     0.198 A 
ATOM     86  F   UNL A   1      48.890  27.452  23.726  1.00  0.00    -0.203 F 
ATOM     87  F   UNL A   1      52.702  25.971  27.336  1.00  0.00    -0.200 F 
ATOM     88  C   UNL A   1      52.084  26.447  25.108  1.00  0.00     0.200 A 
ATOM     89  F   UNL A   1      51.419  26.946  22.899  1.00  0.00    -0.200 F 
ATOM     90  F   UNL A   1      53.340  26.227  24.697  1.00  0.00    -0.200 F 
ENDBRANCH  56  80
BRANCH  68  91
ATOM     91  C   UNL A   1      46.232  32.582  28.484  1.00  0.00     0.064 A 
ATOM     92  C   UNL A   1      46.780  32.924  29.728  1.00  0.00     0.173 A 
ATOM     93  C   UNL A   1      46.180  33.573  27.492  1.00  0.00     0.173 A 
ATOM     94  F   UNL A   1      46.838  32.015  30.713  1.00  0.00    -0.203 F 
ATOM     95  C   UNL A   1      47.237  34.215  29.976  1.00  0.00     0.198 A 
ATOM     96  C   UNL A   1      46.666  34.855  27.734  1.00  0.00     0.198 A 
ATOM     97  F   UNL A   1      45.671  33.294  26.282  1.00  0.00    -0.203 F 
ATOM     98  F   UNL A   1      47.716  34.532  31.187  1.00  0.00    -0.200 F 
ATOM     99  C   UNL A   1      47.188  35.176  28.978  1.00  0.00     0.200 A 
ATOM    100  F   UNL A   1      46.628  35.778  26.764  1.00  0.00    -0.200 F 
ATOM    101  F   UNL A   1      47.636  36.416  29.216  1.00  0.00    -0.200 F 
ENDBRANCH  68  91
ENDBRANCH  42  43
ENDBRANCH  34  37
ENDBRANCH  32  33
ENDBRANCH  31  32
ENDBRANCH  30  31
ENDBRANCH   1  30
TORSDOF 16
ENDMDL
MODEL 3
REMARK VINA RESULT:     -13.9      0.545      7.221
REMARK SMILES O=C(N/N=C/c1ccccc1O)C(=O)Nc1cccc(C(=O)NCCCCNC(=O)c2ccc(-c3c4nc(c(-c5c(F)c(F)c(F)c(F)c5F)c5ccc([nH]5)c(-c5c(F)c(F)c(F)c(F)c5F)c5nc(c(-c6c(F)c(F)c(F)c(F)c6F)c6ccc3[nH]6)C=C5)C=C4)cc2)c1
REMARK SMILES IDX 24 1 23 2 21 3 22 4 20 6 16 7 17 8 94 9 18 10 19 11 15 12
REMARK SMILES IDX 13 13 14 14 2 16 1 17 3 18 4 20 5 21 6 22 7 23 11 24 8 25
REMARK SMILES IDX 10 26 9 27 12 28 25 30 26 31 27 32 28 33 29 34 30 36 31 37
REMARK SMILES IDX 32 38 93 39 33 40 92 41 34 42 35 43 36 44 86 45 37 46 91 47
REMARK SMILES IDX 85 48 87 49 38 50 90 51 84 52 83 53 39 55 71 56 51 57 70 58
REMARK SMILES IDX 52 59 55 60 69 61 88 62 53 63 54 64 68 66 89 67 56 68 40 69
REMARK SMILES IDX 41 70 49 71 42 72 43 73 47 74 50 75 44 76 45 77 48 78 46 79
REMARK SMILES IDX 72 80 73 81 81 82 74 83 75 84 79 85 82 86 76 87 77 88 80 89
REMARK SMILES IDX 78 90 57 91 58 92 66 93 59 94 60 95 64 96 67 97 61 98 62 99
REMARK SMILES IDX 65 100 63 101
REMARK H PARENT 23 5 15 15 3 19 12 29 28 35 87 54 55 65
REMARK Flexibility Score: inf
ROOT
ATOM      1  C   UNL A   1      35.814  21.527  25.311  1.00  0.00     0.116 C 
ENDROOT
BRANCH   1   2
ATOM      2  N   UNL A   1      35.032  20.317  25.462  1.00  0.00    -0.352 N 
ATOM      3  C   UNL A   1      33.696  20.090  25.273  1.00  0.00     0.251 C 
ATOM      4  O   UNL A   1      33.260  18.939  25.354  1.00  0.00    -0.269 OA
ATOM      5  H   UNL A   1      35.547  19.528  25.747  1.00  0.00     0.163 HD
BRANCH   3   6
ATOM      6  C   UNL A   1      32.706  21.161  24.979  1.00  0.00     0.041 A 
ATOM      7  C   UNL A   1      31.007  23.710  25.729  1.00  0.00     0.042 A 
ATOM      8  C   UNL A   1      30.804  24.125  23.955  1.00  0.00     0.026 A 
ATOM      9  C   UNL A   1      31.867  22.194  26.241  1.00  0.00     0.040 A 
ATOM     10  C   UNL A   1      31.480  22.984  22.696  1.00  0.00     0.003 A 
ATOM     11  C   UNL A   1      32.464  21.547  23.209  1.00  0.00     0.014 A 
BRANCH   7  12
ATOM     12  N   UNL A   1      31.074  24.820  26.573  1.00  0.00    -0.318 N 
ATOM     13  C   UNL A   1      32.092  25.767  26.606  1.00  0.00     0.315 C 
ATOM     14  O   UNL A   1      31.901  26.772  27.297  1.00  0.00    -0.263 OA
ATOM     15  H   UNL A   1      30.330  24.943  27.204  1.00  0.00     0.170 HD
BRANCH  13  16
ATOM     16  C   UNL A   1      33.413  25.706  25.797  1.00  0.00     0.329 C 
ATOM     17  O   UNL A   1      34.141  24.721  25.920  1.00  0.00    -0.262 OA
ATOM     18  N   UNL A   1      33.859  26.805  25.051  1.00  0.00    -0.239 N 
ATOM     19  H   UNL A   1      34.602  27.377  25.350  1.00  0.00     0.194 HD
BRANCH  18  20
ATOM     20  N   UNL A   1      33.187  27.032  23.872  1.00  0.00    -0.180 NA
ATOM     21  C   UNL A   1      32.283  28.068  23.910  1.00  0.00     0.145 C 
BRANCH  21  22
ATOM     22  C   UNL A   1      30.341  28.491  23.137  1.00  0.00     0.036 A 
ATOM     23  C   UNL A   1      29.031  27.758  23.440  1.00  0.00     0.013 A 
ATOM     24  C   UNL A   1      29.760  29.568  22.212  1.00  0.00     0.124 A 
ATOM     25  C   UNL A   1      27.669  28.134  23.247  1.00  0.00     0.001 A 
ATOM     26  C   UNL A   1      28.393  29.981  22.045  1.00  0.00     0.047 A 
ATOM     27  C   UNL A   1      27.350  29.300  22.615  1.00  0.00     0.004 A 
BRANCH  24  28
ATOM     28  O   UNL A   1      30.433  30.227  21.180  1.00  0.00    -0.507 OA
ATOM     29  H   UNL A   1      30.185  31.098  20.940  1.00  0.00     0.293 HD
ENDBRANCH  24  28
ENDBRANCH  21  22
ENDBRANCH  18  20
ENDBRANCH  13  16
ENDBRANCH   7  12
ENDBRANCH   3   6
ENDBRANCH   1   2
BRANCH   1  30
ATOM     30  C   UNL A   1      37.095  21.276  24.521  1.00  0.00     0.023 C 
BRANCH  30  31
ATOM     31  C   UNL A   1      37.888  20.058  24.988  1.00  0.00     0.023 C 
BRANCH  31  32
ATOM     32  C   UNL A   1      39.150  20.383  25.778  1.00  0.00     0.116 C 
BRANCH  32  33
ATOM     33  N   UNL A   1      40.092  19.277  25.865  1.00  0.00    -0.352 N 
ATOM     34  C   UNL A   1      41.444  19.340  26.105  1.00  0.00     0.251 C 
ATOM     35  H   UNL A   1      39.716  18.375  25.737  1.00  0.00     0.163 HD
ATOM     36  O   UNL A   1      42.150  18.342  26.048  1.00  0.00    -0.269 OA
BRANCH  34  37
ATOM     37  C   UNL A   1      42.043  20.657  26.390  1.00  0.00     0.039 A 
ATOM     38  C   UNL A   1      42.310  21.521  25.327  1.00  0.00     0.014 A 
ATOM     39  C   UNL A   1      42.260  21.059  27.711  1.00  0.00     0.014 A 
ATOM     40  C   UNL A   1      42.728  22.824  25.595  1.00  0.00     0.010 A 
ATOM     41  C   UNL A   1      42.603  22.377  27.977  1.00  0.00     0.010 A 
ATOM     42  C   UNL A   1      42.838  23.273  26.921  1.00  0.00    -0.014 A 
BRANCH  42  43
ATOM     43  C   UNL A   1      43.197  24.678  27.229  1.00  0.00     0.031 A 
ATOM     44  C   UNL A   1      44.601  25.158  27.000  1.00  0.00     0.074 A 
ATOM     45  C   UNL A   1      42.278  25.494  27.780  1.00  0.00     0.049 A 
ATOM     46  N   UNL A   1      45.132  26.324  27.269  1.00  0.00    -0.248 NA
ATOM     47  C   UNL A   1      45.543  24.189  26.420  1.00  0.00     0.031 C 
ATOM     48  C   UNL A   1      40.900  25.121  28.103  1.00  0.00     0.029 A 
ATOM     49  N   UNL A   1      42.371  26.804  28.179  1.00  0.00    -0.354 N 
ATOM     50  C   UNL A   1      46.468  26.220  26.909  1.00  0.00     0.074 A 
ATOM     51  C   UNL A   1      46.682  24.864  26.453  1.00  0.00     0.031 C 
ATOM     52  C   UNL A   1      40.269  26.184  28.630  1.00  0.00     0.029 A 
ATOM     53  C   UNL A   1      41.206  27.300  28.711  1.00  0.00     0.049 A 
ATOM     54  H   UNL A   1      43.193  27.336  28.092  1.00  0.00     0.167 HD
ATOM     55  C   UNL A   1      47.423  27.179  26.930  1.00  0.00     0.037 A 
ATOM     56  C   UNL A   1      40.930  28.519  29.212  1.00  0.00     0.037 A 
ATOM     57  C   UNL A   1      47.195  28.535  27.354  1.00  0.00     0.049 A 
ATOM     58  C   UNL A   1      42.006  29.571  29.213  1.00  0.00     0.074 A 
ATOM     59  C   UNL A   1      48.077  29.601  27.351  1.00  0.00     0.029 A 
ATOM     60  N   UNL A   1      45.993  29.011  27.859  1.00  0.00    -0.354 N 
ATOM     61  N   UNL A   1      43.247  29.485  28.798  1.00  0.00    -0.248 NA
ATOM     62  C   UNL A   1      41.641  30.891  29.744  1.00  0.00     0.031 C 
ATOM     63  C   UNL A   1      47.422  30.711  27.891  1.00  0.00     0.029 A 
ATOM     64  C   UNL A   1      46.117  30.351  28.188  1.00  0.00     0.049 A 
ATOM     65  H   UNL A   1      45.174  28.475  27.967  1.00  0.00     0.167 HD
ATOM     66  C   UNL A   1      43.801  30.742  28.991  1.00  0.00     0.074 A 
ATOM     67  C   UNL A   1      42.758  31.578  29.548  1.00  0.00     0.031 C 
ATOM     68  C   UNL A   1      45.063  31.167  28.732  1.00  0.00     0.037 A 
BRANCH  55  69
ATOM     69  C   UNL A   1      48.800  26.794  26.474  1.00  0.00     0.064 A 
ATOM     70  C   UNL A   1      49.204  26.955  25.140  1.00  0.00     0.173 A 
ATOM     71  C   UNL A   1      49.736  26.284  27.386  1.00  0.00     0.173 A 
ATOM     72  F   UNL A   1      48.343  27.427  24.225  1.00  0.00    -0.203 F 
ATOM     73  C   UNL A   1      50.484  26.591  24.730  1.00  0.00     0.198 A 
ATOM     74  C   UNL A   1      51.024  25.950  26.979  1.00  0.00     0.198 A 
ATOM     75  F   UNL A   1      49.403  26.115  28.675  1.00  0.00    -0.203 F 
ATOM     76  F   UNL A   1      50.830  26.705  23.440  1.00  0.00    -0.200 F 
ATOM     77  C   UNL A   1      51.395  26.096  25.651  1.00  0.00     0.200 A 
ATOM     78  F   UNL A   1      51.908  25.483  27.872  1.00  0.00    -0.200 F 
ATOM     79  F   UNL A   1      52.628  25.752  25.256  1.00  0.00    -0.200 F 
ENDBRANCH  55  69
BRANCH  56  80
ATOM     80  C   UNL A   1      39.568  28.820  29.724  1.00  0.00     0.064 A 
ATOM     81  C   UNL A   1      39.223  28.541  31.054  1.00  0.00     0.173 A 
ATOM     82  C   UNL A   1      38.585  29.387  28.900  1.00  0.00     0.173 A 
ATOM     83  F   UNL A   1      40.122  27.979  31.875  1.00  0.00    -0.203 F 
ATOM     84  C   UNL A   1      37.940  28.797  31.535  1.00  0.00     0.198 A 
ATOM     85  C   UNL A   1      37.311  29.669  29.389  1.00  0.00     0.198 A 
ATOM     86  F   UNL A   1      38.866  29.678  27.622  1.00  0.00    -0.203 F 
ATOM     87  F   UNL A   1      37.624  28.479  32.796  1.00  0.00    -0.200 F 
ATOM     88  C   UNL A   1      36.987  29.367  30.703  1.00  0.00     0.200 A 
ATOM     89  F   UNL A   1      36.397  30.230  28.587  1.00  0.00    -0.200 F 
ATOM     90  F   UNL A   1      35.755  29.615  31.166  1.00  0.00    -0.200 F 
ENDBRANCH  56  80
BRANCH  68  91
ATOM     91  C   UNL A   1      45.374  32.608  29.016  1.00  0.00     0.064 A 
ATOM     92  C   UNL A   1      45.924  33.013  30.239  1.00  0.00     0.173 A 
ATOM     93  C   UNL A   1      45.158  33.585  28.033  1.00  0.00     0.173 A 
ATOM     94  F   UNL A   1      46.135  32.118  31.215  1.00  0.00    -0.203 F 
ATOM     95  C   UNL A   1      46.227  34.352  30.477  1.00  0.00     0.198 A 
ATOM     96  C   UNL A   1      45.490  34.917  28.263  1.00  0.00     0.198 A 
ATOM     97  F   UNL A   1      44.640  33.246  26.843  1.00  0.00    -0.203 F 
ATOM     98  F   UNL A   1      46.711  34.724  31.669  1.00  0.00    -0.200 F 
ATOM     99  C   UNL A   1      46.018  35.300  29.487  1.00  0.00     0.200 A 
ATOM    100  F   UNL A   1      45.299  35.830  27.301  1.00  0.00    -0.200 F 
ATOM    101  F   UNL A   1      46.318  36.586  29.715  1.00  0.00    -0.200 F 
ENDBRANCH  68  91
ENDBRANCH  42  43
ENDBRANCH  34  37
ENDBRANCH  32  33
ENDBRANCH  31  32
ENDBRANCH  30  31
ENDBRANCH   1  30
TORSDOF 16
ENDMDL
