MODEL 1
REMARK VINA RESULT:     -11.4      0.000      0.000
REMARK SMILES C=CCN(CC(=O)NCCCCNC(=O)c1ccc(-c2c3nc(c(-c4c(F)c(F)c(F)c(F)c4F)c4ccc([nH]4)c(-c4c(F)c(F)c(F)c(F)c4F)c4nc(c(-c5c(F)c(F)c(F)c(F)c5F)c5ccc2[nH]5)C=C4)C=C3)cc1)C(=O)CC1([NH2+]C)CCCCC1
REMARK SMILES IDX 9 1 8 2 6 3 7 4 5 6 4 7 3 8 2 9 1 10 79 11 80 12 81 13 82 14
REMARK SMILES IDX 85 15 89 16 86 17 88 18 87 19 83 20 84 21 10 24 11 25 12 26
REMARK SMILES IDX 13 27 14 28 15 30 16 31 17 32 78 33 18 34 77 35 19 36 20 37
REMARK SMILES IDX 21 38 71 39 22 40 76 41 70 42 72 43 23 44 75 45 69 46 68 47
REMARK SMILES IDX 24 49 56 50 36 51 55 52 37 53 40 54 54 55 73 56 38 57 39 58
REMARK SMILES IDX 53 60 74 61 41 62 25 63 26 64 34 65 27 66 28 67 32 68 35 69
REMARK SMILES IDX 29 70 30 71 33 72 31 73 57 74 58 75 66 76 59 77 60 78 64 79
REMARK SMILES IDX 67 80 61 81 62 82 65 83 63 84 42 85 43 86 51 87 44 88 45 89
REMARK SMILES IDX 49 90 52 91 46 92 47 93 50 94 48 95
REMARK H PARENT 8 5 83 22 83 23 13 29 72 48 40 59
REMARK Flexibility Score: inf
ROOT
ATOM      1  C   UNL A   1      31.898  29.797  25.430  1.00  0.00     0.116 C 
ENDROOT
BRANCH   1   2
ATOM      2  N   UNL A   1      33.098  29.685  24.641  1.00  0.00    -0.355 N 
ATOM      3  C   UNL A   1      33.329  28.887  23.563  1.00  0.00     0.239 C 
ATOM      4  O   UNL A   1      34.418  28.989  22.993  1.00  0.00    -0.273 OA
ATOM      5  H   UNL A   1      33.849  30.260  24.917  1.00  0.00     0.163 HD
BRANCH   3   6
ATOM      6  C   UNL A   1      32.241  27.938  23.043  1.00  0.00     0.219 C 
BRANCH   6   7
ATOM      7  N   UNL A   1      32.345  26.539  23.468  1.00  0.00    -0.329 N 
BRANCH   7   8
ATOM      8  C   UNL A   1      31.659  26.162  24.707  1.00  0.00     0.147 C 
BRANCH   8   9
ATOM      9  C   UNL A   1      30.239  26.645  24.712  1.00  0.00    -0.014 C 
ATOM     10  C   UNL A   1      29.290  26.133  23.914  1.00  0.00     0.006 C 
ENDBRANCH   8   9
ENDBRANCH   7   8
BRANCH   7  11
ATOM     11  C   UNL A   1      33.118  25.566  22.845  1.00  0.00     0.229 C 
ATOM     12  O   UNL A   1      33.871  25.885  21.914  1.00  0.00    -0.275 OA
BRANCH  11  13
ATOM     13  C   UNL A   1      33.009  24.083  23.195  1.00  0.00     0.168 C 
BRANCH  13  14
ATOM     14  C   UNL A   1      34.103  23.296  23.997  1.00  0.00     0.105 C 
ATOM     15  C   UNL A   1      35.311  22.914  23.102  1.00  0.00     0.069 C 
ATOM     16  C   UNL A   1      34.616  24.315  25.076  1.00  0.00     0.069 C 
ATOM     17  C   UNL A   1      36.611  22.562  23.823  1.00  0.00     0.006 C 
ATOM     18  C   UNL A   1      35.901  23.913  25.800  1.00  0.00     0.006 C 
ATOM     19  C   UNL A   1      37.020  23.645  24.808  1.00  0.00     0.000 C 
BRANCH  14  20
ATOM     20  N   UNL A   1      33.641  22.129  24.777  1.00  0.00    -0.343 N 
ATOM     21  C   UNL A   1      32.292  22.177  25.314  1.00  0.00     0.331 C 
ATOM     22  H   UNL A   1      34.279  22.015  25.564  1.00  0.00     0.346 HD
ATOM     23  H   UNL A   1      33.629  21.357  24.111  1.00  0.00     0.346 HD
ENDBRANCH  14  20
ENDBRANCH  13  14
ENDBRANCH  11  13
ENDBRANCH   7  11
ENDBRANCH   6   7
ENDBRANCH   3   6
ENDBRANCH   1   2
BRANCH   1  24
ATOM     24  C   UNL A   1      32.172  30.436  26.788  1.00  0.00     0.023 C 
BRANCH  24  25
ATOM     25  C   UNL A   1      31.787  31.913  26.886  1.00  0.00     0.023 C 
BRANCH  25  26
ATOM     26  C   UNL A   1      32.915  32.847  27.305  1.00  0.00     0.116 C 
BRANCH  26  27
ATOM     27  N   UNL A   1      32.461  34.182  27.663  1.00  0.00    -0.352 N 
ATOM     28  C   UNL A   1      32.984  35.026  28.612  1.00  0.00     0.251 C 
ATOM     29  H   UNL A   1      31.685  34.523  27.163  1.00  0.00     0.163 HD
ATOM     30  O   UNL A   1      32.467  36.113  28.844  1.00  0.00    -0.269 OA
BRANCH  28  31
ATOM     31  C   UNL A   1      34.150  34.572  29.387  1.00  0.00     0.039 A 
ATOM     32  C   UNL A   1      33.939  34.067  30.671  1.00  0.00     0.014 A 
ATOM     33  C   UNL A   1      35.424  34.569  28.812  1.00  0.00     0.014 A 
ATOM     34  C   UNL A   1      35.006  33.493  31.362  1.00  0.00     0.010 A 
ATOM     35  C   UNL A   1      36.468  33.936  29.475  1.00  0.00     0.010 A 
ATOM     36  C   UNL A   1      36.266  33.393  30.753  1.00  0.00    -0.014 A 
BRANCH  36  37
ATOM     37  C   UNL A   1      37.394  32.724  31.441  1.00  0.00     0.031 A 
ATOM     38  C   UNL A   1      38.081  31.560  30.789  1.00  0.00     0.074 A 
ATOM     39  C   UNL A   1      37.750  33.124  32.676  1.00  0.00     0.049 A 
ATOM     40  N   UNL A   1      39.037  30.798  31.253  1.00  0.00    -0.248 NA
ATOM     41  C   UNL A   1      37.606  31.183  29.449  1.00  0.00     0.031 C 
ATOM     42  C   UNL A   1      37.120  34.209  33.430  1.00  0.00     0.029 A 
ATOM     43  N   UNL A   1      38.724  32.655  33.521  1.00  0.00    -0.354 N 
ATOM     44  C   UNL A   1      39.265  29.845  30.271  1.00  0.00     0.074 A 
ATOM     45  C   UNL A   1      38.313  30.090  29.210  1.00  0.00     0.031 C 
ATOM     46  C   UNL A   1      37.737  34.337  34.615  1.00  0.00     0.029 A 
ATOM     47  C   UNL A   1      38.782  33.324  34.719  1.00  0.00     0.049 A 
ATOM     48  H   UNL A   1      39.323  31.909  33.291  1.00  0.00     0.167 HD
ATOM     49  C   UNL A   1      40.202  28.867  30.246  1.00  0.00     0.037 A 
ATOM     50  C   UNL A   1      39.590  33.137  35.779  1.00  0.00     0.037 A 
ATOM     51  C   UNL A   1      41.166  28.650  31.292  1.00  0.00     0.049 A 
ATOM     52  C   UNL A   1      40.631  32.052  35.722  1.00  0.00     0.074 A 
ATOM     53  C   UNL A   1      42.198  27.731  31.337  1.00  0.00     0.029 A 
ATOM     54  N   UNL A   1      41.213  29.366  32.480  1.00  0.00    -0.354 N 
ATOM     55  N   UNL A   1      40.885  31.200  34.760  1.00  0.00    -0.248 NA
ATOM     56  C   UNL A   1      41.502  31.909  36.897  1.00  0.00     0.031 C 
ATOM     57  C   UNL A   1      42.849  27.865  32.568  1.00  0.00     0.029 A 
ATOM     58  C   UNL A   1      42.248  28.896  33.272  1.00  0.00     0.049 A 
ATOM     59  H   UNL A   1      40.602  30.098  32.723  1.00  0.00     0.167 HD
ATOM     60  C   UNL A   1      41.958  30.437  35.199  1.00  0.00     0.074 A 
ATOM     61  C   UNL A   1      42.316  30.936  36.511  1.00  0.00     0.031 C 
ATOM     62  C   UNL A   1      42.591  29.415  34.572  1.00  0.00     0.037 A 
BRANCH  49  63
ATOM     63  C   UNL A   1      40.228  27.967  29.048  1.00  0.00     0.064 A 
ATOM     64  C   UNL A   1      40.956  28.301  27.894  1.00  0.00     0.173 A 
ATOM     65  C   UNL A   1      39.532  26.749  29.056  1.00  0.00     0.173 A 
ATOM     66  F   UNL A   1      41.625  29.461  27.831  1.00  0.00    -0.203 F 
ATOM     67  C   UNL A   1      40.958  27.463  26.781  1.00  0.00     0.198 A 
ATOM     68  C   UNL A   1      39.562  25.901  27.952  1.00  0.00     0.198 A 
ATOM     69  F   UNL A   1      38.823  26.382  30.134  1.00  0.00    -0.203 F 
ATOM     70  F   UNL A   1      41.615  27.829  25.672  1.00  0.00    -0.200 F 
ATOM     71  C   UNL A   1      40.267  26.262  26.813  1.00  0.00     0.200 A 
ATOM     72  F   UNL A   1      38.900  24.735  27.987  1.00  0.00    -0.200 F 
ATOM     73  F   UNL A   1      40.271  25.456  25.742  1.00  0.00    -0.200 F 
ENDBRANCH  49  63
BRANCH  50  74
ATOM     74  C   UNL A   1      39.469  34.019  36.967  1.00  0.00     0.064 A 
ATOM     75  C   UNL A   1      38.748  33.606  38.096  1.00  0.00     0.173 A 
ATOM     76  C   UNL A   1      40.074  35.283  37.005  1.00  0.00     0.173 A 
ATOM     77  F   UNL A   1      38.137  32.413  38.098  1.00  0.00    -0.203 F 
ATOM     78  C   UNL A   1      38.621  34.432  39.210  1.00  0.00     0.198 A 
ATOM     79  C   UNL A   1      39.967  36.098  38.130  1.00  0.00     0.198 A 
ATOM     80  F   UNL A   1      40.780  35.722  35.952  1.00  0.00    -0.203 F 
ATOM     81  F   UNL A   1      37.893  34.028  40.260  1.00  0.00    -0.200 F 
ATOM     82  C   UNL A   1      39.235  35.674  39.229  1.00  0.00     0.200 A 
ATOM     83  F   UNL A   1      40.572  37.294  38.149  1.00  0.00    -0.200 F 
ATOM     84  F   UNL A   1      39.116  36.467  40.303  1.00  0.00    -0.200 F 
ENDBRANCH  50  74
BRANCH  62  85
ATOM     85  C   UNL A   1      43.754  28.790  35.284  1.00  0.00     0.064 A 
ATOM     86  C   UNL A   1      45.065  29.247  35.091  1.00  0.00     0.173 A 
ATOM     87  C   UNL A   1      43.545  27.752  36.205  1.00  0.00     0.173 A 
ATOM     88  F   UNL A   1      45.314  30.226  34.208  1.00  0.00    -0.203 F 
ATOM     89  C   UNL A   1      46.129  28.673  35.779  1.00  0.00     0.198 A 
ATOM     90  C   UNL A   1      44.608  27.199  36.911  1.00  0.00     0.198 A 
ATOM     91  F   UNL A   1      42.309  27.284  36.429  1.00  0.00    -0.203 F 
ATOM     92  F   UNL A   1      47.380  29.097  35.549  1.00  0.00    -0.200 F 
ATOM     93  C   UNL A   1      45.900  27.655  36.694  1.00  0.00     0.200 A 
ATOM     94  F   UNL A   1      44.384  26.225  37.803  1.00  0.00    -0.200 F 
ATOM     95  F   UNL A   1      46.926  27.109  37.362  1.00  0.00    -0.200 F 
ENDBRANCH  62  85
ENDBRANCH  36  37
ENDBRANCH  28  31
ENDBRANCH  26  27
ENDBRANCH  25  26
ENDBRANCH  24  25
ENDBRANCH   1  24
TORSDOF 18
ENDMDL
MODEL 2
REMARK VINA RESULT:     -11.2      1.871      8.258
REMARK SMILES C=CCN(CC(=O)NCCCCNC(=O)c1ccc(-c2c3nc(c(-c4c(F)c(F)c(F)c(F)c4F)c4ccc([nH]4)c(-c4c(F)c(F)c(F)c(F)c4F)c4nc(c(-c5c(F)c(F)c(F)c(F)c5F)c5ccc2[nH]5)C=C4)C=C3)cc1)C(=O)CC1([NH2+]C)CCCCC1
REMARK SMILES IDX 9 1 8 2 6 3 7 4 5 6 4 7 3 8 2 9 1 10 79 11 80 12 81 13 82 14
REMARK SMILES IDX 85 15 89 16 86 17 88 18 87 19 83 20 84 21 10 24 11 25 12 26
REMARK SMILES IDX 13 27 14 28 15 30 16 31 17 32 78 33 18 34 77 35 19 36 20 37
REMARK SMILES IDX 21 38 71 39 22 40 76 41 70 42 72 43 23 44 75 45 69 46 68 47
REMARK SMILES IDX 24 49 56 50 36 51 55 52 37 53 40 54 54 55 73 56 38 57 39 58
REMARK SMILES IDX 53 60 74 61 41 62 25 63 26 64 34 65 27 66 28 67 32 68 35 69
REMARK SMILES IDX 29 70 30 71 33 72 31 73 57 74 58 75 66 76 59 77 60 78 64 79
REMARK SMILES IDX 67 80 61 81 62 82 65 83 63 84 42 85 43 86 51 87 44 88 45 89
REMARK SMILES IDX 49 90 52 91 46 92 47 93 50 94 48 95
REMARK H PARENT 8 5 83 22 83 23 13 29 72 48 40 59
REMARK Flexibility Score: inf
ROOT
ATOM      1  C   UNL A   1      32.564  29.489  26.962  1.00  0.00     0.116 C 
ENDROOT
BRANCH   1   2
ATOM      2  N   UNL A   1      31.703  28.362  27.219  1.00  0.00    -0.355 N 
ATOM      3  C   UNL A   1      31.421  27.312  26.401  1.00  0.00     0.239 C 
ATOM      4  O   UNL A   1      30.695  26.418  26.842  1.00  0.00    -0.273 OA
ATOM      5  H   UNL A   1      31.262  28.351  28.099  1.00  0.00     0.163 HD
BRANCH   3   6
ATOM      6  C   UNL A   1      32.038  27.222  24.999  1.00  0.00     0.219 C 
BRANCH   6   7
ATOM      7  N   UNL A   1      31.178  26.672  23.946  1.00  0.00    -0.329 N 
BRANCH   7   8
ATOM      8  C   UNL A   1      31.632  25.447  23.281  1.00  0.00     0.147 C 
BRANCH   8   9
ATOM      9  C   UNL A   1      32.996  25.626  22.684  1.00  0.00    -0.014 C 
ATOM     10  C   UNL A   1      33.254  26.498  21.698  1.00  0.00     0.006 C 
ENDBRANCH   8   9
ENDBRANCH   7   8
BRANCH   7  11
ATOM     11  C   UNL A   1      30.019  27.269  23.464  1.00  0.00     0.229 C 
ATOM     12  O   UNL A   1      28.918  26.755  23.705  1.00  0.00    -0.275 OA
BRANCH  11  13
ATOM     13  C   UNL A   1      30.047  28.495  22.554  1.00  0.00     0.168 C 
BRANCH  13  14
ATOM     14  C   UNL A   1      28.907  29.570  22.507  1.00  0.00     0.105 C 
ATOM     15  C   UNL A   1      28.942  30.504  23.744  1.00  0.00     0.069 C 
ATOM     16  C   UNL A   1      29.237  30.444  21.244  1.00  0.00     0.069 C 
ATOM     17  C   UNL A   1      28.208  31.837  23.615  1.00  0.00     0.006 C 
ATOM     18  C   UNL A   1      28.458  31.755  21.132  1.00  0.00     0.006 C 
ATOM     19  C   UNL A   1      28.645  32.603  22.379  1.00  0.00     0.000 C 
BRANCH  14  20
ATOM     20  N   UNL A   1      27.537  29.072  22.266  1.00  0.00    -0.343 N 
ATOM     21  C   UNL A   1      26.745  28.705  23.427  1.00  0.00     0.331 C 
ATOM     22  H   UNL A   1      27.612  28.244  21.674  1.00  0.00     0.346 HD
ATOM     23  H   UNL A   1      27.040  29.861  21.850  1.00  0.00     0.346 HD
ENDBRANCH  14  20
ENDBRANCH  13  14
ENDBRANCH  11  13
ENDBRANCH   7  11
ENDBRANCH   6   7
ENDBRANCH   3   6
ENDBRANCH   1   2
BRANCH   1  24
ATOM     24  C   UNL A   1      31.916  30.490  26.011  1.00  0.00     0.023 C 
BRANCH  24  25
ATOM     25  C   UNL A   1      31.547  31.830  26.650  1.00  0.00     0.023 C 
BRANCH  25  26
ATOM     26  C   UNL A   1      32.705  32.571  27.306  1.00  0.00     0.116 C 
BRANCH  26  27
ATOM     27  N   UNL A   1      32.398  33.956  27.631  1.00  0.00    -0.352 N 
ATOM     28  C   UNL A   1      33.044  34.778  28.521  1.00  0.00     0.251 C 
ATOM     29  H   UNL A   1      31.635  34.354  27.153  1.00  0.00     0.163 HD
ATOM     30  O   UNL A   1      32.645  35.917  28.733  1.00  0.00    -0.269 OA
BRANCH  28  31
ATOM     31  C   UNL A   1      34.197  34.239  29.261  1.00  0.00     0.039 A 
ATOM     32  C   UNL A   1      33.956  33.410  30.358  1.00  0.00     0.014 A 
ATOM     33  C   UNL A   1      35.499  34.487  28.819  1.00  0.00     0.014 A 
ATOM     34  C   UNL A   1      35.028  32.770  30.978  1.00  0.00     0.010 A 
ATOM     35  C   UNL A   1      36.557  33.795  29.395  1.00  0.00     0.010 A 
ATOM     36  C   UNL A   1      36.329  32.931  30.477  1.00  0.00    -0.014 A 
BRANCH  36  37
ATOM     37  C   UNL A   1      37.472  32.204  31.077  1.00  0.00     0.031 A 
ATOM     38  C   UNL A   1      37.950  32.572  32.451  1.00  0.00     0.074 A 
ATOM     39  C   UNL A   1      38.114  31.266  30.358  1.00  0.00     0.049 A 
ATOM     40  N   UNL A   1      38.972  32.108  33.123  1.00  0.00    -0.248 NA
ATOM     41  C   UNL A   1      37.197  33.625  33.150  1.00  0.00     0.031 C 
ATOM     42  C   UNL A   1      37.771  30.863  28.993  1.00  0.00     0.029 A 
ATOM     43  N   UNL A   1      39.199  30.488  30.671  1.00  0.00    -0.354 N 
ATOM     44  C   UNL A   1      38.993  32.823  34.312  1.00  0.00     0.074 A 
ATOM     45  C   UNL A   1      37.917  33.787  34.249  1.00  0.00     0.031 C 
ATOM     46  C   UNL A   1      38.615  29.898  28.594  1.00  0.00     0.029 A 
ATOM     47  C   UNL A   1      39.577  29.637  29.661  1.00  0.00     0.049 A 
ATOM     48  H   UNL A   1      39.665  30.536  31.537  1.00  0.00     0.167 HD
ATOM     49  C   UNL A   1      39.822  32.670  35.372  1.00  0.00     0.037 A 
ATOM     50  C   UNL A   1      40.586  28.749  29.606  1.00  0.00     0.037 A 
ATOM     51  C   UNL A   1      40.869  31.687  35.440  1.00  0.00     0.049 A 
ATOM     52  C   UNL A   1      41.485  28.590  30.801  1.00  0.00     0.074 A 
ATOM     53  C   UNL A   1      41.723  31.405  36.491  1.00  0.00     0.029 A 
ATOM     54  N   UNL A   1      41.205  30.822  34.408  1.00  0.00    -0.354 N 
ATOM     55  N   UNL A   1      41.455  29.222  31.949  1.00  0.00    -0.248 NA
ATOM     56  C   UNL A   1      42.556  27.588  30.695  1.00  0.00     0.031 C 
ATOM     57  C   UNL A   1      42.599  30.395  36.083  1.00  0.00     0.029 A 
ATOM     58  C   UNL A   1      42.265  30.018  34.793  1.00  0.00     0.049 A 
ATOM     59  H   UNL A   1      40.757  30.787  33.532  1.00  0.00     0.167 HD
ATOM     60  C   UNL A   1      42.480  28.679  32.711  1.00  0.00     0.074 A 
ATOM     61  C   UNL A   1      43.108  27.657  31.899  1.00  0.00     0.031 C 
ATOM     62  C   UNL A   1      42.868  29.000  33.970  1.00  0.00     0.037 A 
BRANCH  49  63
ATOM     63  C   UNL A   1      39.620  33.586  36.542  1.00  0.00     0.064 A 
ATOM     64  C   UNL A   1      38.799  33.227  37.623  1.00  0.00     0.173 A 
ATOM     65  C   UNL A   1      40.267  34.829  36.594  1.00  0.00     0.173 A 
ATOM     66  F   UNL A   1      38.146  32.055  37.615  1.00  0.00    -0.203 F 
ATOM     67  C   UNL A   1      38.607  34.094  38.696  1.00  0.00     0.198 A 
ATOM     68  C   UNL A   1      40.096  35.681  37.682  1.00  0.00     0.198 A 
ATOM     69  F   UNL A   1      41.064  35.220  35.588  1.00  0.00    -0.203 F 
ATOM     70  F   UNL A   1      37.776  33.753  39.689  1.00  0.00    -0.200 F 
ATOM     71  C   UNL A   1      39.260  35.317  38.728  1.00  0.00     0.200 A 
ATOM     72  F   UNL A   1      40.735  36.859  37.717  1.00  0.00    -0.200 F 
ATOM     73  F   UNL A   1      39.076  36.149  39.762  1.00  0.00    -0.200 F 
ENDBRANCH  49  63
BRANCH  50  74
ATOM     74  C   UNL A   1      40.776  27.918  28.390  1.00  0.00     0.064 A 
ATOM     75  C   UNL A   1      41.569  28.373  27.327  1.00  0.00     0.173 A 
ATOM     76  C   UNL A   1      40.180  26.655  28.266  1.00  0.00     0.173 A 
ATOM     77  F   UNL A   1      42.144  29.583  27.394  1.00  0.00    -0.203 F 
ATOM     78  C   UNL A   1      41.744  27.605  26.179  1.00  0.00     0.198 A 
ATOM     79  C   UNL A   1      40.376  25.876  27.127  1.00  0.00     0.198 A 
ATOM     80  F   UNL A   1      39.417  26.171  29.257  1.00  0.00    -0.203 F 
ATOM     81  F   UNL A   1      42.475  28.082  25.163  1.00  0.00    -0.200 F 
ATOM     82  C   UNL A   1      41.153  26.355  26.082  1.00  0.00     0.200 A 
ATOM     83  F   UNL A   1      39.813  24.664  27.042  1.00  0.00    -0.200 F 
ATOM     84  F   UNL A   1      41.325  25.614  24.978  1.00  0.00    -0.200 F 
ENDBRANCH  50  74
BRANCH  62  85
ATOM     85  C   UNL A   1      44.003  28.215  34.557  1.00  0.00     0.064 A 
ATOM     86  C   UNL A   1      43.788  27.003  35.229  1.00  0.00     0.173 A 
ATOM     87  C   UNL A   1      45.325  28.659  34.404  1.00  0.00     0.173 A 
ATOM     88  F   UNL A   1      42.539  26.548  35.414  1.00  0.00    -0.203 F 
ATOM     89  C   UNL A   1      44.854  26.274  35.746  1.00  0.00     0.198 A 
ATOM     90  C   UNL A   1      46.391  27.913  34.898  1.00  0.00     0.198 A 
ATOM     91  F   UNL A   1      45.583  29.808  33.763  1.00  0.00    -0.203 F 
ATOM     92  F   UNL A   1      44.623  25.140  36.421  1.00  0.00    -0.200 F 
ATOM     93  C   UNL A   1      46.155  26.726  35.573  1.00  0.00     0.200 A 
ATOM     94  F   UNL A   1      47.647  28.344  34.720  1.00  0.00    -0.200 F 
ATOM     95  F   UNL A   1      47.182  26.017  36.065  1.00  0.00    -0.200 F 
ENDBRANCH  62  85
ENDBRANCH  36  37
ENDBRANCH  28  31
ENDBRANCH  26  27
ENDBRANCH  25  26
ENDBRANCH  24  25
ENDBRANCH   1  24
TORSDOF 18
ENDMDL
MODEL 3
REMARK VINA RESULT:     -11.2      1.183      7.599
REMARK SMILES C=CCN(CC(=O)NCCCCNC(=O)c1ccc(-c2c3nc(c(-c4c(F)c(F)c(F)c(F)c4F)c4ccc([nH]4)c(-c4c(F)c(F)c(F)c(F)c4F)c4nc(c(-c5c(F)c(F)c(F)c(F)c5F)c5ccc2[nH]5)C=C4)C=C3)cc1)C(=O)CC1([NH2+]C)CCCCC1
REMARK SMILES IDX 9 1 8 2 6 3 7 4 5 6 4 7 3 8 2 9 1 10 79 11 80 12 81 13 82 14
REMARK SMILES IDX 85 15 89 16 86 17 88 18 87 19 83 20 84 21 10 24 11 25 12 26
REMARK SMILES IDX 13 27 14 28 15 30 16 31 17 32 78 33 18 34 77 35 19 36 20 37
REMARK SMILES IDX 21 38 71 39 22 40 76 41 70 42 72 43 23 44 75 45 69 46 68 47
REMARK SMILES IDX 24 49 56 50 36 51 55 52 37 53 40 54 54 55 73 56 38 57 39 58
REMARK SMILES IDX 53 60 74 61 41 62 25 63 26 64 34 65 27 66 28 67 32 68 35 69
REMARK SMILES IDX 29 70 30 71 33 72 31 73 57 74 58 75 66 76 59 77 60 78 64 79
REMARK SMILES IDX 67 80 61 81 62 82 65 83 63 84 42 85 43 86 51 87 44 88 45 89
REMARK SMILES IDX 49 90 52 91 46 92 47 93 50 94 48 95
REMARK H PARENT 8 5 83 22 83 23 13 29 72 48 40 59
REMARK Flexibility Score: inf
ROOT
ATOM      1  C   UNL A   1      31.532  29.834  25.174  1.00  0.00     0.116 C 
ENDROOT
BRANCH   1   2
ATOM      2  N   UNL A   1      32.746  29.590  24.436  1.00  0.00    -0.355 N 
ATOM      3  C   UNL A   1      33.052  28.528  23.641  1.00  0.00     0.239 C 
ATOM      4  O   UNL A   1      34.135  28.544  23.051  1.00  0.00    -0.273 OA
ATOM      5  H   UNL A   1      33.443  30.280  24.517  1.00  0.00     0.163 HD
BRANCH   3   6
ATOM      6  C   UNL A   1      32.051  27.383  23.444  1.00  0.00     0.219 C 
BRANCH   6   7
ATOM      7  N   UNL A   1      32.297  26.165  24.224  1.00  0.00    -0.329 N 
BRANCH   7   8
ATOM      8  C   UNL A   1      33.484  25.377  23.880  1.00  0.00     0.147 C 
BRANCH   8   9
ATOM      9  C   UNL A   1      34.429  25.282  25.041  1.00  0.00    -0.014 C 
ATOM     10  C   UNL A   1      35.399  24.360  25.120  1.00  0.00     0.006 C 
ENDBRANCH   8   9
ENDBRANCH   7   8
BRANCH   7  11
ATOM     11  C   UNL A   1      31.446  25.649  25.195  1.00  0.00     0.229 C 
ATOM     12  O   UNL A   1      31.297  26.256  26.265  1.00  0.00    -0.275 OA
BRANCH  11  13
ATOM     13  C   UNL A   1      30.751  24.298  25.041  1.00  0.00     0.168 C 
BRANCH  13  14
ATOM     14  C   UNL A   1      31.209  22.994  25.780  1.00  0.00     0.105 C 
ATOM     15  C   UNL A   1      32.110  22.107  24.881  1.00  0.00     0.069 C 
ATOM     16  C   UNL A   1      32.089  23.504  26.977  1.00  0.00     0.069 C 
ATOM     17  C   UNL A   1      32.976  21.070  25.595  1.00  0.00     0.006 C 
ATOM     18  C   UNL A   1      32.916  22.431  27.687  1.00  0.00     0.006 C 
ATOM     19  C   UNL A   1      33.808  21.695  26.701  1.00  0.00     0.000 C 
BRANCH  14  20
ATOM     20  N   UNL A   1      30.148  22.186  26.417  1.00  0.00    -0.343 N 
ATOM     21  C   UNL A   1      29.269  22.859  27.356  1.00  0.00     0.331 C 
ATOM     22  H   UNL A   1      30.603  21.423  26.918  1.00  0.00     0.346 HD
ATOM     23  H   UNL A   1      29.540  21.901  25.649  1.00  0.00     0.346 HD
ENDBRANCH  14  20
ENDBRANCH  13  14
ENDBRANCH  11  13
ENDBRANCH   7  11
ENDBRANCH   6   7
ENDBRANCH   3   6
ENDBRANCH   1   2
BRANCH   1  24
ATOM     24  C   UNL A   1      31.818  30.419  26.554  1.00  0.00     0.023 C 
BRANCH  24  25
ATOM     25  C   UNL A   1      31.595  31.928  26.665  1.00  0.00     0.023 C 
BRANCH  25  26
ATOM     26  C   UNL A   1      32.747  32.705  27.286  1.00  0.00     0.116 C 
BRANCH  26  27
ATOM     27  N   UNL A   1      32.390  34.061  27.676  1.00  0.00    -0.352 N 
ATOM     28  C   UNL A   1      32.997  34.859  28.614  1.00  0.00     0.251 C 
ATOM     29  H   UNL A   1      31.618  34.456  27.209  1.00  0.00     0.163 HD
ATOM     30  O   UNL A   1      32.557  35.972  28.878  1.00  0.00    -0.269 OA
BRANCH  28  31
ATOM     31  C   UNL A   1      34.160  34.323  29.341  1.00  0.00     0.039 A 
ATOM     32  C   UNL A   1      33.934  33.494  30.441  1.00  0.00     0.014 A 
ATOM     33  C   UNL A   1      35.457  34.573  28.883  1.00  0.00     0.014 A 
ATOM     34  C   UNL A   1      35.014  32.856  31.048  1.00  0.00     0.010 A 
ATOM     35  C   UNL A   1      36.523  33.884  29.447  1.00  0.00     0.010 A 
ATOM     36  C   UNL A   1      36.309  33.020  30.533  1.00  0.00    -0.014 A 
BRANCH  36  37
ATOM     37  C   UNL A   1      37.460  32.296  31.119  1.00  0.00     0.031 A 
ATOM     38  C   UNL A   1      37.968  32.680  32.478  1.00  0.00     0.074 A 
ATOM     39  C   UNL A   1      38.084  31.344  30.400  1.00  0.00     0.049 A 
ATOM     40  N   UNL A   1      39.001  32.221  33.136  1.00  0.00    -0.248 NA
ATOM     41  C   UNL A   1      37.234  33.747  33.177  1.00  0.00     0.031 C 
ATOM     42  C   UNL A   1      37.711  30.924  29.048  1.00  0.00     0.029 A 
ATOM     43  N   UNL A   1      39.171  30.566  30.702  1.00  0.00    -0.354 N 
ATOM     44  C   UNL A   1      39.050  32.952  34.314  1.00  0.00     0.074 A 
ATOM     45  C   UNL A   1      37.978  33.921  34.259  1.00  0.00     0.031 C 
ATOM     46  C   UNL A   1      38.542  29.949  28.646  1.00  0.00     0.029 A 
ATOM     47  C   UNL A   1      39.524  29.699  29.697  1.00  0.00     0.049 A 
ATOM     48  H   UNL A   1      39.654  30.623  31.558  1.00  0.00     0.167 HD
ATOM     49  C   UNL A   1      39.899  32.810  35.359  1.00  0.00     0.037 A 
ATOM     50  C   UNL A   1      40.528  28.805  29.634  1.00  0.00     0.037 A 
ATOM     51  C   UNL A   1      40.944  31.823  35.419  1.00  0.00     0.049 A 
ATOM     52  C   UNL A   1      41.451  28.658  30.812  1.00  0.00     0.074 A 
ATOM     53  C   UNL A   1      41.817  31.552  36.457  1.00  0.00     0.029 A 
ATOM     54  N   UNL A   1      41.254  30.942  34.393  1.00  0.00    -0.354 N 
ATOM     55  N   UNL A   1      41.446  29.306  31.952  1.00  0.00    -0.248 NA
ATOM     56  C   UNL A   1      42.514  27.650  30.699  1.00  0.00     0.031 C 
ATOM     57  C   UNL A   1      42.680  30.531  36.045  1.00  0.00     0.029 A 
ATOM     58  C   UNL A   1      42.318  30.138  34.767  1.00  0.00     0.049 A 
ATOM     59  H   UNL A   1      40.788  30.897  33.527  1.00  0.00     0.167 HD
ATOM     60  C   UNL A   1      42.484  28.769  32.700  1.00  0.00     0.074 A 
ATOM     61  C   UNL A   1      43.090  27.732  31.891  1.00  0.00     0.031 C 
ATOM     62  C   UNL A   1      42.899  29.106  33.947  1.00  0.00     0.037 A 
BRANCH  49  63
ATOM     63  C   UNL A   1      39.726  33.743  36.519  1.00  0.00     0.064 A 
ATOM     64  C   UNL A   1      40.382  34.983  36.569  1.00  0.00     0.173 A 
ATOM     65  C   UNL A   1      38.881  33.405  37.586  1.00  0.00     0.173 A 
ATOM     66  F   UNL A   1      41.212  35.348  35.580  1.00  0.00    -0.203 F 
ATOM     67  C   UNL A   1      40.225  35.834  37.660  1.00  0.00     0.198 A 
ATOM     68  C   UNL A   1      38.704  34.272  38.662  1.00  0.00     0.198 A 
ATOM     69  F   UNL A   1      38.229  32.232  37.588  1.00  0.00    -0.203 F 
ATOM     70  F   UNL A   1      40.905  36.988  37.710  1.00  0.00    -0.200 F 
ATOM     71  C   UNL A   1      39.381  35.481  38.702  1.00  0.00     0.200 A 
ATOM     72  F   UNL A   1      37.881  33.933  39.665  1.00  0.00    -0.200 F 
ATOM     73  F   UNL A   1      39.230  36.301  39.751  1.00  0.00    -0.200 F 
ENDBRANCH  49  63
BRANCH  50  74
ATOM     74  C   UNL A   1      40.690  27.956  28.426  1.00  0.00     0.064 A 
ATOM     75  C   UNL A   1      41.463  28.393  27.341  1.00  0.00     0.173 A 
ATOM     76  C   UNL A   1      40.085  26.694  28.332  1.00  0.00     0.173 A 
ATOM     77  F   UNL A   1      42.043  29.601  27.379  1.00  0.00    -0.203 F 
ATOM     78  C   UNL A   1      41.610  27.608  26.201  1.00  0.00     0.198 A 
ATOM     79  C   UNL A   1      40.255  25.899  27.200  1.00  0.00     0.198 A 
ATOM     80  F   UNL A   1      39.341  26.228  29.346  1.00  0.00    -0.203 F 
ATOM     81  F   UNL A   1      42.322  28.067  25.163  1.00  0.00    -0.200 F 
ATOM     82  C   UNL A   1      41.012  26.359  26.133  1.00  0.00     0.200 A 
ATOM     83  F   UNL A   1      39.684  24.688  27.144  1.00  0.00    -0.200 F 
ATOM     84  F   UNL A   1      41.158  25.602  25.037  1.00  0.00    -0.200 F 
ENDBRANCH  50  74
BRANCH  62  85
ATOM     85  C   UNL A   1      44.042  28.323  34.522  1.00  0.00     0.064 A 
ATOM     86  C   UNL A   1      43.830  27.165  35.283  1.00  0.00     0.173 A 
ATOM     87  C   UNL A   1      45.366  28.713  34.268  1.00  0.00     0.173 A 
ATOM     88  F   UNL A   1      42.581  26.763  35.565  1.00  0.00    -0.203 F 
ATOM     89  C   UNL A   1      44.903  26.436  35.788  1.00  0.00     0.198 A 
ATOM     90  C   UNL A   1      46.436  27.967  34.751  1.00  0.00     0.198 A 
ATOM     91  F   UNL A   1      45.621  29.809  33.540  1.00  0.00    -0.203 F 
ATOM     92  F   UNL A   1      44.677  25.355  36.548  1.00  0.00    -0.200 F 
ATOM     93  C   UNL A   1      46.204  26.833  35.515  1.00  0.00     0.200 A 
ATOM     94  F   UNL A   1      47.692  28.343  34.478  1.00  0.00    -0.200 F 
ATOM     95  F   UNL A   1      47.236  26.124  35.996  1.00  0.00    -0.200 F 
ENDBRANCH  62  85
ENDBRANCH  36  37
ENDBRANCH  28  31
ENDBRANCH  26  27
ENDBRANCH  25  26
ENDBRANCH  24  25
ENDBRANCH   1  24
TORSDOF 18
ENDMDL
