MODEL 1
REMARK VINA RESULT:     -14.2      0.000      0.000
REMARK SMILES CC1=C(CC(=O)NCCCCNC(=O)c2ccc(-c3c4nc(c(-c5c(F)c(F)c(F)c(F)c5F)c5ccc([nH]5)c(-c5c(F)c(F)c(F)c(F)c5F)c5nc(c(-c6c(F)c(F)c(F)c(F)c6F)c6ccc3[nH]6)C=C5)C=C4)cc2)c2cc(F)ccc2/C1=C\c1cccc(OCc2ccccc2)c1
REMARK SMILES IDX 8 1 7 2 5 3 6 4 4 6 3 7 1 8 2 9 85 10 78 11 84 12 86 13
REMARK SMILES IDX 79 14 83 15 80 16 82 17 81 18 87 19 88 20 100 21 89 22 91 23
REMARK SMILES IDX 90 24 92 25 93 26 94 27 95 28 99 29 96 30 98 31 97 32 9 33
REMARK SMILES IDX 10 34 11 35 12 36 13 37 14 39 15 40 16 41 77 42 17 43 76 44
REMARK SMILES IDX 18 45 19 46 20 47 70 48 21 49 75 50 69 51 71 52 22 53 74 54
REMARK SMILES IDX 68 55 67 56 23 58 55 59 35 60 54 61 36 62 39 63 53 64 72 65
REMARK SMILES IDX 37 66 38 67 52 69 73 70 40 71 24 72 25 73 33 74 26 75 27 76
REMARK SMILES IDX 31 77 34 78 28 79 29 80 32 81 30 82 56 83 57 84 65 85 58 86
REMARK SMILES IDX 59 87 63 88 66 89 60 90 61 91 64 92 62 93 41 94 42 95 50 96
REMARK SMILES IDX 43 97 44 98 48 99 51 100 45 101 46 102 49 103 47 104
REMARK H PARENT 7 5 12 38 71 57 39 68
REMARK Flexibility Score: inf
ROOT
ATOM      1  C   UNL A   1      31.426  30.004  25.467  1.00  0.00     0.116 C 
ENDROOT
BRANCH   1   2
ATOM      2  N   UNL A   1      30.851  29.708  24.171  1.00  0.00    -0.356 N 
ATOM      3  C   UNL A   1      31.474  29.280  23.034  1.00  0.00     0.224 C 
ATOM      4  O   UNL A   1      30.787  29.105  22.025  1.00  0.00    -0.275 OA
ATOM      5  H   UNL A   1      29.877  29.834  24.100  1.00  0.00     0.163 HD
BRANCH   3   6
ATOM      6  C   UNL A   1      32.975  28.991  23.029  1.00  0.00     0.136 C 
BRANCH   6   7
ATOM      7  C   UNL A   1      33.305  27.614  23.503  1.00  0.00    -0.027 C 
ATOM      8  C   UNL A   1      33.844  28.016  25.975  1.00  0.00     0.045 C 
ATOM      9  C   UNL A   1      33.701  27.203  24.731  1.00  0.00    -0.039 C 
ATOM     10  C   UNL A   1      34.019  25.767  24.686  1.00  0.00    -0.014 C 
ATOM     11  C   UNL A   1      33.251  26.428  22.627  1.00  0.00    -0.011 A 
ATOM     12  C   UNL A   1      33.657  25.286  23.341  1.00  0.00    -0.010 A 
ATOM     13  C   UNL A   1      34.595  25.092  25.696  1.00  0.00     0.017 C 
ATOM     14  C   UNL A   1      32.867  26.329  21.296  1.00  0.00     0.048 A 
ATOM     15  C   UNL A   1      33.653  24.034  22.741  1.00  0.00     0.012 A 
ATOM     16  C   UNL A   1      32.894  25.073  20.694  1.00  0.00     0.123 A 
ATOM     17  C   UNL A   1      33.276  23.933  21.401  1.00  0.00     0.040 A 
ATOM     18  F   UNL A   1      32.539  24.953  19.409  1.00  0.00    -0.207 F 
BRANCH  13  19
ATOM     19  C   UNL A   1      34.934  23.671  25.684  1.00  0.00    -0.021 A 
ATOM     20  C   UNL A   1      36.223  23.229  25.370  1.00  0.00     0.008 A 
ATOM     21  C   UNL A   1      33.920  22.745  25.946  1.00  0.00     0.054 A 
ATOM     22  C   UNL A   1      36.482  21.863  25.273  1.00  0.00     0.004 A 
ATOM     23  C   UNL A   1      34.183  21.378  25.882  1.00  0.00     0.120 A 
ATOM     24  C   UNL A   1      35.461  20.944  25.519  1.00  0.00     0.046 A 
BRANCH  23  25
ATOM     25  O   UNL A   1      33.291  20.380  26.167  1.00  0.00    -0.489 OA
BRANCH  25  26
ATOM     26  C   UNL A   1      32.626  19.736  25.071  1.00  0.00     0.265 C 
BRANCH  26  27
ATOM     27  C   UNL A   1      32.971  18.270  24.895  1.00  0.00    -0.011 A 
ATOM     28  C   UNL A   1      33.713  17.818  23.793  1.00  0.00     0.007 A 
ATOM     29  C   UNL A   1      32.526  17.331  25.837  1.00  0.00     0.007 A 
ATOM     30  C   UNL A   1      34.046  16.470  23.663  1.00  0.00     0.000 A 
ATOM     31  C   UNL A   1      32.851  15.980  25.700  1.00  0.00     0.000 A 
ATOM     32  C   UNL A   1      33.617  15.551  24.617  1.00  0.00     0.000 A 
ENDBRANCH  26  27
ENDBRANCH  25  26
ENDBRANCH  23  25
ENDBRANCH  13  19
ENDBRANCH   6   7
ENDBRANCH   3   6
ENDBRANCH   1   2
BRANCH   1  33
ATOM     33  C   UNL A   1      31.235  31.468  25.869  1.00  0.00     0.023 C 
BRANCH  33  34
ATOM     34  C   UNL A   1      31.709  31.823  27.277  1.00  0.00     0.023 C 
BRANCH  34  35
ATOM     35  C   UNL A   1      32.860  32.815  27.344  1.00  0.00     0.116 C 
BRANCH  35  36
ATOM     36  N   UNL A   1      32.449  34.180  27.643  1.00  0.00    -0.352 N 
ATOM     37  C   UNL A   1      33.003  35.057  28.548  1.00  0.00     0.251 C 
ATOM     38  H   UNL A   1      31.678  34.518  27.133  1.00  0.00     0.163 HD
ATOM     39  O   UNL A   1      32.489  36.151  28.753  1.00  0.00    -0.269 OA
BRANCH  37  40
ATOM     40  C   UNL A   1      34.197  34.640  29.318  1.00  0.00     0.039 A 
ATOM     41  C   UNL A   1      35.475  34.807  28.786  1.00  0.00     0.014 A 
ATOM     42  C   UNL A   1      34.025  34.014  30.555  1.00  0.00     0.014 A 
ATOM     43  C   UNL A   1      36.557  34.182  29.394  1.00  0.00     0.010 A 
ATOM     44  C   UNL A   1      35.130  33.464  31.213  1.00  0.00     0.010 A 
ATOM     45  C   UNL A   1      36.395  33.489  30.607  1.00  0.00    -0.014 A 
BRANCH  45  46
ATOM     46  C   UNL A   1      37.564  32.781  31.190  1.00  0.00     0.031 A 
ATOM     47  C   UNL A   1      38.026  33.079  32.590  1.00  0.00     0.074 A 
ATOM     48  C   UNL A   1      38.148  31.792  30.487  1.00  0.00     0.049 A 
ATOM     49  N   UNL A   1      38.965  32.494  33.293  1.00  0.00    -0.248 NA
ATOM     50  C   UNL A   1      37.348  34.176  33.300  1.00  0.00     0.031 C 
ATOM     51  C   UNL A   1      37.778  31.400  29.127  1.00  0.00     0.029 A 
ATOM     52  N   UNL A   1      39.138  30.906  30.832  1.00  0.00    -0.354 N 
ATOM     53  C   UNL A   1      38.995  33.153  34.515  1.00  0.00     0.074 A 
ATOM     54  C   UNL A   1      38.007  34.208  34.450  1.00  0.00     0.031 C 
ATOM     55  C   UNL A   1      38.470  30.304  28.783  1.00  0.00     0.029 A 
ATOM     56  C   UNL A   1      39.375  29.952  29.874  1.00  0.00     0.049 A 
ATOM     57  H   UNL A   1      39.630  30.952  31.684  1.00  0.00     0.167 HD
ATOM     58  C   UNL A   1      39.763  32.890  35.600  1.00  0.00     0.037 A 
ATOM     59  C   UNL A   1      40.222  28.906  29.874  1.00  0.00     0.037 A 
ATOM     60  C   UNL A   1      40.732  31.828  35.674  1.00  0.00     0.049 A 
ATOM     61  C   UNL A   1      41.098  28.669  31.070  1.00  0.00     0.074 A 
ATOM     62  C   UNL A   1      41.551  31.479  36.733  1.00  0.00     0.029 A 
ATOM     63  N   UNL A   1      41.007  30.938  34.646  1.00  0.00    -0.354 N 
ATOM     64  N   UNL A   1      41.119  29.303  32.216  1.00  0.00    -0.248 NA
ATOM     65  C   UNL A   1      42.078  27.579  30.965  1.00  0.00     0.031 C 
ATOM     66  C   UNL A   1      42.349  30.402  36.334  1.00  0.00     0.029 A 
ATOM     67  C   UNL A   1      41.998  30.054  35.040  1.00  0.00     0.049 A 
ATOM     68  H   UNL A   1      40.564  30.935  33.766  1.00  0.00     0.167 HD
ATOM     69  C   UNL A   1      42.108  28.690  32.972  1.00  0.00     0.074 A 
ATOM     70  C   UNL A   1      42.649  27.617  32.161  1.00  0.00     0.031 C 
ATOM     71  C   UNL A   1      42.532  28.995  34.221  1.00  0.00     0.037 A 
BRANCH  58  72
ATOM     72  C   UNL A   1      39.589  33.768  36.805  1.00  0.00     0.064 A 
ATOM     73  C   UNL A   1      40.209  35.023  36.892  1.00  0.00     0.173 A 
ATOM     74  C   UNL A   1      38.752  33.375  37.859  1.00  0.00     0.173 A 
ATOM     75  F   UNL A   1      41.028  35.441  35.915  1.00  0.00    -0.203 F 
ATOM     76  C   UNL A   1      40.011  35.845  38.000  1.00  0.00     0.198 A 
ATOM     77  C   UNL A   1      38.536  34.209  38.954  1.00  0.00     0.198 A 
ATOM     78  F   UNL A   1      38.130  32.186  37.822  1.00  0.00    -0.203 F 
ATOM     79  F   UNL A   1      40.643  37.024  38.078  1.00  0.00    -0.200 F 
ATOM     80  C   UNL A   1      39.170  35.441  39.025  1.00  0.00     0.200 A 
ATOM     81  F   UNL A   1      37.714  33.822  39.939  1.00  0.00    -0.200 F 
ATOM     82  F   UNL A   1      38.973  36.236  40.086  1.00  0.00    -0.200 F 
ENDBRANCH  58  72
BRANCH  59  83
ATOM     83  C   UNL A   1      40.253  27.993  28.704  1.00  0.00     0.064 A 
ATOM     84  C   UNL A   1      40.981  28.328  27.555  1.00  0.00     0.173 A 
ATOM     85  C   UNL A   1      39.598  26.754  28.725  1.00  0.00     0.173 A 
ATOM     86  F   UNL A   1      41.609  29.512  27.481  1.00  0.00    -0.203 F 
ATOM     87  C   UNL A   1      41.055  27.456  26.472  1.00  0.00     0.198 A 
ATOM     88  C   UNL A   1      39.693  25.871  27.652  1.00  0.00     0.198 A 
ATOM     89  F   UNL A   1      38.891  26.387  29.805  1.00  0.00    -0.203 F 
ATOM     90  F   UNL A   1      41.742  27.807  25.376  1.00  0.00    -0.200 F 
ATOM     91  C   UNL A   1      40.420  26.224  26.525  1.00  0.00     0.200 A 
ATOM     92  F   UNL A   1      39.091  24.675  27.716  1.00  0.00    -0.200 F 
ATOM     93  F   UNL A   1      40.507  25.376  25.492  1.00  0.00    -0.200 F 
ENDBRANCH  59  83
BRANCH  71  94
ATOM     94  C   UNL A   1      43.638  28.163  34.798  1.00  0.00     0.064 A 
ATOM     95  C   UNL A   1      43.369  26.964  35.472  1.00  0.00     0.173 A 
ATOM     96  C   UNL A   1      44.979  28.534  34.618  1.00  0.00     0.173 A 
ATOM     97  F   UNL A   1      42.102  26.577  35.682  1.00  0.00    -0.203 F 
ATOM     98  C   UNL A   1      44.405  26.169  35.956  1.00  0.00     0.198 A 
ATOM     99  C   UNL A   1      46.012  27.725  35.082  1.00  0.00     0.198 A 
ATOM    100  F   UNL A   1      45.285  29.670  33.974  1.00  0.00    -0.203 F 
ATOM    101  F   UNL A   1      44.126  25.041  36.623  1.00  0.00    -0.200 F 
ATOM    102  C   UNL A   1      45.724  26.545  35.751  1.00  0.00     0.200 A 
ATOM    103  F   UNL A   1      47.286  28.084  34.873  1.00  0.00    -0.200 F 
ATOM    104  F   UNL A   1      46.720  25.771  36.205  1.00  0.00    -0.200 F 
ENDBRANCH  71  94
ENDBRANCH  45  46
ENDBRANCH  37  40
ENDBRANCH  35  36
ENDBRANCH  34  35
ENDBRANCH  33  34
ENDBRANCH   1  33
TORSDOF 16
ENDMDL
MODEL 2
REMARK VINA RESULT:     -13.8      5.002     10.913
REMARK SMILES CC1=C(CC(=O)NCCCCNC(=O)c2ccc(-c3c4nc(c(-c5c(F)c(F)c(F)c(F)c5F)c5ccc([nH]5)c(-c5c(F)c(F)c(F)c(F)c5F)c5nc(c(-c6c(F)c(F)c(F)c(F)c6F)c6ccc3[nH]6)C=C5)C=C4)cc2)c2cc(F)ccc2/C1=C\c1cccc(OCc2ccccc2)c1
REMARK SMILES IDX 8 1 7 2 5 3 6 4 4 6 3 7 1 8 2 9 85 10 78 11 84 12 86 13
REMARK SMILES IDX 79 14 83 15 80 16 82 17 81 18 87 19 88 20 100 21 89 22 91 23
REMARK SMILES IDX 90 24 92 25 93 26 94 27 95 28 99 29 96 30 98 31 97 32 9 33
REMARK SMILES IDX 10 34 11 35 12 36 13 37 14 39 15 40 16 41 77 42 17 43 76 44
REMARK SMILES IDX 18 45 19 46 20 47 70 48 21 49 75 50 69 51 71 52 22 53 74 54
REMARK SMILES IDX 68 55 67 56 23 58 55 59 35 60 54 61 36 62 39 63 53 64 72 65
REMARK SMILES IDX 37 66 38 67 52 69 73 70 40 71 24 72 25 73 33 74 26 75 27 76
REMARK SMILES IDX 31 77 34 78 28 79 29 80 32 81 30 82 56 83 57 84 65 85 58 86
REMARK SMILES IDX 59 87 63 88 66 89 60 90 61 91 64 92 62 93 41 94 42 95 50 96
REMARK SMILES IDX 43 97 44 98 48 99 51 100 45 101 46 102 49 103 47 104
REMARK H PARENT 7 5 12 38 71 57 39 68
REMARK Flexibility Score: inf
ROOT
ATOM      1  C   UNL A   1      43.882  21.392  25.589  1.00  0.00     0.116 C 
ENDROOT
BRANCH   1   2
ATOM      2  N   UNL A   1      42.844  20.400  25.399  1.00  0.00    -0.356 N 
ATOM      3  C   UNL A   1      41.904  19.960  26.286  1.00  0.00     0.224 C 
ATOM      4  O   UNL A   1      41.118  19.085  25.915  1.00  0.00    -0.275 OA
ATOM      5  H   UNL A   1      42.813  19.984  24.507  1.00  0.00     0.163 HD
BRANCH   3   6
ATOM      6  C   UNL A   1      41.807  20.568  27.685  1.00  0.00     0.136 C 
BRANCH   6   7
ATOM      7  C   UNL A   1      41.503  22.030  27.667  1.00  0.00    -0.027 C 
ATOM      8  C   UNL A   1      43.575  23.020  28.803  1.00  0.00     0.045 C 
ATOM      9  C   UNL A   1      42.227  23.061  28.163  1.00  0.00    -0.039 C 
ATOM     10  C   UNL A   1      41.466  24.311  28.008  1.00  0.00    -0.014 C 
ATOM     11  C   UNL A   1      40.274  22.587  27.071  1.00  0.00    -0.011 A 
ATOM     12  C   UNL A   1      40.248  23.983  27.245  1.00  0.00    -0.010 A 
ATOM     13  C   UNL A   1      41.833  25.487  28.544  1.00  0.00     0.017 C 
ATOM     14  C   UNL A   1      39.241  21.938  26.408  1.00  0.00     0.048 A 
ATOM     15  C   UNL A   1      39.206  24.743  26.733  1.00  0.00     0.012 A 
ATOM     16  C   UNL A   1      38.185  22.706  25.923  1.00  0.00     0.123 A 
ATOM     17  C   UNL A   1      38.161  24.093  26.074  1.00  0.00     0.040 A 
ATOM     18  F   UNL A   1      37.170  22.103  25.291  1.00  0.00    -0.207 F 
BRANCH  13  19
ATOM     19  C   UNL A   1      41.098  26.744  28.420  1.00  0.00    -0.021 A 
ATOM     20  C   UNL A   1      40.953  27.387  27.187  1.00  0.00     0.008 A 
ATOM     21  C   UNL A   1      40.579  27.326  29.580  1.00  0.00     0.054 A 
ATOM     22  C   UNL A   1      40.331  28.633  27.126  1.00  0.00     0.004 A 
ATOM     23  C   UNL A   1      39.927  28.556  29.517  1.00  0.00     0.120 A 
ATOM     24  C   UNL A   1      39.829  29.216  28.290  1.00  0.00     0.046 A 
BRANCH  23  25
ATOM     25  O   UNL A   1      39.333  29.198  30.571  1.00  0.00    -0.489 OA
BRANCH  25  26
ATOM     26  C   UNL A   1      40.125  30.121  31.330  1.00  0.00     0.265 C 
BRANCH  26  27
ATOM     27  C   UNL A   1      39.683  31.568  31.228  1.00  0.00    -0.011 A 
ATOM     28  C   UNL A   1      38.784  32.128  32.149  1.00  0.00     0.007 A 
ATOM     29  C   UNL A   1      40.160  32.371  30.181  1.00  0.00     0.007 A 
ATOM     30  C   UNL A   1      38.411  33.468  32.056  1.00  0.00     0.000 A 
ATOM     31  C   UNL A   1      39.777  33.710  30.083  1.00  0.00     0.000 A 
ATOM     32  C   UNL A   1      38.909  34.260  31.026  1.00  0.00     0.000 A 
ENDBRANCH  26  27
ENDBRANCH  25  26
ENDBRANCH  23  25
ENDBRANCH  13  19
ENDBRANCH   6   7
ENDBRANCH   3   6
ENDBRANCH   1   2
BRANCH   1  33
ATOM     33  C   UNL A   1      43.742  22.574  24.628  1.00  0.00     0.023 C 
BRANCH  33  34
ATOM     34  C   UNL A   1      43.942  23.951  25.257  1.00  0.00     0.023 C 
BRANCH  34  35
ATOM     35  C   UNL A   1      45.324  24.202  25.842  1.00  0.00     0.116 C 
BRANCH  35  36
ATOM     36  N   UNL A   1      46.291  24.714  24.881  1.00  0.00    -0.352 N 
ATOM     37  C   UNL A   1      46.692  26.017  24.690  1.00  0.00     0.251 C 
ATOM     38  H   UNL A   1      46.709  24.044  24.294  1.00  0.00     0.163 HD
ATOM     39  O   UNL A   1      47.455  26.308  23.774  1.00  0.00    -0.269 OA
BRANCH  37  40
ATOM     40  C   UNL A   1      46.145  27.077  25.566  1.00  0.00     0.039 A 
ATOM     41  C   UNL A   1      46.963  27.719  26.495  1.00  0.00     0.014 A 
ATOM     42  C   UNL A   1      44.782  27.379  25.501  1.00  0.00     0.014 A 
ATOM     43  C   UNL A   1      46.390  28.515  27.479  1.00  0.00     0.010 A 
ATOM     44  C   UNL A   1      44.220  28.252  26.438  1.00  0.00     0.010 A 
ATOM     45  C   UNL A   1      45.009  28.778  27.472  1.00  0.00    -0.014 A 
BRANCH  45  46
ATOM     46  C   UNL A   1      44.426  29.580  28.579  1.00  0.00     0.031 A 
ATOM     47  C   UNL A   1      44.168  28.961  29.926  1.00  0.00     0.074 A 
ATOM     48  C   UNL A   1      44.225  30.899  28.397  1.00  0.00     0.049 A 
ATOM     49  N   UNL A   1      43.754  29.531  31.031  1.00  0.00    -0.248 NA
ATOM     50  C   UNL A   1      44.403  27.514  30.055  1.00  0.00     0.031 C 
ATOM     51  C   UNL A   1      44.456  31.616  27.142  1.00  0.00     0.029 A 
ATOM     52  N   UNL A   1      43.833  31.879  29.274  1.00  0.00    -0.354 N 
ATOM     53  C   UNL A   1      43.673  28.518  31.977  1.00  0.00     0.074 A 
ATOM     54  C   UNL A   1      44.043  27.288  31.310  1.00  0.00     0.031 C 
ATOM     55  C   UNL A   1      44.279  32.929  27.350  1.00  0.00     0.029 A 
ATOM     56  C   UNL A   1      43.867  33.141  28.734  1.00  0.00     0.049 A 
ATOM     57  H   UNL A   1      43.553  31.694  30.200  1.00  0.00     0.167 HD
ATOM     58  C   UNL A   1      43.338  28.606  33.287  1.00  0.00     0.037 A 
ATOM     59  C   UNL A   1      43.603  34.337  29.292  1.00  0.00     0.037 A 
ATOM     60  C   UNL A   1      42.990  29.832  33.957  1.00  0.00     0.049 A 
ATOM     61  C   UNL A   1      43.185  34.400  30.733  1.00  0.00     0.074 A 
ATOM     62  C   UNL A   1      42.644  30.022  35.283  1.00  0.00     0.029 A 
ATOM     63  N   UNL A   1      42.948  31.078  33.351  1.00  0.00    -0.354 N 
ATOM     64  N   UNL A   1      43.107  33.434  31.612  1.00  0.00    -0.248 NA
ATOM     65  C   UNL A   1      42.803  35.721  31.251  1.00  0.00     0.031 C 
ATOM     66  C   UNL A   1      42.357  31.378  35.472  1.00  0.00     0.029 A 
ATOM     67  C   UNL A   1      42.563  32.039  34.272  1.00  0.00     0.049 A 
ATOM     68  H   UNL A   1      43.160  31.255  32.405  1.00  0.00     0.167 HD
ATOM     69  C   UNL A   1      42.673  34.025  32.790  1.00  0.00     0.074 A 
ATOM     70  C   UNL A   1      42.526  35.440  32.518  1.00  0.00     0.031 C 
ATOM     71  C   UNL A   1      42.414  33.443  33.986  1.00  0.00     0.037 A 
BRANCH  58  72
ATOM     72  C   UNL A   1      43.332  27.339  34.091  1.00  0.00     0.064 A 
ATOM     73  C   UNL A   1      44.520  26.774  34.578  1.00  0.00     0.173 A 
ATOM     74  C   UNL A   1      42.123  26.711  34.424  1.00  0.00     0.173 A 
ATOM     75  F   UNL A   1      45.704  27.329  34.278  1.00  0.00    -0.203 F 
ATOM     76  C   UNL A   1      44.498  25.617  35.354  1.00  0.00     0.198 A 
ATOM     77  C   UNL A   1      42.102  25.569  35.221  1.00  0.00     0.198 A 
ATOM     78  F   UNL A   1      40.957  27.215  33.989  1.00  0.00    -0.203 F 
ATOM     79  F   UNL A   1      45.649  25.074  35.776  1.00  0.00    -0.200 F 
ATOM     80  C   UNL A   1      43.290  25.020  35.680  1.00  0.00     0.200 A 
ATOM     81  F   UNL A   1      40.933  24.999  35.544  1.00  0.00    -0.200 F 
ATOM     82  F   UNL A   1      43.270  23.912  36.433  1.00  0.00    -0.200 F 
ENDBRANCH  58  72
BRANCH  59  83
ATOM     83  C   UNL A   1      43.756  35.570  28.480  1.00  0.00     0.064 A 
ATOM     84  C   UNL A   1      42.649  36.153  27.850  1.00  0.00     0.173 A 
ATOM     85  C   UNL A   1      44.995  36.214  28.354  1.00  0.00     0.173 A 
ATOM     86  F   UNL A   1      41.446  35.563  27.927  1.00  0.00    -0.203 F 
ATOM     87  C   UNL A   1      42.775  37.336  27.127  1.00  0.00     0.198 A 
ATOM     88  C   UNL A   1      45.116  37.410  27.651  1.00  0.00     0.198 A 
ATOM     89  F   UNL A   1      46.083  35.695  28.942  1.00  0.00    -0.203 F 
ATOM     90  F   UNL A   1      41.705  37.864  26.517  1.00  0.00    -0.200 F 
ATOM     91  C   UNL A   1      44.006  37.970  27.036  1.00  0.00     0.200 A 
ATOM     92  F   UNL A   1      46.304  38.026  27.581  1.00  0.00    -0.200 F 
ATOM     93  F   UNL A   1      44.124  39.118  26.357  1.00  0.00    -0.200 F 
ENDBRANCH  59  83
BRANCH  71  94
ATOM     94  C   UNL A   1      41.942  34.331  35.097  1.00  0.00     0.064 A 
ATOM     95  C   UNL A   1      42.824  35.195  35.762  1.00  0.00     0.173 A 
ATOM     96  C   UNL A   1      40.587  34.366  35.457  1.00  0.00     0.173 A 
ATOM     97  F   UNL A   1      44.132  35.186  35.463  1.00  0.00    -0.203 F 
ATOM     98  C   UNL A   1      42.366  36.057  36.755  1.00  0.00     0.198 A 
ATOM     99  C   UNL A   1      40.129  35.245  36.434  1.00  0.00     0.198 A 
ATOM    100  F   UNL A   1      39.704  33.562  34.845  1.00  0.00    -0.203 F 
ATOM    101  F   UNL A   1      43.230  36.855  37.398  1.00  0.00    -0.200 F 
ATOM    102  C   UNL A   1      41.018  36.088  37.083  1.00  0.00     0.200 A 
ATOM    103  F   UNL A   1      38.825  35.283  36.741  1.00  0.00    -0.200 F 
ATOM    104  F   UNL A   1      40.578  36.928  38.030  1.00  0.00    -0.200 F 
ENDBRANCH  71  94
ENDBRANCH  45  46
ENDBRANCH  37  40
ENDBRANCH  35  36
ENDBRANCH  34  35
ENDBRANCH  33  34
ENDBRANCH   1  33
TORSDOF 16
ENDMDL
MODEL 3
REMARK VINA RESULT:     -13.7      4.772     10.701
REMARK SMILES CC1=C(CC(=O)NCCCCNC(=O)c2ccc(-c3c4nc(c(-c5c(F)c(F)c(F)c(F)c5F)c5ccc([nH]5)c(-c5c(F)c(F)c(F)c(F)c5F)c5nc(c(-c6c(F)c(F)c(F)c(F)c6F)c6ccc3[nH]6)C=C5)C=C4)cc2)c2cc(F)ccc2/C1=C\c1cccc(OCc2ccccc2)c1
REMARK SMILES IDX 8 1 7 2 5 3 6 4 4 6 3 7 1 8 2 9 85 10 78 11 84 12 86 13
REMARK SMILES IDX 79 14 83 15 80 16 82 17 81 18 87 19 88 20 100 21 89 22 91 23
REMARK SMILES IDX 90 24 92 25 93 26 94 27 95 28 99 29 96 30 98 31 97 32 9 33
REMARK SMILES IDX 10 34 11 35 12 36 13 37 14 39 15 40 16 41 77 42 17 43 76 44
REMARK SMILES IDX 18 45 19 46 20 47 70 48 21 49 75 50 69 51 71 52 22 53 74 54
REMARK SMILES IDX 68 55 67 56 23 58 55 59 35 60 54 61 36 62 39 63 53 64 72 65
REMARK SMILES IDX 37 66 38 67 52 69 73 70 40 71 24 72 25 73 33 74 26 75 27 76
REMARK SMILES IDX 31 77 34 78 28 79 29 80 32 81 30 82 56 83 57 84 65 85 58 86
REMARK SMILES IDX 59 87 63 88 66 89 60 90 61 91 64 92 62 93 41 94 42 95 50 96
REMARK SMILES IDX 43 97 44 98 48 99 51 100 45 101 46 102 49 103 47 104
REMARK H PARENT 7 5 12 38 71 57 39 68
REMARK Flexibility Score: inf
ROOT
ATOM      1  C   UNL A   1      43.963  21.119  25.704  1.00  0.00     0.116 C 
ENDROOT
BRANCH   1   2
ATOM      2  N   UNL A   1      42.864  20.219  25.422  1.00  0.00    -0.356 N 
ATOM      3  C   UNL A   1      41.814  19.870  26.222  1.00  0.00     0.224 C 
ATOM      4  O   UNL A   1      40.991  19.063  25.782  1.00  0.00    -0.275 OA
ATOM      5  H   UNL A   1      42.876  19.800  24.531  1.00  0.00     0.163 HD
BRANCH   3   6
ATOM      6  C   UNL A   1      41.647  20.494  27.607  1.00  0.00     0.136 C 
BRANCH   6   7
ATOM      7  C   UNL A   1      41.298  21.945  27.555  1.00  0.00    -0.027 C 
ATOM      8  C   UNL A   1      43.312  23.020  28.719  1.00  0.00     0.045 C 
ATOM      9  C   UNL A   1      41.978  23.008  28.048  1.00  0.00    -0.039 C 
ATOM     10  C   UNL A   1      41.183  24.230  27.852  1.00  0.00    -0.014 C 
ATOM     11  C   UNL A   1      40.068  22.453  26.920  1.00  0.00    -0.011 A 
ATOM     12  C   UNL A   1      39.995  23.851  27.068  1.00  0.00    -0.010 A 
ATOM     13  C   UNL A   1      41.501  25.427  28.375  1.00  0.00     0.017 C 
ATOM     14  C   UNL A   1      39.070  21.761  26.246  1.00  0.00     0.048 A 
ATOM     15  C   UNL A   1      38.942  24.569  26.517  1.00  0.00     0.012 A 
ATOM     16  C   UNL A   1      38.003  22.487  25.722  1.00  0.00     0.123 A 
ATOM     17  C   UNL A   1      37.933  23.875  25.847  1.00  0.00     0.040 A 
ATOM     18  F   UNL A   1      37.023  21.842  25.078  1.00  0.00    -0.207 F 
BRANCH  13  19
ATOM     19  C   UNL A   1      40.732  26.658  28.210  1.00  0.00    -0.021 A 
ATOM     20  C   UNL A   1      40.891  27.475  27.086  1.00  0.00     0.008 A 
ATOM     21  C   UNL A   1      39.857  27.035  29.234  1.00  0.00     0.054 A 
ATOM     22  C   UNL A   1      40.211  28.689  27.013  1.00  0.00     0.004 A 
ATOM     23  C   UNL A   1      39.151  28.233  29.148  1.00  0.00     0.120 A 
ATOM     24  C   UNL A   1      39.353  29.069  28.046  1.00  0.00     0.046 A 
BRANCH  23  25
ATOM     25  O   UNL A   1      38.232  28.683  30.057  1.00  0.00    -0.489 OA
BRANCH  25  26
ATOM     26  C   UNL A   1      37.488  29.867  29.734  1.00  0.00     0.265 C 
BRANCH  26  27
ATOM     27  C   UNL A   1      38.142  31.164  30.168  1.00  0.00    -0.011 A 
ATOM     28  C   UNL A   1      38.006  32.342  29.419  1.00  0.00     0.007 A 
ATOM     29  C   UNL A   1      38.922  31.196  31.335  1.00  0.00     0.007 A 
ATOM     30  C   UNL A   1      38.590  33.533  29.849  1.00  0.00     0.000 A 
ATOM     31  C   UNL A   1      39.515  32.386  31.759  1.00  0.00     0.000 A 
ATOM     32  C   UNL A   1      39.343  33.555  31.020  1.00  0.00     0.000 A 
ENDBRANCH  26  27
ENDBRANCH  25  26
ENDBRANCH  23  25
ENDBRANCH  13  19
ENDBRANCH   6   7
ENDBRANCH   3   6
ENDBRANCH   1   2
BRANCH   1  33
ATOM     33  C   UNL A   1      44.101  22.220  24.651  1.00  0.00     0.023 C 
BRANCH  33  34
ATOM     34  C   UNL A   1      44.152  23.644  25.201  1.00  0.00     0.023 C 
BRANCH  34  35
ATOM     35  C   UNL A   1      45.480  24.051  25.823  1.00  0.00     0.116 C 
BRANCH  35  36
ATOM     36  N   UNL A   1      46.427  24.623  24.876  1.00  0.00    -0.352 N 
ATOM     37  C   UNL A   1      46.787  25.943  24.724  1.00  0.00     0.251 C 
ATOM     38  H   UNL A   1      46.864  23.985  24.267  1.00  0.00     0.163 HD
ATOM     39  O   UNL A   1      47.537  26.286  23.817  1.00  0.00    -0.269 OA
BRANCH  37  40
ATOM     40  C   UNL A   1      46.210  26.958  25.634  1.00  0.00     0.039 A 
ATOM     41  C   UNL A   1      47.021  27.635  26.544  1.00  0.00     0.014 A 
ATOM     42  C   UNL A   1      44.830  27.180  25.620  1.00  0.00     0.014 A 
ATOM     43  C   UNL A   1      46.437  28.383  27.559  1.00  0.00     0.010 A 
ATOM     44  C   UNL A   1      44.251  28.007  26.588  1.00  0.00     0.010 A 
ATOM     45  C   UNL A   1      45.044  28.565  27.603  1.00  0.00    -0.014 A 
BRANCH  45  46
ATOM     46  C   UNL A   1      44.454  29.317  28.741  1.00  0.00     0.031 A 
ATOM     47  C   UNL A   1      44.242  28.655  30.075  1.00  0.00     0.074 A 
ATOM     48  C   UNL A   1      44.205  30.632  28.598  1.00  0.00     0.049 A 
ATOM     49  N   UNL A   1      43.830  29.181  31.203  1.00  0.00    -0.248 NA
ATOM     50  C   UNL A   1      44.529  27.214  30.161  1.00  0.00     0.031 C 
ATOM     51  C   UNL A   1      44.387  31.389  27.359  1.00  0.00     0.029 A 
ATOM     52  N   UNL A   1      43.795  31.575  29.508  1.00  0.00    -0.354 N 
ATOM     53  C   UNL A   1      43.800  28.141  32.122  1.00  0.00     0.074 A 
ATOM     54  C   UNL A   1      44.200  26.942  31.416  1.00  0.00     0.031 C 
ATOM     55  C   UNL A   1      44.170  32.690  27.604  1.00  0.00     0.029 A 
ATOM     56  C   UNL A   1      43.776  32.851  29.001  1.00  0.00     0.049 A 
ATOM     57  H   UNL A   1      43.539  31.356  30.432  1.00  0.00     0.167 HD
ATOM     58  C   UNL A   1      43.487  28.184  33.440  1.00  0.00     0.037 A 
ATOM     59  C   UNL A   1      43.481  34.023  29.594  1.00  0.00     0.037 A 
ATOM     60  C   UNL A   1      43.109  29.379  34.148  1.00  0.00     0.049 A 
ATOM     61  C   UNL A   1      43.088  34.034  31.044  1.00  0.00     0.074 A 
ATOM     62  C   UNL A   1      42.782  29.522  35.485  1.00  0.00     0.029 A 
ATOM     63  N   UNL A   1      43.014  30.638  33.576  1.00  0.00    -0.354 N 
ATOM     64  N   UNL A   1      43.060  33.042  31.898  1.00  0.00    -0.248 NA
ATOM     65  C   UNL A   1      42.670  35.326  31.604  1.00  0.00     0.031 C 
ATOM     66  C   UNL A   1      42.452  30.862  35.714  1.00  0.00     0.029 A 
ATOM     67  C   UNL A   1      42.612  31.560  34.529  1.00  0.00     0.049 A 
ATOM     68  H   UNL A   1      43.202  30.847  32.632  1.00  0.00     0.167 HD
ATOM     69  C   UNL A   1      42.627  33.587  33.099  1.00  0.00     0.074 A 
ATOM     70  C   UNL A   1      42.427  35.003  32.867  1.00  0.00     0.031 C 
ATOM     71  C   UNL A   1      42.411  32.966  34.283  1.00  0.00     0.037 A 
BRANCH  58  72
ATOM     72  C   UNL A   1      43.539  26.896  34.210  1.00  0.00     0.064 A 
ATOM     73  C   UNL A   1      42.371  26.200  34.553  1.00  0.00     0.173 A 
ATOM     74  C   UNL A   1      44.771  26.325  34.562  1.00  0.00     0.173 A 
ATOM     75  F   UNL A   1      41.167  26.710  34.249  1.00  0.00    -0.203 F 
ATOM     76  C   UNL A   1      42.434  24.988  35.236  1.00  0.00     0.198 A 
ATOM     77  C   UNL A   1      44.831  25.100  35.223  1.00  0.00     0.198 A 
ATOM     78  F   UNL A   1      45.918  26.947  34.251  1.00  0.00    -0.203 F 
ATOM     79  F   UNL A   1      41.303  24.359  35.586  1.00  0.00    -0.200 F 
ATOM     80  C   UNL A   1      43.663  24.436  35.564  1.00  0.00     0.200 A 
ATOM     81  F   UNL A   1      46.020  24.563  35.529  1.00  0.00    -0.200 F 
ATOM     82  F   UNL A   1      43.721  23.265  36.213  1.00  0.00    -0.200 F 
ENDBRANCH  58  72
BRANCH  59  83
ATOM     83  C   UNL A   1      43.577  35.281  28.813  1.00  0.00     0.064 A 
ATOM     84  C   UNL A   1      44.818  35.895  28.597  1.00  0.00     0.173 A 
ATOM     85  C   UNL A   1      42.445  35.869  28.232  1.00  0.00     0.173 A 
ATOM     86  F   UNL A   1      45.926  35.379  29.150  1.00  0.00    -0.203 F 
ATOM     87  C   UNL A   1      44.923  37.048  27.825  1.00  0.00     0.198 A 
ATOM     88  C   UNL A   1      42.554  37.008  27.439  1.00  0.00     0.198 A 
ATOM     89  F   UNL A   1      41.236  35.316  28.409  1.00  0.00    -0.203 F 
ATOM     90  F   UNL A   1      46.118  37.628  27.648  1.00  0.00    -0.200 F 
ATOM     91  C   UNL A   1      43.792  37.599  27.238  1.00  0.00     0.200 A 
ATOM     92  F   UNL A   1      41.462  37.527  26.861  1.00  0.00    -0.200 F 
ATOM     93  F   UNL A   1      43.896  38.697  26.479  1.00  0.00    -0.200 F 
ENDBRANCH  59  83
BRANCH  71  94
ATOM     94  C   UNL A   1      41.929  33.807  35.426  1.00  0.00     0.064 A 
ATOM     95  C   UNL A   1      40.561  33.939  35.706  1.00  0.00     0.173 A 
ATOM     96  C   UNL A   1      42.842  34.434  36.287  1.00  0.00     0.173 A 
ATOM     97  F   UNL A   1      39.650  33.371  34.902  1.00  0.00    -0.203 F 
ATOM     98  C   UNL A   1      40.124  34.677  36.803  1.00  0.00     0.198 A 
ATOM     99  C   UNL A   1      42.403  35.151  37.395  1.00  0.00     0.198 A 
ATOM    100  F   UNL A   1      44.161  34.332  36.063  1.00  0.00    -0.203 F 
ATOM    101  F   UNL A   1      38.812  34.814  37.036  1.00  0.00    -0.200 F 
ATOM    102  C   UNL A   1      41.046  35.273  37.651  1.00  0.00     0.200 A 
ATOM    103  F   UNL A   1      43.294  35.718  38.221  1.00  0.00    -0.200 F 
ATOM    104  F   UNL A   1      40.623  35.972  38.714  1.00  0.00    -0.200 F 
ENDBRANCH  71  94
ENDBRANCH  45  46
ENDBRANCH  37  40
ENDBRANCH  35  36
ENDBRANCH  34  35
ENDBRANCH  33  34
ENDBRANCH   1  33
TORSDOF 16
ENDMDL
