MODEL 1
REMARK VINA RESULT:     -12.6      0.000      0.000
REMARK SMILES CC(C)(C)c1ccc(C(=O)C[C@H](C(=O)NCCCCNC(=O)c2ccc(-c3c4nc(c(-c5c(F)c(F)c(F)c(F)c5F)c5ccc([nH]5)c(-c5c(F)c(F)c(F)c(F)c5F)c5nc(c(-c6c(F)c(F)c(F)c(F)c6F)c6ccc3[nH]6)C=C5)C=C4)cc2)[NH+]2CCCC2)cc1
REMARK SMILES IDX 16 1 15 2 13 3 14 4 12 6 11 7 9 8 10 9 8 10 5 11 6 12 92 13
REMARK SMILES IDX 7 14 91 15 2 16 1 17 3 18 4 19 86 20 87 21 90 22 88 24 89 25
REMARK SMILES IDX 17 26 18 27 19 28 20 29 21 30 22 32 23 33 24 34 85 35 25 36
REMARK SMILES IDX 84 37 26 38 27 39 28 40 78 41 29 42 83 43 77 44 79 45 30 46
REMARK SMILES IDX 82 47 76 48 75 49 31 51 63 52 43 53 62 54 44 55 47 56 61 57
REMARK SMILES IDX 80 58 45 59 46 60 60 62 81 63 48 64 32 65 33 66 41 67 34 68
REMARK SMILES IDX 35 69 39 70 42 71 36 72 37 73 40 74 38 75 64 76 65 77 73 78
REMARK SMILES IDX 66 79 67 80 71 81 74 82 68 83 69 84 72 85 70 86 49 87 50 88
REMARK SMILES IDX 58 89 51 90 52 91 56 92 59 93 53 94 54 95 57 96 55 97
REMARK H PARENT 15 5 86 23 20 31 79 50 47 61
REMARK Flexibility Score: inf
ROOT
ATOM      1  C   UNL A   1      32.358  29.722  25.756  1.00  0.00     0.116 C 
ENDROOT
BRANCH   1   2
ATOM      2  N   UNL A   1      31.713  28.420  25.702  1.00  0.00    -0.351 N 
ATOM      3  C   UNL A   1      31.032  27.775  24.706  1.00  0.00     0.278 C 
ATOM      4  O   UNL A   1      30.512  26.702  25.039  1.00  0.00    -0.268 OA
ATOM      5  H   UNL A   1      31.778  27.906  26.539  1.00  0.00     0.163 HD
BRANCH   3   6
ATOM      6  C   UNL A   1      30.961  28.274  23.218  1.00  0.00     0.281 C 
BRANCH   6   7
ATOM      7  C   UNL A   1      31.312  27.063  22.310  1.00  0.00     0.156 C 
BRANCH   7   8
ATOM      8  C   UNL A   1      32.776  26.647  22.267  1.00  0.00     0.169 C 
ATOM      9  O   UNL A   1      33.583  27.212  21.532  1.00  0.00    -0.294 OA
BRANCH   8  10
ATOM     10  C   UNL A   1      33.215  25.452  23.051  1.00  0.00     0.018 A 
ATOM     11  C   UNL A   1      34.870  23.461  24.198  1.00  0.00    -0.043 A 
ATOM     12  C   UNL A   1      34.681  24.705  24.826  1.00  0.00     0.005 A 
ATOM     13  C   UNL A   1      34.059  23.184  23.078  1.00  0.00     0.005 A 
ATOM     14  C   UNL A   1      33.860  25.689  24.264  1.00  0.00     0.012 A 
ATOM     15  C   UNL A   1      33.215  24.160  22.522  1.00  0.00     0.012 A 
BRANCH  11  16
ATOM     16  C   UNL A   1      35.949  22.457  24.657  1.00  0.00    -0.013 C 
ATOM     17  C   UNL A   1      36.602  22.939  25.966  1.00  0.00     0.016 C 
ATOM     18  C   UNL A   1      37.071  22.248  23.615  1.00  0.00     0.016 C 
ATOM     19  C   UNL A   1      35.333  21.060  24.918  1.00  0.00     0.016 C 
ENDBRANCH  11  16
ENDBRANCH   8  10
ENDBRANCH   7   8
ENDBRANCH   6   7
BRANCH   6  20
ATOM     20  N   UNL A   1      29.700  28.976  22.986  1.00  0.00    -0.324 N 
ATOM     21  C   UNL A   1      28.469  28.218  23.133  1.00  0.00     0.263 C 
ATOM     22  C   UNL A   1      29.492  30.300  23.524  1.00  0.00     0.263 C 
ATOM     23  H   UNL A   1      29.901  29.110  21.995  1.00  0.00     0.348 HD
ATOM     24  C   UNL A   1      27.450  29.268  22.724  1.00  0.00     0.067 C 
ATOM     25  C   UNL A   1      28.013  30.560  23.295  1.00  0.00     0.067 C 
ENDBRANCH   6  20
ENDBRANCH   3   6
ENDBRANCH   1   2
BRANCH   1  26
ATOM     26  C   UNL A   1      31.805  30.565  26.911  1.00  0.00     0.023 C 
BRANCH  26  27
ATOM     27  C   UNL A   1      31.720  32.058  26.662  1.00  0.00     0.023 C 
BRANCH  27  28
ATOM     28  C   UNL A   1      32.824  32.859  27.316  1.00  0.00     0.116 C 
BRANCH  28  29
ATOM     29  N   UNL A   1      32.451  34.222  27.679  1.00  0.00    -0.352 N 
ATOM     30  C   UNL A   1      33.012  35.020  28.652  1.00  0.00     0.251 C 
ATOM     31  H   UNL A   1      31.708  34.618  27.168  1.00  0.00     0.163 HD
ATOM     32  O   UNL A   1      32.564  36.134  28.900  1.00  0.00    -0.269 OA
BRANCH  30  33
ATOM     33  C   UNL A   1      34.143  34.477  29.432  1.00  0.00     0.039 A 
ATOM     34  C   UNL A   1      33.886  33.693  30.558  1.00  0.00     0.014 A 
ATOM     35  C   UNL A   1      35.445  34.629  28.955  1.00  0.00     0.014 A 
ATOM     36  C   UNL A   1      34.933  32.985  31.152  1.00  0.00     0.010 A 
ATOM     37  C   UNL A   1      36.450  33.819  29.457  1.00  0.00     0.010 A 
ATOM     38  C   UNL A   1      36.213  33.004  30.575  1.00  0.00    -0.014 A 
BRANCH  38  39
ATOM     39  C   UNL A   1      37.351  32.240  31.145  1.00  0.00     0.031 A 
ATOM     40  C   UNL A   1      37.829  32.578  32.531  1.00  0.00     0.074 A 
ATOM     41  C   UNL A   1      38.005  31.327  30.401  1.00  0.00     0.049 A 
ATOM     42  N   UNL A   1      38.894  32.163  33.169  1.00  0.00    -0.248 NA
ATOM     43  C   UNL A   1      37.035  33.567  33.281  1.00  0.00     0.031 C 
ATOM     44  C   UNL A   1      37.685  30.962  29.019  1.00  0.00     0.029 A 
ATOM     45  N   UNL A   1      39.092  30.545  30.703  1.00  0.00    -0.354 N 
ATOM     46  C   UNL A   1      38.917  32.877  34.360  1.00  0.00     0.074 A 
ATOM     47  C   UNL A   1      37.807  33.800  34.328  1.00  0.00     0.031 C 
ATOM     48  C   UNL A   1      38.533  30.005  28.607  1.00  0.00     0.029 A 
ATOM     49  C   UNL A   1      39.478  29.713  29.680  1.00  0.00     0.049 A 
ATOM     50  H   UNL A   1      39.552  30.578  31.573  1.00  0.00     0.167 HD
ATOM     51  C   UNL A   1      39.764  32.747  35.407  1.00  0.00     0.037 A 
ATOM     52  C   UNL A   1      40.481  28.816  29.623  1.00  0.00     0.037 A 
ATOM     53  C   UNL A   1      40.809  31.763  35.468  1.00  0.00     0.049 A 
ATOM     54  C   UNL A   1      41.361  28.633  30.832  1.00  0.00     0.074 A 
ATOM     55  C   UNL A   1      41.671  31.483  36.512  1.00  0.00     0.029 A 
ATOM     56  N   UNL A   1      41.115  30.882  34.442  1.00  0.00    -0.354 N 
ATOM     57  N   UNL A   1      41.336  29.270  31.978  1.00  0.00    -0.248 NA
ATOM     58  C   UNL A   1      42.402  27.599  30.744  1.00  0.00     0.031 C 
ATOM     59  C   UNL A   1      42.515  30.443  36.109  1.00  0.00     0.029 A 
ATOM     60  C   UNL A   1      42.153  30.053  34.829  1.00  0.00     0.049 A 
ATOM     61  H   UNL A   1      40.662  30.851  33.568  1.00  0.00     0.167 HD
ATOM     62  C   UNL A   1      42.329  28.692  32.758  1.00  0.00     0.074 A 
ATOM     63  C   UNL A   1      42.931  27.646  31.959  1.00  0.00     0.031 C 
ATOM     64  C   UNL A   1      42.711  29.000  34.022  1.00  0.00     0.037 A 
BRANCH  51  65
ATOM     65  C   UNL A   1      39.571  33.666  36.576  1.00  0.00     0.064 A 
ATOM     66  C   UNL A   1      38.775  33.303  37.674  1.00  0.00     0.173 A 
ATOM     67  C   UNL A   1      40.199  34.920  36.608  1.00  0.00     0.173 A 
ATOM     68  F   UNL A   1      38.138  32.122  37.685  1.00  0.00    -0.203 F 
ATOM     69  C   UNL A   1      38.588  34.174  38.744  1.00  0.00     0.198 A 
ATOM     70  C   UNL A   1      40.036  35.775  37.695  1.00  0.00     0.198 A 
ATOM     71  F   UNL A   1      40.970  35.316  35.585  1.00  0.00    -0.203 F 
ATOM     72  F   UNL A   1      37.776  33.827  39.752  1.00  0.00    -0.200 F 
ATOM     73  C   UNL A   1      39.225  35.405  38.757  1.00  0.00     0.200 A 
ATOM     74  F   UNL A   1      40.660  36.961  37.712  1.00  0.00    -0.200 F 
ATOM     75  F   UNL A   1      39.048  36.241  39.790  1.00  0.00    -0.200 F 
ENDBRANCH  51  65
BRANCH  52  76
ATOM     76  C   UNL A   1      40.681  27.987  28.406  1.00  0.00     0.064 A 
ATOM     77  C   UNL A   1      41.466  28.457  27.342  1.00  0.00     0.173 A 
ATOM     78  C   UNL A   1      40.087  26.726  28.267  1.00  0.00     0.173 A 
ATOM     79  F   UNL A   1      42.041  29.667  27.418  1.00  0.00    -0.203 F 
ATOM     80  C   UNL A   1      41.624  27.710  26.176  1.00  0.00     0.198 A 
ATOM     81  C   UNL A   1      40.267  25.967  27.112  1.00  0.00     0.198 A 
ATOM     82  F   UNL A   1      39.334  26.226  29.258  1.00  0.00    -0.203 F 
ATOM     83  F   UNL A   1      42.336  28.208  25.156  1.00  0.00    -0.200 F 
ATOM     84  C   UNL A   1      41.027  26.464  26.064  1.00  0.00     0.200 A 
ATOM     85  F   UNL A   1      39.700  24.758  27.011  1.00  0.00    -0.200 F 
ATOM     86  F   UNL A   1      41.177  25.747  24.941  1.00  0.00    -0.200 F 
ENDBRANCH  52  76
BRANCH  64  87
ATOM     87  C   UNL A   1      43.791  28.163  34.635  1.00  0.00     0.064 A 
ATOM     88  C   UNL A   1      43.509  26.934  35.248  1.00  0.00     0.173 A 
ATOM     89  C   UNL A   1      45.131  28.572  34.556  1.00  0.00     0.173 A 
ATOM     90  F   UNL A   1      42.242  26.509  35.357  1.00  0.00    -0.203 F 
ATOM     91  C   UNL A   1      44.531  26.153  35.781  1.00  0.00     0.198 A 
ATOM     92  C   UNL A   1      46.152  27.775  35.065  1.00  0.00     0.198 A 
ATOM     93  F   UNL A   1      45.450  29.735  33.971  1.00  0.00    -0.203 F 
ATOM     94  F   UNL A   1      44.237  25.001  36.398  1.00  0.00    -0.200 F 
ATOM     95  C   UNL A   1      45.851  26.569  35.682  1.00  0.00     0.200 A 
ATOM     96  F   UNL A   1      47.427  28.173  34.957  1.00  0.00    -0.200 F 
ATOM     97  F   UNL A   1      46.833  25.811  36.187  1.00  0.00    -0.200 F 
ENDBRANCH  64  87
ENDBRANCH  38  39
ENDBRANCH  30  33
ENDBRANCH  28  29
ENDBRANCH  27  28
ENDBRANCH  26  27
ENDBRANCH   1  26
TORSDOF 16
ENDMDL
MODEL 2
REMARK VINA RESULT:     -12.5      4.705      9.960
REMARK SMILES CC(C)(C)c1ccc(C(=O)C[C@H](C(=O)NCCCCNC(=O)c2ccc(-c3c4nc(c(-c5c(F)c(F)c(F)c(F)c5F)c5ccc([nH]5)c(-c5c(F)c(F)c(F)c(F)c5F)c5nc(c(-c6c(F)c(F)c(F)c(F)c6F)c6ccc3[nH]6)C=C5)C=C4)cc2)[NH+]2CCCC2)cc1
REMARK SMILES IDX 16 1 15 2 13 3 14 4 12 6 11 7 9 8 10 9 8 10 5 11 6 12 92 13
REMARK SMILES IDX 7 14 91 15 2 16 1 17 3 18 4 19 86 20 87 21 90 22 88 24 89 25
REMARK SMILES IDX 17 26 18 27 19 28 20 29 21 30 22 32 23 33 24 34 85 35 25 36
REMARK SMILES IDX 84 37 26 38 27 39 28 40 78 41 29 42 83 43 77 44 79 45 30 46
REMARK SMILES IDX 82 47 76 48 75 49 31 51 63 52 43 53 62 54 44 55 47 56 61 57
REMARK SMILES IDX 80 58 45 59 46 60 60 62 81 63 48 64 32 65 33 66 41 67 34 68
REMARK SMILES IDX 35 69 39 70 42 71 36 72 37 73 40 74 38 75 64 76 65 77 73 78
REMARK SMILES IDX 66 79 67 80 71 81 74 82 68 83 69 84 72 85 70 86 49 87 50 88
REMARK SMILES IDX 58 89 51 90 52 91 56 92 59 93 53 94 54 95 57 96 55 97
REMARK H PARENT 15 5 86 23 20 31 79 50 47 61
REMARK Flexibility Score: inf
ROOT
ATOM      1  C   UNL A   1      34.736  24.064  23.884  1.00  0.00     0.116 C 
ENDROOT
BRANCH   1   2
ATOM      2  N   UNL A   1      34.603  25.103  24.893  1.00  0.00    -0.351 N 
ATOM      3  C   UNL A   1      33.515  25.778  25.375  1.00  0.00     0.278 C 
ATOM      4  O   UNL A   1      33.777  26.690  26.170  1.00  0.00    -0.268 OA
ATOM      5  H   UNL A   1      35.455  25.372  25.306  1.00  0.00     0.163 HD
BRANCH   3   6
ATOM      6  C   UNL A   1      32.025  25.404  25.044  1.00  0.00     0.281 C 
BRANCH   6   7
ATOM      7  C   UNL A   1      31.329  25.052  26.388  1.00  0.00     0.156 C 
BRANCH   7   8
ATOM      8  C   UNL A   1      31.125  23.573  26.681  1.00  0.00     0.169 C 
ATOM      9  O   UNL A   1      30.322  23.191  27.529  1.00  0.00    -0.294 OA
BRANCH   8  10
ATOM     10  C   UNL A   1      32.002  22.569  26.002  1.00  0.00     0.018 A 
ATOM     11  C   UNL A   1      32.986  20.105  25.015  1.00  0.00    -0.043 A 
ATOM     12  C   UNL A   1      32.065  20.871  24.279  1.00  0.00     0.005 A 
ATOM     13  C   UNL A   1      33.532  20.702  26.169  1.00  0.00     0.005 A 
ATOM     14  C   UNL A   1      31.581  22.092  24.762  1.00  0.00     0.012 A 
ATOM     15  C   UNL A   1      33.068  21.939  26.647  1.00  0.00     0.012 A 
BRANCH  11  16
ATOM     16  C   UNL A   1      33.349  18.654  24.632  1.00  0.00    -0.013 C 
ATOM     17  C   UNL A   1      32.762  17.669  25.661  1.00  0.00     0.016 C 
ATOM     18  C   UNL A   1      34.873  18.406  24.552  1.00  0.00     0.016 C 
ATOM     19  C   UNL A   1      32.776  18.288  23.240  1.00  0.00     0.016 C 
ENDBRANCH  11  16
ENDBRANCH   8  10
ENDBRANCH   7   8
ENDBRANCH   6   7
BRANCH   6  20
ATOM     20  N   UNL A   1      31.428  26.437  24.198  1.00  0.00    -0.324 N 
ATOM     21  C   UNL A   1      31.570  26.295  22.759  1.00  0.00     0.263 C 
ATOM     22  C   UNL A   1      30.105  26.937  24.483  1.00  0.00     0.263 C 
ATOM     23  H   UNL A   1      32.072  27.153  24.535  1.00  0.00     0.348 HD
ATOM     24  C   UNL A   1      30.913  27.582  22.291  1.00  0.00     0.067 C 
ATOM     25  C   UNL A   1      29.758  27.773  23.262  1.00  0.00     0.067 C 
ENDBRANCH   6  20
ENDBRANCH   3   6
ENDBRANCH   1   2
BRANCH   1  26
ATOM     26  C   UNL A   1      36.173  23.531  23.826  1.00  0.00     0.023 C 
BRANCH  26  27
ATOM     27  C   UNL A   1      36.368  22.098  24.279  1.00  0.00     0.023 C 
BRANCH  27  28
ATOM     28  C   UNL A   1      37.026  21.961  25.634  1.00  0.00     0.116 C 
BRANCH  28  29
ATOM     29  N   UNL A   1      38.082  20.956  25.696  1.00  0.00    -0.352 N 
ATOM     30  C   UNL A   1      39.364  21.107  26.181  1.00  0.00     0.251 C 
ATOM     31  H   UNL A   1      37.853  20.064  25.349  1.00  0.00     0.163 HD
ATOM     32  O   UNL A   1      40.180  20.194  26.121  1.00  0.00    -0.269 OA
BRANCH  30  33
ATOM     33  C   UNL A   1      39.750  22.422  26.730  1.00  0.00     0.039 A 
ATOM     34  C   UNL A   1      40.763  22.496  27.688  1.00  0.00     0.014 A 
ATOM     35  C   UNL A   1      39.204  23.584  26.185  1.00  0.00     0.014 A 
ATOM     36  C   UNL A   1      41.292  23.742  28.030  1.00  0.00     0.010 A 
ATOM     37  C   UNL A   1      39.824  24.800  26.419  1.00  0.00     0.010 A 
ATOM     38  C   UNL A   1      40.860  24.899  27.360  1.00  0.00    -0.014 A 
BRANCH  38  39
ATOM     39  C   UNL A   1      41.417  26.242  27.658  1.00  0.00     0.031 A 
ATOM     40  C   UNL A   1      42.802  26.577  27.173  1.00  0.00     0.074 A 
ATOM     41  C   UNL A   1      40.736  27.110  28.430  1.00  0.00     0.049 A 
ATOM     42  N   UNL A   1      43.553  27.613  27.447  1.00  0.00    -0.248 NA
ATOM     43  C   UNL A   1      43.459  25.578  26.311  1.00  0.00     0.031 C 
ATOM     44  C   UNL A   1      39.417  26.876  29.022  1.00  0.00     0.029 A 
ATOM     45  N   UNL A   1      41.071  28.369  28.863  1.00  0.00    -0.354 N 
ATOM     46  C   UNL A   1      44.774  27.360  26.836  1.00  0.00     0.074 A 
ATOM     47  C   UNL A   1      44.693  26.048  26.240  1.00  0.00     0.031 C 
ATOM     48  C   UNL A   1      39.041  27.967  29.709  1.00  0.00     0.029 A 
ATOM     49  C   UNL A   1      40.105  28.964  29.639  1.00  0.00     0.049 A 
ATOM     50  H   UNL A   1      41.924  28.806  28.638  1.00  0.00     0.167 HD
ATOM     51  C   UNL A   1      45.856  28.168  26.744  1.00  0.00     0.037 A 
ATOM     52  C   UNL A   1      40.086  30.179  30.220  1.00  0.00     0.037 A 
ATOM     53  C   UNL A   1      45.895  29.508  27.262  1.00  0.00     0.049 A 
ATOM     54  C   UNL A   1      41.270  31.091  30.036  1.00  0.00     0.074 A 
ATOM     55  C   UNL A   1      46.904  30.447  27.151  1.00  0.00     0.029 A 
ATOM     56  N   UNL A   1      44.863  30.103  27.970  1.00  0.00    -0.354 N 
ATOM     57  N   UNL A   1      42.396  30.867  29.402  1.00  0.00    -0.248 NA
ATOM     58  C   UNL A   1      41.177  32.429  30.636  1.00  0.00     0.031 C 
ATOM     59  C   UNL A   1      46.490  31.607  27.812  1.00  0.00     0.029 A 
ATOM     60  C   UNL A   1      45.209  31.401  28.302  1.00  0.00     0.049 A 
ATOM     61  H   UNL A   1      44.011  29.669  28.203  1.00  0.00     0.167 HD
ATOM     62  C   UNL A   1      43.128  32.044  29.497  1.00  0.00     0.074 A 
ATOM     63  C   UNL A   1      42.314  32.983  30.240  1.00  0.00     0.031 C 
ATOM     64  C   UNL A   1      44.364  32.322  29.016  1.00  0.00     0.037 A 
BRANCH  51  65
ATOM     65  C   UNL A   1      47.063  27.635  26.032  1.00  0.00     0.064 A 
ATOM     66  C   UNL A   1      48.101  26.990  26.724  1.00  0.00     0.173 A 
ATOM     67  C   UNL A   1      47.179  27.754  24.639  1.00  0.00     0.173 A 
ATOM     68  F   UNL A   1      48.047  26.866  28.058  1.00  0.00    -0.203 F 
ATOM     69  C   UNL A   1      49.225  26.517  26.053  1.00  0.00     0.198 A 
ATOM     70  C   UNL A   1      48.289  27.250  23.967  1.00  0.00     0.198 A 
ATOM     71  F   UNL A   1      46.215  28.360  23.930  1.00  0.00    -0.203 F 
ATOM     72  F   UNL A   1      50.229  25.960  26.743  1.00  0.00    -0.200 F 
ATOM     73  C   UNL A   1      49.314  26.640  24.674  1.00  0.00     0.200 A 
ATOM     74  F   UNL A   1      48.371  27.360  22.634  1.00  0.00    -0.200 F 
ATOM     75  F   UNL A   1      50.395  26.179  24.029  1.00  0.00    -0.200 F 
ENDBRANCH  51  65
BRANCH  52  76
ATOM     76  C   UNL A   1      38.894  30.627  30.988  1.00  0.00     0.064 A 
ATOM     77  C   UNL A   1      37.837  31.289  30.345  1.00  0.00     0.173 A 
ATOM     78  C   UNL A   1      38.788  30.422  32.369  1.00  0.00     0.173 A 
ATOM     79  F   UNL A   1      37.899  31.526  29.026  1.00  0.00    -0.203 F 
ATOM     80  C   UNL A   1      36.735  31.756  31.060  1.00  0.00     0.198 A 
ATOM     81  C   UNL A   1      37.674  30.865  33.081  1.00  0.00     0.198 A 
ATOM     82  F   UNL A   1      39.766  29.786  33.031  1.00  0.00    -0.203 F 
ATOM     83  F   UNL A   1      35.767  32.431  30.428  1.00  0.00    -0.200 F 
ATOM     84  C   UNL A   1      36.653  31.539  32.427  1.00  0.00     0.200 A 
ATOM     85  F   UNL A   1      37.590  30.643  34.399  1.00  0.00    -0.200 F 
ATOM     86  F   UNL A   1      35.595  31.990  33.116  1.00  0.00    -0.200 F 
ENDBRANCH  52  76
BRANCH  64  87
ATOM     87  C   UNL A   1      44.887  33.710  29.229  1.00  0.00     0.064 A 
ATOM     88  C   UNL A   1      45.669  34.037  30.346  1.00  0.00     0.173 A 
ATOM     89  C   UNL A   1      44.649  34.709  28.273  1.00  0.00     0.173 A 
ATOM     90  F   UNL A   1      45.911  33.118  31.293  1.00  0.00    -0.203 F 
ATOM     91  C   UNL A   1      46.175  35.323  30.509  1.00  0.00     0.198 A 
ATOM     92  C   UNL A   1      45.181  35.985  28.425  1.00  0.00     0.198 A 
ATOM     93  F   UNL A   1      43.915  34.439  27.183  1.00  0.00    -0.203 F 
ATOM     94  F   UNL A   1      46.886  35.627  31.604  1.00  0.00    -0.200 F 
ATOM     95  C   UNL A   1      45.938  36.293  29.546  1.00  0.00     0.200 A 
ATOM     96  F   UNL A   1      44.962  36.916  27.487  1.00  0.00    -0.200 F 
ATOM     97  F   UNL A   1      46.436  37.527  29.700  1.00  0.00    -0.200 F 
ENDBRANCH  64  87
ENDBRANCH  38  39
ENDBRANCH  30  33
ENDBRANCH  28  29
ENDBRANCH  27  28
ENDBRANCH  26  27
ENDBRANCH   1  26
TORSDOF 16
ENDMDL
MODEL 3
REMARK VINA RESULT:     -12.5      0.643      1.532
REMARK SMILES CC(C)(C)c1ccc(C(=O)C[C@H](C(=O)NCCCCNC(=O)c2ccc(-c3c4nc(c(-c5c(F)c(F)c(F)c(F)c5F)c5ccc([nH]5)c(-c5c(F)c(F)c(F)c(F)c5F)c5nc(c(-c6c(F)c(F)c(F)c(F)c6F)c6ccc3[nH]6)C=C5)C=C4)cc2)[NH+]2CCCC2)cc1
REMARK SMILES IDX 16 1 15 2 13 3 14 4 12 6 11 7 9 8 10 9 8 10 5 11 6 12 92 13
REMARK SMILES IDX 7 14 91 15 2 16 1 17 3 18 4 19 86 20 87 21 90 22 88 24 89 25
REMARK SMILES IDX 17 26 18 27 19 28 20 29 21 30 22 32 23 33 24 34 85 35 25 36
REMARK SMILES IDX 84 37 26 38 27 39 28 40 78 41 29 42 83 43 77 44 79 45 30 46
REMARK SMILES IDX 82 47 76 48 75 49 31 51 63 52 43 53 62 54 44 55 47 56 61 57
REMARK SMILES IDX 80 58 45 59 46 60 60 62 81 63 48 64 32 65 33 66 41 67 34 68
REMARK SMILES IDX 35 69 39 70 42 71 36 72 37 73 40 74 38 75 64 76 65 77 73 78
REMARK SMILES IDX 66 79 67 80 71 81 74 82 68 83 69 84 72 85 70 86 49 87 50 88
REMARK SMILES IDX 58 89 51 90 52 91 56 92 59 93 53 94 54 95 57 96 55 97
REMARK H PARENT 15 5 86 23 20 31 79 50 47 61
REMARK Flexibility Score: inf
ROOT
ATOM      1  C   UNL A   1      31.366  30.120  25.361  1.00  0.00     0.116 C 
ENDROOT
BRANCH   1   2
ATOM      2  N   UNL A   1      32.274  29.641  24.331  1.00  0.00    -0.351 N 
ATOM      3  C   UNL A   1      32.135  28.692  23.356  1.00  0.00     0.278 C 
ATOM      4  O   UNL A   1      33.161  28.457  22.705  1.00  0.00    -0.268 OA
ATOM      5  H   UNL A   1      33.154  30.082  24.337  1.00  0.00     0.163 HD
BRANCH   3   6
ATOM      6  C   UNL A   1      30.776  27.991  22.993  1.00  0.00     0.281 C 
BRANCH   6   7
ATOM      7  C   UNL A   1      30.551  26.858  24.031  1.00  0.00     0.156 C 
BRANCH   7   8
ATOM      8  C   UNL A   1      31.068  25.477  23.654  1.00  0.00     0.169 C 
ATOM      9  O   UNL A   1      30.304  24.572  23.326  1.00  0.00    -0.294 OA
BRANCH   8  10
ATOM     10  C   UNL A   1      32.528  25.183  23.795  1.00  0.00     0.018 A 
ATOM     11  C   UNL A   1      34.943  23.830  24.390  1.00  0.00    -0.043 A 
ATOM     12  C   UNL A   1      34.287  23.646  23.161  1.00  0.00     0.005 A 
ATOM     13  C   UNL A   1      34.448  24.850  25.230  1.00  0.00     0.005 A 
ATOM     14  C   UNL A   1      33.095  24.317  22.862  1.00  0.00     0.012 A 
ATOM     15  C   UNL A   1      33.265  25.544  24.924  1.00  0.00     0.012 A 
BRANCH  11  16
ATOM     16  C   UNL A   1      36.111  22.931  24.848  1.00  0.00    -0.013 C 
ATOM     17  C   UNL A   1      37.072  23.726  25.752  1.00  0.00     0.016 C 
ATOM     18  C   UNL A   1      36.933  22.352  23.673  1.00  0.00     0.016 C 
ATOM     19  C   UNL A   1      35.593  21.715  25.655  1.00  0.00     0.016 C 
ENDBRANCH  11  16
ENDBRANCH   8  10
ENDBRANCH   7   8
ENDBRANCH   6   7
BRANCH   6  20
ATOM     20  N   UNL A   1      29.727  28.995  22.818  1.00  0.00    -0.324 N 
ATOM     21  C   UNL A   1      29.870  29.934  21.718  1.00  0.00     0.263 C 
ATOM     22  C   UNL A   1      28.337  28.624  22.929  1.00  0.00     0.263 C 
ATOM     23  H   UNL A   1      29.960  29.460  23.695  1.00  0.00     0.348 HD
ATOM     24  C   UNL A   1      28.660  30.821  21.957  1.00  0.00     0.067 C 
ATOM     25  C   UNL A   1      27.590  29.852  22.435  1.00  0.00     0.067 C 
ENDBRANCH   6  20
ENDBRANCH   3   6
ENDBRANCH   1   2
BRANCH   1  26
ATOM     26  C   UNL A   1      32.136  30.754  26.526  1.00  0.00     0.023 C 
BRANCH  26  27
ATOM     27  C   UNL A   1      31.734  32.168  26.897  1.00  0.00     0.023 C 
BRANCH  27  28
ATOM     28  C   UNL A   1      32.862  33.006  27.454  1.00  0.00     0.116 C 
BRANCH  28  29
ATOM     29  N   UNL A   1      32.481  34.363  27.829  1.00  0.00    -0.352 N 
ATOM     30  C   UNL A   1      33.050  35.163  28.796  1.00  0.00     0.251 C 
ATOM     31  H   UNL A   1      31.726  34.754  27.332  1.00  0.00     0.163 HD
ATOM     32  O   UNL A   1      32.595  36.271  29.057  1.00  0.00    -0.269 OA
BRANCH  30  33
ATOM     33  C   UNL A   1      34.199  34.628  29.555  1.00  0.00     0.039 A 
ATOM     34  C   UNL A   1      33.973  33.943  30.750  1.00  0.00     0.014 A 
ATOM     35  C   UNL A   1      35.478  34.685  29.000  1.00  0.00     0.014 A 
ATOM     36  C   UNL A   1      35.022  33.235  31.341  1.00  0.00     0.010 A 
ATOM     37  C   UNL A   1      36.475  33.870  29.509  1.00  0.00     0.010 A 
ATOM     38  C   UNL A   1      36.267  33.152  30.697  1.00  0.00    -0.014 A 
BRANCH  38  39
ATOM     39  C   UNL A   1      37.402  32.381  31.263  1.00  0.00     0.031 A 
ATOM     40  C   UNL A   1      37.890  32.718  32.647  1.00  0.00     0.074 A 
ATOM     41  C   UNL A   1      38.046  31.462  30.518  1.00  0.00     0.049 A 
ATOM     42  N   UNL A   1      38.955  32.298  33.280  1.00  0.00    -0.248 NA
ATOM     43  C   UNL A   1      37.106  33.715  33.398  1.00  0.00     0.031 C 
ATOM     44  C   UNL A   1      37.717  31.096  29.139  1.00  0.00     0.029 A 
ATOM     45  N   UNL A   1      39.129  30.673  30.817  1.00  0.00    -0.354 N 
ATOM     46  C   UNL A   1      38.988  33.014  34.469  1.00  0.00     0.074 A 
ATOM     47  C   UNL A   1      37.885  33.945  34.441  1.00  0.00     0.031 C 
ATOM     48  C   UNL A   1      38.556  30.132  28.725  1.00  0.00     0.029 A 
ATOM     49  C   UNL A   1      39.505  29.836  29.794  1.00  0.00     0.049 A 
ATOM     50  H   UNL A   1      39.594  30.704  31.684  1.00  0.00     0.167 HD
ATOM     51  C   UNL A   1      39.840  32.881  35.512  1.00  0.00     0.037 A 
ATOM     52  C   UNL A   1      40.501  28.932  29.734  1.00  0.00     0.037 A 
ATOM     53  C   UNL A   1      40.878  31.890  35.571  1.00  0.00     0.049 A 
ATOM     54  C   UNL A   1      41.386  28.746  30.939  1.00  0.00     0.074 A 
ATOM     55  C   UNL A   1      41.743  31.606  36.611  1.00  0.00     0.029 A 
ATOM     56  N   UNL A   1      41.173  31.004  34.545  1.00  0.00    -0.354 N 
ATOM     57  N   UNL A   1      41.370  29.385  32.084  1.00  0.00    -0.248 NA
ATOM     58  C   UNL A   1      42.419  27.705  30.849  1.00  0.00     0.031 C 
ATOM     59  C   UNL A   1      42.578  30.559  36.206  1.00  0.00     0.029 A 
ATOM     60  C   UNL A   1      42.207  30.169  34.928  1.00  0.00     0.049 A 
ATOM     61  H   UNL A   1      40.715  30.974  33.673  1.00  0.00     0.167 HD
ATOM     62  C   UNL A   1      42.363  28.802  32.860  1.00  0.00     0.074 A 
ATOM     63  C   UNL A   1      42.955  27.750  32.060  1.00  0.00     0.031 C 
ATOM     64  C   UNL A   1      42.754  29.111  34.121  1.00  0.00     0.037 A 
BRANCH  51  65
ATOM     65  C   UNL A   1      39.658  33.804  36.680  1.00  0.00     0.064 A 
ATOM     66  C   UNL A   1      38.859  33.452  37.779  1.00  0.00     0.173 A 
ATOM     67  C   UNL A   1      40.302  35.050  36.710  1.00  0.00     0.173 A 
ATOM     68  F   UNL A   1      38.207  32.279  37.792  1.00  0.00    -0.203 F 
ATOM     69  C   UNL A   1      38.683  34.326  38.848  1.00  0.00     0.198 A 
ATOM     70  C   UNL A   1      40.150  35.908  37.796  1.00  0.00     0.198 A 
ATOM     71  F   UNL A   1      41.078  35.435  35.687  1.00  0.00    -0.203 F 
ATOM     72  F   UNL A   1      37.867  33.992  39.857  1.00  0.00    -0.200 F 
ATOM     73  C   UNL A   1      39.336  35.550  38.859  1.00  0.00     0.200 A 
ATOM     74  F   UNL A   1      40.789  37.086  37.811  1.00  0.00    -0.200 F 
ATOM     75  F   UNL A   1      39.169  36.389  39.891  1.00  0.00    -0.200 F 
ENDBRANCH  51  65
BRANCH  52  76
ATOM     76  C   UNL A   1      40.690  28.100  28.517  1.00  0.00     0.064 A 
ATOM     77  C   UNL A   1      41.453  28.571  27.439  1.00  0.00     0.173 A 
ATOM     78  C   UNL A   1      40.106  26.832  28.395  1.00  0.00     0.173 A 
ATOM     79  F   UNL A   1      42.018  29.787  27.500  1.00  0.00    -0.203 F 
ATOM     80  C   UNL A   1      41.600  27.820  26.274  1.00  0.00     0.198 A 
ATOM     81  C   UNL A   1      40.275  26.069  27.240  1.00  0.00     0.198 A 
ATOM     82  F   UNL A   1      39.374  26.330  29.400  1.00  0.00    -0.203 F 
ATOM     83  F   UNL A   1      42.290  28.320  25.240  1.00  0.00    -0.200 F 
ATOM     84  C   UNL A   1      41.013  26.568  26.177  1.00  0.00     0.200 A 
ATOM     85  F   UNL A   1      39.718  24.854  27.154  1.00  0.00    -0.200 F 
ATOM     86  F   UNL A   1      41.152  25.847  25.056  1.00  0.00    -0.200 F 
ENDBRANCH  52  76
BRANCH  64  87
ATOM     87  C   UNL A   1      43.831  28.267  34.731  1.00  0.00     0.064 A 
ATOM     88  C   UNL A   1      45.183  28.633  34.654  1.00  0.00     0.173 A 
ATOM     89  C   UNL A   1      43.499  27.110  35.451  1.00  0.00     0.173 A 
ATOM     90  F   UNL A   1      45.548  29.724  33.965  1.00  0.00    -0.203 F 
ATOM     91  C   UNL A   1      46.166  27.855  35.258  1.00  0.00     0.198 A 
ATOM     92  C   UNL A   1      44.482  26.351  36.078  1.00  0.00     0.198 A 
ATOM     93  F   UNL A   1      42.219  26.726  35.560  1.00  0.00    -0.203 F 
ATOM     94  F   UNL A   1      47.456  28.199  35.138  1.00  0.00    -0.200 F 
ATOM     95  C   UNL A   1      45.816  26.721  35.975  1.00  0.00     0.200 A 
ATOM     96  F   UNL A   1      44.141  25.263  36.781  1.00  0.00    -0.200 F 
ATOM     97  F   UNL A   1      46.764  25.980  36.564  1.00  0.00    -0.200 F 
ENDBRANCH  64  87
ENDBRANCH  38  39
ENDBRANCH  30  33
ENDBRANCH  28  29
ENDBRANCH  27  28
ENDBRANCH  26  27
ENDBRANCH   1  26
TORSDOF 16
ENDMDL
