MODEL 1
REMARK VINA RESULT:     -12.7      0.000      0.000
REMARK SMILES Cn1ccc(C(=O)NCc2ccc(C(=O)NCCCCNC(=O)c3ccc(-c4c5nc(c(-c6c(F)c(F)c(F)c(F)c6F)c6ccc([nH]6)c(-c6c(F)c(F)c(F)c(F)c6F)c6nc(c(-c7c(F)c(F)c(F)c(F)c7F)c7ccc4[nH]7)C=C6)C=C5)cc3)cc2)cc1=O
REMARK SMILES IDX 18 1 17 2 16 3 14 4 15 5 13 7 10 8 11 9 88 10 12 11 87 12
REMARK SMILES IDX 9 13 8 14 6 15 7 16 5 18 1 19 2 20 3 21 90 22 4 23 89 24
REMARK SMILES IDX 91 25 19 26 20 27 21 28 22 29 23 31 24 32 25 33 86 34 26 35
REMARK SMILES IDX 85 36 27 37 28 38 29 39 79 40 30 41 84 42 78 43 80 44 31 45
REMARK SMILES IDX 83 46 77 47 76 48 32 50 64 51 44 52 63 53 45 54 48 55 62 56
REMARK SMILES IDX 81 57 46 58 47 59 61 61 82 62 49 63 33 64 34 65 42 66 35 67
REMARK SMILES IDX 36 68 40 69 43 70 37 71 38 72 41 73 39 74 65 75 66 76 74 77
REMARK SMILES IDX 67 78 68 79 72 80 75 81 69 82 70 83 73 84 71 85 50 86 51 87
REMARK SMILES IDX 59 88 52 89 53 90 57 91 60 92 54 93 55 94 58 95 56 96
REMARK H PARENT 16 6 8 17 21 30 80 49 48 60
REMARK Flexibility Score: inf
ROOT
ATOM      1  C   UNL A   1      31.761  30.519  26.909  1.00  0.00     0.023 C 
ENDROOT
BRANCH   1   2
ATOM      2  C   UNL A   1      33.117  29.835  26.705  1.00  0.00     0.116 C 
BRANCH   2   3
ATOM      3  N   UNL A   1      33.475  29.783  25.300  1.00  0.00    -0.352 N 
ATOM      4  C   UNL A   1      33.370  28.780  24.366  1.00  0.00     0.251 C 
ATOM      5  O   UNL A   1      33.668  29.052  23.204  1.00  0.00    -0.269 OA
ATOM      6  H   UNL A   1      33.863  30.617  24.952  1.00  0.00     0.163 HD
BRANCH   4   7
ATOM      7  C   UNL A   1      32.895  27.402  24.686  1.00  0.00     0.039 A 
ATOM      8  C   UNL A   1      32.105  24.769  25.409  1.00  0.00    -0.029 A 
ATOM      9  C   UNL A   1      33.349  25.274  25.804  1.00  0.00     0.006 A 
ATOM     10  C   UNL A   1      31.249  25.617  24.692  1.00  0.00     0.006 A 
ATOM     11  C   UNL A   1      33.740  26.574  25.441  1.00  0.00     0.014 A 
ATOM     12  C   UNL A   1      31.635  26.914  24.350  1.00  0.00     0.014 A 
BRANCH   8  13
ATOM     13  C   UNL A   1      31.657  23.384  25.826  1.00  0.00     0.152 C 
BRANCH  13  14
ATOM     14  N   UNL A   1      31.515  22.509  24.676  1.00  0.00    -0.348 N 
ATOM     15  C   UNL A   1      32.383  21.945  23.803  1.00  0.00     0.251 C 
ATOM     16  O   UNL A   1      31.892  21.402  22.809  1.00  0.00    -0.269 OA
ATOM     17  H   UNL A   1      30.578  22.271  24.490  1.00  0.00     0.164 HD
BRANCH  15  18
ATOM     18  C   UNL A   1      33.858  21.849  24.042  1.00  0.00     0.046 A 
ATOM     19  C   UNL A   1      37.921  21.336  25.174  1.00  0.00     0.153 C 
ATOM     20  N   UNL A   1      36.543  21.502  24.738  1.00  0.00    -0.319 N 
ATOM     21  C   UNL A   1      35.609  20.574  25.148  1.00  0.00     0.089 A 
ATOM     22  C   UNL A   1      36.208  22.571  23.913  1.00  0.00     0.251 A 
ATOM     23  C   UNL A   1      34.318  20.714  24.829  1.00  0.00     0.032 A 
ATOM     24  C   UNL A   1      34.772  22.687  23.531  1.00  0.00     0.085 A 
ATOM     25  O   UNL A   1      36.996  23.419  23.503  1.00  0.00    -0.269 OA
ENDBRANCH  15  18
ENDBRANCH  13  14
ENDBRANCH   8  13
ENDBRANCH   4   7
ENDBRANCH   2   3
ENDBRANCH   1   2
BRANCH   1  26
ATOM     26  C   UNL A   1      31.753  32.025  26.646  1.00  0.00     0.023 C 
BRANCH  26  27
ATOM     27  C   UNL A   1      32.865  32.804  27.333  1.00  0.00     0.116 C 
BRANCH  27  28
ATOM     28  N   UNL A   1      32.489  34.164  27.690  1.00  0.00    -0.352 N 
ATOM     29  C   UNL A   1      33.044  34.979  28.647  1.00  0.00     0.251 C 
ATOM     30  H   UNL A   1      31.740  34.549  27.180  1.00  0.00     0.163 HD
ATOM     31  O   UNL A   1      32.550  36.075  28.896  1.00  0.00    -0.269 OA
BRANCH  29  32
ATOM     32  C   UNL A   1      34.215  34.503  29.408  1.00  0.00     0.039 A 
ATOM     33  C   UNL A   1      34.007  33.876  30.639  1.00  0.00     0.014 A 
ATOM     34  C   UNL A   1      35.506  34.636  28.890  1.00  0.00     0.014 A 
ATOM     35  C   UNL A   1      35.090  33.320  31.320  1.00  0.00     0.010 A 
ATOM     36  C   UNL A   1      36.572  34.018  29.533  1.00  0.00     0.010 A 
ATOM     37  C   UNL A   1      36.374  33.355  30.754  1.00  0.00    -0.014 A 
BRANCH  37  38
ATOM     38  C   UNL A   1      37.524  32.698  31.420  1.00  0.00     0.031 A 
ATOM     39  C   UNL A   1      38.216  31.541  30.761  1.00  0.00     0.074 A 
ATOM     40  C   UNL A   1      37.885  33.087  32.657  1.00  0.00     0.049 A 
ATOM     41  N   UNL A   1      39.194  30.795  31.210  1.00  0.00    -0.248 NA
ATOM     42  C   UNL A   1      37.719  31.146  29.435  1.00  0.00     0.031 C 
ATOM     43  C   UNL A   1      37.237  34.147  33.431  1.00  0.00     0.029 A 
ATOM     44  N   UNL A   1      38.871  32.622  33.488  1.00  0.00    -0.354 N 
ATOM     45  C   UNL A   1      39.413  29.834  30.233  1.00  0.00     0.074 A 
ATOM     46  C   UNL A   1      38.430  30.055  29.194  1.00  0.00     0.031 C 
ATOM     47  C   UNL A   1      37.849  34.258  34.620  1.00  0.00     0.029 A 
ATOM     48  C   UNL A   1      38.913  33.260  34.703  1.00  0.00     0.049 A 
ATOM     49  H   UNL A   1      39.491  31.899  33.238  1.00  0.00     0.167 HD
ATOM     50  C   UNL A   1      40.360  28.867  30.198  1.00  0.00     0.037 A 
ATOM     51  C   UNL A   1      39.713  33.059  35.767  1.00  0.00     0.037 A 
ATOM     52  C   UNL A   1      41.354  28.673  31.222  1.00  0.00     0.049 A 
ATOM     53  C   UNL A   1      40.785  32.009  35.691  1.00  0.00     0.074 A 
ATOM     54  C   UNL A   1      42.418  27.789  31.236  1.00  0.00     0.029 A 
ATOM     55  N   UNL A   1      41.396  29.371  32.420  1.00  0.00    -0.354 N 
ATOM     56  N   UNL A   1      41.050  31.169  34.719  1.00  0.00    -0.248 NA
ATOM     57  C   UNL A   1      41.677  31.885  36.852  1.00  0.00     0.031 C 
ATOM     58  C   UNL A   1      43.077  27.920  32.465  1.00  0.00     0.029 A 
ATOM     59  C   UNL A   1      42.452  28.919  33.195  1.00  0.00     0.049 A 
ATOM     60  H   UNL A   1      40.769  30.083  32.681  1.00  0.00     0.167 HD
ATOM     61  C   UNL A   1      42.145  30.429  35.142  1.00  0.00     0.074 A 
ATOM     62  C   UNL A   1      42.507  30.932  36.452  1.00  0.00     0.031 C 
ATOM     63  C   UNL A   1      42.793  29.423  34.502  1.00  0.00     0.037 A 
BRANCH  50  64
ATOM     64  C   UNL A   1      40.361  27.947  29.011  1.00  0.00     0.064 A 
ATOM     65  C   UNL A   1      41.093  28.240  27.849  1.00  0.00     0.173 A 
ATOM     66  C   UNL A   1      39.618  26.758  29.035  1.00  0.00     0.173 A 
ATOM     67  F   UNL A   1      41.811  29.370  27.770  1.00  0.00    -0.203 F 
ATOM     68  C   UNL A   1      41.045  27.398  26.741  1.00  0.00     0.198 A 
ATOM     69  C   UNL A   1      39.600  25.902  27.935  1.00  0.00     0.198 A 
ATOM     70  F   UNL A   1      38.905  26.426  30.121  1.00  0.00    -0.203 F 
ATOM     71  F   UNL A   1      41.700  27.732  25.620  1.00  0.00    -0.200 F 
ATOM     72  C   UNL A   1      40.303  26.228  26.786  1.00  0.00     0.200 A 
ATOM     73  F   UNL A   1      38.890  24.766  27.985  1.00  0.00    -0.200 F 
ATOM     74  F   UNL A   1      40.255  25.422  25.717  1.00  0.00    -0.200 F 
ENDBRANCH  50  64
BRANCH  51  75
ATOM     75  C   UNL A   1      39.540  33.900  36.977  1.00  0.00     0.064 A 
ATOM     76  C   UNL A   1      40.118  35.173  37.060  1.00  0.00     0.173 A 
ATOM     77  C   UNL A   1      38.760  33.464  38.059  1.00  0.00     0.173 A 
ATOM     78  F   UNL A   1      40.886  35.625  36.058  1.00  0.00    -0.203 F 
ATOM     79  C   UNL A   1      39.928  35.978  38.182  1.00  0.00     0.198 A 
ATOM     80  C   UNL A   1      38.551  34.278  39.169  1.00  0.00     0.198 A 
ATOM     81  F   UNL A   1      38.178  32.256  38.023  1.00  0.00    -0.203 F 
ATOM     82  F   UNL A   1      40.515  37.181  38.247  1.00  0.00    -0.200 F 
ATOM     83  C   UNL A   1      39.138  35.534  39.232  1.00  0.00     0.200 A 
ATOM     84  F   UNL A   1      37.774  33.852  40.174  1.00  0.00    -0.200 F 
ATOM     85  F   UNL A   1      38.945  36.313  40.304  1.00  0.00    -0.200 F 
ENDBRANCH  51  75
BRANCH  63  86
ATOM     86  C   UNL A   1      43.966  28.805  35.205  1.00  0.00     0.064 A 
ATOM     87  C   UNL A   1      45.261  29.322  35.064  1.00  0.00     0.173 A 
ATOM     88  C   UNL A   1      43.783  27.709  36.063  1.00  0.00     0.173 A 
ATOM     89  F   UNL A   1      45.490  30.358  34.243  1.00  0.00    -0.203 F 
ATOM     90  C   UNL A   1      46.337  28.751  35.741  1.00  0.00     0.198 A 
ATOM     91  C   UNL A   1      44.855  27.160  36.759  1.00  0.00     0.198 A 
ATOM     92  F   UNL A   1      42.562  27.181  36.235  1.00  0.00    -0.203 F 
ATOM     93  F   UNL A   1      47.573  29.233  35.557  1.00  0.00    -0.200 F 
ATOM     94  C   UNL A   1      46.131  27.675  36.593  1.00  0.00     0.200 A 
ATOM     95  F   UNL A   1      44.654  26.128  37.592  1.00  0.00    -0.200 F 
ATOM     96  F   UNL A   1      47.166  27.133  37.250  1.00  0.00    -0.200 F 
ENDBRANCH  63  86
ENDBRANCH  37  38
ENDBRANCH  29  32
ENDBRANCH  27  28
ENDBRANCH  26  27
ENDBRANCH   1  26
TORSDOF 14
ENDMDL
MODEL 2
REMARK VINA RESULT:     -12.7      4.613     10.766
REMARK SMILES Cn1ccc(C(=O)NCc2ccc(C(=O)NCCCCNC(=O)c3ccc(-c4c5nc(c(-c6c(F)c(F)c(F)c(F)c6F)c6ccc([nH]6)c(-c6c(F)c(F)c(F)c(F)c6F)c6nc(c(-c7c(F)c(F)c(F)c(F)c7F)c7ccc4[nH]7)C=C6)C=C5)cc3)cc2)cc1=O
REMARK SMILES IDX 18 1 17 2 16 3 14 4 15 5 13 7 10 8 11 9 88 10 12 11 87 12
REMARK SMILES IDX 9 13 8 14 6 15 7 16 5 18 1 19 2 20 3 21 90 22 4 23 89 24
REMARK SMILES IDX 91 25 19 26 20 27 21 28 22 29 23 31 24 32 25 33 86 34 26 35
REMARK SMILES IDX 85 36 27 37 28 38 29 39 79 40 30 41 84 42 78 43 80 44 31 45
REMARK SMILES IDX 83 46 77 47 76 48 32 50 64 51 44 52 63 53 45 54 48 55 62 56
REMARK SMILES IDX 81 57 46 58 47 59 61 61 82 62 49 63 33 64 34 65 42 66 35 67
REMARK SMILES IDX 36 68 40 69 43 70 37 71 38 72 41 73 39 74 65 75 66 76 74 77
REMARK SMILES IDX 67 78 68 79 72 80 75 81 69 82 70 83 73 84 71 85 50 86 51 87
REMARK SMILES IDX 59 88 52 89 53 90 57 91 60 92 54 93 55 94 58 95 56 96
REMARK H PARENT 16 6 8 17 21 30 80 49 48 60
REMARK Flexibility Score: inf
ROOT
ATOM      1  C   UNL A   1      37.425  33.306  29.271  1.00  0.00     0.023 C 
ENDROOT
BRANCH   1   2
ATOM      2  C   UNL A   1      38.258  34.356  30.015  1.00  0.00     0.116 C 
BRANCH   2   3
ATOM      3  N   UNL A   1      37.595  34.789  31.231  1.00  0.00    -0.352 N 
ATOM      4  C   UNL A   1      37.531  34.233  32.486  1.00  0.00     0.251 C 
ATOM      5  O   UNL A   1      36.967  34.881  33.366  1.00  0.00    -0.269 OA
ATOM      6  H   UNL A   1      37.102  35.636  31.140  1.00  0.00     0.163 HD
BRANCH   4   7
ATOM      7  C   UNL A   1      38.127  32.909  32.832  1.00  0.00     0.039 A 
ATOM      8  C   UNL A   1      39.366  30.465  33.589  1.00  0.00    -0.029 A 
ATOM      9  C   UNL A   1      39.992  31.691  33.843  1.00  0.00     0.006 A 
ATOM     10  C   UNL A   1      38.096  30.487  32.996  1.00  0.00     0.006 A 
ATOM     11  C   UNL A   1      39.381  32.897  33.464  1.00  0.00     0.014 A 
ATOM     12  C   UNL A   1      37.484  31.690  32.637  1.00  0.00     0.014 A 
BRANCH   8  13
ATOM     13  C   UNL A   1      39.996  29.160  34.027  1.00  0.00     0.152 C 
BRANCH  13  14
ATOM     14  N   UNL A   1      40.853  29.351  35.183  1.00  0.00    -0.348 N 
ATOM     15  C   UNL A   1      41.838  28.625  35.762  1.00  0.00     0.251 C 
ATOM     16  O   UNL A   1      42.228  29.007  36.870  1.00  0.00    -0.269 OA
ATOM     17  H   UNL A   1      40.679  30.200  35.651  1.00  0.00     0.164 HD
BRANCH  15  18
ATOM     18  C   UNL A   1      42.538  27.487  35.087  1.00  0.00     0.046 A 
ATOM     19  C   UNL A   1      44.522  24.555  32.736  1.00  0.00     0.153 C 
ATOM     20  N   UNL A   1      43.872  25.546  33.580  1.00  0.00    -0.319 N 
ATOM     21  C   UNL A   1      44.069  26.881  33.297  1.00  0.00     0.089 A 
ATOM     22  C   UNL A   1      43.090  25.127  34.653  1.00  0.00     0.251 A 
ATOM     23  C   UNL A   1      43.444  27.831  34.001  1.00  0.00     0.032 A 
ATOM     24  C   UNL A   1      42.438  26.201  35.454  1.00  0.00     0.085 A 
ATOM     25  O   UNL A   1      42.891  23.957  34.965  1.00  0.00    -0.269 OA
ENDBRANCH  15  18
ENDBRANCH  13  14
ENDBRANCH   8  13
ENDBRANCH   4   7
ENDBRANCH   2   3
ENDBRANCH   1   2
BRANCH   1  26
ATOM     26  C   UNL A   1      35.920  33.575  29.249  1.00  0.00     0.023 C 
BRANCH  26  27
ATOM     27  C   UNL A   1      35.062  32.470  29.848  1.00  0.00     0.116 C 
BRANCH  27  28
ATOM     28  N   UNL A   1      34.309  31.716  28.856  1.00  0.00    -0.352 N 
ATOM     29  C   UNL A   1      34.720  30.636  28.114  1.00  0.00     0.251 C 
ATOM     30  H   UNL A   1      33.386  32.019  28.698  1.00  0.00     0.163 HD
ATOM     31  O   UNL A   1      33.995  30.164  27.244  1.00  0.00    -0.269 OA
BRANCH  29  32
ATOM     32  C   UNL A   1      36.067  30.076  28.340  1.00  0.00     0.039 A 
ATOM     33  C   UNL A   1      37.031  30.217  27.339  1.00  0.00     0.014 A 
ATOM     34  C   UNL A   1      36.387  29.454  29.550  1.00  0.00     0.014 A 
ATOM     35  C   UNL A   1      38.339  29.795  27.578  1.00  0.00     0.010 A 
ATOM     36  C   UNL A   1      37.706  29.101  29.814  1.00  0.00     0.010 A 
ATOM     37  C   UNL A   1      38.693  29.268  28.830  1.00  0.00    -0.014 A 
BRANCH  37  38
ATOM     38  C   UNL A   1      40.095  28.890  29.135  1.00  0.00     0.031 A 
ATOM     39  C   UNL A   1      41.001  29.861  29.835  1.00  0.00     0.074 A 
ATOM     40  C   UNL A   1      40.573  27.710  28.700  1.00  0.00     0.049 A 
ATOM     41  N   UNL A   1      42.271  29.743  30.130  1.00  0.00    -0.248 NA
ATOM     42  C   UNL A   1      40.410  31.150  30.222  1.00  0.00     0.031 C 
ATOM     43  C   UNL A   1      39.810  26.718  27.941  1.00  0.00     0.029 A 
ATOM     44  N   UNL A   1      41.820  27.154  28.817  1.00  0.00    -0.354 N 
ATOM     45  C   UNL A   1      42.634  30.947  30.716  1.00  0.00     0.074 A 
ATOM     46  C   UNL A   1      41.467  31.802  30.685  1.00  0.00     0.031 C 
ATOM     47  C   UNL A   1      40.603  25.670  27.668  1.00  0.00     0.029 A 
ATOM     48  C   UNL A   1      41.934  25.928  28.208  1.00  0.00     0.049 A 
ATOM     49  H   UNL A   1      42.564  27.590  29.292  1.00  0.00     0.167 HD
ATOM     50  C   UNL A   1      43.827  31.300  31.251  1.00  0.00     0.037 A 
ATOM     51  C   UNL A   1      42.996  25.108  28.093  1.00  0.00     0.037 A 
ATOM     52  C   UNL A   1      44.975  30.432  31.306  1.00  0.00     0.049 A 
ATOM     53  C   UNL A   1      44.299  25.500  28.728  1.00  0.00     0.074 A 
ATOM     54  C   UNL A   1      46.198  30.655  31.913  1.00  0.00     0.029 A 
ATOM     55  N   UNL A   1      45.040  29.176  30.720  1.00  0.00    -0.354 N 
ATOM     56  N   UNL A   1      44.606  26.601  29.371  1.00  0.00    -0.248 NA
ATOM     57  C   UNL A   1      45.402  24.533  28.635  1.00  0.00     0.031 C 
ATOM     58  C   UNL A   1      47.021  29.552  31.654  1.00  0.00     0.029 A 
ATOM     59  C   UNL A   1      46.294  28.622  30.928  1.00  0.00     0.049 A 
ATOM     60  H   UNL A   1      44.305  28.742  30.231  1.00  0.00     0.167 HD
ATOM     61  C   UNL A   1      45.927  26.455  29.772  1.00  0.00     0.074 A 
ATOM     62  C   UNL A   1      46.358  25.149  29.314  1.00  0.00     0.031 C 
ATOM     63  C   UNL A   1      46.711  27.324  30.457  1.00  0.00     0.037 A 
BRANCH  50  64
ATOM     64  C   UNL A   1      43.944  32.686  31.816  1.00  0.00     0.064 A 
ATOM     65  C   UNL A   1      43.647  32.964  33.160  1.00  0.00     0.173 A 
ATOM     66  C   UNL A   1      44.360  33.751  31.003  1.00  0.00     0.173 A 
ATOM     67  F   UNL A   1      43.234  31.984  33.977  1.00  0.00    -0.203 F 
ATOM     68  C   UNL A   1      43.717  34.263  33.655  1.00  0.00     0.198 A 
ATOM     69  C   UNL A   1      44.462  35.044  31.512  1.00  0.00     0.198 A 
ATOM     70  F   UNL A   1      44.663  33.540  29.715  1.00  0.00    -0.203 F 
ATOM     71  F   UNL A   1      43.365  34.515  34.924  1.00  0.00    -0.200 F 
ATOM     72  C   UNL A   1      44.129  35.301  32.833  1.00  0.00     0.200 A 
ATOM     73  F   UNL A   1      44.870  36.044  30.718  1.00  0.00    -0.200 F 
ATOM     74  F   UNL A   1      44.193  36.551  33.311  1.00  0.00    -0.200 F 
ENDBRANCH  50  64
BRANCH  51  75
ATOM     75  C   UNL A   1      42.846  23.822  27.367  1.00  0.00     0.064 A 
ATOM     76  C   UNL A   1      43.218  23.705  26.022  1.00  0.00     0.173 A 
ATOM     77  C   UNL A   1      42.367  22.674  28.016  1.00  0.00     0.173 A 
ATOM     78  F   UNL A   1      43.666  24.780  25.356  1.00  0.00    -0.203 F 
ATOM     79  C   UNL A   1      43.110  22.489  25.349  1.00  0.00     0.198 A 
ATOM     80  C   UNL A   1      42.282  21.454  27.349  1.00  0.00     0.198 A 
ATOM     81  F   UNL A   1      42.007  22.733  29.306  1.00  0.00    -0.203 F 
ATOM     82  F   UNL A   1      43.447  22.411  24.054  1.00  0.00    -0.200 F 
ATOM     83  C   UNL A   1      42.650  21.363  26.015  1.00  0.00     0.200 A 
ATOM     84  F   UNL A   1      41.852  20.364  28.001  1.00  0.00    -0.200 F 
ATOM     85  F   UNL A   1      42.560  20.192  25.371  1.00  0.00    -0.200 F 
ENDBRANCH  51  75
BRANCH  63  86
ATOM     86  C   UNL A   1      48.114  26.889  30.763  1.00  0.00     0.064 A 
ATOM     87  C   UNL A   1      48.422  26.172  31.928  1.00  0.00     0.173 A 
ATOM     88  C   UNL A   1      49.154  27.154  29.859  1.00  0.00     0.173 A 
ATOM     89  F   UNL A   1      47.466  25.907  32.831  1.00  0.00    -0.203 F 
ATOM     90  C   UNL A   1      49.726  25.755  32.188  1.00  0.00     0.198 A 
ATOM     91  C   UNL A   1      50.449  26.712  30.108  1.00  0.00     0.198 A 
ATOM     92  F   UNL A   1      48.910  27.832  28.727  1.00  0.00    -0.203 F 
ATOM     93  F   UNL A   1      50.006  25.110  33.328  1.00  0.00    -0.200 F 
ATOM     94  C   UNL A   1      50.736  26.019  31.274  1.00  0.00     0.200 A 
ATOM     95  F   UNL A   1      51.422  26.956  29.219  1.00  0.00    -0.200 F 
ATOM     96  F   UNL A   1      51.988  25.609  31.521  1.00  0.00    -0.200 F 
ENDBRANCH  63  86
ENDBRANCH  37  38
ENDBRANCH  29  32
ENDBRANCH  27  28
ENDBRANCH  26  27
ENDBRANCH   1  26
TORSDOF 14
ENDMDL
MODEL 3
REMARK VINA RESULT:     -12.7      1.114      2.104
REMARK SMILES Cn1ccc(C(=O)NCc2ccc(C(=O)NCCCCNC(=O)c3ccc(-c4c5nc(c(-c6c(F)c(F)c(F)c(F)c6F)c6ccc([nH]6)c(-c6c(F)c(F)c(F)c(F)c6F)c6nc(c(-c7c(F)c(F)c(F)c(F)c7F)c7ccc4[nH]7)C=C6)C=C5)cc3)cc2)cc1=O
REMARK SMILES IDX 18 1 17 2 16 3 14 4 15 5 13 7 10 8 11 9 88 10 12 11 87 12
REMARK SMILES IDX 9 13 8 14 6 15 7 16 5 18 1 19 2 20 3 21 90 22 4 23 89 24
REMARK SMILES IDX 91 25 19 26 20 27 21 28 22 29 23 31 24 32 25 33 86 34 26 35
REMARK SMILES IDX 85 36 27 37 28 38 29 39 79 40 30 41 84 42 78 43 80 44 31 45
REMARK SMILES IDX 83 46 77 47 76 48 32 50 64 51 44 52 63 53 45 54 48 55 62 56
REMARK SMILES IDX 81 57 46 58 47 59 61 61 82 62 49 63 33 64 34 65 42 66 35 67
REMARK SMILES IDX 36 68 40 69 43 70 37 71 38 72 41 73 39 74 65 75 66 76 74 77
REMARK SMILES IDX 67 78 68 79 72 80 75 81 69 82 70 83 73 84 71 85 50 86 51 87
REMARK SMILES IDX 59 88 52 89 53 90 57 91 60 92 54 93 55 94 58 95 56 96
REMARK H PARENT 16 6 8 17 21 30 80 49 48 60
REMARK Flexibility Score: inf
ROOT
ATOM      1  C   UNL A   1      31.955  30.421  26.866  1.00  0.00     0.023 C 
ENDROOT
BRANCH   1   2
ATOM      2  C   UNL A   1      32.514  29.874  25.549  1.00  0.00     0.116 C 
BRANCH   2   3
ATOM      3  N   UNL A   1      31.523  29.927  24.492  1.00  0.00    -0.352 N 
ATOM      4  C   UNL A   1      30.664  28.976  23.995  1.00  0.00     0.251 C 
ATOM      5  O   UNL A   1      29.850  29.335  23.145  1.00  0.00    -0.269 OA
ATOM      6  H   UNL A   1      31.451  30.803  24.051  1.00  0.00     0.163 HD
BRANCH   4   7
ATOM      7  C   UNL A   1      30.656  27.554  24.448  1.00  0.00     0.039 A 
ATOM      8  C   UNL A   1      30.666  24.802  25.158  1.00  0.00    -0.029 A 
ATOM      9  C   UNL A   1      30.510  25.194  23.823  1.00  0.00     0.006 A 
ATOM     10  C   UNL A   1      30.864  25.805  26.118  1.00  0.00     0.006 A 
ATOM     11  C   UNL A   1      30.501  26.555  23.475  1.00  0.00     0.014 A 
ATOM     12  C   UNL A   1      30.872  27.155  25.764  1.00  0.00     0.014 A 
BRANCH   8  13
ATOM     13  C   UNL A   1      30.717  23.339  25.542  1.00  0.00     0.152 C 
BRANCH  13  14
ATOM     14  N   UNL A   1      31.360  23.154  26.831  1.00  0.00    -0.348 N 
ATOM     15  C   UNL A   1      32.578  22.715  27.226  1.00  0.00     0.251 C 
ATOM     16  O   UNL A   1      32.722  22.499  28.434  1.00  0.00    -0.269 OA
ATOM     17  H   UNL A   1      30.781  23.405  27.586  1.00  0.00     0.164 HD
BRANCH  15  18
ATOM     18  C   UNL A   1      33.757  22.598  26.311  1.00  0.00     0.046 A 
ATOM     19  C   UNL A   1      36.883  22.656  23.433  1.00  0.00     0.153 C 
ATOM     20  N   UNL A   1      35.848  22.628  24.455  1.00  0.00    -0.319 N 
ATOM     21  C   UNL A   1      35.176  23.797  24.742  1.00  0.00     0.089 A 
ATOM     22  C   UNL A   1      35.575  21.438  25.123  1.00  0.00     0.251 A 
ATOM     23  C   UNL A   1      34.173  23.813  25.625  1.00  0.00     0.032 A 
ATOM     24  C   UNL A   1      34.483  21.484  26.137  1.00  0.00     0.085 A 
ATOM     25  O   UNL A   1      36.148  20.371  24.924  1.00  0.00    -0.269 OA
ENDBRANCH  15  18
ENDBRANCH  13  14
ENDBRANCH   8  13
ENDBRANCH   4   7
ENDBRANCH   2   3
ENDBRANCH   1   2
BRANCH   1  26
ATOM     26  C   UNL A   1      31.655  31.921  26.865  1.00  0.00     0.023 C 
BRANCH  26  27
ATOM     27  C   UNL A   1      32.825  32.810  27.261  1.00  0.00     0.116 C 
BRANCH  27  28
ATOM     28  N   UNL A   1      32.429  34.160  27.634  1.00  0.00    -0.352 N 
ATOM     29  C   UNL A   1      32.970  34.970  28.602  1.00  0.00     0.251 C 
ATOM     30  H   UNL A   1      31.677  34.542  27.125  1.00  0.00     0.163 HD
ATOM     31  O   UNL A   1      32.461  36.056  28.863  1.00  0.00    -0.269 OA
BRANCH  29  32
ATOM     32  C   UNL A   1      34.144  34.500  29.363  1.00  0.00     0.039 A 
ATOM     33  C   UNL A   1      33.943  33.914  30.616  1.00  0.00     0.014 A 
ATOM     34  C   UNL A   1      35.429  34.597  28.824  1.00  0.00     0.014 A 
ATOM     35  C   UNL A   1      35.027  33.363  31.299  1.00  0.00     0.010 A 
ATOM     36  C   UNL A   1      36.495  33.982  29.472  1.00  0.00     0.010 A 
ATOM     37  C   UNL A   1      36.304  33.361  30.715  1.00  0.00    -0.014 A 
BRANCH  37  38
ATOM     38  C   UNL A   1      37.453  32.706  31.386  1.00  0.00     0.031 A 
ATOM     39  C   UNL A   1      38.142  31.543  30.736  1.00  0.00     0.074 A 
ATOM     40  C   UNL A   1      37.814  33.104  32.620  1.00  0.00     0.049 A 
ATOM     41  N   UNL A   1      39.119  30.799  31.191  1.00  0.00    -0.248 NA
ATOM     42  C   UNL A   1      37.643  31.138  29.413  1.00  0.00     0.031 C 
ATOM     43  C   UNL A   1      37.169  34.172  33.386  1.00  0.00     0.029 A 
ATOM     44  N   UNL A   1      38.800  32.644  33.454  1.00  0.00    -0.354 N 
ATOM     45  C   UNL A   1      39.335  29.829  30.222  1.00  0.00     0.074 A 
ATOM     46  C   UNL A   1      38.352  30.044  29.181  1.00  0.00     0.031 C 
ATOM     47  C   UNL A   1      37.782  34.291  34.574  1.00  0.00     0.029 A 
ATOM     48  C   UNL A   1      38.843  33.292  34.664  1.00  0.00     0.049 A 
ATOM     49  H   UNL A   1      39.419  31.918  33.210  1.00  0.00     0.167 HD
ATOM     50  C   UNL A   1      40.280  28.860  30.193  1.00  0.00     0.037 A 
ATOM     51  C   UNL A   1      39.644  33.097  35.729  1.00  0.00     0.037 A 
ATOM     52  C   UNL A   1      41.274  28.672  31.219  1.00  0.00     0.049 A 
ATOM     53  C   UNL A   1      40.713  32.045  35.661  1.00  0.00     0.074 A 
ATOM     54  C   UNL A   1      42.336  27.787  31.240  1.00  0.00     0.029 A 
ATOM     55  N   UNL A   1      41.318  29.380  32.411  1.00  0.00    -0.354 N 
ATOM     56  N   UNL A   1      40.976  31.196  34.696  1.00  0.00    -0.248 NA
ATOM     57  C   UNL A   1      41.605  31.928  36.822  1.00  0.00     0.031 C 
ATOM     58  C   UNL A   1      42.996  27.925  32.467  1.00  0.00     0.029 A 
ATOM     59  C   UNL A   1      42.373  28.931  33.190  1.00  0.00     0.049 A 
ATOM     60  H   UNL A   1      40.692  30.095  32.667  1.00  0.00     0.167 HD
ATOM     61  C   UNL A   1      42.070  30.458  35.125  1.00  0.00     0.074 A 
ATOM     62  C   UNL A   1      42.433  30.970  36.430  1.00  0.00     0.031 C 
ATOM     63  C   UNL A   1      42.716  29.446  34.492  1.00  0.00     0.037 A 
BRANCH  50  64
ATOM     64  C   UNL A   1      40.278  27.931  29.014  1.00  0.00     0.064 A 
ATOM     65  C   UNL A   1      39.563  26.723  29.026  1.00  0.00     0.173 A 
ATOM     66  C   UNL A   1      41.001  28.253  27.855  1.00  0.00     0.173 A 
ATOM     67  F   UNL A   1      38.865  26.362  30.113  1.00  0.00    -0.203 F 
ATOM     68  C   UNL A   1      39.610  25.852  27.941  1.00  0.00     0.198 A 
ATOM     69  C   UNL A   1      41.018  27.394  26.758  1.00  0.00     0.198 A 
ATOM     70  F   UNL A   1      41.696  29.398  27.787  1.00  0.00    -0.203 F 
ATOM     71  F   UNL A   1      38.973  24.673  28.002  1.00  0.00    -0.200 F 
ATOM     72  C   UNL A   1      40.333  26.189  26.807  1.00  0.00     0.200 A 
ATOM     73  F   UNL A   1      41.708  27.727  25.659  1.00  0.00    -0.200 F 
ATOM     74  F   UNL A   1      40.379  25.348  25.765  1.00  0.00    -0.200 F 
ENDBRANCH  50  64
BRANCH  51  75
ATOM     75  C   UNL A   1      39.473  33.948  36.933  1.00  0.00     0.064 A 
ATOM     76  C   UNL A   1      38.744  33.494  38.039  1.00  0.00     0.173 A 
ATOM     77  C   UNL A   1      40.069  35.216  37.017  1.00  0.00     0.173 A 
ATOM     78  F   UNL A   1      38.142  32.297  37.998  1.00  0.00    -0.203 F 
ATOM     79  C   UNL A   1      38.611  34.278  39.184  1.00  0.00     0.198 A 
ATOM     80  C   UNL A   1      39.956  35.988  38.170  1.00  0.00     0.198 A 
ATOM     81  F   UNL A   1      40.785  35.690  35.988  1.00  0.00    -0.203 F 
ATOM     82  F   UNL A   1      37.885  33.832  40.218  1.00  0.00    -0.200 F 
ATOM     83  C   UNL A   1      39.223  35.521  39.252  1.00  0.00     0.200 A 
ATOM     84  F   UNL A   1      40.563  37.181  38.238  1.00  0.00    -0.200 F 
ATOM     85  F   UNL A   1      39.107  36.268  40.358  1.00  0.00    -0.200 F 
ENDBRANCH  51  75
BRANCH  63  86
ATOM     86  C   UNL A   1      43.887  28.830  35.200  1.00  0.00     0.064 A 
ATOM     87  C   UNL A   1      45.190  29.319  35.025  1.00  0.00     0.173 A 
ATOM     88  C   UNL A   1      43.698  27.767  36.096  1.00  0.00     0.173 A 
ATOM     89  F   UNL A   1      45.424  30.324  34.166  1.00  0.00    -0.203 F 
ATOM     90  C   UNL A   1      46.264  28.753  35.705  1.00  0.00     0.198 A 
ATOM     91  C   UNL A   1      44.770  27.222  36.796  1.00  0.00     0.198 A 
ATOM     92  F   UNL A   1      42.471  27.266  36.303  1.00  0.00    -0.203 F 
ATOM     93  F   UNL A   1      47.506  29.207  35.489  1.00  0.00    -0.200 F 
ATOM     94  C   UNL A   1      46.053  27.710  36.595  1.00  0.00     0.200 A 
ATOM     95  F   UNL A   1      44.563  26.223  37.665  1.00  0.00    -0.200 F 
ATOM     96  F   UNL A   1      47.087  27.171  37.256  1.00  0.00    -0.200 F 
ENDBRANCH  63  86
ENDBRANCH  37  38
ENDBRANCH  29  32
ENDBRANCH  27  28
ENDBRANCH  26  27
ENDBRANCH   1  26
TORSDOF 14
ENDMDL
