MODEL 1
REMARK VINA RESULT:     -12.4      0.000      0.000
REMARK SMILES O=C(Cc1cccn1-c1ccccc1F)NCCCCNC(=O)c1ccc(-c2c3nc(c(-c4c(F)c(F)c(F)c(F)c4F)c4ccc([nH]4)c(-c4c(F)c(F)c(F)c(F)c4F)c4nc(c(-c5c(F)c(F)c(F)c(F)c5F)c5ccc2[nH]5)C=C4)C=C3)cc1
REMARK SMILES IDX 18 1 17 2 16 3 1 4 2 5 3 7 4 8 5 9 8 10 6 11 7 12 9 13 10 14
REMARK SMILES IDX 14 15 11 16 13 17 15 18 12 19 19 20 20 21 21 22 22 23 23 25
REMARK SMILES IDX 24 26 25 27 86 28 26 29 85 30 27 31 28 32 29 33 79 34 30 35
REMARK SMILES IDX 84 36 78 37 80 38 31 39 83 40 77 41 76 42 32 44 64 45 44 46
REMARK SMILES IDX 63 47 45 48 48 49 62 50 81 51 46 52 47 53 61 55 82 56 49 57
REMARK SMILES IDX 33 58 34 59 42 60 35 61 36 62 40 63 43 64 37 65 38 66 41 67
REMARK SMILES IDX 39 68 65 69 66 70 74 71 67 72 68 73 72 74 75 75 69 76 70 77
REMARK SMILES IDX 73 78 71 79 50 80 51 81 59 82 52 83 53 84 57 85 60 86 54 87
REMARK SMILES IDX 55 88 58 89 56 90
REMARK H PARENT 16 6 21 24 80 43 48 54
REMARK Flexibility Score: inf
ROOT
ATOM      1  C   UNL A   1      34.974  23.782  25.294  1.00  0.00     0.023 C 
ENDROOT
BRANCH   1   2
ATOM      2  C   UNL A   1      33.678  23.730  26.105  1.00  0.00     0.116 C 
BRANCH   2   3
ATOM      3  N   UNL A   1      32.755  24.781  25.731  1.00  0.00    -0.356 N 
ATOM      4  O   UNL A   1      31.147  24.212  27.261  1.00  0.00    -0.275 OA
ATOM      5  C   UNL A   1      31.551  24.964  26.374  1.00  0.00     0.225 C 
ATOM      6  H   UNL A   1      32.996  25.385  24.992  1.00  0.00     0.163 HD
BRANCH   5   7
ATOM      7  C   UNL A   1      30.674  26.081  25.830  1.00  0.00     0.154 C 
BRANCH   7   8
ATOM      8  C   UNL A   1      31.104  26.625  24.493  1.00  0.00     0.032 A 
ATOM      9  C   UNL A   1      30.732  26.181  23.232  1.00  0.00     0.024 A 
ATOM     10  N   UNL A   1      31.815  27.810  24.326  1.00  0.00    -0.318 N 
ATOM     11  C   UNL A   1      31.181  27.123  22.285  1.00  0.00     0.020 A 
ATOM     12  C   UNL A   1      31.797  28.135  22.984  1.00  0.00     0.091 A 
BRANCH  10  13
ATOM     13  C   UNL A   1      32.373  28.630  25.330  1.00  0.00     0.081 A 
ATOM     14  C   UNL A   1      33.492  28.184  26.044  1.00  0.00     0.030 A 
ATOM     15  C   UNL A   1      31.809  29.870  25.621  1.00  0.00     0.147 A 
ATOM     16  C   UNL A   1      34.073  29.020  27.001  1.00  0.00     0.002 A 
ATOM     17  C   UNL A   1      32.377  30.694  26.586  1.00  0.00     0.041 A 
ATOM     18  F   UNL A   1      30.659  30.253  25.048  1.00  0.00    -0.205 F 
ATOM     19  C   UNL A   1      33.520  30.275  27.268  1.00  0.00     0.003 A 
ENDBRANCH  10  13
ENDBRANCH   7   8
ENDBRANCH   5   7
ENDBRANCH   2   3
ENDBRANCH   1   2
BRANCH   1  20
ATOM     20  C   UNL A   1      36.185  23.111  25.962  1.00  0.00     0.023 C 
BRANCH  20  21
ATOM     21  C   UNL A   1      37.404  24.020  26.109  1.00  0.00     0.116 C 
BRANCH  21  22
ATOM     22  N   UNL A   1      38.518  23.313  26.719  1.00  0.00    -0.352 N 
ATOM     23  C   UNL A   1      39.707  23.795  27.205  1.00  0.00     0.251 C 
ATOM     24  H   UNL A   1      38.401  22.338  26.796  1.00  0.00     0.163 HD
ATOM     25  O   UNL A   1      40.658  23.032  27.328  1.00  0.00    -0.269 OA
BRANCH  23  26
ATOM     26  C   UNL A   1      39.869  25.213  27.590  1.00  0.00     0.039 A 
ATOM     27  C   UNL A   1      39.444  25.600  28.872  1.00  0.00     0.014 A 
ATOM     28  C   UNL A   1      40.311  26.175  26.676  1.00  0.00     0.014 A 
ATOM     29  C   UNL A   1      39.511  26.936  29.254  1.00  0.00     0.010 A 
ATOM     30  C   UNL A   1      40.404  27.505  27.060  1.00  0.00     0.010 A 
ATOM     31  C   UNL A   1      40.014  27.878  28.351  1.00  0.00    -0.014 A 
BRANCH  31  32
ATOM     32  C   UNL A   1      40.285  29.258  28.799  1.00  0.00     0.031 A 
ATOM     33  C   UNL A   1      38.975  30.075  28.959  1.00  0.00     0.074 A 
ATOM     34  C   UNL A   1      41.601  29.542  29.052  1.00  0.00     0.049 A 
ATOM     35  N   UNL A   1      38.795  31.338  29.199  1.00  0.00    -0.248 NA
ATOM     36  C   UNL A   1      37.659  29.380  28.837  1.00  0.00     0.031 C 
ATOM     37  C   UNL A   1      42.721  28.591  28.854  1.00  0.00     0.029 A 
ATOM     38  N   UNL A   1      42.276  30.651  29.520  1.00  0.00    -0.354 N 
ATOM     39  C   UNL A   1      37.417  31.542  29.465  1.00  0.00     0.074 A 
ATOM     40  C   UNL A   1      36.758  30.315  29.148  1.00  0.00     0.031 C 
ATOM     41  C   UNL A   1      43.910  29.179  29.104  1.00  0.00     0.029 A 
ATOM     42  C   UNL A   1      43.695  30.548  29.522  1.00  0.00     0.049 A 
ATOM     43  H   UNL A   1      41.808  31.458  29.832  1.00  0.00     0.167 HD
ATOM     44  C   UNL A   1      36.928  32.686  30.033  1.00  0.00     0.037 A 
ATOM     45  C   UNL A   1      44.625  31.515  29.806  1.00  0.00     0.037 A 
ATOM     46  C   UNL A   1      37.980  33.626  30.198  1.00  0.00     0.049 A 
ATOM     47  C   UNL A   1      43.845  32.613  30.391  1.00  0.00     0.074 A 
ATOM     48  C   UNL A   1      38.632  34.409  29.286  1.00  0.00     0.029 A 
ATOM     49  N   UNL A   1      38.716  33.560  31.355  1.00  0.00    -0.354 N 
ATOM     50  N   UNL A   1      43.295  32.572  31.569  1.00  0.00    -0.248 NA
ATOM     51  C   UNL A   1      43.566  33.798  29.575  1.00  0.00     0.031 C 
ATOM     52  C   UNL A   1      39.964  34.376  29.734  1.00  0.00     0.029 A 
ATOM     53  C   UNL A   1      40.023  33.805  31.012  1.00  0.00     0.049 A 
ATOM     54  H   UNL A   1      38.373  33.373  32.258  1.00  0.00     0.167 HD
ATOM     55  C   UNL A   1      42.342  33.554  31.475  1.00  0.00     0.074 A 
ATOM     56  C   UNL A   1      42.764  34.445  30.416  1.00  0.00     0.031 C 
ATOM     57  C   UNL A   1      41.068  33.283  31.859  1.00  0.00     0.037 A 
BRANCH  44  58
ATOM     58  C   UNL A   1      35.603  33.061  30.637  1.00  0.00     0.064 A 
ATOM     59  C   UNL A   1      35.225  32.711  31.937  1.00  0.00     0.173 A 
ATOM     60  C   UNL A   1      34.868  34.116  30.034  1.00  0.00     0.173 A 
ATOM     61  F   UNL A   1      35.856  31.730  32.594  1.00  0.00    -0.203 F 
ATOM     62  C   UNL A   1      34.247  33.439  32.627  1.00  0.00     0.198 A 
ATOM     63  C   UNL A   1      33.932  34.868  30.740  1.00  0.00     0.198 A 
ATOM     64  F   UNL A   1      35.110  34.486  28.766  1.00  0.00    -0.203 F 
ATOM     65  F   UNL A   1      33.949  33.115  33.894  1.00  0.00    -0.200 F 
ATOM     66  C   UNL A   1      33.636  34.541  32.047  1.00  0.00     0.200 A 
ATOM     67  F   UNL A   1      33.373  35.947  30.171  1.00  0.00    -0.200 F 
ATOM     68  F   UNL A   1      32.791  35.302  32.755  1.00  0.00    -0.200 F 
ENDBRANCH  44  58
BRANCH  45  69
ATOM     69  C   UNL A   1      46.107  31.768  29.614  1.00  0.00     0.064 A 
ATOM     70  C   UNL A   1      46.599  32.109  28.318  1.00  0.00     0.173 A 
ATOM     71  C   UNL A   1      47.113  31.553  30.562  1.00  0.00     0.173 A 
ATOM     72  F   UNL A   1      45.780  32.521  27.341  1.00  0.00    -0.203 F 
ATOM     73  C   UNL A   1      47.942  32.021  27.954  1.00  0.00     0.198 A 
ATOM     74  C   UNL A   1      48.478  31.528  30.210  1.00  0.00     0.198 A 
ATOM     75  F   UNL A   1      46.820  31.360  31.851  1.00  0.00    -0.203 F 
ATOM     76  F   UNL A   1      48.297  32.209  26.674  1.00  0.00    -0.200 F 
ATOM     77  C   UNL A   1      48.885  31.705  28.899  1.00  0.00     0.200 A 
ATOM     78  F   UNL A   1      49.403  31.296  31.152  1.00  0.00    -0.200 F 
ATOM     79  F   UNL A   1      50.172  31.580  28.551  1.00  0.00    -0.200 F 
ENDBRANCH  45  69
BRANCH  57  80
ATOM     80  C   UNL A   1      40.943  32.159  32.873  1.00  0.00     0.064 A 
ATOM     81  C   UNL A   1      40.418  30.885  32.589  1.00  0.00     0.173 A 
ATOM     82  C   UNL A   1      41.467  32.324  34.165  1.00  0.00     0.173 A 
ATOM     83  F   UNL A   1      39.863  30.624  31.410  1.00  0.00    -0.203 F 
ATOM     84  C   UNL A   1      40.430  29.840  33.516  1.00  0.00     0.198 A 
ATOM     85  C   UNL A   1      41.485  31.279  35.096  1.00  0.00     0.198 A 
ATOM     86  F   UNL A   1      41.962  33.514  34.537  1.00  0.00    -0.203 F 
ATOM     87  F   UNL A   1      39.905  28.648  33.189  1.00  0.00    -0.200 F 
ATOM     88  C   UNL A   1      40.970  30.037  34.770  1.00  0.00     0.200 A 
ATOM     89  F   UNL A   1      41.997  31.484  36.318  1.00  0.00    -0.200 F 
ATOM     90  F   UNL A   1      40.971  29.041  35.668  1.00  0.00    -0.200 F 
ENDBRANCH  57  80
ENDBRANCH  31  32
ENDBRANCH  23  26
ENDBRANCH  21  22
ENDBRANCH  20  21
ENDBRANCH   1  20
TORSDOF 13
ENDMDL
MODEL 2
REMARK VINA RESULT:     -12.2      4.234      9.143
REMARK SMILES O=C(Cc1cccn1-c1ccccc1F)NCCCCNC(=O)c1ccc(-c2c3nc(c(-c4c(F)c(F)c(F)c(F)c4F)c4ccc([nH]4)c(-c4c(F)c(F)c(F)c(F)c4F)c4nc(c(-c5c(F)c(F)c(F)c(F)c5F)c5ccc2[nH]5)C=C4)C=C3)cc1
REMARK SMILES IDX 18 1 17 2 16 3 1 4 2 5 3 7 4 8 5 9 8 10 6 11 7 12 9 13 10 14
REMARK SMILES IDX 14 15 11 16 13 17 15 18 12 19 19 20 20 21 21 22 22 23 23 25
REMARK SMILES IDX 24 26 25 27 86 28 26 29 85 30 27 31 28 32 29 33 79 34 30 35
REMARK SMILES IDX 84 36 78 37 80 38 31 39 83 40 77 41 76 42 32 44 64 45 44 46
REMARK SMILES IDX 63 47 45 48 48 49 62 50 81 51 46 52 47 53 61 55 82 56 49 57
REMARK SMILES IDX 33 58 34 59 42 60 35 61 36 62 40 63 43 64 37 65 38 66 41 67
REMARK SMILES IDX 39 68 65 69 66 70 74 71 67 72 68 73 72 74 75 75 69 76 70 77
REMARK SMILES IDX 73 78 71 79 50 80 51 81 59 82 52 83 53 84 57 85 60 86 54 87
REMARK SMILES IDX 55 88 58 89 56 90
REMARK H PARENT 16 6 21 24 80 43 48 54
REMARK Flexibility Score: inf
ROOT
ATOM      1  C   UNL A   1      33.585  28.724  24.317  1.00  0.00     0.023 C 
ENDROOT
BRANCH   1   2
ATOM      2  C   UNL A   1      32.567  28.033  23.408  1.00  0.00     0.116 C 
BRANCH   2   3
ATOM      3  N   UNL A   1      32.714  26.592  23.415  1.00  0.00    -0.356 N 
ATOM      4  O   UNL A   1      33.639  26.458  21.324  1.00  0.00    -0.275 OA
ATOM      5  C   UNL A   1      33.282  25.907  22.364  1.00  0.00     0.225 C 
ATOM      6  H   UNL A   1      32.399  26.086  24.198  1.00  0.00     0.163 HD
BRANCH   5   7
ATOM      7  C   UNL A   1      33.319  24.393  22.506  1.00  0.00     0.154 C 
BRANCH   7   8
ATOM      8  C   UNL A   1      32.617  23.857  23.725  1.00  0.00     0.032 A 
ATOM      9  C   UNL A   1      31.251  23.767  23.951  1.00  0.00     0.024 A 
ATOM     10  N   UNL A   1      33.257  23.180  24.759  1.00  0.00    -0.318 N 
ATOM     11  C   UNL A   1      31.049  22.992  25.111  1.00  0.00     0.020 A 
ATOM     12  C   UNL A   1      32.290  22.603  25.558  1.00  0.00     0.091 A 
BRANCH  10  13
ATOM     13  C   UNL A   1      34.645  22.990  24.936  1.00  0.00     0.081 A 
ATOM     14  C   UNL A   1      35.209  21.735  24.680  1.00  0.00     0.030 A 
ATOM     15  C   UNL A   1      35.448  24.040  25.376  1.00  0.00     0.147 A 
ATOM     16  C   UNL A   1      36.590  21.565  24.806  1.00  0.00     0.002 A 
ATOM     17  C   UNL A   1      36.820  23.865  25.518  1.00  0.00     0.041 A 
ATOM     18  F   UNL A   1      34.908  25.205  25.759  1.00  0.00    -0.205 F 
ATOM     19  C   UNL A   1      37.395  22.629  25.219  1.00  0.00     0.003 A 
ENDBRANCH  10  13
ENDBRANCH   7   8
ENDBRANCH   5   7
ENDBRANCH   2   3
ENDBRANCH   1   2
BRANCH   1  20
ATOM     20  C   UNL A   1      33.333  28.549  25.823  1.00  0.00     0.023 C 
BRANCH  20  21
ATOM     21  C   UNL A   1      34.586  28.677  26.688  1.00  0.00     0.116 C 
BRANCH  21  22
ATOM     22  N   UNL A   1      34.930  30.071  26.914  1.00  0.00    -0.352 N 
ATOM     23  C   UNL A   1      35.902  30.621  27.711  1.00  0.00     0.251 C 
ATOM     24  H   UNL A   1      34.379  30.721  26.420  1.00  0.00     0.163 HD
ATOM     25  O   UNL A   1      35.798  31.790  28.064  1.00  0.00    -0.269 OA
BRANCH  23  26
ATOM     26  C   UNL A   1      37.078  29.839  28.148  1.00  0.00     0.039 A 
ATOM     27  C   UNL A   1      38.194  29.795  27.296  1.00  0.00     0.014 A 
ATOM     28  C   UNL A   1      37.050  29.062  29.310  1.00  0.00     0.014 A 
ATOM     29  C   UNL A   1      39.297  29.015  27.631  1.00  0.00     0.010 A 
ATOM     30  C   UNL A   1      38.156  28.303  29.663  1.00  0.00     0.010 A 
ATOM     31  C   UNL A   1      39.279  28.292  28.828  1.00  0.00    -0.014 A 
BRANCH  31  32
ATOM     32  C   UNL A   1      40.507  27.625  29.304  1.00  0.00     0.031 A 
ATOM     33  C   UNL A   1      40.775  26.303  28.537  1.00  0.00     0.074 A 
ATOM     34  C   UNL A   1      41.207  28.308  30.264  1.00  0.00     0.049 A 
ATOM     35  N   UNL A   1      41.658  25.375  28.743  1.00  0.00    -0.248 NA
ATOM     36  C   UNL A   1      39.932  25.961  27.353  1.00  0.00     0.031 C 
ATOM     37  C   UNL A   1      40.782  29.597  30.860  1.00  0.00     0.029 A 
ATOM     38  N   UNL A   1      42.394  28.086  30.933  1.00  0.00    -0.354 N 
ATOM     39  C   UNL A   1      41.627  24.487  27.637  1.00  0.00     0.074 A 
ATOM     40  C   UNL A   1      40.489  24.854  26.855  1.00  0.00     0.031 C 
ATOM     41  C   UNL A   1      41.626  29.984  31.840  1.00  0.00     0.029 A 
ATOM     42  C   UNL A   1      42.700  29.020  31.963  1.00  0.00     0.049 A 
ATOM     43  H   UNL A   1      42.989  27.334  30.713  1.00  0.00     0.167 HD
ATOM     44  C   UNL A   1      42.610  23.570  27.388  1.00  0.00     0.037 A 
ATOM     45  C   UNL A   1      43.728  28.990  32.869  1.00  0.00     0.037 A 
ATOM     46  C   UNL A   1      43.564  23.592  28.442  1.00  0.00     0.049 A 
ATOM     47  C   UNL A   1      44.623  27.937  32.375  1.00  0.00     0.074 A 
ATOM     48  C   UNL A   1      43.497  23.109  29.720  1.00  0.00     0.029 A 
ATOM     49  N   UNL A   1      44.599  24.489  28.345  1.00  0.00    -0.354 N 
ATOM     50  N   UNL A   1      45.357  28.044  31.307  1.00  0.00    -0.248 NA
ATOM     51  C   UNL A   1      44.627  26.635  33.050  1.00  0.00     0.031 C 
ATOM     52  C   UNL A   1      44.163  24.096  30.467  1.00  0.00     0.029 A 
ATOM     53  C   UNL A   1      44.818  24.986  29.606  1.00  0.00     0.049 A 
ATOM     54  H   UNL A   1      45.090  24.729  27.527  1.00  0.00     0.167 HD
ATOM     55  C   UNL A   1      45.621  26.731  31.008  1.00  0.00     0.074 A 
ATOM     56  C   UNL A   1      45.445  25.980  32.232  1.00  0.00     0.031 C 
ATOM     57  C   UNL A   1      45.426  26.287  29.739  1.00  0.00     0.037 A 
BRANCH  44  58
ATOM     58  C   UNL A   1      42.953  22.709  26.203  1.00  0.00     0.064 A 
ATOM     59  C   UNL A   1      43.644  23.184  25.084  1.00  0.00     0.173 A 
ATOM     60  C   UNL A   1      42.925  21.300  26.371  1.00  0.00     0.173 A 
ATOM     61  F   UNL A   1      43.731  24.498  24.837  1.00  0.00    -0.203 F 
ATOM     62  C   UNL A   1      44.351  22.311  24.246  1.00  0.00     0.198 A 
ATOM     63  C   UNL A   1      43.668  20.441  25.564  1.00  0.00     0.198 A 
ATOM     64  F   UNL A   1      42.235  20.741  27.378  1.00  0.00    -0.203 F 
ATOM     65  F   UNL A   1      45.052  22.804  23.215  1.00  0.00    -0.200 F 
ATOM     66  C   UNL A   1      44.399  20.951  24.511  1.00  0.00     0.200 A 
ATOM     67  F   UNL A   1      43.725  19.132  25.854  1.00  0.00    -0.200 F 
ATOM     68  F   UNL A   1      45.172  20.142  23.776  1.00  0.00    -0.200 F 
ENDBRANCH  44  58
BRANCH  45  69
ATOM     69  C   UNL A   1      44.112  29.640  34.184  1.00  0.00     0.064 A 
ATOM     70  C   UNL A   1      43.150  29.718  35.236  1.00  0.00     0.173 A 
ATOM     71  C   UNL A   1      45.298  30.333  34.449  1.00  0.00     0.173 A 
ATOM     72  F   UNL A   1      42.037  28.972  35.228  1.00  0.00    -0.203 F 
ATOM     73  C   UNL A   1      43.267  30.578  36.327  1.00  0.00     0.198 A 
ATOM     74  C   UNL A   1      45.444  31.153  35.586  1.00  0.00     0.198 A 
ATOM     75  F   UNL A   1      46.348  30.248  33.628  1.00  0.00    -0.203 F 
ATOM     76  F   UNL A   1      42.246  30.703  37.188  1.00  0.00    -0.200 F 
ATOM     77  C   UNL A   1      44.411  31.319  36.491  1.00  0.00     0.200 A 
ATOM     78  F   UNL A   1      46.594  31.815  35.784  1.00  0.00    -0.200 F 
ATOM     79  F   UNL A   1      44.517  32.176  37.515  1.00  0.00    -0.200 F 
ENDBRANCH  45  69
BRANCH  57  80
ATOM     80  C   UNL A   1      45.505  27.369  28.675  1.00  0.00     0.064 A 
ATOM     81  C   UNL A   1      44.397  27.880  27.976  1.00  0.00     0.173 A 
ATOM     82  C   UNL A   1      46.732  28.001  28.414  1.00  0.00     0.173 A 
ATOM     83  F   UNL A   1      43.192  27.338  28.117  1.00  0.00    -0.203 F 
ATOM     84  C   UNL A   1      44.494  28.958  27.092  1.00  0.00     0.198 A 
ATOM     85  C   UNL A   1      46.834  29.083  27.532  1.00  0.00     0.198 A 
ATOM     86  F   UNL A   1      47.849  27.562  29.012  1.00  0.00    -0.203 F 
ATOM     87  F   UNL A   1      43.402  29.396  26.446  1.00  0.00    -0.200 F 
ATOM     88  C   UNL A   1      45.715  29.563  26.874  1.00  0.00     0.200 A 
ATOM     89  F   UNL A   1      48.026  29.655  27.314  1.00  0.00    -0.200 F 
ATOM     90  F   UNL A   1      45.815  30.589  26.017  1.00  0.00    -0.200 F 
ENDBRANCH  57  80
ENDBRANCH  31  32
ENDBRANCH  23  26
ENDBRANCH  21  22
ENDBRANCH  20  21
ENDBRANCH   1  20
TORSDOF 13
ENDMDL
MODEL 3
REMARK VINA RESULT:     -12.1      4.498      9.190
REMARK SMILES O=C(Cc1cccn1-c1ccccc1F)NCCCCNC(=O)c1ccc(-c2c3nc(c(-c4c(F)c(F)c(F)c(F)c4F)c4ccc([nH]4)c(-c4c(F)c(F)c(F)c(F)c4F)c4nc(c(-c5c(F)c(F)c(F)c(F)c5F)c5ccc2[nH]5)C=C4)C=C3)cc1
REMARK SMILES IDX 18 1 17 2 16 3 1 4 2 5 3 7 4 8 5 9 8 10 6 11 7 12 9 13 10 14
REMARK SMILES IDX 14 15 11 16 13 17 15 18 12 19 19 20 20 21 21 22 22 23 23 25
REMARK SMILES IDX 24 26 25 27 86 28 26 29 85 30 27 31 28 32 29 33 79 34 30 35
REMARK SMILES IDX 84 36 78 37 80 38 31 39 83 40 77 41 76 42 32 44 64 45 44 46
REMARK SMILES IDX 63 47 45 48 48 49 62 50 81 51 46 52 47 53 61 55 82 56 49 57
REMARK SMILES IDX 33 58 34 59 42 60 35 61 36 62 40 63 43 64 37 65 38 66 41 67
REMARK SMILES IDX 39 68 65 69 66 70 74 71 67 72 68 73 72 74 75 75 69 76 70 77
REMARK SMILES IDX 73 78 71 79 50 80 51 81 59 82 52 83 53 84 57 85 60 86 54 87
REMARK SMILES IDX 55 88 58 89 56 90
REMARK H PARENT 16 6 21 24 80 43 48 54
REMARK Flexibility Score: inf
ROOT
ATOM      1  C   UNL A   1      32.368  27.553  27.223  1.00  0.00     0.023 C 
ENDROOT
BRANCH   1   2
ATOM      2  C   UNL A   1      31.482  26.663  26.350  1.00  0.00     0.116 C 
BRANCH   2   3
ATOM      3  N   UNL A   1      32.133  25.419  25.997  1.00  0.00    -0.356 N 
ATOM      4  O   UNL A   1      30.752  24.088  27.251  1.00  0.00    -0.275 OA
ATOM      5  C   UNL A   1      31.687  24.200  26.458  1.00  0.00     0.225 C 
ATOM      6  H   UNL A   1      32.920  25.445  25.407  1.00  0.00     0.163 HD
BRANCH   5   7
ATOM      7  C   UNL A   1      32.509  22.992  26.035  1.00  0.00     0.154 C 
BRANCH   7   8
ATOM      8  C   UNL A   1      32.680  22.836  24.547  1.00  0.00     0.032 A 
ATOM      9  C   UNL A   1      31.709  22.943  23.562  1.00  0.00     0.024 A 
ATOM     10  N   UNL A   1      33.914  22.743  23.910  1.00  0.00    -0.318 N 
ATOM     11  C   UNL A   1      32.356  22.959  22.309  1.00  0.00     0.020 A 
ATOM     12  C   UNL A   1      33.707  22.885  22.552  1.00  0.00     0.091 A 
BRANCH  10  13
ATOM     13  C   UNL A   1      35.188  22.638  24.509  1.00  0.00     0.081 A 
ATOM     14  C   UNL A   1      35.959  23.792  24.698  1.00  0.00     0.030 A 
ATOM     15  C   UNL A   1      35.684  21.396  24.898  1.00  0.00     0.147 A 
ATOM     16  C   UNL A   1      37.197  23.692  25.338  1.00  0.00     0.002 A 
ATOM     17  C   UNL A   1      36.923  21.296  25.519  1.00  0.00     0.041 A 
ATOM     18  F   UNL A   1      35.023  20.269  24.600  1.00  0.00    -0.205 F 
ATOM     19  C   UNL A   1      37.676  22.447  25.753  1.00  0.00     0.003 A 
ENDBRANCH  10  13
ENDBRANCH   7   8
ENDBRANCH   5   7
ENDBRANCH   2   3
ENDBRANCH   1   2
BRANCH   1  20
ATOM     20  C   UNL A   1      33.190  28.601  26.456  1.00  0.00     0.023 C 
BRANCH  20  21
ATOM     21  C   UNL A   1      34.656  28.681  26.878  1.00  0.00     0.116 C 
BRANCH  21  22
ATOM     22  N   UNL A   1      35.111  30.060  26.949  1.00  0.00    -0.352 N 
ATOM     23  C   UNL A   1      36.165  30.606  27.635  1.00  0.00     0.251 C 
ATOM     24  H   UNL A   1      34.579  30.700  26.422  1.00  0.00     0.163 HD
ATOM     25  O   UNL A   1      36.165  31.807  27.877  1.00  0.00    -0.269 OA
BRANCH  23  26
ATOM     26  C   UNL A   1      37.306  29.782  28.086  1.00  0.00     0.039 A 
ATOM     27  C   UNL A   1      38.439  29.716  27.259  1.00  0.00     0.014 A 
ATOM     28  C   UNL A   1      37.228  28.987  29.234  1.00  0.00     0.014 A 
ATOM     29  C   UNL A   1      39.510  28.898  27.606  1.00  0.00     0.010 A 
ATOM     30  C   UNL A   1      38.302  28.188  29.599  1.00  0.00     0.010 A 
ATOM     31  C   UNL A   1      39.443  28.157  28.789  1.00  0.00    -0.014 A 
BRANCH  31  32
ATOM     32  C   UNL A   1      40.639  27.444  29.282  1.00  0.00     0.031 A 
ATOM     33  C   UNL A   1      40.809  26.066  28.590  1.00  0.00     0.074 A 
ATOM     34  C   UNL A   1      41.399  28.137  30.186  1.00  0.00     0.049 A 
ATOM     35  N   UNL A   1      41.639  25.098  28.834  1.00  0.00    -0.248 NA
ATOM     36  C   UNL A   1      39.921  25.708  27.443  1.00  0.00     0.031 C 
ATOM     37  C   UNL A   1      41.065  29.483  30.712  1.00  0.00     0.029 A 
ATOM     38  N   UNL A   1      42.585  27.882  30.845  1.00  0.00    -0.354 N 
ATOM     39  C   UNL A   1      41.531  24.151  27.784  1.00  0.00     0.074 A 
ATOM     40  C   UNL A   1      40.401  24.542  27.002  1.00  0.00     0.031 C 
ATOM     41  C   UNL A   1      41.953  29.873  31.651  1.00  0.00     0.029 A 
ATOM     42  C   UNL A   1      42.969  28.854  31.811  1.00  0.00     0.049 A 
ATOM     43  H   UNL A   1      43.129  27.083  30.659  1.00  0.00     0.167 HD
ATOM     44  C   UNL A   1      42.452  23.163  27.571  1.00  0.00     0.037 A 
ATOM     45  C   UNL A   1      44.013  28.814  32.699  1.00  0.00     0.037 A 
ATOM     46  C   UNL A   1      43.427  23.188  28.604  1.00  0.00     0.049 A 
ATOM     47  C   UNL A   1      44.832  27.681  32.252  1.00  0.00     0.074 A 
ATOM     48  C   UNL A   1      43.359  22.785  29.909  1.00  0.00     0.029 A 
ATOM     49  N   UNL A   1      44.512  24.012  28.435  1.00  0.00    -0.354 N 
ATOM     50  N   UNL A   1      45.548  27.681  31.167  1.00  0.00    -0.248 NA
ATOM     51  C   UNL A   1      44.773  26.423  33.003  1.00  0.00     0.031 C 
ATOM     52  C   UNL A   1      44.100  23.771  30.584  1.00  0.00     0.029 A 
ATOM     53  C   UNL A   1      44.788  24.567  29.660  1.00  0.00     0.049 A 
ATOM     54  H   UNL A   1      44.999  24.174  27.595  1.00  0.00     0.167 HD
ATOM     55  C   UNL A   1      45.726  26.339  30.941  1.00  0.00     0.074 A 
ATOM     56  C   UNL A   1      45.532  25.673  32.210  1.00  0.00     0.031 C 
ATOM     57  C   UNL A   1      45.476  25.834  29.704  1.00  0.00     0.037 A 
BRANCH  44  58
ATOM     58  C   UNL A   1      42.716  22.216  26.434  1.00  0.00     0.064 A 
ATOM     59  C   UNL A   1      43.733  22.410  25.493  1.00  0.00     0.173 A 
ATOM     60  C   UNL A   1      42.188  20.901  26.522  1.00  0.00     0.173 A 
ATOM     61  F   UNL A   1      44.299  23.613  25.333  1.00  0.00    -0.203 F 
ATOM     62  C   UNL A   1      44.260  21.335  24.765  1.00  0.00     0.198 A 
ATOM     63  C   UNL A   1      42.746  19.827  25.832  1.00  0.00     0.198 A 
ATOM     64  F   UNL A   1      41.166  20.625  27.348  1.00  0.00    -0.203 F 
ATOM     65  F   UNL A   1      45.274  21.544  23.914  1.00  0.00    -0.200 F 
ATOM     66  C   UNL A   1      43.799  20.043  24.967  1.00  0.00     0.200 A 
ATOM     67  F   UNL A   1      42.305  18.581  26.062  1.00  0.00    -0.200 F 
ATOM     68  F   UNL A   1      44.388  19.007  24.355  1.00  0.00    -0.200 F 
ENDBRANCH  44  58
BRANCH  45  69
ATOM     69  C   UNL A   1      44.464  29.514  33.965  1.00  0.00     0.064 A 
ATOM     70  C   UNL A   1      45.419  30.572  33.881  1.00  0.00     0.173 A 
ATOM     71  C   UNL A   1      44.156  29.133  35.276  1.00  0.00     0.173 A 
ATOM     72  F   UNL A   1      45.694  31.180  32.719  1.00  0.00    -0.203 F 
ATOM     73  C   UNL A   1      46.152  31.039  34.971  1.00  0.00     0.198 A 
ATOM     74  C   UNL A   1      44.852  29.652  36.387  1.00  0.00     0.198 A 
ATOM     75  F   UNL A   1      43.183  28.254  35.532  1.00  0.00    -0.203 F 
ATOM     76  F   UNL A   1      47.139  31.926  34.777  1.00  0.00    -0.200 F 
ATOM     77  C   UNL A   1      45.885  30.560  36.229  1.00  0.00     0.200 A 
ATOM     78  F   UNL A   1      44.533  29.239  37.623  1.00  0.00    -0.200 F 
ATOM     79  F   UNL A   1      46.610  30.974  37.276  1.00  0.00    -0.200 F 
ENDBRANCH  45  69
BRANCH  57  80
ATOM     80  C   UNL A   1      45.597  26.846  28.577  1.00  0.00     0.064 A 
ATOM     81  C   UNL A   1      44.507  27.376  27.863  1.00  0.00     0.173 A 
ATOM     82  C   UNL A   1      46.852  27.391  28.261  1.00  0.00     0.173 A 
ATOM     83  F   UNL A   1      43.277  26.912  28.053  1.00  0.00    -0.203 F 
ATOM     84  C   UNL A   1      44.649  28.393  26.916  1.00  0.00     0.198 A 
ATOM     85  C   UNL A   1      46.999  28.412  27.315  1.00  0.00     0.198 A 
ATOM     86  F   UNL A   1      47.953  26.926  28.869  1.00  0.00    -0.203 F 
ATOM     87  F   UNL A   1      43.571  28.853  26.260  1.00  0.00    -0.200 F 
ATOM     88  C   UNL A   1      45.897  28.915  26.646  1.00  0.00     0.200 A 
ATOM     89  F   UNL A   1      48.216  28.903  27.047  1.00  0.00    -0.200 F 
ATOM     90  F   UNL A   1      46.039  29.882  25.727  1.00  0.00    -0.200 F 
ENDBRANCH  57  80
ENDBRANCH  31  32
ENDBRANCH  23  26
ENDBRANCH  21  22
ENDBRANCH  20  21
ENDBRANCH   1  20
TORSDOF 13
ENDMDL
