MODEL 1
REMARK VINA RESULT:     -12.5      0.000      0.000
REMARK SMILES CC(C)CN(C)c1cc2c(cc1Cl)C=C(C(=O)NCCCCNC(=O)c1ccc(-c3c4nc(c(-c5c(F)c(F)c(F)c(F)c5F)c5ccc([nH]5)c(-c5c(F)c(F)c(F)c(F)c5F)c5nc(c(-c6c(F)c(F)c(F)c(F)c6F)c6ccc3[nH]6)C=C5)C=C4)cc1)[C@@H](C(F)(F)F)O2
REMARK SMILES IDX 20 1 19 2 18 3 16 4 17 5 15 7 7 8 8 9 12 10 9 11 11 12 13 13
REMARK SMILES IDX 10 14 94 15 14 16 89 17 5 18 6 19 4 20 2 21 1 22 3 23 90 24
REMARK SMILES IDX 91 25 92 26 93 27 21 28 22 29 23 30 24 31 25 33 26 34 27 35
REMARK SMILES IDX 88 36 28 37 87 38 29 39 30 40 31 41 81 42 32 43 86 44 80 45
REMARK SMILES IDX 82 46 33 47 85 48 79 49 78 50 34 52 66 53 46 54 65 55 47 56
REMARK SMILES IDX 50 57 64 58 83 59 48 60 49 61 63 63 84 64 51 65 35 66 36 67
REMARK SMILES IDX 44 68 37 69 38 70 42 71 45 72 39 73 40 74 43 75 41 76 67 77
REMARK SMILES IDX 68 78 76 79 69 80 70 81 74 82 77 83 71 84 72 85 75 86 73 87
REMARK SMILES IDX 52 88 53 89 61 90 54 91 55 92 59 93 62 94 56 95 57 96 60 97
REMARK SMILES IDX 58 98
REMARK H PARENT 18 6 23 32 82 51 50 62
REMARK Flexibility Score: inf
ROOT
ATOM      1  C   UNL A   1      36.936  22.147  25.436  1.00  0.00     0.023 C 
ENDROOT
BRANCH   1   2
ATOM      2  C   UNL A   1      35.757  21.529  26.181  1.00  0.00     0.116 C 
BRANCH   2   3
ATOM      3  N   UNL A   1      34.833  20.870  25.276  1.00  0.00    -0.352 N 
ATOM      4  C   UNL A   1      33.750  21.231  24.548  1.00  0.00     0.251 C 
ATOM      5  O   UNL A   1      33.261  20.333  23.855  1.00  0.00    -0.270 OA
ATOM      6  H   UNL A   1      35.049  19.916  25.163  1.00  0.00     0.163 HD
BRANCH   4   7
ATOM      7  C   UNL A   1      33.132  22.585  24.544  1.00  0.00     0.067 C 
ATOM      8  C   UNL A   1      31.712  27.283  23.371  1.00  0.00     0.059 A 
ATOM      9  C   UNL A   1      31.068  26.172  23.939  1.00  0.00     0.074 A 
ATOM     10  C   UNL A   1      33.065  27.131  22.987  1.00  0.00     0.065 A 
ATOM     11  C   UNL A   1      31.744  24.965  24.094  1.00  0.00     0.130 A 
ATOM     12  C   UNL A   1      33.708  25.889  23.061  1.00  0.00     0.034 A 
ATOM     13  Cl  UNL A   1      34.014  28.469  22.433  1.00  0.00    -0.082 Cl
ATOM     14  C   UNL A   1      33.042  24.797  23.608  1.00  0.00     0.019 A 
ATOM     15  O   UNL A   1      31.086  23.952  24.741  1.00  0.00    -0.475 OA
ATOM     16  C   UNL A   1      33.652  23.473  23.675  1.00  0.00     0.025 C 
ATOM     17  C   UNL A   1      31.981  23.015  25.412  1.00  0.00     0.314 C 
BRANCH   8  18
ATOM     18  N   UNL A   1      31.012  28.486  23.191  1.00  0.00    -0.373 N 
ATOM     19  C   UNL A   1      31.022  29.385  24.342  1.00  0.00     0.143 C 
BRANCH  18  20
ATOM     20  C   UNL A   1      29.744  28.401  22.437  1.00  0.00     0.119 C 
BRANCH  20  21
ATOM     21  C   UNL A   1      28.788  29.570  22.751  1.00  0.00     0.002 C 
ATOM     22  C   UNL A   1      28.733  30.593  21.613  1.00  0.00     0.009 C 
ATOM     23  C   UNL A   1      27.371  29.058  23.025  1.00  0.00     0.009 C 
ENDBRANCH  20  21
ENDBRANCH  18  20
ENDBRANCH   8  18
BRANCH  17  24
ATOM     24  C   UNL A   1      32.458  23.584  26.771  1.00  0.00     0.429 C 
ATOM     25  F   UNL A   1      31.505  24.383  27.310  1.00  0.00    -0.167 F 
ATOM     26  F   UNL A   1      32.698  22.605  27.679  1.00  0.00    -0.167 F 
ATOM     27  F   UNL A   1      33.593  24.311  26.682  1.00  0.00    -0.167 F 
ENDBRANCH  17  24
ENDBRANCH   4   7
ENDBRANCH   2   3
ENDBRANCH   1   2
BRANCH   1  28
ATOM     28  C   UNL A   1      38.001  21.139  25.002  1.00  0.00     0.023 C 
BRANCH  28  29
ATOM     29  C   UNL A   1      39.251  21.098  25.875  1.00  0.00     0.116 C 
BRANCH  29  30
ATOM     30  N   UNL A   1      39.980  19.837  25.821  1.00  0.00    -0.352 N 
ATOM     31  C   UNL A   1      41.314  19.628  26.089  1.00  0.00     0.251 C 
ATOM     32  H   UNL A   1      39.459  19.044  25.562  1.00  0.00     0.163 HD
ATOM     33  O   UNL A   1      41.827  18.522  25.951  1.00  0.00    -0.269 OA
BRANCH  31  34
ATOM     34  C   UNL A   1      42.129  20.789  26.487  1.00  0.00     0.039 A 
ATOM     35  C   UNL A   1      42.217  21.146  27.835  1.00  0.00     0.014 A 
ATOM     36  C   UNL A   1      42.678  21.600  25.491  1.00  0.00     0.014 A 
ATOM     37  C   UNL A   1      42.700  22.402  28.172  1.00  0.00     0.010 A 
ATOM     38  C   UNL A   1      43.228  22.833  25.843  1.00  0.00     0.010 A 
ATOM     39  C   UNL A   1      43.186  23.268  27.177  1.00  0.00    -0.014 A 
BRANCH  39  40
ATOM     40  C   UNL A   1      43.602  24.644  27.542  1.00  0.00     0.031 A 
ATOM     41  C   UNL A   1      42.573  25.674  27.924  1.00  0.00     0.074 A 
ATOM     42  C   UNL A   1      44.912  24.948  27.583  1.00  0.00     0.049 A 
ATOM     43  N   UNL A   1      42.741  26.937  28.223  1.00  0.00    -0.248 NA
ATOM     44  C   UNL A   1      41.171  25.228  27.980  1.00  0.00     0.031 C 
ATOM     45  C   UNL A   1      46.001  24.022  27.268  1.00  0.00     0.029 A 
ATOM     46  N   UNL A   1      45.550  26.112  27.924  1.00  0.00    -0.354 N 
ATOM     47  C   UNL A   1      41.471  27.442  28.473  1.00  0.00     0.074 A 
ATOM     48  C   UNL A   1      40.538  26.353  28.281  1.00  0.00     0.031 C 
ATOM     49  C   UNL A   1      47.173  24.641  27.470  1.00  0.00     0.029 A 
ATOM     50  C   UNL A   1      46.918  26.023  27.865  1.00  0.00     0.049 A 
ATOM     51  H   UNL A   1      45.073  26.933  28.186  1.00  0.00     0.167 HD
ATOM     52  C   UNL A   1      41.121  28.698  28.837  1.00  0.00     0.037 A 
ATOM     53  C   UNL A   1      47.862  26.957  28.084  1.00  0.00     0.037 A 
ATOM     54  C   UNL A   1      42.056  29.771  29.059  1.00  0.00     0.049 A 
ATOM     55  C   UNL A   1      47.441  28.350  28.453  1.00  0.00     0.074 A 
ATOM     56  C   UNL A   1      41.797  31.079  29.430  1.00  0.00     0.029 A 
ATOM     57  N   UNL A   1      43.432  29.652  28.941  1.00  0.00    -0.354 N 
ATOM     58  N   UNL A   1      46.235  28.825  28.645  1.00  0.00    -0.248 NA
ATOM     59  C   UNL A   1      48.513  29.340  28.619  1.00  0.00     0.031 C 
ATOM     60  C   UNL A   1      43.016  31.760  29.511  1.00  0.00     0.029 A 
ATOM     61  C   UNL A   1      44.036  30.867  29.224  1.00  0.00     0.049 A 
ATOM     62  H   UNL A   1      43.911  28.828  28.694  1.00  0.00     0.167 HD
ATOM     63  C   UNL A   1      46.400  30.167  28.955  1.00  0.00     0.074 A 
ATOM     64  C   UNL A   1      47.826  30.425  28.953  1.00  0.00     0.031 C 
ATOM     65  C   UNL A   1      45.456  31.104  29.208  1.00  0.00     0.037 A 
BRANCH  52  66
ATOM     66  C   UNL A   1      39.662  28.997  29.012  1.00  0.00     0.064 A 
ATOM     67  C   UNL A   1      38.849  29.345  27.925  1.00  0.00     0.173 A 
ATOM     68  C   UNL A   1      39.054  28.856  30.269  1.00  0.00     0.173 A 
ATOM     69  F   UNL A   1      39.385  29.506  26.705  1.00  0.00    -0.203 F 
ATOM     70  C   UNL A   1      37.481  29.548  28.090  1.00  0.00     0.198 A 
ATOM     71  C   UNL A   1      37.683  29.040  30.427  1.00  0.00     0.198 A 
ATOM     72  F   UNL A   1      39.789  28.521  31.341  1.00  0.00    -0.203 F 
ATOM     73  F   UNL A   1      36.726  29.903  27.041  1.00  0.00    -0.200 F 
ATOM     74  C   UNL A   1      36.898  29.387  29.338  1.00  0.00     0.200 A 
ATOM     75  F   UNL A   1      37.120  28.874  31.633  1.00  0.00    -0.200 F 
ATOM     76  F   UNL A   1      35.579  29.566  29.493  1.00  0.00    -0.200 F 
ENDBRANCH  52  66
BRANCH  53  77
ATOM     77  C   UNL A   1      49.294  26.599  27.939  1.00  0.00     0.064 A 
ATOM     78  C   UNL A   1      49.890  26.523  26.674  1.00  0.00     0.173 A 
ATOM     79  C   UNL A   1      50.097  26.351  29.061  1.00  0.00     0.173 A 
ATOM     80  F   UNL A   1      49.154  26.731  25.572  1.00  0.00    -0.203 F 
ATOM     81  C   UNL A   1      51.240  26.207  26.536  1.00  0.00     0.198 A 
ATOM     82  C   UNL A   1      51.453  26.062  28.923  1.00  0.00     0.198 A 
ATOM     83  F   UNL A   1      49.571  26.415  30.291  1.00  0.00    -0.203 F 
ATOM     84  F   UNL A   1      51.782  26.111  25.315  1.00  0.00    -0.200 F 
ATOM     85  C   UNL A   1      52.021  25.985  27.660  1.00  0.00     0.200 A 
ATOM     86  F   UNL A   1      52.207  25.863  30.012  1.00  0.00    -0.200 F 
ATOM     87  F   UNL A   1      53.322  25.694  27.528  1.00  0.00    -0.200 F 
ENDBRANCH  53  77
BRANCH  65  88
ATOM     88  C   UNL A   1      45.935  32.492  29.504  1.00  0.00     0.064 A 
ATOM     89  C   UNL A   1      46.254  32.887  30.811  1.00  0.00     0.173 A 
ATOM     90  C   UNL A   1      46.111  33.422  28.469  1.00  0.00     0.173 A 
ATOM     91  F   UNL A   1      46.087  32.035  31.833  1.00  0.00    -0.203 F 
ATOM     92  C   UNL A   1      46.716  34.173  31.075  1.00  0.00     0.198 A 
ATOM     93  C   UNL A   1      46.594  34.701  28.734  1.00  0.00     0.198 A 
ATOM     94  F   UNL A   1      45.824  33.088  27.204  1.00  0.00    -0.203 F 
ATOM     95  F   UNL A   1      46.979  34.543  32.336  1.00  0.00    -0.200 F 
ATOM     96  C   UNL A   1      46.890  35.076  30.036  1.00  0.00     0.200 A 
ATOM     97  F   UNL A   1      46.770  35.569  27.730  1.00  0.00    -0.200 F 
ATOM     98  F   UNL A   1      47.337  36.314  30.292  1.00  0.00    -0.200 F 
ENDBRANCH  65  88
ENDBRANCH  39  40
ENDBRANCH  31  34
ENDBRANCH  29  30
ENDBRANCH  28  29
ENDBRANCH   1  28
TORSDOF 15
ENDMDL
MODEL 2
REMARK VINA RESULT:     -12.5      0.749      7.171
REMARK SMILES CC(C)CN(C)c1cc2c(cc1Cl)C=C(C(=O)NCCCCNC(=O)c1ccc(-c3c4nc(c(-c5c(F)c(F)c(F)c(F)c5F)c5ccc([nH]5)c(-c5c(F)c(F)c(F)c(F)c5F)c5nc(c(-c6c(F)c(F)c(F)c(F)c6F)c6ccc3[nH]6)C=C5)C=C4)cc1)[C@@H](C(F)(F)F)O2
REMARK SMILES IDX 20 1 19 2 18 3 16 4 17 5 15 7 7 8 8 9 12 10 9 11 11 12 13 13
REMARK SMILES IDX 10 14 94 15 14 16 89 17 5 18 6 19 4 20 2 21 1 22 3 23 90 24
REMARK SMILES IDX 91 25 92 26 93 27 21 28 22 29 23 30 24 31 25 33 26 34 27 35
REMARK SMILES IDX 88 36 28 37 87 38 29 39 30 40 31 41 81 42 32 43 86 44 80 45
REMARK SMILES IDX 82 46 33 47 85 48 79 49 78 50 34 52 66 53 46 54 65 55 47 56
REMARK SMILES IDX 50 57 64 58 83 59 48 60 49 61 63 63 84 64 51 65 35 66 36 67
REMARK SMILES IDX 44 68 37 69 38 70 42 71 45 72 39 73 40 74 43 75 41 76 67 77
REMARK SMILES IDX 68 78 76 79 69 80 70 81 74 82 77 83 71 84 72 85 75 86 73 87
REMARK SMILES IDX 52 88 53 89 61 90 54 91 55 92 59 93 62 94 56 95 57 96 60 97
REMARK SMILES IDX 58 98
REMARK H PARENT 18 6 23 32 82 51 50 62
REMARK Flexibility Score: inf
ROOT
ATOM      1  C   UNL A   1      37.300  21.963  25.054  1.00  0.00     0.023 C 
ENDROOT
BRANCH   1   2
ATOM      2  C   UNL A   1      36.011  21.834  25.858  1.00  0.00     0.116 C 
BRANCH   2   3
ATOM      3  N   UNL A   1      34.996  21.091  25.134  1.00  0.00    -0.352 N 
ATOM      4  C   UNL A   1      33.816  21.374  24.534  1.00  0.00     0.251 C 
ATOM      5  O   UNL A   1      33.267  20.417  23.979  1.00  0.00    -0.270 OA
ATOM      6  H   UNL A   1      35.223  20.136  25.063  1.00  0.00     0.163 HD
BRANCH   4   7
ATOM      7  C   UNL A   1      33.163  22.711  24.515  1.00  0.00     0.067 C 
ATOM      8  C   UNL A   1      31.681  27.387  23.328  1.00  0.00     0.059 A 
ATOM      9  C   UNL A   1      31.038  26.252  23.846  1.00  0.00     0.074 A 
ATOM     10  C   UNL A   1      33.056  27.276  23.015  1.00  0.00     0.065 A 
ATOM     11  C   UNL A   1      31.737  25.060  24.021  1.00  0.00     0.130 A 
ATOM     12  C   UNL A   1      33.727  26.050  23.107  1.00  0.00     0.034 A 
ATOM     13  Cl  UNL A   1      33.997  28.646  22.530  1.00  0.00    -0.082 Cl
ATOM     14  C   UNL A   1      33.063  24.934  23.603  1.00  0.00     0.019 A 
ATOM     15  O   UNL A   1      31.073  24.021  24.620  1.00  0.00    -0.475 OA
ATOM     16  C   UNL A   1      33.704  23.625  23.686  1.00  0.00     0.025 C 
ATOM     17  C   UNL A   1      31.957  23.098  25.325  1.00  0.00     0.314 C 
BRANCH   8  18
ATOM     18  N   UNL A   1      30.959  28.573  23.126  1.00  0.00    -0.373 N 
ATOM     19  C   UNL A   1      30.900  29.465  24.282  1.00  0.00     0.143 C 
BRANCH  18  20
ATOM     20  C   UNL A   1      29.725  28.463  22.321  1.00  0.00     0.119 C 
BRANCH  20  21
ATOM     21  C   UNL A   1      28.685  29.543  22.679  1.00  0.00     0.002 C 
ATOM     22  C   UNL A   1      28.444  30.519  21.523  1.00  0.00     0.009 C 
ATOM     23  C   UNL A   1      27.350  28.906  23.074  1.00  0.00     0.009 C 
ENDBRANCH  20  21
ENDBRANCH  18  20
ENDBRANCH   8  18
BRANCH  17  24
ATOM     24  C   UNL A   1      32.345  23.660  26.714  1.00  0.00     0.429 C 
ATOM     25  F   UNL A   1      31.511  24.669  27.067  1.00  0.00    -0.167 F 
ATOM     26  F   UNL A   1      32.249  22.723  27.690  1.00  0.00    -0.167 F 
ATOM     27  F   UNL A   1      33.606  24.141  26.767  1.00  0.00    -0.167 F 
ENDBRANCH  17  24
ENDBRANCH   4   7
ENDBRANCH   2   3
ENDBRANCH   1   2
BRANCH   1  28
ATOM     28  C   UNL A   1      38.154  20.695  25.031  1.00  0.00     0.023 C 
BRANCH  28  29
ATOM     29  C   UNL A   1      39.345  20.696  25.984  1.00  0.00     0.116 C 
BRANCH  29  30
ATOM     30  N   UNL A   1      40.157  19.488  25.930  1.00  0.00    -0.352 N 
ATOM     31  C   UNL A   1      41.516  19.381  26.129  1.00  0.00     0.251 C 
ATOM     32  H   UNL A   1      39.680  18.651  25.730  1.00  0.00     0.163 HD
ATOM     33  O   UNL A   1      42.097  18.309  25.999  1.00  0.00    -0.269 OA
BRANCH  31  34
ATOM     34  C   UNL A   1      42.267  20.610  26.439  1.00  0.00     0.039 A 
ATOM     35  C   UNL A   1      42.454  20.991  27.770  1.00  0.00     0.014 A 
ATOM     36  C   UNL A   1      42.649  21.449  25.390  1.00  0.00     0.014 A 
ATOM     37  C   UNL A   1      42.863  22.287  28.052  1.00  0.00     0.010 A 
ATOM     38  C   UNL A   1      43.127  22.727  25.680  1.00  0.00     0.010 A 
ATOM     39  C   UNL A   1      43.178  23.175  27.009  1.00  0.00    -0.014 A 
BRANCH  39  40
ATOM     40  C   UNL A   1      43.513  24.585  27.324  1.00  0.00     0.031 A 
ATOM     41  C   UNL A   1      44.895  25.118  27.058  1.00  0.00     0.074 A 
ATOM     42  C   UNL A   1      42.553  25.401  27.797  1.00  0.00     0.049 A 
ATOM     43  N   UNL A   1      45.388  26.303  27.313  1.00  0.00    -0.248 NA
ATOM     44  C   UNL A   1      45.853  24.199  26.419  1.00  0.00     0.031 C 
ATOM     45  C   UNL A   1      41.169  25.007  28.061  1.00  0.00     0.029 A 
ATOM     46  N   UNL A   1      42.591  26.732  28.121  1.00  0.00    -0.354 N 
ATOM     47  C   UNL A   1      46.712  26.265  26.896  1.00  0.00     0.074 A 
ATOM     48  C   UNL A   1      46.954  24.935  26.379  1.00  0.00     0.031 C 
ATOM     49  C   UNL A   1      40.478  26.083  28.467  1.00  0.00     0.029 A 
ATOM     50  C   UNL A   1      41.384  27.223  28.554  1.00  0.00     0.049 A 
ATOM     51  H   UNL A   1      43.404  27.283  28.051  1.00  0.00     0.167 HD
ATOM     52  C   UNL A   1      47.635  27.254  26.935  1.00  0.00     0.037 A 
ATOM     53  C   UNL A   1      41.051  28.450  28.993  1.00  0.00     0.037 A 
ATOM     54  C   UNL A   1      47.382  28.586  27.420  1.00  0.00     0.049 A 
ATOM     55  C   UNL A   1      42.106  29.517  29.057  1.00  0.00     0.074 A 
ATOM     56  C   UNL A   1      48.254  29.658  27.499  1.00  0.00     0.029 A 
ATOM     57  N   UNL A   1      46.158  29.030  27.896  1.00  0.00    -0.354 N 
ATOM     58  N   UNL A   1      43.364  29.455  28.699  1.00  0.00    -0.248 NA
ATOM     59  C   UNL A   1      41.696  30.818  29.601  1.00  0.00     0.031 C 
ATOM     60  C   UNL A   1      47.565  30.743  28.049  1.00  0.00     0.029 A 
ATOM     61  C   UNL A   1      46.254  30.358  28.279  1.00  0.00     0.049 A 
ATOM     62  H   UNL A   1      45.340  28.484  27.953  1.00  0.00     0.167 HD
ATOM     63  C   UNL A   1      43.898  30.706  28.973  1.00  0.00     0.074 A 
ATOM     64  C   UNL A   1      42.820  31.516  29.501  1.00  0.00     0.031 C 
ATOM     65  C   UNL A   1      45.171  31.142  28.811  1.00  0.00     0.037 A 
BRANCH  52  66
ATOM     66  C   UNL A   1      49.020  26.941  26.450  1.00  0.00     0.064 A 
ATOM     67  C   UNL A   1      49.997  26.420  27.308  1.00  0.00     0.173 A 
ATOM     68  C   UNL A   1      49.348  27.090  25.093  1.00  0.00     0.173 A 
ATOM     69  F   UNL A   1      49.738  26.272  28.617  1.00  0.00    -0.203 F 
ATOM     70  C   UNL A   1      51.255  26.064  26.828  1.00  0.00     0.198 A 
ATOM     71  C   UNL A   1      50.599  26.714  24.613  1.00  0.00     0.198 A 
ATOM     72  F   UNL A   1      48.445  27.581  24.231  1.00  0.00    -0.203 F 
ATOM     73  F   UNL A   1      52.183  25.589  27.671  1.00  0.00    -0.200 F 
ATOM     74  C   UNL A   1      51.552  26.203  25.481  1.00  0.00     0.200 A 
ATOM     75  F   UNL A   1      50.881  26.841  23.308  1.00  0.00    -0.200 F 
ATOM     76  F   UNL A   1      52.758  25.845  25.017  1.00  0.00    -0.200 F 
ENDBRANCH  52  66
BRANCH  53  77
ATOM     77  C   UNL A   1      39.656  28.721  29.421  1.00  0.00     0.064 A 
ATOM     78  C   UNL A   1      39.250  28.474  30.739  1.00  0.00     0.173 A 
ATOM     79  C   UNL A   1      38.714  29.254  28.531  1.00  0.00     0.173 A 
ATOM     80  F   UNL A   1      40.112  27.944  31.618  1.00  0.00    -0.203 F 
ATOM     81  C   UNL A   1      37.946  28.747  31.149  1.00  0.00     0.198 A 
ATOM     82  C   UNL A   1      37.419  29.551  28.950  1.00  0.00     0.198 A 
ATOM     83  F   UNL A   1      39.059  29.510  27.262  1.00  0.00    -0.203 F 
ATOM     84  F   UNL A   1      37.572  28.474  32.406  1.00  0.00    -0.200 F 
ATOM     85  C   UNL A   1      37.036  29.292  30.257  1.00  0.00     0.200 A 
ATOM     86  F   UNL A   1      36.547  30.092  28.089  1.00  0.00    -0.200 F 
ATOM     87  F   UNL A   1      35.786  29.566  30.656  1.00  0.00    -0.200 F 
ENDBRANCH  53  77
BRANCH  65  88
ATOM     88  C   UNL A   1      45.462  32.556  29.209  1.00  0.00     0.064 A 
ATOM     89  C   UNL A   1      45.934  32.868  30.492  1.00  0.00     0.173 A 
ATOM     90  C   UNL A   1      45.303  33.604  28.290  1.00  0.00     0.173 A 
ATOM     91  F   UNL A   1      46.087  31.899  31.408  1.00  0.00    -0.203 F 
ATOM     92  C   UNL A   1      46.219  34.183  30.848  1.00  0.00     0.198 A 
ATOM     93  C   UNL A   1      45.609  34.915  28.643  1.00  0.00     0.198 A 
ATOM     94  F   UNL A   1      44.859  33.353  27.050  1.00  0.00    -0.203 F 
ATOM     95  F   UNL A   1      46.632  34.464  32.091  1.00  0.00    -0.200 F 
ATOM     96  C   UNL A   1      46.061  35.203  29.922  1.00  0.00     0.200 A 
ATOM     97  F   UNL A   1      45.466  35.899  27.745  1.00  0.00    -0.200 F 
ATOM     98  F   UNL A   1      46.338  36.469  30.266  1.00  0.00    -0.200 F 
ENDBRANCH  65  88
ENDBRANCH  39  40
ENDBRANCH  31  34
ENDBRANCH  29  30
ENDBRANCH  28  29
ENDBRANCH   1  28
TORSDOF 15
ENDMDL
MODEL 3
REMARK VINA RESULT:     -12.5      0.817      1.840
REMARK SMILES CC(C)CN(C)c1cc2c(cc1Cl)C=C(C(=O)NCCCCNC(=O)c1ccc(-c3c4nc(c(-c5c(F)c(F)c(F)c(F)c5F)c5ccc([nH]5)c(-c5c(F)c(F)c(F)c(F)c5F)c5nc(c(-c6c(F)c(F)c(F)c(F)c6F)c6ccc3[nH]6)C=C5)C=C4)cc1)[C@@H](C(F)(F)F)O2
REMARK SMILES IDX 20 1 19 2 18 3 16 4 17 5 15 7 7 8 8 9 12 10 9 11 11 12 13 13
REMARK SMILES IDX 10 14 94 15 14 16 89 17 5 18 6 19 4 20 2 21 1 22 3 23 90 24
REMARK SMILES IDX 91 25 92 26 93 27 21 28 22 29 23 30 24 31 25 33 26 34 27 35
REMARK SMILES IDX 88 36 28 37 87 38 29 39 30 40 31 41 81 42 32 43 86 44 80 45
REMARK SMILES IDX 82 46 33 47 85 48 79 49 78 50 34 52 66 53 46 54 65 55 47 56
REMARK SMILES IDX 50 57 64 58 83 59 48 60 49 61 63 63 84 64 51 65 35 66 36 67
REMARK SMILES IDX 44 68 37 69 38 70 42 71 45 72 39 73 40 74 43 75 41 76 67 77
REMARK SMILES IDX 68 78 76 79 69 80 70 81 74 82 77 83 71 84 72 85 75 86 73 87
REMARK SMILES IDX 52 88 53 89 61 90 54 91 55 92 59 93 62 94 56 95 57 96 60 97
REMARK SMILES IDX 58 98
REMARK H PARENT 18 6 23 32 82 51 50 62
REMARK Flexibility Score: inf
ROOT
ATOM      1  C   UNL A   1      36.922  22.022  25.373  1.00  0.00     0.023 C 
ENDROOT
BRANCH   1   2
ATOM      2  C   UNL A   1      35.722  21.457  26.126  1.00  0.00     0.116 C 
BRANCH   2   3
ATOM      3  N   UNL A   1      34.784  20.802  25.233  1.00  0.00    -0.352 N 
ATOM      4  C   UNL A   1      33.696  21.169  24.516  1.00  0.00     0.251 C 
ATOM      5  O   UNL A   1      33.193  20.273  23.831  1.00  0.00    -0.270 OA
ATOM      6  H   UNL A   1      34.992  19.847  25.121  1.00  0.00     0.163 HD
BRANCH   4   7
ATOM      7  C   UNL A   1      33.087  22.527  24.515  1.00  0.00     0.067 C 
ATOM      8  C   UNL A   1      31.702  27.239  23.353  1.00  0.00     0.059 A 
ATOM      9  C   UNL A   1      31.049  26.131  23.916  1.00  0.00     0.074 A 
ATOM     10  C   UNL A   1      33.055  27.078  22.972  1.00  0.00     0.065 A 
ATOM     11  C   UNL A   1      31.716  24.918  24.069  1.00  0.00     0.130 A 
ATOM     12  C   UNL A   1      33.689  25.832  23.044  1.00  0.00     0.034 A 
ATOM     13  Cl  UNL A   1      34.015  28.412  22.425  1.00  0.00    -0.082 Cl
ATOM     14  C   UNL A   1      33.014  24.743  23.585  1.00  0.00     0.019 A 
ATOM     15  O   UNL A   1      31.050  23.908  24.712  1.00  0.00    -0.475 OA
ATOM     16  C   UNL A   1      33.615  23.415  23.650  1.00  0.00     0.025 C 
ATOM     17  C   UNL A   1      31.938  22.962  25.382  1.00  0.00     0.314 C 
BRANCH   8  18
ATOM     18  N   UNL A   1      31.011  28.447  23.176  1.00  0.00    -0.373 N 
ATOM     19  C   UNL A   1      31.001  29.331  24.339  1.00  0.00     0.143 C 
BRANCH  18  20
ATOM     20  C   UNL A   1      29.758  28.378  22.395  1.00  0.00     0.119 C 
BRANCH  20  21
ATOM     21  C   UNL A   1      28.778  29.517  22.744  1.00  0.00     0.002 C 
ATOM     22  C   UNL A   1      28.654  30.540  21.611  1.00  0.00     0.009 C 
ATOM     23  C   UNL A   1      27.388  28.962  23.064  1.00  0.00     0.009 C 
ENDBRANCH  20  21
ENDBRANCH  18  20
ENDBRANCH   8  18
BRANCH  17  24
ATOM     24  C   UNL A   1      32.415  23.524  26.743  1.00  0.00     0.429 C 
ATOM     25  F   UNL A   1      32.450  22.540  27.675  1.00  0.00    -0.167 F 
ATOM     26  F   UNL A   1      33.671  24.032  26.674  1.00  0.00    -0.167 F 
ATOM     27  F   UNL A   1      31.628  24.510  27.225  1.00  0.00    -0.167 F 
ENDBRANCH  17  24
ENDBRANCH   4   7
ENDBRANCH   2   3
ENDBRANCH   1   2
BRANCH   1  28
ATOM     28  C   UNL A   1      37.969  20.978  24.988  1.00  0.00     0.023 C 
BRANCH  28  29
ATOM     29  C   UNL A   1      39.237  20.985  25.837  1.00  0.00     0.116 C 
BRANCH  29  30
ATOM     30  N   UNL A   1      39.959  19.720  25.848  1.00  0.00    -0.352 N 
ATOM     31  C   UNL A   1      41.299  19.520  26.093  1.00  0.00     0.251 C 
ATOM     32  H   UNL A   1      39.427  18.913  25.659  1.00  0.00     0.163 HD
ATOM     33  O   UNL A   1      41.804  18.405  26.017  1.00  0.00    -0.269 OA
BRANCH  31  34
ATOM     34  C   UNL A   1      42.130  20.702  26.387  1.00  0.00     0.039 A 
ATOM     35  C   UNL A   1      42.279  21.133  27.707  1.00  0.00     0.014 A 
ATOM     36  C   UNL A   1      42.632  21.455  25.323  1.00  0.00     0.014 A 
ATOM     37  C   UNL A   1      42.776  22.407  27.951  1.00  0.00     0.010 A 
ATOM     38  C   UNL A   1      43.196  22.704  25.579  1.00  0.00     0.010 A 
ATOM     39  C   UNL A   1      43.214  23.214  26.887  1.00  0.00    -0.014 A 
BRANCH  39  40
ATOM     40  C   UNL A   1      43.645  24.607  27.154  1.00  0.00     0.031 A 
ATOM     41  C   UNL A   1      42.683  25.600  27.750  1.00  0.00     0.074 A 
ATOM     42  C   UNL A   1      44.919  24.962  26.912  1.00  0.00     0.049 A 
ATOM     43  N   UNL A   1      42.861  26.872  28.006  1.00  0.00    -0.248 NA
ATOM     44  C   UNL A   1      41.345  25.101  28.107  1.00  0.00     0.031 C 
ATOM     45  C   UNL A   1      45.950  24.077  26.368  1.00  0.00     0.029 A 
ATOM     46  N   UNL A   1      45.569  26.153  27.108  1.00  0.00    -0.354 N 
ATOM     47  C   UNL A   1      41.657  27.329  28.525  1.00  0.00     0.074 A 
ATOM     48  C   UNL A   1      40.747  26.203  28.538  1.00  0.00     0.031 C 
ATOM     49  C   UNL A   1      47.114  24.742  26.313  1.00  0.00     0.029 A 
ATOM     50  C   UNL A   1      46.895  26.116  26.755  1.00  0.00     0.049 A 
ATOM     51  H   UNL A   1      45.128  26.957  27.467  1.00  0.00     0.167 HD
ATOM     52  C   UNL A   1      41.344  28.573  28.956  1.00  0.00     0.037 A 
ATOM     53  C   UNL A   1      47.826  27.087  26.765  1.00  0.00     0.037 A 
ATOM     54  C   UNL A   1      42.261  29.683  28.972  1.00  0.00     0.049 A 
ATOM     55  C   UNL A   1      47.441  28.466  27.217  1.00  0.00     0.074 A 
ATOM     56  C   UNL A   1      42.038  30.983  29.391  1.00  0.00     0.029 A 
ATOM     57  N   UNL A   1      43.584  29.617  28.560  1.00  0.00    -0.354 N 
ATOM     58  N   UNL A   1      46.287  28.896  27.665  1.00  0.00    -0.248 NA
ATOM     59  C   UNL A   1      48.484  29.498  27.149  1.00  0.00     0.031 C 
ATOM     60  C   UNL A   1      43.217  31.711  29.207  1.00  0.00     0.029 A 
ATOM     61  C   UNL A   1      44.186  30.857  28.707  1.00  0.00     0.049 A 
ATOM     62  H   UNL A   1      44.030  28.810  28.215  1.00  0.00     0.167 HD
ATOM     63  C   UNL A   1      46.462  30.245  27.933  1.00  0.00     0.074 A 
ATOM     64  C   UNL A   1      47.842  30.558  27.624  1.00  0.00     0.031 C 
ATOM     65  C   UNL A   1      45.558  31.147  28.385  1.00  0.00     0.037 A 
BRANCH  52  66
ATOM     66  C   UNL A   1      39.946  28.818  29.442  1.00  0.00     0.064 A 
ATOM     67  C   UNL A   1      38.933  29.248  28.575  1.00  0.00     0.173 A 
ATOM     68  C   UNL A   1      39.599  28.542  30.774  1.00  0.00     0.173 A 
ATOM     69  F   UNL A   1      39.217  29.538  27.296  1.00  0.00    -0.203 F 
ATOM     70  C   UNL A   1      37.623  29.399  29.024  1.00  0.00     0.198 A 
ATOM     71  C   UNL A   1      38.285  28.675  31.215  1.00  0.00     0.198 A 
ATOM     72  F   UNL A   1      40.533  28.124  31.642  1.00  0.00    -0.203 F 
ATOM     73  F   UNL A   1      36.674  29.834  28.184  1.00  0.00    -0.200 F 
ATOM     74  C   UNL A   1      37.299  29.104  30.340  1.00  0.00     0.200 A 
ATOM     75  F   UNL A   1      37.972  28.380  32.485  1.00  0.00    -0.200 F 
ATOM     76  F   UNL A   1      36.035  29.235  30.766  1.00  0.00    -0.200 F 
ENDBRANCH  52  66
BRANCH  53  77
ATOM     77  C   UNL A   1      49.206  26.783  26.315  1.00  0.00     0.064 A 
ATOM     78  C   UNL A   1      50.158  26.278  27.209  1.00  0.00     0.173 A 
ATOM     79  C   UNL A   1      49.591  26.967  24.979  1.00  0.00     0.173 A 
ATOM     80  F   UNL A   1      49.840  26.106  28.500  1.00  0.00    -0.203 F 
ATOM     81  C   UNL A   1      51.450  25.972  26.784  1.00  0.00     0.198 A 
ATOM     82  C   UNL A   1      50.874  26.635  24.550  1.00  0.00     0.198 A 
ATOM     83  F   UNL A   1      48.713  27.445  24.087  1.00  0.00    -0.203 F 
ATOM     84  F   UNL A   1      52.352  25.518  27.664  1.00  0.00    -0.200 F 
ATOM     85  C   UNL A   1      51.803  26.143  25.454  1.00  0.00     0.200 A 
ATOM     86  F   UNL A   1      51.208  26.788  23.261  1.00  0.00    -0.200 F 
ATOM     87  F   UNL A   1      53.041  25.836  25.043  1.00  0.00    -0.200 F 
ENDBRANCH  53  77
BRANCH  65  88
ATOM     88  C   UNL A   1      46.036  32.555  28.571  1.00  0.00     0.064 A 
ATOM     89  C   UNL A   1      45.939  33.498  27.539  1.00  0.00     0.173 A 
ATOM     90  C   UNL A   1      46.560  32.974  29.804  1.00  0.00     0.173 A 
ATOM     91  F   UNL A   1      45.458  33.138  26.339  1.00  0.00    -0.203 F 
ATOM     92  C   UNL A   1      46.369  34.809  27.726  1.00  0.00     0.198 A 
ATOM     93  C   UNL A   1      46.968  34.290  29.994  1.00  0.00     0.198 A 
ATOM     94  F   UNL A   1      46.667  32.108  30.821  1.00  0.00    -0.203 F 
ATOM     95  F   UNL A   1      46.304  35.685  26.715  1.00  0.00    -0.200 F 
ATOM     96  C   UNL A   1      46.878  35.204  28.955  1.00  0.00     0.200 A 
ATOM     97  F   UNL A   1      47.451  34.674  31.183  1.00  0.00    -0.200 F 
ATOM     98  F   UNL A   1      47.289  36.467  29.135  1.00  0.00    -0.200 F 
ENDBRANCH  65  88
ENDBRANCH  39  40
ENDBRANCH  31  34
ENDBRANCH  29  30
ENDBRANCH  28  29
ENDBRANCH   1  28
TORSDOF 15
ENDMDL
