MODEL 1
REMARK VINA RESULT:     -10.3      0.000      0.000
REMARK SMILES CC(C)[NH+]1CCC(NC(=O)OC(C)(C)C)(C(=O)NCCCCNC(=O)c2ccc(-c3c4nc(c(-c5c(F)c(F)c(F)c(F)c5F)c5ccc([nH]5)c(-c5c(F)c(F)c(F)c(F)c5F)c5nc(c(-c6c(F)c(F)c(F)c(F)c6F)c6ccc3[nH]6)C=C5)C=C4)cc2)CC1
REMARK SMILES IDX 20 1 19 2 18 3 16 4 17 5 7 7 4 8 5 9 90 10 6 12 89 13 2 14
REMARK SMILES IDX 1 15 3 16 8 17 9 18 10 20 11 21 12 22 13 23 14 24 15 25
REMARK SMILES IDX 21 26 22 27 23 28 24 29 25 31 26 32 27 33 88 34 28 35 87 36
REMARK SMILES IDX 29 37 30 38 31 39 81 40 32 41 86 42 80 43 82 44 33 45 85 46
REMARK SMILES IDX 79 47 78 48 34 50 66 51 46 52 65 53 47 54 50 55 64 56 83 57
REMARK SMILES IDX 48 58 49 59 63 61 84 62 51 63 35 64 36 65 44 66 37 67 38 68
REMARK SMILES IDX 42 69 45 70 39 71 40 72 43 73 41 74 67 75 68 76 76 77 69 78
REMARK SMILES IDX 70 79 74 80 77 81 71 82 72 83 75 84 73 85 52 86 53 87 61 88
REMARK SMILES IDX 54 89 55 90 59 91 62 92 56 93 57 94 60 95 58 96
REMARK H PARENT 18 6 4 11 8 19 23 30 82 49 50 60
REMARK Flexibility Score: inf
ROOT
ATOM      1  C   UNL A   1      36.813  33.446  28.512  1.00  0.00     0.023 C 
ENDROOT
BRANCH   1   2
ATOM      2  C   UNL A   1      37.118  32.864  29.881  1.00  0.00     0.116 C 
BRANCH   2   3
ATOM      3  N   UNL A   1      37.378  33.916  30.837  1.00  0.00    -0.354 N 
ATOM      4  C   UNL A   1      36.978  34.035  32.132  1.00  0.00     0.246 C 
ATOM      5  O   UNL A   1      37.516  34.936  32.786  1.00  0.00    -0.272 OA
ATOM      6  H   UNL A   1      37.928  34.660  30.499  1.00  0.00     0.163 HD
BRANCH   4   7
ATOM      7  C   UNL A   1      35.891  33.092  32.742  1.00  0.00     0.132 C 
ATOM      8  N   UNL A   1      33.722  35.087  33.203  1.00  0.00    -0.333 N 
ATOM      9  C   UNL A   1      34.057  34.607  31.865  1.00  0.00     0.265 C 
ATOM     10  C   UNL A   1      34.844  34.968  34.152  1.00  0.00     0.265 C 
ATOM     11  H   UNL A   1      32.989  34.463  33.539  1.00  0.00     0.348 HD
ATOM     12  C   UNL A   1      34.575  33.178  31.930  1.00  0.00     0.100 C 
ATOM     13  C   UNL A   1      35.518  33.575  34.161  1.00  0.00     0.100 C 
BRANCH   8  14
ATOM     14  C   UNL A   1      33.139  36.453  33.201  1.00  0.00     0.177 C 
ATOM     15  C   UNL A   1      34.023  37.548  32.584  1.00  0.00     0.075 C 
ATOM     16  C   UNL A   1      31.771  36.454  32.501  1.00  0.00     0.075 C 
ENDBRANCH   8  14
BRANCH   7  17
ATOM     17  N   UNL A   1      36.325  31.666  32.773  1.00  0.00    -0.306 N 
ATOM     18  C   UNL A   1      37.509  31.088  33.144  1.00  0.00     0.408 C 
ATOM     19  H   UNL A   1      35.637  31.026  32.475  1.00  0.00     0.168 HD
ATOM     20  O   UNL A   1      37.599  29.869  33.236  1.00  0.00    -0.225 OA
BRANCH  18  21
ATOM     21  O   UNL A   1      38.534  31.954  33.274  1.00  0.00    -0.444 OA
BRANCH  21  22
ATOM     22  C   UNL A   1      39.292  32.099  34.508  1.00  0.00     0.106 C 
ATOM     23  C   UNL A   1      40.070  33.415  34.530  1.00  0.00     0.056 C 
ATOM     24  C   UNL A   1      38.414  31.957  35.761  1.00  0.00     0.056 C 
ATOM     25  C   UNL A   1      40.293  30.931  34.492  1.00  0.00     0.056 C 
ENDBRANCH  21  22
ENDBRANCH  18  21
ENDBRANCH   7  17
ENDBRANCH   4   7
ENDBRANCH   2   3
ENDBRANCH   1   2
BRANCH   1  26
ATOM     26  C   UNL A   1      35.374  33.188  28.061  1.00  0.00     0.023 C 
BRANCH  26  27
ATOM     27  C   UNL A   1      34.576  32.263  28.975  1.00  0.00     0.116 C 
BRANCH  27  28
ATOM     28  N   UNL A   1      34.036  31.109  28.272  1.00  0.00    -0.352 N 
ATOM     29  C   UNL A   1      34.702  29.991  27.835  1.00  0.00     0.251 C 
ATOM     30  H   UNL A   1      33.069  31.133  28.086  1.00  0.00     0.163 HD
ATOM     31  O   UNL A   1      34.150  29.171  27.111  1.00  0.00    -0.269 OA
BRANCH  29  32
ATOM     32  C   UNL A   1      36.111  29.810  28.229  1.00  0.00     0.039 A 
ATOM     33  C   UNL A   1      36.398  29.328  29.507  1.00  0.00     0.014 A 
ATOM     34  C   UNL A   1      37.135  30.063  27.312  1.00  0.00     0.014 A 
ATOM     35  C   UNL A   1      37.720  29.037  29.845  1.00  0.00     0.010 A 
ATOM     36  C   UNL A   1      38.439  29.700  27.625  1.00  0.00     0.010 A 
ATOM     37  C   UNL A   1      38.745  29.183  28.895  1.00  0.00    -0.014 A 
BRANCH  37  38
ATOM     38  C   UNL A   1      40.142  28.796  29.212  1.00  0.00     0.031 A 
ATOM     39  C   UNL A   1      41.030  29.737  29.976  1.00  0.00     0.074 A 
ATOM     40  C   UNL A   1      40.625  27.622  28.763  1.00  0.00     0.049 A 
ATOM     41  N   UNL A   1      42.290  29.602  30.304  1.00  0.00    -0.248 NA
ATOM     42  C   UNL A   1      40.431  31.010  30.406  1.00  0.00     0.031 C 
ATOM     43  C   UNL A   1      39.875  26.646  27.971  1.00  0.00     0.029 A 
ATOM     44  N   UNL A   1      41.868  27.054  28.899  1.00  0.00    -0.354 N 
ATOM     45  C   UNL A   1      42.633  30.772  30.969  1.00  0.00     0.074 A 
ATOM     46  C   UNL A   1      41.469  31.630  30.944  1.00  0.00     0.031 C 
ATOM     47  C   UNL A   1      40.662  25.589  27.715  1.00  0.00     0.029 A 
ATOM     48  C   UNL A   1      41.984  25.830  28.284  1.00  0.00     0.049 A 
ATOM     49  H   UNL A   1      42.604  27.481  29.392  1.00  0.00     0.167 HD
ATOM     50  C   UNL A   1      43.806  31.090  31.567  1.00  0.00     0.037 A 
ATOM     51  C   UNL A   1      43.042  25.002  28.183  1.00  0.00     0.037 A 
ATOM     52  C   UNL A   1      44.957  30.225  31.599  1.00  0.00     0.049 A 
ATOM     53  C   UNL A   1      44.341  25.393  28.837  1.00  0.00     0.074 A 
ATOM     54  C   UNL A   1      46.173  30.432  32.227  1.00  0.00     0.029 A 
ATOM     55  N   UNL A   1      45.037  28.992  30.970  1.00  0.00    -0.354 N 
ATOM     56  N   UNL A   1      44.632  26.468  29.527  1.00  0.00    -0.248 NA
ATOM     57  C   UNL A   1      45.459  24.448  28.702  1.00  0.00     0.031 C 
ATOM     58  C   UNL A   1      47.009  29.352  31.927  1.00  0.00     0.029 A 
ATOM     59  C   UNL A   1      46.292  28.440  31.169  1.00  0.00     0.049 A 
ATOM     60  H   UNL A   1      44.309  28.570  30.458  1.00  0.00     0.167 HD
ATOM     61  C   UNL A   1      45.950  26.315  29.936  1.00  0.00     0.074 A 
ATOM     62  C   UNL A   1      46.398  25.034  29.429  1.00  0.00     0.031 C 
ATOM     63  C   UNL A   1      46.721  27.159  30.665  1.00  0.00     0.037 A 
BRANCH  50  64
ATOM     64  C   UNL A   1      43.906  32.433  32.233  1.00  0.00     0.064 A 
ATOM     65  C   UNL A   1      44.191  33.599  31.505  1.00  0.00     0.173 A 
ATOM     66  C   UNL A   1      43.677  32.563  33.611  1.00  0.00     0.173 A 
ATOM     67  F   UNL A   1      44.430  33.530  30.186  1.00  0.00    -0.203 F 
ATOM     68  C   UNL A   1      44.273  34.837  32.135  1.00  0.00     0.198 A 
ATOM     69  C   UNL A   1      43.726  33.808  34.233  1.00  0.00     0.198 A 
ATOM     70  F   UNL A   1      43.395  31.483  34.355  1.00  0.00    -0.203 F 
ATOM     71  F   UNL A   1      44.601  35.927  31.428  1.00  0.00    -0.200 F 
ATOM     72  C   UNL A   1      44.032  34.942  33.497  1.00  0.00     0.200 A 
ATOM     73  F   UNL A   1      43.477  33.910  35.545  1.00  0.00    -0.200 F 
ATOM     74  F   UNL A   1      44.103  36.136  34.101  1.00  0.00    -0.200 F 
ENDBRANCH  50  64
BRANCH  51  75
ATOM     75  C   UNL A   1      42.914  23.716  27.448  1.00  0.00     0.064 A 
ATOM     76  C   UNL A   1      43.285  23.615  26.100  1.00  0.00     0.173 A 
ATOM     77  C   UNL A   1      42.403  22.566  28.070  1.00  0.00     0.173 A 
ATOM     78  F   UNL A   1      43.759  24.691  25.455  1.00  0.00    -0.203 F 
ATOM     79  C   UNL A   1      43.126  22.423  25.396  1.00  0.00     0.198 A 
ATOM     80  C   UNL A   1      42.278  21.366  27.375  1.00  0.00     0.198 A 
ATOM     81  F   UNL A   1      42.039  22.607  29.360  1.00  0.00    -0.203 F 
ATOM     82  F   UNL A   1      43.438  22.370  24.094  1.00  0.00    -0.200 F 
ATOM     83  C   UNL A   1      42.629  21.298  26.035  1.00  0.00     0.200 A 
ATOM     84  F   UNL A   1      41.812  20.277  28.002  1.00  0.00    -0.200 F 
ATOM     85  F   UNL A   1      42.479  20.151  25.359  1.00  0.00    -0.200 F 
ENDBRANCH  51  75
BRANCH  63  86
ATOM     86  C   UNL A   1      48.116  26.709  30.997  1.00  0.00     0.064 A 
ATOM     87  C   UNL A   1      48.390  25.906  32.114  1.00  0.00     0.173 A 
ATOM     88  C   UNL A   1      49.188  27.052  30.158  1.00  0.00     0.173 A 
ATOM     89  F   UNL A   1      47.404  25.561  32.956  1.00  0.00    -0.203 F 
ATOM     90  C   UNL A   1      49.689  25.490  32.396  1.00  0.00     0.198 A 
ATOM     91  C   UNL A   1      50.480  26.604  30.422  1.00  0.00     0.198 A 
ATOM     92  F   UNL A   1      48.981  27.810  29.071  1.00  0.00    -0.203 F 
ATOM     93  F   UNL A   1      49.935  24.771  33.499  1.00  0.00    -0.200 F 
ATOM     94  C   UNL A   1      50.730  25.832  31.546  1.00  0.00     0.200 A 
ATOM     95  F   UNL A   1      51.480  26.921  29.589  1.00  0.00    -0.200 F 
ATOM     96  F   UNL A   1      51.977  25.423  31.813  1.00  0.00    -0.200 F 
ENDBRANCH  63  86
ENDBRANCH  37  38
ENDBRANCH  29  32
ENDBRANCH  27  28
ENDBRANCH  26  27
ENDBRANCH   1  26
TORSDOF 15
ENDMDL
MODEL 2
REMARK VINA RESULT:     -10.1      4.470     10.647
REMARK SMILES CC(C)[NH+]1CCC(NC(=O)OC(C)(C)C)(C(=O)NCCCCNC(=O)c2ccc(-c3c4nc(c(-c5c(F)c(F)c(F)c(F)c5F)c5ccc([nH]5)c(-c5c(F)c(F)c(F)c(F)c5F)c5nc(c(-c6c(F)c(F)c(F)c(F)c6F)c6ccc3[nH]6)C=C5)C=C4)cc2)CC1
REMARK SMILES IDX 20 1 19 2 18 3 16 4 17 5 7 7 4 8 5 9 90 10 6 12 89 13 2 14
REMARK SMILES IDX 1 15 3 16 8 17 9 18 10 20 11 21 12 22 13 23 14 24 15 25
REMARK SMILES IDX 21 26 22 27 23 28 24 29 25 31 26 32 27 33 88 34 28 35 87 36
REMARK SMILES IDX 29 37 30 38 31 39 81 40 32 41 86 42 80 43 82 44 33 45 85 46
REMARK SMILES IDX 79 47 78 48 34 50 66 51 46 52 65 53 47 54 50 55 64 56 83 57
REMARK SMILES IDX 48 58 49 59 63 61 84 62 51 63 35 64 36 65 44 66 37 67 38 68
REMARK SMILES IDX 42 69 45 70 39 71 40 72 43 73 41 74 67 75 68 76 76 77 69 78
REMARK SMILES IDX 70 79 74 80 77 81 71 82 72 83 75 84 73 85 52 86 53 87 61 88
REMARK SMILES IDX 54 89 55 90 59 91 62 92 56 93 57 94 60 95 58 96
REMARK H PARENT 18 6 4 11 8 19 23 30 82 49 50 60
REMARK Flexibility Score: inf
ROOT
ATOM      1  C   UNL A   1      33.781  26.398  25.598  1.00  0.00     0.023 C 
ENDROOT
BRANCH   1   2
ATOM      2  C   UNL A   1      33.283  25.256  24.729  1.00  0.00     0.116 C 
BRANCH   2   3
ATOM      3  N   UNL A   1      34.331  24.789  23.849  1.00  0.00    -0.354 N 
ATOM      4  C   UNL A   1      34.944  23.576  23.793  1.00  0.00     0.246 C 
ATOM      5  O   UNL A   1      35.663  23.376  22.807  1.00  0.00    -0.272 OA
ATOM      6  H   UNL A   1      34.648  25.449  23.191  1.00  0.00     0.163 HD
BRANCH   4   7
ATOM      7  C   UNL A   1      34.757  22.512  24.923  1.00  0.00     0.132 C 
ATOM      8  N   UNL A   1      37.499  22.558  26.094  1.00  0.00    -0.333 N 
ATOM      9  C   UNL A   1      36.548  23.644  26.315  1.00  0.00     0.265 C 
ATOM     10  C   UNL A   1      37.224  21.797  24.862  1.00  0.00     0.265 C 
ATOM     11  H   UNL A   1      37.360  21.914  26.872  1.00  0.00     0.348 HD
ATOM     12  C   UNL A   1      35.124  23.109  26.303  1.00  0.00     0.100 C 
ATOM     13  C   UNL A   1      35.750  21.348  24.713  1.00  0.00     0.100 C 
BRANCH   8  14
ATOM     14  C   UNL A   1      38.915  23.002  26.167  1.00  0.00     0.177 C 
ATOM     15  C   UNL A   1      39.197  24.152  27.147  1.00  0.00     0.075 C 
ATOM     16  C   UNL A   1      39.834  21.817  26.501  1.00  0.00     0.075 C 
ENDBRANCH   8  14
BRANCH   7  17
ATOM     17  N   UNL A   1      33.358  21.998  24.996  1.00  0.00    -0.306 N 
ATOM     18  C   UNL A   1      32.856  20.728  24.911  1.00  0.00     0.408 C 
ATOM     19  H   UNL A   1      32.676  22.696  25.132  1.00  0.00     0.168 HD
ATOM     20  O   UNL A   1      31.674  20.514  25.154  1.00  0.00    -0.225 OA
BRANCH  18  21
ATOM     21  O   UNL A   1      33.729  19.813  24.445  1.00  0.00    -0.444 OA
BRANCH  21  22
ATOM     22  C   UNL A   1      33.410  18.396  24.346  1.00  0.00     0.106 C 
ATOM     23  C   UNL A   1      32.688  17.901  25.599  1.00  0.00     0.056 C 
ATOM     24  C   UNL A   1      32.610  18.057  23.079  1.00  0.00     0.056 C 
ATOM     25  C   UNL A   1      34.776  17.694  24.250  1.00  0.00     0.056 C 
ENDBRANCH  21  22
ENDBRANCH  18  21
ENDBRANCH   7  17
ENDBRANCH   4   7
ENDBRANCH   2   3
ENDBRANCH   1   2
BRANCH   1  26
ATOM     26  C   UNL A   1      32.998  27.695  25.385  1.00  0.00     0.023 C 
BRANCH  26  27
ATOM     27  C   UNL A   1      33.861  28.948  25.263  1.00  0.00     0.116 C 
BRANCH  27  28
ATOM     28  N   UNL A   1      33.222  30.127  25.828  1.00  0.00    -0.352 N 
ATOM     29  C   UNL A   1      33.601  30.854  26.928  1.00  0.00     0.251 C 
ATOM     30  H   UNL A   1      32.416  30.443  25.361  1.00  0.00     0.163 HD
ATOM     31  O   UNL A   1      32.874  31.728  27.387  1.00  0.00    -0.269 OA
BRANCH  29  32
ATOM     32  C   UNL A   1      34.890  30.542  27.571  1.00  0.00     0.039 A 
ATOM     33  C   UNL A   1      35.868  31.535  27.641  1.00  0.00     0.014 A 
ATOM     34  C   UNL A   1      35.100  29.288  28.153  1.00  0.00     0.014 A 
ATOM     35  C   UNL A   1      37.041  31.289  28.355  1.00  0.00     0.010 A 
ATOM     36  C   UNL A   1      36.234  29.073  28.927  1.00  0.00     0.010 A 
ATOM     37  C   UNL A   1      37.216  30.071  29.035  1.00  0.00    -0.014 A 
BRANCH  37  38
ATOM     38  C   UNL A   1      38.419  29.829  29.869  1.00  0.00     0.031 A 
ATOM     39  C   UNL A   1      39.513  28.929  29.370  1.00  0.00     0.074 A 
ATOM     40  C   UNL A   1      38.498  30.373  31.099  1.00  0.00     0.049 A 
ATOM     41  N   UNL A   1      40.615  28.554  29.970  1.00  0.00    -0.248 NA
ATOM     42  C   UNL A   1      39.336  28.353  28.028  1.00  0.00     0.031 C 
ATOM     43  C   UNL A   1      37.478  31.225  31.713  1.00  0.00     0.029 A 
ATOM     44  N   UNL A   1      39.477  30.284  32.057  1.00  0.00    -0.354 N 
ATOM     45  C   UNL A   1      41.253  27.695  29.084  1.00  0.00     0.074 A 
ATOM     46  C   UNL A   1      40.389  27.556  27.933  1.00  0.00     0.031 C 
ATOM     47  C   UNL A   1      37.896  31.602  32.932  1.00  0.00     0.029 A 
ATOM     48  C   UNL A   1      39.189  30.984  33.204  1.00  0.00     0.049 A 
ATOM     49  H   UNL A   1      40.306  29.769  31.934  1.00  0.00     0.167 HD
ATOM     50  C   UNL A   1      42.461  27.097  29.210  1.00  0.00     0.037 A 
ATOM     51  C   UNL A   1      39.887  31.104  34.350  1.00  0.00     0.037 A 
ATOM     52  C   UNL A   1      43.323  27.251  30.354  1.00  0.00     0.049 A 
ATOM     53  C   UNL A   1      41.217  30.407  34.473  1.00  0.00     0.074 A 
ATOM     54  C   UNL A   1      44.590  26.732  30.554  1.00  0.00     0.029 A 
ATOM     55  N   UNL A   1      43.001  27.971  31.495  1.00  0.00    -0.354 N 
ATOM     56  N   UNL A   1      41.845  29.659  33.599  1.00  0.00    -0.248 NA
ATOM     57  C   UNL A   1      41.939  30.580  35.742  1.00  0.00     0.031 C 
ATOM     58  C   UNL A   1      45.010  27.087  31.840  1.00  0.00     0.029 A 
ATOM     59  C   UNL A   1      44.033  27.885  32.415  1.00  0.00     0.049 A 
ATOM     60  H   UNL A   1      42.163  28.470  31.631  1.00  0.00     0.167 HD
ATOM     61  C   UNL A   1      43.046  29.299  34.197  1.00  0.00     0.074 A 
ATOM     62  C   UNL A   1      43.066  29.926  35.503  1.00  0.00     0.031 C 
ATOM     63  C   UNL A   1      44.043  28.521  33.709  1.00  0.00     0.037 A 
BRANCH  50  64
ATOM     64  C   UNL A   1      42.924  26.217  28.084  1.00  0.00     0.064 A 
ATOM     65  C   UNL A   1      43.667  26.725  27.008  1.00  0.00     0.173 A 
ATOM     66  C   UNL A   1      42.652  24.840  28.099  1.00  0.00     0.173 A 
ATOM     67  F   UNL A   1      43.945  28.036  26.938  1.00  0.00    -0.203 F 
ATOM     68  C   UNL A   1      44.095  25.895  25.975  1.00  0.00     0.198 A 
ATOM     69  C   UNL A   1      43.111  24.007  27.082  1.00  0.00     0.198 A 
ATOM     70  F   UNL A   1      41.950  24.300  29.106  1.00  0.00    -0.203 F 
ATOM     71  F   UNL A   1      44.756  26.414  24.931  1.00  0.00    -0.200 F 
ATOM     72  C   UNL A   1      43.824  24.536  26.017  1.00  0.00     0.200 A 
ATOM     73  F   UNL A   1      42.862  22.692  27.133  1.00  0.00    -0.200 F 
ATOM     74  F   UNL A   1      44.243  23.736  25.027  1.00  0.00    -0.200 F 
ENDBRANCH  50  64
BRANCH  51  75
ATOM     75  C   UNL A   1      39.351  31.927  35.466  1.00  0.00     0.064 A 
ATOM     76  C   UNL A   1      38.495  31.370  36.427  1.00  0.00     0.173 A 
ATOM     77  C   UNL A   1      39.667  33.288  35.588  1.00  0.00     0.173 A 
ATOM     78  F   UNL A   1      38.146  30.078  36.344  1.00  0.00    -0.203 F 
ATOM     79  C   UNL A   1      37.956  32.148  37.451  1.00  0.00     0.198 A 
ATOM     80  C   UNL A   1      39.156  34.056  36.631  1.00  0.00     0.198 A 
ATOM     81  F   UNL A   1      40.487  33.869  34.700  1.00  0.00    -0.203 F 
ATOM     82  F   UNL A   1      37.098  31.602  38.323  1.00  0.00    -0.200 F 
ATOM     83  C   UNL A   1      38.292  33.489  37.555  1.00  0.00     0.200 A 
ATOM     84  F   UNL A   1      39.497  35.349  36.738  1.00  0.00    -0.200 F 
ATOM     85  F   UNL A   1      37.777  34.237  38.541  1.00  0.00    -0.200 F 
ENDBRANCH  51  75
BRANCH  63  86
ATOM     86  C   UNL A   1      45.259  28.335  34.571  1.00  0.00     0.064 A 
ATOM     87  C   UNL A   1      45.381  27.257  35.460  1.00  0.00     0.173 A 
ATOM     88  C   UNL A   1      46.338  29.229  34.474  1.00  0.00     0.173 A 
ATOM     89  F   UNL A   1      44.374  26.382  35.601  1.00  0.00    -0.203 F 
ATOM     90  C   UNL A   1      46.522  27.098  36.241  1.00  0.00     0.198 A 
ATOM     91  C   UNL A   1      47.493  29.046  35.230  1.00  0.00     0.198 A 
ATOM     92  F   UNL A   1      46.279  30.272  33.633  1.00  0.00    -0.203 F 
ATOM     93  F   UNL A   1      46.593  26.092  37.124  1.00  0.00    -0.200 F 
ATOM     94  C   UNL A   1      47.580  27.987  36.119  1.00  0.00     0.200 A 
ATOM     95  F   UNL A   1      48.520  29.896  35.096  1.00  0.00    -0.200 F 
ATOM     96  F   UNL A   1      48.681  27.826  36.865  1.00  0.00    -0.200 F 
ENDBRANCH  63  86
ENDBRANCH  37  38
ENDBRANCH  29  32
ENDBRANCH  27  28
ENDBRANCH  26  27
ENDBRANCH   1  26
TORSDOF 15
ENDMDL
MODEL 3
REMARK VINA RESULT:     -10.0      4.419      8.369
REMARK SMILES CC(C)[NH+]1CCC(NC(=O)OC(C)(C)C)(C(=O)NCCCCNC(=O)c2ccc(-c3c4nc(c(-c5c(F)c(F)c(F)c(F)c5F)c5ccc([nH]5)c(-c5c(F)c(F)c(F)c(F)c5F)c5nc(c(-c6c(F)c(F)c(F)c(F)c6F)c6ccc3[nH]6)C=C5)C=C4)cc2)CC1
REMARK SMILES IDX 20 1 19 2 18 3 16 4 17 5 7 7 4 8 5 9 90 10 6 12 89 13 2 14
REMARK SMILES IDX 1 15 3 16 8 17 9 18 10 20 11 21 12 22 13 23 14 24 15 25
REMARK SMILES IDX 21 26 22 27 23 28 24 29 25 31 26 32 27 33 88 34 28 35 87 36
REMARK SMILES IDX 29 37 30 38 31 39 81 40 32 41 86 42 80 43 82 44 33 45 85 46
REMARK SMILES IDX 79 47 78 48 34 50 66 51 46 52 65 53 47 54 50 55 64 56 83 57
REMARK SMILES IDX 48 58 49 59 63 61 84 62 51 63 35 64 36 65 44 66 37 67 38 68
REMARK SMILES IDX 42 69 45 70 39 71 40 72 43 73 41 74 67 75 68 76 76 77 69 78
REMARK SMILES IDX 70 79 74 80 77 81 71 82 72 83 75 84 73 85 52 86 53 87 61 88
REMARK SMILES IDX 54 89 55 90 59 91 62 92 56 93 57 94 60 95 58 96
REMARK H PARENT 18 6 4 11 8 19 23 30 82 49 50 60
REMARK Flexibility Score: inf
ROOT
ATOM      1  C   UNL A   1      33.673  26.180  25.648  1.00  0.00     0.023 C 
ENDROOT
BRANCH   1   2
ATOM      2  C   UNL A   1      33.204  25.138  24.648  1.00  0.00     0.116 C 
BRANCH   2   3
ATOM      3  N   UNL A   1      34.295  24.718  23.798  1.00  0.00    -0.354 N 
ATOM      4  C   UNL A   1      34.947  23.524  23.743  1.00  0.00     0.246 C 
ATOM      5  O   UNL A   1      35.705  23.364  22.780  1.00  0.00    -0.272 OA
ATOM      6  H   UNL A   1      34.616  25.399  23.163  1.00  0.00     0.163 HD
BRANCH   4   7
ATOM      7  C   UNL A   1      34.752  22.435  24.848  1.00  0.00     0.132 C 
ATOM      8  N   UNL A   1      37.499  22.426  26.010  1.00  0.00    -0.333 N 
ATOM      9  C   UNL A   1      36.559  23.516  26.261  1.00  0.00     0.265 C 
ATOM     10  C   UNL A   1      37.212  21.698  24.762  1.00  0.00     0.265 C 
ATOM     11  H   UNL A   1      37.356  21.765  26.773  1.00  0.00     0.348 HD
ATOM     12  C   UNL A   1      35.129  22.995  26.241  1.00  0.00     0.100 C 
ATOM     13  C   UNL A   1      35.734  21.267  24.607  1.00  0.00     0.100 C 
BRANCH   8  14
ATOM     14  C   UNL A   1      38.919  22.855  26.090  1.00  0.00     0.177 C 
ATOM     15  C   UNL A   1      39.166  24.196  26.799  1.00  0.00     0.075 C 
ATOM     16  C   UNL A   1      39.773  21.766  26.757  1.00  0.00     0.075 C 
ENDBRANCH   8  14
BRANCH   7  17
ATOM     17  N   UNL A   1      33.350  21.933  24.913  1.00  0.00    -0.306 N 
ATOM     18  C   UNL A   1      32.846  20.686  25.168  1.00  0.00     0.408 C 
ATOM     19  H   UNL A   1      32.665  22.621  24.745  1.00  0.00     0.168 HD
ATOM     20  O   UNL A   1      31.641  20.528  25.325  1.00  0.00    -0.225 OA
BRANCH  18  21
ATOM     21  O   UNL A   1      33.758  19.695  25.114  1.00  0.00    -0.444 OA
BRANCH  21  22
ATOM     22  C   UNL A   1      33.444  18.361  24.623  1.00  0.00     0.106 C 
ATOM     23  C   UNL A   1      32.726  17.533  25.690  1.00  0.00     0.056 C 
ATOM     24  C   UNL A   1      32.644  18.385  23.312  1.00  0.00     0.056 C 
ATOM     25  C   UNL A   1      34.813  17.718  24.336  1.00  0.00     0.056 C 
ENDBRANCH  21  22
ENDBRANCH  18  21
ENDBRANCH   7  17
ENDBRANCH   4   7
ENDBRANCH   2   3
ENDBRANCH   1   2
BRANCH   1  26
ATOM     26  C   UNL A   1      33.053  27.558  25.410  1.00  0.00     0.023 C 
BRANCH  26  27
ATOM     27  C   UNL A   1      34.015  28.729  25.588  1.00  0.00     0.116 C 
BRANCH  27  28
ATOM     28  N   UNL A   1      33.327  29.985  25.848  1.00  0.00    -0.352 N 
ATOM     29  C   UNL A   1      33.541  30.875  26.871  1.00  0.00     0.251 C 
ATOM     30  H   UNL A   1      32.620  30.227  25.208  1.00  0.00     0.163 HD
ATOM     31  O   UNL A   1      32.775  31.813  27.060  1.00  0.00    -0.269 OA
BRANCH  29  32
ATOM     32  C   UNL A   1      34.696  30.662  27.762  1.00  0.00     0.039 A 
ATOM     33  C   UNL A   1      34.748  29.500  28.534  1.00  0.00     0.014 A 
ATOM     34  C   UNL A   1      35.746  31.584  27.784  1.00  0.00     0.014 A 
ATOM     35  C   UNL A   1      35.892  29.232  29.285  1.00  0.00     0.010 A 
ATOM     36  C   UNL A   1      36.914  31.276  28.471  1.00  0.00     0.010 A 
ATOM     37  C   UNL A   1      36.999  30.097  29.229  1.00  0.00    -0.014 A 
BRANCH  37  38
ATOM     38  C   UNL A   1      38.253  29.779  29.954  1.00  0.00     0.031 A 
ATOM     39  C   UNL A   1      38.502  30.355  31.319  1.00  0.00     0.074 A 
ATOM     40  C   UNL A   1      39.193  29.019  29.358  1.00  0.00     0.049 A 
ATOM     41  N   UNL A   1      39.555  30.237  32.088  1.00  0.00    -0.248 NA
ATOM     42  C   UNL A   1      37.437  31.196  31.886  1.00  0.00     0.031 C 
ATOM     43  C   UNL A   1      39.087  28.442  28.017  1.00  0.00     0.029 A 
ATOM     44  N   UNL A   1      40.426  28.609  29.800  1.00  0.00    -0.354 N 
ATOM     45  C   UNL A   1      39.281  30.994  33.220  1.00  0.00     0.074 A 
ATOM     46  C   UNL A   1      37.992  31.615  33.012  1.00  0.00     0.031 C 
ATOM     47  C   UNL A   1      40.196  27.732  27.755  1.00  0.00     0.029 A 
ATOM     48  C   UNL A   1      41.108  27.838  28.889  1.00  0.00     0.049 A 
ATOM     49  H   UNL A   1      40.786  28.843  30.685  1.00  0.00     0.167 HD
ATOM     50  C   UNL A   1      40.028  31.136  34.341  1.00  0.00     0.037 A 
ATOM     51  C   UNL A   1      42.336  27.289  28.959  1.00  0.00     0.037 A 
ATOM     52  C   UNL A   1      41.305  30.503  34.547  1.00  0.00     0.049 A 
ATOM     53  C   UNL A   1      43.155  27.484  30.207  1.00  0.00     0.074 A 
ATOM     54  C   UNL A   1      42.114  30.540  35.669  1.00  0.00     0.029 A 
ATOM     55  N   UNL A   1      41.963  29.726  33.605  1.00  0.00    -0.354 N 
ATOM     56  N   UNL A   1      42.855  28.139  31.302  1.00  0.00    -0.248 NA
ATOM     57  C   UNL A   1      44.484  26.856  30.232  1.00  0.00     0.031 C 
ATOM     58  C   UNL A   1      43.288  29.836  35.384  1.00  0.00     0.029 A 
ATOM     59  C   UNL A   1      43.182  29.303  34.109  1.00  0.00     0.049 A 
ATOM     60  H   UNL A   1      41.615  29.507  32.709  1.00  0.00     0.167 HD
ATOM     61  C   UNL A   1      43.938  27.976  32.155  1.00  0.00     0.074 A 
ATOM     62  C   UNL A   1      44.897  27.144  31.457  1.00  0.00     0.031 C 
ATOM     63  C   UNL A   1      44.123  28.468  33.405  1.00  0.00     0.037 A 
BRANCH  50  64
ATOM     64  C   UNL A   1      39.484  32.014  35.432  1.00  0.00     0.064 A 
ATOM     65  C   UNL A   1      38.609  31.519  36.411  1.00  0.00     0.173 A 
ATOM     66  C   UNL A   1      39.874  33.359  35.524  1.00  0.00     0.173 A 
ATOM     67  F   UNL A   1      38.195  30.243  36.363  1.00  0.00    -0.203 F 
ATOM     68  C   UNL A   1      38.119  32.343  37.420  1.00  0.00     0.198 A 
ATOM     69  C   UNL A   1      39.410  34.172  36.555  1.00  0.00     0.198 A 
ATOM     70  F   UNL A   1      40.713  33.884  34.619  1.00  0.00    -0.203 F 
ATOM     71  F   UNL A   1      37.240  31.861  38.310  1.00  0.00    -0.200 F 
ATOM     72  C   UNL A   1      38.527  33.666  37.496  1.00  0.00     0.200 A 
ATOM     73  F   UNL A   1      39.818  35.445  36.637  1.00  0.00    -0.200 F 
ATOM     74  F   UNL A   1      38.062  34.457  38.474  1.00  0.00    -0.200 F 
ENDBRANCH  50  64
BRANCH  51  75
ATOM     75  C   UNL A   1      42.861  26.490  27.820  1.00  0.00     0.064 A 
ATOM     76  C   UNL A   1      43.606  27.093  26.797  1.00  0.00     0.173 A 
ATOM     77  C   UNL A   1      42.616  25.112  27.720  1.00  0.00     0.173 A 
ATOM     78  F   UNL A   1      43.850  28.411  26.836  1.00  0.00    -0.203 F 
ATOM     79  C   UNL A   1      44.062  26.356  25.706  1.00  0.00     0.198 A 
ATOM     80  C   UNL A   1      43.102  24.370  26.647  1.00  0.00     0.198 A 
ATOM     81  F   UNL A   1      41.914  24.484  28.674  1.00  0.00    -0.203 F 
ATOM     82  F   UNL A   1      44.725  26.970  24.716  1.00  0.00    -0.200 F 
ATOM     83  C   UNL A   1      43.816  24.994  25.635  1.00  0.00     0.200 A 
ATOM     84  F   UNL A   1      42.876  23.050  26.590  1.00  0.00    -0.200 F 
ATOM     85  F   UNL A   1      44.257  24.284  24.588  1.00  0.00    -0.200 F 
ENDBRANCH  51  75
BRANCH  63  86
ATOM     86  C   UNL A   1      45.391  28.088  34.117  1.00  0.00     0.064 A 
ATOM     87  C   UNL A   1      45.484  26.927  34.897  1.00  0.00     0.173 A 
ATOM     88  C   UNL A   1      46.543  28.880  33.981  1.00  0.00     0.173 A 
ATOM     89  F   UNL A   1      44.409  26.142  35.070  1.00  0.00    -0.203 F 
ATOM     90  C   UNL A   1      46.673  26.588  35.538  1.00  0.00     0.198 A 
ATOM     91  C   UNL A   1      47.739  28.520  34.594  1.00  0.00     0.198 A 
ATOM     92  F   UNL A   1      46.512  29.998  33.240  1.00  0.00    -0.203 F 
ATOM     93  F   UNL A   1      46.722  25.503  36.324  1.00  0.00    -0.200 F 
ATOM     94  C   UNL A   1      47.801  27.379  35.380  1.00  0.00     0.200 A 
ATOM     95  F   UNL A   1      48.831  29.276  34.424  1.00  0.00    -0.200 F 
ATOM     96  F   UNL A   1      48.946  27.046  35.990  1.00  0.00    -0.200 F 
ENDBRANCH  63  86
ENDBRANCH  37  38
ENDBRANCH  29  32
ENDBRANCH  27  28
ENDBRANCH  26  27
ENDBRANCH   1  26
TORSDOF 15
ENDMDL
