MODEL 1
REMARK VINA RESULT:     -12.7      0.000      0.000
REMARK SMILES Cc1cc(C(=O)N2C[C@@H](C(=O)NCCCCNC(=O)c3ccc(-c4c5nc(c(-c6c(F)c(F)c(F)c(F)c6F)c6ccc([nH]6)c(-c6c(F)c(F)c(F)c(F)c6F)c6nc(c(-c7c(F)c(F)c(F)c(F)c7F)c7ccc4[nH]7)C=C6)C=C5)cc3)[C@H](C(C)C)C2)cs1
REMARK SMILES IDX 14 1 13 2 12 3 10 4 11 5 9 7 7 8 8 9 87 10 83 11 5 12 6 13
REMARK SMILES IDX 4 14 1 15 2 16 3 17 89 18 88 19 84 20 85 21 86 22 15 23
REMARK SMILES IDX 16 24 17 25 18 26 19 28 20 29 21 30 82 31 22 32 81 33 23 34
REMARK SMILES IDX 24 35 25 36 75 37 26 38 80 39 74 40 76 41 27 42 79 43 73 44
REMARK SMILES IDX 72 45 28 47 60 48 40 49 59 50 41 51 44 52 58 53 77 54 42 55
REMARK SMILES IDX 43 56 57 58 78 59 45 60 29 61 30 62 38 63 31 64 32 65 36 66
REMARK SMILES IDX 39 67 33 68 34 69 37 70 35 71 61 72 62 73 70 74 63 75 64 76
REMARK SMILES IDX 68 77 71 78 65 79 66 80 69 81 67 82 46 83 47 84 55 85 48 86
REMARK SMILES IDX 49 87 53 88 56 89 50 90 51 91 54 92 52 93
REMARK H PARENT 12 6 17 27 76 46 44 57
REMARK Flexibility Score: inf
ROOT
ATOM      1  C   UNL A   1      31.798  30.507  26.722  1.00  0.00     0.023 C 
ENDROOT
BRANCH   1   2
ATOM      2  C   UNL A   1      33.272  30.115  26.581  1.00  0.00     0.116 C 
BRANCH   2   3
ATOM      3  N   UNL A   1      33.532  29.625  25.244  1.00  0.00    -0.356 N 
ATOM      4  C   UNL A   1      33.437  28.384  24.701  1.00  0.00     0.225 C 
ATOM      5  O   UNL A   1      34.096  28.218  23.671  1.00  0.00    -0.275 OA
ATOM      6  H   UNL A   1      33.833  30.318  24.613  1.00  0.00     0.163 HD
BRANCH   4   7
ATOM      7  C   UNL A   1      32.477  27.307  25.214  1.00  0.00     0.103 C 
ATOM      8  N   UNL A   1      32.101  25.024  25.576  1.00  0.00    -0.337 N 
ATOM      9  C   UNL A   1      33.111  26.038  25.757  1.00  0.00     0.133 C 
ATOM     10  C   UNL A   1      31.384  25.264  24.351  1.00  0.00     0.124 C 
ATOM     11  C   UNL A   1      31.527  26.778  24.082  1.00  0.00     0.025 C 
BRANCH   8  12
ATOM     12  C   UNL A   1      31.933  23.847  26.285  1.00  0.00     0.254 C 
ATOM     13  O   UNL A   1      31.307  23.817  27.341  1.00  0.00    -0.269 OA
BRANCH  12  14
ATOM     14  C   UNL A   1      32.587  22.643  25.765  1.00  0.00     0.050 A 
ATOM     15  C   UNL A   1      35.647  20.518  25.000  1.00  0.00     0.056 C 
ATOM     16  C   UNL A   1      34.303  21.129  25.206  1.00  0.00     0.002 A 
ATOM     17  C   UNL A   1      34.001  22.385  25.689  1.00  0.00     0.029 A 
ATOM     18  S   UNL A   1      32.887  20.233  24.876  1.00  0.00    -0.148 S 
ATOM     19  C   UNL A   1      31.879  21.516  25.388  1.00  0.00     0.079 A 
ENDBRANCH  12  14
ENDBRANCH   8  12
BRANCH  11  20
ATOM     20  C   UNL A   1      30.136  27.470  24.016  1.00  0.00    -0.012 C 
ATOM     21  C   UNL A   1      29.970  28.416  22.824  1.00  0.00     0.008 C 
ATOM     22  C   UNL A   1      29.008  26.427  23.959  1.00  0.00     0.008 C 
ENDBRANCH  11  20
ENDBRANCH   4   7
ENDBRANCH   2   3
ENDBRANCH   1   2
BRANCH   1  23
ATOM     23  C   UNL A   1      31.556  32.019  26.797  1.00  0.00     0.023 C 
BRANCH  23  24
ATOM     24  C   UNL A   1      32.733  32.833  27.321  1.00  0.00     0.116 C 
BRANCH  24  25
ATOM     25  N   UNL A   1      32.375  34.198  27.670  1.00  0.00    -0.352 N 
ATOM     26  C   UNL A   1      32.956  35.020  28.605  1.00  0.00     0.251 C 
ATOM     27  H   UNL A   1      31.617  34.583  27.172  1.00  0.00     0.163 HD
ATOM     28  O   UNL A   1      32.477  36.118  28.856  1.00  0.00    -0.269 OA
BRANCH  26  29
ATOM     29  C   UNL A   1      34.144  34.542  29.337  1.00  0.00     0.039 A 
ATOM     30  C   UNL A   1      33.968  33.960  30.595  1.00  0.00     0.014 A 
ATOM     31  C   UNL A   1      35.417  34.634  28.768  1.00  0.00     0.014 A 
ATOM     32  C   UNL A   1      35.064  33.408  31.257  1.00  0.00     0.010 A 
ATOM     33  C   UNL A   1      36.498  34.033  29.403  1.00  0.00     0.010 A 
ATOM     34  C   UNL A   1      36.330  33.411  30.650  1.00  0.00    -0.014 A 
BRANCH  34  35
ATOM     35  C   UNL A   1      37.496  32.762  31.298  1.00  0.00     0.031 A 
ATOM     36  C   UNL A   1      38.178  31.606  30.626  1.00  0.00     0.074 A 
ATOM     37  C   UNL A   1      37.880  33.160  32.526  1.00  0.00     0.049 A 
ATOM     38  N   UNL A   1      39.135  30.836  31.074  1.00  0.00    -0.248 NA
ATOM     39  C   UNL A   1      37.698  31.247  29.281  1.00  0.00     0.031 C 
ATOM     40  C   UNL A   1      37.260  34.237  33.300  1.00  0.00     0.029 A 
ATOM     41  N   UNL A   1      38.873  32.690  33.348  1.00  0.00    -0.354 N 
ATOM     42  C   UNL A   1      39.355  29.890  30.083  1.00  0.00     0.074 A 
ATOM     43  C   UNL A   1      38.407  30.158  29.022  1.00  0.00     0.031 C 
ATOM     44  C   UNL A   1      37.889  34.348  34.481  1.00  0.00     0.029 A 
ATOM     45  C   UNL A   1      38.934  33.332  34.561  1.00  0.00     0.049 A 
ATOM     46  H   UNL A   1      39.483  31.960  33.094  1.00  0.00     0.167 HD
ATOM     47  C   UNL A   1      40.275  28.898  30.054  1.00  0.00     0.037 A 
ATOM     48  C   UNL A   1      39.738  33.117  35.619  1.00  0.00     0.037 A 
ATOM     49  C   UNL A   1      41.247  28.666  31.089  1.00  0.00     0.049 A 
ATOM     50  C   UNL A   1      40.774  32.028  35.544  1.00  0.00     0.074 A 
ATOM     51  C   UNL A   1      42.274  27.739  31.115  1.00  0.00     0.029 A 
ATOM     52  N   UNL A   1      41.314  29.374  32.280  1.00  0.00    -0.354 N 
ATOM     53  N   UNL A   1      41.021  31.187  34.571  1.00  0.00    -0.248 NA
ATOM     54  C   UNL A   1      41.650  31.863  36.713  1.00  0.00     0.031 C 
ATOM     55  C   UNL A   1      42.943  27.863  32.337  1.00  0.00     0.029 A 
ATOM     56  C   UNL A   1      42.357  28.893  33.054  1.00  0.00     0.049 A 
ATOM     57  H   UNL A   1      40.711  30.108  32.536  1.00  0.00     0.167 HD
ATOM     58  C   UNL A   1      42.094  30.416  34.994  1.00  0.00     0.074 A 
ATOM     59  C   UNL A   1      42.461  30.896  36.310  1.00  0.00     0.031 C 
ATOM     60  C   UNL A   1      42.719  29.399  34.352  1.00  0.00     0.037 A 
BRANCH  47  61
ATOM     61  C   UNL A   1      40.290  27.992  28.861  1.00  0.00     0.064 A 
ATOM     62  C   UNL A   1      41.024  28.308  27.708  1.00  0.00     0.173 A 
ATOM     63  C   UNL A   1      39.612  26.764  28.894  1.00  0.00     0.173 A 
ATOM     64  F   UNL A   1      41.678  29.475  27.624  1.00  0.00    -0.203 F 
ATOM     65  C   UNL A   1      41.066  27.434  26.625  1.00  0.00     0.198 A 
ATOM     66  C   UNL A   1      39.676  25.882  27.818  1.00  0.00     0.198 A 
ATOM     67  F   UNL A   1      38.898  26.414  29.974  1.00  0.00    -0.203 F 
ATOM     68  F   UNL A   1      41.745  27.771  25.521  1.00  0.00    -0.200 F 
ATOM     69  C   UNL A   1      40.400  26.219  26.685  1.00  0.00     0.200 A 
ATOM     70  F   UNL A   1      39.040  24.704  27.882  1.00  0.00    -0.200 F 
ATOM     71  F   UNL A   1      40.451  25.374  25.646  1.00  0.00    -0.200 F 
ENDBRANCH  47  61
BRANCH  48  72
ATOM     72  C   UNL A   1      39.608  33.955  36.839  1.00  0.00     0.064 A 
ATOM     73  C   UNL A   1      38.818  33.535  37.918  1.00  0.00     0.173 A 
ATOM     74  C   UNL A   1      40.247  35.199  36.942  1.00  0.00     0.173 A 
ATOM     75  F   UNL A   1      38.170  32.363  37.856  1.00  0.00    -0.203 F 
ATOM     76  C   UNL A   1      38.650  34.341  39.043  1.00  0.00     0.198 A 
ATOM     77  C   UNL A   1      40.099  35.991  38.079  1.00  0.00     0.198 A 
ATOM     78  F   UNL A   1      41.018  35.643  35.939  1.00  0.00    -0.203 F 
ATOM     79  F   UNL A   1      37.847  33.938  40.038  1.00  0.00    -0.200 F 
ATOM     80  C   UNL A   1      39.292  35.566  39.123  1.00  0.00     0.200 A 
ATOM     81  F   UNL A   1      40.732  37.170  38.158  1.00  0.00    -0.200 F 
ATOM     82  F   UNL A   1      39.127  36.342  40.204  1.00  0.00    -0.200 F 
ENDBRANCH  48  72
BRANCH  60  83
ATOM     83  C   UNL A   1      43.888  28.766  35.042  1.00  0.00     0.064 A 
ATOM     84  C   UNL A   1      43.731  27.663  35.892  1.00  0.00     0.173 A 
ATOM     85  C   UNL A   1      45.190  29.239  34.809  1.00  0.00     0.173 A 
ATOM     86  F   UNL A   1      42.504  27.185  36.156  1.00  0.00    -0.203 F 
ATOM     87  C   UNL A   1      44.831  27.067  36.500  1.00  0.00     0.198 A 
ATOM     88  C   UNL A   1      46.289  28.625  35.399  1.00  0.00     0.198 A 
ATOM     89  F   UNL A   1      45.392  30.289  33.998  1.00  0.00    -0.203 F 
ATOM     90  F   UNL A   1      44.654  26.036  37.339  1.00  0.00    -0.200 F 
ATOM     91  C   UNL A   1      46.109  27.543  36.247  1.00  0.00     0.200 A 
ATOM     92  F   UNL A   1      47.525  29.078  35.144  1.00  0.00    -0.200 F 
ATOM     93  F   UNL A   1      47.168  26.960  36.826  1.00  0.00    -0.200 F 
ENDBRANCH  60  83
ENDBRANCH  34  35
ENDBRANCH  26  29
ENDBRANCH  24  25
ENDBRANCH  23  24
ENDBRANCH   1  23
TORSDOF 14
ENDMDL
MODEL 2
REMARK VINA RESULT:     -12.7      0.443      1.705
REMARK SMILES Cc1cc(C(=O)N2C[C@@H](C(=O)NCCCCNC(=O)c3ccc(-c4c5nc(c(-c6c(F)c(F)c(F)c(F)c6F)c6ccc([nH]6)c(-c6c(F)c(F)c(F)c(F)c6F)c6nc(c(-c7c(F)c(F)c(F)c(F)c7F)c7ccc4[nH]7)C=C6)C=C5)cc3)[C@H](C(C)C)C2)cs1
REMARK SMILES IDX 14 1 13 2 12 3 10 4 11 5 9 7 7 8 8 9 87 10 83 11 5 12 6 13
REMARK SMILES IDX 4 14 1 15 2 16 3 17 89 18 88 19 84 20 85 21 86 22 15 23
REMARK SMILES IDX 16 24 17 25 18 26 19 28 20 29 21 30 82 31 22 32 81 33 23 34
REMARK SMILES IDX 24 35 25 36 75 37 26 38 80 39 74 40 76 41 27 42 79 43 73 44
REMARK SMILES IDX 72 45 28 47 60 48 40 49 59 50 41 51 44 52 58 53 77 54 42 55
REMARK SMILES IDX 43 56 57 58 78 59 45 60 29 61 30 62 38 63 31 64 32 65 36 66
REMARK SMILES IDX 39 67 33 68 34 69 37 70 35 71 61 72 62 73 70 74 63 75 64 76
REMARK SMILES IDX 68 77 71 78 65 79 66 80 69 81 67 82 46 83 47 84 55 85 48 86
REMARK SMILES IDX 49 87 53 88 56 89 50 90 51 91 54 92 52 93
REMARK H PARENT 12 6 17 27 76 46 44 57
REMARK Flexibility Score: inf
ROOT
ATOM      1  C   UNL A   1      31.910  30.432  26.655  1.00  0.00     0.023 C 
ENDROOT
BRANCH   1   2
ATOM      2  C   UNL A   1      33.385  30.047  26.514  1.00  0.00     0.116 C 
BRANCH   2   3
ATOM      3  N   UNL A   1      33.632  29.490  25.201  1.00  0.00    -0.356 N 
ATOM      4  C   UNL A   1      33.540  28.222  24.725  1.00  0.00     0.225 C 
ATOM      5  O   UNL A   1      34.187  28.007  23.696  1.00  0.00    -0.275 OA
ATOM      6  H   UNL A   1      33.920  30.151  24.531  1.00  0.00     0.163 HD
BRANCH   4   7
ATOM      7  C   UNL A   1      32.595  27.166  25.306  1.00  0.00     0.103 C 
ATOM      8  N   UNL A   1      32.188  24.891  25.683  1.00  0.00    -0.337 N 
ATOM      9  C   UNL A   1      33.236  25.877  25.789  1.00  0.00     0.133 C 
ATOM     10  C   UNL A   1      31.384  25.159  24.520  1.00  0.00     0.124 C 
ATOM     11  C   UNL A   1      31.545  26.671  24.249  1.00  0.00     0.025 C 
BRANCH   8  12
ATOM     12  C   UNL A   1      32.045  23.714  26.396  1.00  0.00     0.254 C 
ATOM     13  O   UNL A   1      31.471  23.685  27.481  1.00  0.00    -0.269 OA
BRANCH  12  14
ATOM     14  C   UNL A   1      32.664  22.505  25.842  1.00  0.00     0.050 A 
ATOM     15  C   UNL A   1      32.534  19.171  24.020  1.00  0.00     0.056 C 
ATOM     16  C   UNL A   1      32.863  20.438  24.732  1.00  0.00     0.002 A 
ATOM     17  C   UNL A   1      31.996  21.400  25.208  1.00  0.00     0.029 A 
ATOM     18  S   UNL A   1      34.490  20.875  25.010  1.00  0.00    -0.148 S 
ATOM     19  C   UNL A   1      34.035  22.347  25.751  1.00  0.00     0.079 A 
ENDBRANCH  12  14
ENDBRANCH   8  12
BRANCH  11  20
ATOM     20  C   UNL A   1      30.173  27.400  24.297  1.00  0.00    -0.012 C 
ATOM     21  C   UNL A   1      30.092  28.630  23.389  1.00  0.00     0.008 C 
ATOM     22  C   UNL A   1      29.032  26.445  23.909  1.00  0.00     0.008 C 
ENDBRANCH  11  20
ENDBRANCH   4   7
ENDBRANCH   2   3
ENDBRANCH   1   2
BRANCH   1  23
ATOM     23  C   UNL A   1      31.663  31.941  26.766  1.00  0.00     0.023 C 
BRANCH  23  24
ATOM     24  C   UNL A   1      32.811  32.737  27.376  1.00  0.00     0.116 C 
BRANCH  24  25
ATOM     25  N   UNL A   1      32.452  34.109  27.693  1.00  0.00    -0.352 N 
ATOM     26  C   UNL A   1      33.022  34.949  28.618  1.00  0.00     0.251 C 
ATOM     27  H   UNL A   1      31.701  34.485  27.177  1.00  0.00     0.163 HD
ATOM     28  O   UNL A   1      32.543  36.052  28.840  1.00  0.00    -0.269 OA
BRANCH  26  29
ATOM     29  C   UNL A   1      34.200  34.484  29.375  1.00  0.00     0.039 A 
ATOM     30  C   UNL A   1      34.001  33.874  30.616  1.00  0.00     0.014 A 
ATOM     31  C   UNL A   1      35.486  34.615  28.845  1.00  0.00     0.014 A 
ATOM     32  C   UNL A   1      35.091  33.333  31.299  1.00  0.00     0.010 A 
ATOM     33  C   UNL A   1      36.562  34.026  29.500  1.00  0.00     0.010 A 
ATOM     34  C   UNL A   1      36.373  33.376  30.730  1.00  0.00    -0.014 A 
BRANCH  34  35
ATOM     35  C   UNL A   1      37.534  32.742  31.399  1.00  0.00     0.031 A 
ATOM     36  C   UNL A   1      38.235  31.587  30.744  1.00  0.00     0.074 A 
ATOM     37  C   UNL A   1      37.896  33.150  32.630  1.00  0.00     0.049 A 
ATOM     38  N   UNL A   1      39.192  30.828  31.212  1.00  0.00    -0.248 NA
ATOM     39  C   UNL A   1      37.779  31.215  29.395  1.00  0.00     0.031 C 
ATOM     40  C   UNL A   1      37.256  34.227  33.387  1.00  0.00     0.029 A 
ATOM     41  N   UNL A   1      38.881  32.694  33.470  1.00  0.00    -0.354 N 
ATOM     42  C   UNL A   1      39.434  29.877  30.230  1.00  0.00     0.074 A 
ATOM     43  C   UNL A   1      38.500  30.131  29.154  1.00  0.00     0.031 C 
ATOM     44  C   UNL A   1      37.867  34.351  34.577  1.00  0.00     0.029 A 
ATOM     45  C   UNL A   1      38.919  33.344  34.679  1.00  0.00     0.049 A 
ATOM     46  H   UNL A   1      39.501  31.967  33.229  1.00  0.00     0.167 HD
ATOM     47  C   UNL A   1      40.363  28.893  30.222  1.00  0.00     0.037 A 
ATOM     48  C   UNL A   1      39.709  33.142  35.751  1.00  0.00     0.037 A 
ATOM     49  C   UNL A   1      41.321  28.675  31.272  1.00  0.00     0.049 A 
ATOM     50  C   UNL A   1      40.755  32.062  35.698  1.00  0.00     0.074 A 
ATOM     51  C   UNL A   1      42.355  27.757  31.320  1.00  0.00     0.029 A 
ATOM     52  N   UNL A   1      41.365  29.391  32.459  1.00  0.00    -0.354 N 
ATOM     53  N   UNL A   1      41.023  31.216  34.733  1.00  0.00    -0.248 NA
ATOM     54  C   UNL A   1      41.614  31.912  36.881  1.00  0.00     0.031 C 
ATOM     55  C   UNL A   1      43.005  27.894  32.550  1.00  0.00     0.029 A 
ATOM     56  C   UNL A   1      42.400  28.924  33.252  1.00  0.00     0.049 A 
ATOM     57  H   UNL A   1      40.752  30.122  32.701  1.00  0.00     0.167 HD
ATOM     58  C   UNL A   1      42.096  30.457  35.177  1.00  0.00     0.074 A 
ATOM     59  C   UNL A   1      42.439  30.949  36.496  1.00  0.00     0.031 C 
ATOM     60  C   UNL A   1      42.738  29.442  34.552  1.00  0.00     0.037 A 
BRANCH  47  61
ATOM     61  C   UNL A   1      40.403  27.979  29.034  1.00  0.00     0.064 A 
ATOM     62  C   UNL A   1      39.654  26.794  28.994  1.00  0.00     0.173 A 
ATOM     63  C   UNL A   1      41.151  28.324  27.899  1.00  0.00     0.173 A 
ATOM     64  F   UNL A   1      38.934  26.416  30.060  1.00  0.00    -0.203 F 
ATOM     65  C   UNL A   1      39.665  25.979  27.866  1.00  0.00     0.198 A 
ATOM     66  C   UNL A   1      41.139  27.518  26.763  1.00  0.00     0.198 A 
ATOM     67  F   UNL A   1      41.882  29.448  27.885  1.00  0.00    -0.203 F 
ATOM     68  F   UNL A   1      38.968  24.834  27.863  1.00  0.00    -0.200 F 
ATOM     69  C   UNL A   1      40.400  26.346  26.749  1.00  0.00     0.200 A 
ATOM     70  F   UNL A   1      41.842  27.879  25.680  1.00  0.00    -0.200 F 
ATOM     71  F   UNL A   1      40.399  25.566  25.659  1.00  0.00    -0.200 F 
ENDBRANCH  47  61
BRANCH  48  72
ATOM     72  C   UNL A   1      39.554  33.987  36.963  1.00  0.00     0.064 A 
ATOM     73  C   UNL A   1      38.778  33.553  38.047  1.00  0.00     0.173 A 
ATOM     74  C   UNL A   1      40.154  35.251  37.054  1.00  0.00     0.173 A 
ATOM     75  F   UNL A   1      38.167  32.360  37.996  1.00  0.00    -0.203 F 
ATOM     76  C   UNL A   1      38.586  34.363  39.165  1.00  0.00     0.198 A 
ATOM     77  C   UNL A   1      39.983  36.049  38.183  1.00  0.00     0.198 A 
ATOM     78  F   UNL A   1      40.909  35.709  36.045  1.00  0.00    -0.203 F 
ATOM     79  F   UNL A   1      37.797  33.944  40.164  1.00  0.00    -0.200 F 
ATOM     80  C   UNL A   1      39.190  35.608  39.233  1.00  0.00     0.200 A 
ATOM     81  F   UNL A   1      40.578  37.247  38.251  1.00  0.00    -0.200 F 
ATOM     82  F   UNL A   1      39.002  36.388  40.306  1.00  0.00    -0.200 F 
ENDBRANCH  48  72
BRANCH  60  83
ATOM     83  C   UNL A   1      43.903  28.823  35.263  1.00  0.00     0.064 A 
ATOM     84  C   UNL A   1      45.208  29.304  35.092  1.00  0.00     0.173 A 
ATOM     85  C   UNL A   1      43.701  27.767  36.167  1.00  0.00     0.173 A 
ATOM     86  F   UNL A   1      45.451  30.301  34.227  1.00  0.00    -0.203 F 
ATOM     87  C   UNL A   1      46.274  28.738  35.784  1.00  0.00     0.198 A 
ATOM     88  C   UNL A   1      44.766  27.222  36.876  1.00  0.00     0.198 A 
ATOM     89  F   UNL A   1      42.469  27.278  36.370  1.00  0.00    -0.203 F 
ATOM     90  F   UNL A   1      47.520  29.188  35.577  1.00  0.00    -0.200 F 
ATOM     91  C   UNL A   1      46.052  27.704  36.682  1.00  0.00     0.200 A 
ATOM     92  F   UNL A   1      44.548  26.230  37.752  1.00  0.00    -0.200 F 
ATOM     93  F   UNL A   1      47.079  27.167  37.354  1.00  0.00    -0.200 F 
ENDBRANCH  60  83
ENDBRANCH  34  35
ENDBRANCH  26  29
ENDBRANCH  24  25
ENDBRANCH  23  24
ENDBRANCH   1  23
TORSDOF 14
ENDMDL
MODEL 3
REMARK VINA RESULT:     -12.6      1.020      2.008
REMARK SMILES Cc1cc(C(=O)N2C[C@@H](C(=O)NCCCCNC(=O)c3ccc(-c4c5nc(c(-c6c(F)c(F)c(F)c(F)c6F)c6ccc([nH]6)c(-c6c(F)c(F)c(F)c(F)c6F)c6nc(c(-c7c(F)c(F)c(F)c(F)c7F)c7ccc4[nH]7)C=C6)C=C5)cc3)[C@H](C(C)C)C2)cs1
REMARK SMILES IDX 14 1 13 2 12 3 10 4 11 5 9 7 7 8 8 9 87 10 83 11 5 12 6 13
REMARK SMILES IDX 4 14 1 15 2 16 3 17 89 18 88 19 84 20 85 21 86 22 15 23
REMARK SMILES IDX 16 24 17 25 18 26 19 28 20 29 21 30 82 31 22 32 81 33 23 34
REMARK SMILES IDX 24 35 25 36 75 37 26 38 80 39 74 40 76 41 27 42 79 43 73 44
REMARK SMILES IDX 72 45 28 47 60 48 40 49 59 50 41 51 44 52 58 53 77 54 42 55
REMARK SMILES IDX 43 56 57 58 78 59 45 60 29 61 30 62 38 63 31 64 32 65 36 66
REMARK SMILES IDX 39 67 33 68 34 69 37 70 35 71 61 72 62 73 70 74 63 75 64 76
REMARK SMILES IDX 68 77 71 78 65 79 66 80 69 81 67 82 46 83 47 84 55 85 48 86
REMARK SMILES IDX 49 87 53 88 56 89 50 90 51 91 54 92 52 93
REMARK H PARENT 12 6 17 27 76 46 44 57
REMARK Flexibility Score: inf
ROOT
ATOM      1  C   UNL A   1      31.966  30.158  26.731  1.00  0.00     0.023 C 
ENDROOT
BRANCH   1   2
ATOM      2  C   UNL A   1      33.271  29.705  26.072  1.00  0.00     0.116 C 
BRANCH   2   3
ATOM      3  N   UNL A   1      33.129  29.703  24.632  1.00  0.00    -0.356 N 
ATOM      4  C   UNL A   1      33.315  28.727  23.706  1.00  0.00     0.225 C 
ATOM      5  O   UNL A   1      33.500  29.134  22.555  1.00  0.00    -0.275 OA
ATOM      6  H   UNL A   1      32.846  30.567  24.254  1.00  0.00     0.163 HD
BRANCH   4   7
ATOM      7  C   UNL A   1      33.160  27.234  24.006  1.00  0.00     0.103 C 
ATOM      8  N   UNL A   1      33.012  25.063  23.141  1.00  0.00    -0.337 N 
ATOM      9  C   UNL A   1      33.784  26.274  23.009  1.00  0.00     0.133 C 
ATOM     10  C   UNL A   1      31.632  25.390  23.391  1.00  0.00     0.124 C 
ATOM     11  C   UNL A   1      31.653  26.794  24.035  1.00  0.00     0.025 C 
BRANCH   8  12
ATOM     12  C   UNL A   1      33.400  23.765  22.858  1.00  0.00     0.254 C 
ATOM     13  O   UNL A   1      33.653  23.406  21.711  1.00  0.00    -0.269 OA
BRANCH  12  14
ATOM     14  C   UNL A   1      33.434  22.809  23.969  1.00  0.00     0.050 A 
ATOM     15  C   UNL A   1      33.959  21.886  27.620  1.00  0.00     0.056 C 
ATOM     16  C   UNL A   1      33.676  21.979  26.160  1.00  0.00     0.002 A 
ATOM     17  C   UNL A   1      33.806  23.076  25.334  1.00  0.00     0.029 A 
ATOM     18  S   UNL A   1      33.067  20.629  25.310  1.00  0.00    -0.148 S 
ATOM     19  C   UNL A   1      32.968  21.512  23.849  1.00  0.00     0.079 A 
ENDBRANCH  12  14
ENDBRANCH   8  12
BRANCH  11  20
ATOM     20  C   UNL A   1      31.002  26.774  25.446  1.00  0.00    -0.012 C 
ATOM     21  C   UNL A   1      29.735  25.919  25.532  1.00  0.00     0.008 C 
ATOM     22  C   UNL A   1      31.996  26.261  26.500  1.00  0.00     0.008 C 
ENDBRANCH  11  20
ENDBRANCH   4   7
ENDBRANCH   2   3
ENDBRANCH   1   2
BRANCH   1  23
ATOM     23  C   UNL A   1      31.740  31.674  26.700  1.00  0.00     0.023 C 
BRANCH  23  24
ATOM     24  C   UNL A   1      32.881  32.505  27.273  1.00  0.00     0.116 C 
BRANCH  24  25
ATOM     25  N   UNL A   1      32.493  33.869  27.590  1.00  0.00    -0.352 N 
ATOM     26  C   UNL A   1      33.030  34.712  28.533  1.00  0.00     0.251 C 
ATOM     27  H   UNL A   1      31.749  34.237  27.059  1.00  0.00     0.163 HD
ATOM     28  O   UNL A   1      32.528  35.807  28.751  1.00  0.00    -0.269 OA
BRANCH  26  29
ATOM     29  C   UNL A   1      34.197  34.261  29.314  1.00  0.00     0.039 A 
ATOM     30  C   UNL A   1      33.978  33.598  30.523  1.00  0.00     0.014 A 
ATOM     31  C   UNL A   1      35.494  34.458  28.835  1.00  0.00     0.014 A 
ATOM     32  C   UNL A   1      35.063  33.071  31.225  1.00  0.00     0.010 A 
ATOM     33  C   UNL A   1      36.569  33.883  29.506  1.00  0.00     0.010 A 
ATOM     34  C   UNL A   1      36.361  33.180  30.703  1.00  0.00    -0.014 A 
BRANCH  34  35
ATOM     35  C   UNL A   1      37.522  32.563  31.390  1.00  0.00     0.031 A 
ATOM     36  C   UNL A   1      38.238  31.407  30.754  1.00  0.00     0.074 A 
ATOM     37  C   UNL A   1      37.870  32.988  32.620  1.00  0.00     0.049 A 
ATOM     38  N   UNL A   1      39.197  30.661  31.238  1.00  0.00    -0.248 NA
ATOM     39  C   UNL A   1      37.797  31.017  29.405  1.00  0.00     0.031 C 
ATOM     40  C   UNL A   1      37.214  34.067  33.360  1.00  0.00     0.029 A 
ATOM     41  N   UNL A   1      38.850  32.548  33.473  1.00  0.00    -0.354 N 
ATOM     42  C   UNL A   1      39.456  29.702  30.269  1.00  0.00     0.074 A 
ATOM     43  C   UNL A   1      38.529  29.936  29.182  1.00  0.00     0.031 C 
ATOM     44  C   UNL A   1      37.813  34.208  34.553  1.00  0.00     0.029 A 
ATOM     45  C   UNL A   1      38.872  33.212  34.676  1.00  0.00     0.049 A 
ATOM     46  H   UNL A   1      39.478  31.824  33.246  1.00  0.00     0.167 HD
ATOM     47  C   UNL A   1      40.393  28.725  30.279  1.00  0.00     0.037 A 
ATOM     48  C   UNL A   1      39.654  33.028  35.756  1.00  0.00     0.037 A 
ATOM     49  C   UNL A   1      41.343  28.527  31.340  1.00  0.00     0.049 A 
ATOM     50  C   UNL A   1      40.709  31.955  35.724  1.00  0.00     0.074 A 
ATOM     51  C   UNL A   1      42.384  27.617  31.407  1.00  0.00     0.029 A 
ATOM     52  N   UNL A   1      41.370  29.255  32.520  1.00  0.00    -0.354 N 
ATOM     53  N   UNL A   1      40.992  31.102  34.772  1.00  0.00    -0.248 NA
ATOM     54  C   UNL A   1      41.559  31.825  36.916  1.00  0.00     0.031 C 
ATOM     55  C   UNL A   1      43.022  27.773  32.642  1.00  0.00     0.029 A 
ATOM     56  C   UNL A   1      42.402  28.805  33.327  1.00  0.00     0.049 A 
ATOM     57  H   UNL A   1      40.749  29.984  32.749  1.00  0.00     0.167 HD
ATOM     58  C   UNL A   1      42.068  30.356  35.233  1.00  0.00     0.074 A 
ATOM     59  C   UNL A   1      42.395  30.864  36.549  1.00  0.00     0.031 C 
ATOM     60  C   UNL A   1      42.724  29.339  34.625  1.00  0.00     0.037 A 
BRANCH  47  61
ATOM     61  C   UNL A   1      40.451  27.799  29.102  1.00  0.00     0.064 A 
ATOM     62  C   UNL A   1      39.672  26.634  29.045  1.00  0.00     0.173 A 
ATOM     63  C   UNL A   1      41.248  28.112  27.991  1.00  0.00     0.173 A 
ATOM     64  F   UNL A   1      38.903  26.286  30.087  1.00  0.00    -0.203 F 
ATOM     65  C   UNL A   1      39.701  25.808  27.925  1.00  0.00     0.198 A 
ATOM     66  C   UNL A   1      41.256  27.296  26.863  1.00  0.00     0.198 A 
ATOM     67  F   UNL A   1      42.010  29.217  27.995  1.00  0.00    -0.203 F 
ATOM     68  F   UNL A   1      38.974  24.682  27.906  1.00  0.00    -0.200 F 
ATOM     69  C   UNL A   1      40.486  26.144  26.832  1.00  0.00     0.200 A 
ATOM     70  F   UNL A   1      42.008  27.628  25.804  1.00  0.00    -0.200 F 
ATOM     71  F   UNL A   1      40.504  25.354  25.750  1.00  0.00    -0.200 F 
ENDBRANCH  47  61
BRANCH  48  72
ATOM     72  C   UNL A   1      39.481  33.884  36.958  1.00  0.00     0.064 A 
ATOM     73  C   UNL A   1      40.107  35.136  37.043  1.00  0.00     0.173 A 
ATOM     74  C   UNL A   1      38.711  33.462  38.051  1.00  0.00     0.173 A 
ATOM     75  F   UNL A   1      40.871  35.572  36.031  1.00  0.00    -0.203 F 
ATOM     76  C   UNL A   1      39.992  35.921  38.189  1.00  0.00     0.198 A 
ATOM     77  C   UNL A   1      38.575  34.261  39.185  1.00  0.00     0.198 A 
ATOM     78  F   UNL A   1      38.089  32.276  38.015  1.00  0.00    -0.203 F 
ATOM     79  F   UNL A   1      40.643  37.090  38.265  1.00  0.00    -0.200 F 
ATOM     80  C   UNL A   1      39.224  35.484  39.257  1.00  0.00     0.200 A 
ATOM     81  F   UNL A   1      37.822  33.841  40.210  1.00  0.00    -0.200 F 
ATOM     82  F   UNL A   1      39.117  36.238  40.360  1.00  0.00    -0.200 F 
ENDBRANCH  48  72
BRANCH  60  83
ATOM     83  C   UNL A   1      43.887  28.738  35.353  1.00  0.00     0.064 A 
ATOM     84  C   UNL A   1      43.724  27.656  36.229  1.00  0.00     0.173 A 
ATOM     85  C   UNL A   1      45.187  29.218  35.131  1.00  0.00     0.173 A 
ATOM     86  F   UNL A   1      42.498  27.172  36.483  1.00  0.00    -0.203 F 
ATOM     87  C   UNL A   1      44.819  27.088  36.873  1.00  0.00     0.198 A 
ATOM     88  C   UNL A   1      46.281  28.631  35.757  1.00  0.00     0.198 A 
ATOM     89  F   UNL A   1      45.394  30.247  34.296  1.00  0.00    -0.203 F 
ATOM     90  F   UNL A   1      44.637  26.079  37.737  1.00  0.00    -0.200 F 
ATOM     91  C   UNL A   1      46.097  27.570  36.631  1.00  0.00     0.200 A 
ATOM     92  F   UNL A   1      47.518  29.090  35.513  1.00  0.00    -0.200 F 
ATOM     93  F   UNL A   1      47.151  27.015  37.245  1.00  0.00    -0.200 F 
ENDBRANCH  60  83
ENDBRANCH  34  35
ENDBRANCH  26  29
ENDBRANCH  24  25
ENDBRANCH  23  24
ENDBRANCH   1  23
TORSDOF 14
ENDMDL
