MODEL 1
REMARK VINA RESULT:     -13.2      0.000      0.000
REMARK SMILES C=C[C@@H]1[C@@H](O)C[C@H]2[C@]3(CC[C@]4(C)[C@@H]([C@H](C)CCC=C(C)C)CC[C@]24C)C[C@]13CCC(=O)NCCCCNC(=O)c1ccc(-c2c3nc(c(-c4c(F)c(F)c(F)c(F)c4F)c4ccc([nH]4)c(-c4c(F)c(F)c(F)c(F)c4F)c4nc(c(-c5c(F)c(F)c(F)c(F)c5F)c5ccc2[nH]5)C=C4)C=C3)cc1
REMARK SMILES IDX 30 1 31 2 32 3 29 5 28 6 27 7 3 8 4 9 6 10 8 11 26 12 7 13
REMARK SMILES IDX 9 14 24 15 10 16 11 17 23 18 25 19 13 20 12 21 22 22 2 23
REMARK SMILES IDX 1 24 5 25 14 27 15 28 16 29 17 30 18 31 19 32 20 33 21 34
REMARK SMILES IDX 33 35 34 36 35 37 36 38 37 39 38 40 39 42 40 43 41 44 102 45
REMARK SMILES IDX 42 46 101 47 43 48 44 49 45 50 95 51 46 52 100 53 94 54
REMARK SMILES IDX 96 55 47 56 99 57 93 58 92 59 48 61 80 62 60 63 79 64 61 65
REMARK SMILES IDX 64 66 78 67 97 68 62 69 63 70 77 72 98 73 65 74 49 75 50 76
REMARK SMILES IDX 58 77 51 78 52 79 56 80 59 81 53 82 54 83 57 84 55 85 81 86
REMARK SMILES IDX 82 87 90 88 83 89 84 90 88 91 91 92 85 93 86 94 89 95 87 96
REMARK SMILES IDX 66 97 67 98 75 99 68 100 69 101 73 102 76 103 70 104 71 105
REMARK SMILES IDX 74 106 72 107
REMARK H PARENT 32 4 5 26 37 41 96 60 64 71
REMARK Flexibility Score: inf
ROOT
ATOM      1  C   UNL A   1      34.424  29.735  27.256  1.00  0.00     0.220 C 
ATOM      2  O   UNL A   1      34.680  28.581  27.608  1.00  0.00    -0.275 OA
ATOM      3  N   UNL A   1      35.221  30.728  27.756  1.00  0.00    -0.356 N 
ATOM      4  H   UNL A   1      35.991  30.399  28.273  1.00  0.00     0.163 HD
ENDROOT
BRANCH   1   5
ATOM      5  C   UNL A   1      33.284  30.008  26.273  1.00  0.00     0.100 C 
BRANCH   5   6
ATOM      6  C   UNL A   1      33.357  29.203  24.947  1.00  0.00     0.018 C 
BRANCH   6   7
ATOM      7  C   UNL A   1      32.167  28.241  24.624  1.00  0.00    -0.014 C 
ATOM      8  C   UNL A   1      31.213  28.741  23.518  1.00  0.00     0.047 C 
ATOM      9  C   UNL A   1      30.423  27.596  22.797  1.00  0.00     0.122 C 
ATOM     10  C   UNL A   1      30.377  26.208  23.462  1.00  0.00     0.037 C 
ATOM     11  C   UNL A   1      32.330  26.741  24.974  1.00  0.00    -0.019 C 
ATOM     12  C   UNL A   1      31.416  27.629  25.769  1.00  0.00     0.016 C 
ATOM     13  C   UNL A   1      31.740  25.715  24.010  1.00  0.00     0.005 C 
ATOM     14  C   UNL A   1      33.621  26.281  25.609  1.00  0.00     0.008 C 
ATOM     15  C   UNL A   1      31.685  24.241  24.651  1.00  0.00    -0.023 C 
ATOM     16  C   UNL A   1      33.442  24.962  26.335  1.00  0.00     0.008 C 
ATOM     17  C   UNL A   1      33.018  23.819  25.419  1.00  0.00    -0.024 C 
ATOM     18  C   UNL A   1      31.662  23.193  23.506  1.00  0.00     0.008 C 
ATOM     19  C   UNL A   1      30.437  24.093  25.557  1.00  0.00     0.012 C 
ATOM     20  C   UNL A   1      34.006  23.534  24.257  1.00  0.00    -0.002 C 
ATOM     21  C   UNL A   1      32.816  22.540  26.269  1.00  0.00     0.012 C 
ATOM     22  C   UNL A   1      33.117  22.735  23.277  1.00  0.00     0.005 C 
BRANCH   8  23
ATOM     23  C   UNL A   1      30.345  29.880  24.079  1.00  0.00    -0.028 C 
ATOM     24  C   UNL A   1      29.323  30.527  23.505  1.00  0.00     0.004 C 
ENDBRANCH   8  23
BRANCH   9  25
ATOM     25  O   UNL A   1      30.949  27.433  21.471  1.00  0.00    -0.392 OA
ATOM     26  H   UNL A   1      31.748  27.974  21.371  1.00  0.00     0.210 HD
ENDBRANCH   9  25
BRANCH  20  27
ATOM     27  C   UNL A   1      35.462  22.970  24.468  1.00  0.00    -0.010 C 
ATOM     28  C   UNL A   1      36.398  23.058  23.261  1.00  0.00     0.008 C 
BRANCH  27  29
ATOM     29  C   UNL A   1      35.723  21.707  25.347  1.00  0.00     0.008 C 
BRANCH  29  30
ATOM     30  C   UNL A   1      35.547  20.227  24.910  1.00  0.00     0.027 C 
BRANCH  30  31
ATOM     31  C   UNL A   1      34.188  19.670  24.596  1.00  0.00    -0.028 C 
ATOM     32  C   UNL A   1      33.877  18.360  24.491  1.00  0.00    -0.080 C 
ATOM     33  C   UNL A   1      32.446  17.911  24.365  1.00  0.00     0.039 C 
ATOM     34  C   UNL A   1      34.883  17.240  24.510  1.00  0.00     0.039 C 
ENDBRANCH  30  31
ENDBRANCH  29  30
ENDBRANCH  27  29
ENDBRANCH  20  27
ENDBRANCH   6   7
ENDBRANCH   5   6
ENDBRANCH   1   5
BRANCH   3  35
ATOM     35  C   UNL A   1      35.144  32.182  27.665  1.00  0.00     0.116 C 
BRANCH  35  36
ATOM     36  C   UNL A   1      34.350  32.762  28.834  1.00  0.00     0.023 C 
BRANCH  36  37
ATOM     37  C   UNL A   1      33.445  33.954  28.626  1.00  0.00     0.023 C 
BRANCH  37  38
ATOM     38  C   UNL A   1      33.867  35.136  29.477  1.00  0.00     0.116 C 
BRANCH  38  39
ATOM     39  N   UNL A   1      32.821  35.736  30.315  1.00  0.00    -0.352 N 
ATOM     40  C   UNL A   1      32.758  35.796  31.695  1.00  0.00     0.251 C 
ATOM     41  H   UNL A   1      32.068  36.149  29.833  1.00  0.00     0.163 HD
ATOM     42  O   UNL A   1      31.823  36.347  32.268  1.00  0.00    -0.269 OA
BRANCH  40  43
ATOM     43  C   UNL A   1      33.807  35.100  32.470  1.00  0.00     0.039 A 
ATOM     44  C   UNL A   1      33.615  33.774  32.860  1.00  0.00     0.014 A 
ATOM     45  C   UNL A   1      35.049  35.705  32.623  1.00  0.00     0.014 A 
ATOM     46  C   UNL A   1      34.715  33.019  33.275  1.00  0.00     0.010 A 
ATOM     47  C   UNL A   1      36.156  34.908  32.835  1.00  0.00     0.010 A 
ATOM     48  C   UNL A   1      36.008  33.560  33.193  1.00  0.00    -0.014 A 
BRANCH  48  49
ATOM     49  C   UNL A   1      37.232  32.780  33.509  1.00  0.00     0.031 A 
ATOM     50  C   UNL A   1      37.953  33.041  34.808  1.00  0.00     0.074 A 
ATOM     51  C   UNL A   1      37.774  31.951  32.594  1.00  0.00     0.049 A 
ATOM     52  N   UNL A   1      39.134  32.641  35.202  1.00  0.00    -0.248 NA
ATOM     53  C   UNL A   1      37.292  33.958  35.754  1.00  0.00     0.031 C 
ATOM     54  C   UNL A   1      37.249  31.695  31.251  1.00  0.00     0.029 A 
ATOM     55  N   UNL A   1      38.906  31.177  32.657  1.00  0.00    -0.354 N 
ATOM     56  C   UNL A   1      39.381  33.322  36.387  1.00  0.00     0.074 A 
ATOM     57  C   UNL A   1      38.276  34.228  36.595  1.00  0.00     0.031 C 
ATOM     58  C   UNL A   1      38.027  30.789  30.638  1.00  0.00     0.029 A 
ATOM     59  C   UNL A   1      39.124  30.424  31.528  1.00  0.00     0.049 A 
ATOM     60  H   UNL A   1      39.505  31.162  33.438  1.00  0.00     0.167 HD
ATOM     61  C   UNL A   1      40.409  33.172  37.255  1.00  0.00     0.037 A 
ATOM     62  C   UNL A   1      40.094  29.532  31.257  1.00  0.00     0.037 A 
ATOM     63  C   UNL A   1      41.430  32.174  37.102  1.00  0.00     0.049 A 
ATOM     64  C   UNL A   1      41.138  29.255  32.304  1.00  0.00     0.074 A 
ATOM     65  C   UNL A   1      42.444  31.831  37.976  1.00  0.00     0.029 A 
ATOM     66  N   UNL A   1      41.541  31.334  36.003  1.00  0.00    -0.354 N 
ATOM     67  N   UNL A   1      41.322  29.841  33.462  1.00  0.00    -0.248 NA
ATOM     68  C   UNL A   1      42.097  28.180  32.016  1.00  0.00     0.031 C 
ATOM     69  C   UNL A   1      43.181  30.791  37.398  1.00  0.00     0.029 A 
ATOM     70  C   UNL A   1      42.604  30.465  36.180  1.00  0.00     0.049 A 
ATOM     71  H   UNL A   1      40.953  31.353  35.214  1.00  0.00     0.167 HD
ATOM     72  C   UNL A   1      42.397  29.194  34.053  1.00  0.00     0.074 A 
ATOM     73  C   UNL A   1      42.816  28.157  33.129  1.00  0.00     0.031 C 
ATOM     74  C   UNL A   1      42.987  29.433  35.250  1.00  0.00     0.037 A 
BRANCH  61  75
ATOM     75  C   UNL A   1      40.442  34.081  38.451  1.00  0.00     0.064 A 
ATOM     76  C   UNL A   1      41.147  35.297  38.440  1.00  0.00     0.173 A 
ATOM     77  C   UNL A   1      39.790  33.716  39.638  1.00  0.00     0.173 A 
ATOM     78  F   UNL A   1      41.801  35.688  37.336  1.00  0.00    -0.203 F 
ATOM     79  C   UNL A   1      41.253  36.077  39.589  1.00  0.00     0.198 A 
ATOM     80  C   UNL A   1      39.863  34.521  40.773  1.00  0.00     0.198 A 
ATOM     81  F   UNL A   1      39.095  32.571  39.705  1.00  0.00    -0.203 F 
ATOM     82  F   UNL A   1      42.010  37.182  39.576  1.00  0.00    -0.200 F 
ATOM     83  C   UNL A   1      40.608  35.690  40.752  1.00  0.00     0.200 A 
ATOM     84  F   UNL A   1      39.229  34.153  41.895  1.00  0.00    -0.200 F 
ATOM     85  F   UNL A   1      40.720  36.436  41.860  1.00  0.00    -0.200 F 
ENDBRANCH  61  75
BRANCH  62  86
ATOM     86  C   UNL A   1      40.064  28.779  29.976  1.00  0.00     0.064 A 
ATOM     87  C   UNL A   1      40.669  29.306  28.825  1.00  0.00     0.173 A 
ATOM     88  C   UNL A   1      39.470  27.514  29.879  1.00  0.00     0.173 A 
ATOM     89  F   UNL A   1      41.238  30.520  28.865  1.00  0.00    -0.203 F 
ATOM     90  C   UNL A   1      40.668  28.603  27.623  1.00  0.00     0.198 A 
ATOM     91  C   UNL A   1      39.489  26.800  28.681  1.00  0.00     0.198 A 
ATOM     92  F   UNL A   1      38.890  26.961  30.954  1.00  0.00    -0.203 F 
ATOM     93  F   UNL A   1      41.227  29.144  26.532  1.00  0.00    -0.200 F 
ATOM     94  C   UNL A   1      40.084  27.347  27.554  1.00  0.00     0.200 A 
ATOM     95  F   UNL A   1      38.938  25.581  28.621  1.00  0.00    -0.200 F 
ATOM     96  F   UNL A   1      40.093  26.665  26.400  1.00  0.00    -0.200 F 
ENDBRANCH  62  86
BRANCH  74  97
ATOM     97  C   UNL A   1      44.122  28.540  35.646  1.00  0.00     0.064 A 
ATOM     98  C   UNL A   1      43.907  27.355  36.365  1.00  0.00     0.173 A 
ATOM     99  C   UNL A   1      45.434  28.847  35.255  1.00  0.00     0.173 A 
ATOM    100  F   UNL A   1      42.672  27.027  36.771  1.00  0.00    -0.203 F 
ATOM    101  C   UNL A   1      44.970  26.520  36.697  1.00  0.00     0.198 A 
ATOM    102  C   UNL A   1      46.490  27.996  35.565  1.00  0.00     0.198 A 
ATOM    103  F   UNL A   1      45.687  29.965  34.558  1.00  0.00    -0.203 F 
ATOM    104  F   UNL A   1      44.749  25.414  37.419  1.00  0.00    -0.200 F 
ATOM    105  C   UNL A   1      46.258  26.837  36.290  1.00  0.00     0.200 A 
ATOM    106  F   UNL A   1      47.732  28.296  35.160  1.00  0.00    -0.200 F 
ATOM    107  F   UNL A   1      47.278  26.026  36.604  1.00  0.00    -0.200 F 
ENDBRANCH  74  97
ENDBRANCH  48  49
ENDBRANCH  40  43
ENDBRANCH  38  39
ENDBRANCH  37  38
ENDBRANCH  36  37
ENDBRANCH  35  36
ENDBRANCH   3  35
TORSDOF 19
ENDMDL
MODEL 2
REMARK VINA RESULT:     -13.1      0.728      1.991
REMARK SMILES C=C[C@@H]1[C@@H](O)C[C@H]2[C@]3(CC[C@]4(C)[C@@H]([C@H](C)CCC=C(C)C)CC[C@]24C)C[C@]13CCC(=O)NCCCCNC(=O)c1ccc(-c2c3nc(c(-c4c(F)c(F)c(F)c(F)c4F)c4ccc([nH]4)c(-c4c(F)c(F)c(F)c(F)c4F)c4nc(c(-c5c(F)c(F)c(F)c(F)c5F)c5ccc2[nH]5)C=C4)C=C3)cc1
REMARK SMILES IDX 30 1 31 2 32 3 29 5 28 6 27 7 3 8 4 9 6 10 8 11 26 12 7 13
REMARK SMILES IDX 9 14 24 15 10 16 11 17 23 18 25 19 13 20 12 21 22 22 2 23
REMARK SMILES IDX 1 24 5 25 14 27 15 28 16 29 17 30 18 31 19 32 20 33 21 34
REMARK SMILES IDX 33 35 34 36 35 37 36 38 37 39 38 40 39 42 40 43 41 44 102 45
REMARK SMILES IDX 42 46 101 47 43 48 44 49 45 50 95 51 46 52 100 53 94 54
REMARK SMILES IDX 96 55 47 56 99 57 93 58 92 59 48 61 80 62 60 63 79 64 61 65
REMARK SMILES IDX 64 66 78 67 97 68 62 69 63 70 77 72 98 73 65 74 49 75 50 76
REMARK SMILES IDX 58 77 51 78 52 79 56 80 59 81 53 82 54 83 57 84 55 85 81 86
REMARK SMILES IDX 82 87 90 88 83 89 84 90 88 91 91 92 85 93 86 94 89 95 87 96
REMARK SMILES IDX 66 97 67 98 75 99 68 100 69 101 73 102 76 103 70 104 71 105
REMARK SMILES IDX 74 106 72 107
REMARK H PARENT 32 4 5 26 37 41 96 60 64 71
REMARK Flexibility Score: inf
ROOT
ATOM      1  C   UNL A   1      33.061  30.234  26.989  1.00  0.00     0.220 C 
ATOM      2  O   UNL A   1      31.835  30.311  26.879  1.00  0.00    -0.275 OA
ATOM      3  N   UNL A   1      33.691  31.259  27.640  1.00  0.00    -0.356 N 
ATOM      4  H   UNL A   1      33.077  31.912  28.046  1.00  0.00     0.163 HD
ENDROOT
BRANCH   1   5
ATOM      5  C   UNL A   1      33.811  29.016  26.448  1.00  0.00     0.100 C 
BRANCH   5   6
ATOM      6  C   UNL A   1      33.572  28.716  24.942  1.00  0.00     0.018 C 
BRANCH   6   7
ATOM      7  C   UNL A   1      32.375  27.778  24.577  1.00  0.00    -0.014 C 
ATOM      8  C   UNL A   1      31.447  28.318  23.469  1.00  0.00     0.047 C 
ATOM      9  C   UNL A   1      30.653  27.200  22.708  1.00  0.00     0.122 C 
ATOM     10  C   UNL A   1      30.579  25.798  23.339  1.00  0.00     0.037 C 
ATOM     11  C   UNL A   1      32.514  26.268  24.893  1.00  0.00    -0.019 C 
ATOM     12  C   UNL A   1      31.598  27.149  25.695  1.00  0.00     0.016 C 
ATOM     13  C   UNL A   1      31.926  25.273  23.896  1.00  0.00     0.005 C 
ATOM     14  C   UNL A   1      33.788  25.776  25.538  1.00  0.00     0.008 C 
ATOM     15  C   UNL A   1      31.842  23.785  24.500  1.00  0.00    -0.023 C 
ATOM     16  C   UNL A   1      33.580  24.443  26.229  1.00  0.00     0.008 C 
ATOM     17  C   UNL A   1      33.156  23.328  25.279  1.00  0.00    -0.024 C 
ATOM     18  C   UNL A   1      31.823  22.765  23.331  1.00  0.00     0.008 C 
ATOM     19  C   UNL A   1      30.577  23.632  25.382  1.00  0.00     0.012 C 
ATOM     20  C   UNL A   1      34.160  23.057  24.126  1.00  0.00    -0.002 C 
ATOM     21  C   UNL A   1      32.924  22.032  26.095  1.00  0.00     0.012 C 
ATOM     22  C   UNL A   1      33.276  22.294  23.114  1.00  0.00     0.005 C 
BRANCH   8  23
ATOM     23  C   UNL A   1      30.584  29.454  24.043  1.00  0.00    -0.028 C 
ATOM     24  C   UNL A   1      29.530  30.074  23.499  1.00  0.00     0.004 C 
ENDBRANCH   8  23
BRANCH   9  25
ATOM     25  O   UNL A   1      31.198  27.062  21.387  1.00  0.00    -0.392 OA
ATOM     26  H   UNL A   1      31.064  27.886  20.894  1.00  0.00     0.210 HD
ENDBRANCH   9  25
BRANCH  20  27
ATOM     27  C   UNL A   1      35.604  22.469  24.347  1.00  0.00    -0.010 C 
ATOM     28  C   UNL A   1      36.718  23.089  23.500  1.00  0.00     0.008 C 
BRANCH  27  29
ATOM     29  C   UNL A   1      35.828  20.950  24.625  1.00  0.00     0.008 C 
BRANCH  29  30
ATOM     30  C   UNL A   1      34.759  19.934  25.114  1.00  0.00     0.027 C 
BRANCH  30  31
ATOM     31  C   UNL A   1      34.762  18.514  24.626  1.00  0.00    -0.028 C 
ATOM     32  C   UNL A   1      33.823  17.950  23.836  1.00  0.00    -0.080 C 
ATOM     33  C   UNL A   1      34.028  16.578  23.249  1.00  0.00     0.039 C 
ATOM     34  C   UNL A   1      32.526  18.607  23.447  1.00  0.00     0.039 C 
ENDBRANCH  30  31
ENDBRANCH  29  30
ENDBRANCH  27  29
ENDBRANCH  20  27
ENDBRANCH   6   7
ENDBRANCH   5   6
ENDBRANCH   1   5
BRANCH   3  35
ATOM     35  C   UNL A   1      35.103  31.567  27.844  1.00  0.00     0.116 C 
BRANCH  35  36
ATOM     36  C   UNL A   1      35.299  33.046  28.171  1.00  0.00     0.023 C 
BRANCH  36  37
ATOM     37  C   UNL A   1      34.161  34.024  28.003  1.00  0.00     0.023 C 
BRANCH  37  38
ATOM     38  C   UNL A   1      34.452  35.349  28.680  1.00  0.00     0.116 C 
BRANCH  38  39
ATOM     39  N   UNL A   1      33.345  35.946  29.438  1.00  0.00    -0.352 N 
ATOM     40  C   UNL A   1      33.117  35.901  30.801  1.00  0.00     0.251 C 
ATOM     41  H   UNL A   1      32.679  36.441  28.907  1.00  0.00     0.163 HD
ATOM     42  O   UNL A   1      32.150  36.464  31.305  1.00  0.00    -0.269 OA
BRANCH  40  43
ATOM     43  C   UNL A   1      34.027  35.084  31.632  1.00  0.00     0.039 A 
ATOM     44  C   UNL A   1      33.873  33.697  31.666  1.00  0.00     0.014 A 
ATOM     45  C   UNL A   1      35.143  35.683  32.203  1.00  0.00     0.014 A 
ATOM     46  C   UNL A   1      34.918  32.908  32.155  1.00  0.00     0.010 A 
ATOM     47  C   UNL A   1      36.242  34.899  32.493  1.00  0.00     0.010 A 
ATOM     48  C   UNL A   1      36.142  33.501  32.502  1.00  0.00    -0.014 A 
BRANCH  48  49
ATOM     49  C   UNL A   1      37.331  32.714  32.922  1.00  0.00     0.031 A 
ATOM     50  C   UNL A   1      37.958  32.995  34.265  1.00  0.00     0.074 A 
ATOM     51  C   UNL A   1      37.928  31.862  32.065  1.00  0.00     0.049 A 
ATOM     52  N   UNL A   1      39.102  32.590  34.751  1.00  0.00    -0.248 NA
ATOM     53  C   UNL A   1      37.241  33.937  35.142  1.00  0.00     0.031 C 
ATOM     54  C   UNL A   1      37.499  31.585  30.692  1.00  0.00     0.029 A 
ATOM     55  N   UNL A   1      39.043  31.078  32.225  1.00  0.00    -0.354 N 
ATOM     56  C   UNL A   1      39.270  33.293  35.938  1.00  0.00     0.074 A 
ATOM     57  C   UNL A   1      38.164  34.213  36.048  1.00  0.00     0.031 C 
ATOM     58  C   UNL A   1      38.309  30.659  30.155  1.00  0.00     0.029 A 
ATOM     59  C   UNL A   1      39.334  30.301  31.130  1.00  0.00     0.049 A 
ATOM     60  H   UNL A   1      39.584  31.073  33.048  1.00  0.00     0.167 HD
ATOM     61  C   UNL A   1      40.230  33.149  36.881  1.00  0.00     0.037 A 
ATOM     62  C   UNL A   1      40.311  29.394  30.947  1.00  0.00     0.037 A 
ATOM     63  C   UNL A   1      41.249  32.138  36.823  1.00  0.00     0.049 A 
ATOM     64  C   UNL A   1      41.273  29.127  32.072  1.00  0.00     0.074 A 
ATOM     65  C   UNL A   1      42.192  31.802  37.775  1.00  0.00     0.029 A 
ATOM     66  N   UNL A   1      41.430  31.276  35.751  1.00  0.00    -0.354 N 
ATOM     67  N   UNL A   1      41.379  29.734  33.230  1.00  0.00    -0.248 NA
ATOM     68  C   UNL A   1      42.238  28.037  31.876  1.00  0.00     0.031 C 
ATOM     69  C   UNL A   1      42.957  30.744  37.272  1.00  0.00     0.029 A 
ATOM     70  C   UNL A   1      42.467  30.400  36.021  1.00  0.00     0.049 A 
ATOM     71  H   UNL A   1      40.900  31.285  34.921  1.00  0.00     0.167 HD
ATOM     72  C   UNL A   1      42.401  29.088  33.910  1.00  0.00     0.074 A 
ATOM     73  C   UNL A   1      42.874  28.029  33.039  1.00  0.00     0.031 C 
ATOM     74  C   UNL A   1      42.905  29.345  35.142  1.00  0.00     0.037 A 
BRANCH  61  75
ATOM     75  C   UNL A   1      40.187  34.082  38.059  1.00  0.00     0.064 A 
ATOM     76  C   UNL A   1      39.415  33.801  39.200  1.00  0.00     0.173 A 
ATOM     77  C   UNL A   1      40.896  35.291  38.033  1.00  0.00     0.173 A 
ATOM     78  F   UNL A   1      38.705  32.666  39.272  1.00  0.00    -0.203 F 
ATOM     79  C   UNL A   1      39.304  34.724  40.237  1.00  0.00     0.198 A 
ATOM     80  C   UNL A   1      40.815  36.193  39.092  1.00  0.00     0.198 A 
ATOM     81  F   UNL A   1      41.655  35.609  36.974  1.00  0.00    -0.203 F 
ATOM     82  F   UNL A   1      38.486  34.472  41.268  1.00  0.00    -0.200 F 
ATOM     83  C   UNL A   1      40.007  35.917  40.183  1.00  0.00     0.200 A 
ATOM     84  F   UNL A   1      41.506  37.341  39.046  1.00  0.00    -0.200 F 
ATOM     85  F   UNL A   1      39.890  36.808  41.178  1.00  0.00    -0.200 F 
ENDBRANCH  61  75
BRANCH  62  86
ATOM     86  C   UNL A   1      40.366  28.616  29.682  1.00  0.00     0.064 A 
ATOM     87  C   UNL A   1      39.638  27.425  29.545  1.00  0.00     0.173 A 
ATOM     88  C   UNL A   1      41.108  29.057  28.578  1.00  0.00     0.173 A 
ATOM     89  F   UNL A   1      38.922  26.957  30.579  1.00  0.00    -0.203 F 
ATOM     90  C   UNL A   1      39.661  26.698  28.358  1.00  0.00     0.198 A 
ATOM     91  C   UNL A   1      41.114  28.339  27.382  1.00  0.00     0.198 A 
ATOM     92  F   UNL A   1      41.812  30.196  28.654  1.00  0.00    -0.203 F 
ATOM     93  F   UNL A   1      38.979  25.547  28.266  1.00  0.00    -0.200 F 
ATOM     94  C   UNL A   1      40.394  27.158  27.275  1.00  0.00     0.200 A 
ATOM     95  F   UNL A   1      41.811  28.795  26.333  1.00  0.00    -0.200 F 
ATOM     96  F   UNL A   1      40.408  26.464  26.129  1.00  0.00    -0.200 F 
ENDBRANCH  62  86
BRANCH  74  97
ATOM     97  C   UNL A   1      43.997  28.448  35.637  1.00  0.00     0.064 A 
ATOM     98  C   UNL A   1      45.348  28.734  35.395  1.00  0.00     0.173 A 
ATOM     99  C   UNL A   1      43.688  27.318  36.409  1.00  0.00     0.173 A 
ATOM    100  F   UNL A   1      45.690  29.797  34.652  1.00  0.00    -0.203 F 
ATOM    101  C   UNL A   1      46.352  27.907  35.891  1.00  0.00     0.198 A 
ATOM    102  C   UNL A   1      44.695  26.509  36.926  1.00  0.00     0.198 A 
ATOM    103  F   UNL A   1      42.411  27.010  36.675  1.00  0.00    -0.203 F 
ATOM    104  F   UNL A   1      47.634  28.175  35.614  1.00  0.00    -0.200 F 
ATOM    105  C   UNL A   1      46.025  26.801  36.661  1.00  0.00     0.200 A 
ATOM    106  F   UNL A   1      44.379  25.448  37.682  1.00  0.00    -0.200 F 
ATOM    107  F   UNL A   1      46.994  26.011  37.145  1.00  0.00    -0.200 F 
ENDBRANCH  74  97
ENDBRANCH  48  49
ENDBRANCH  40  43
ENDBRANCH  38  39
ENDBRANCH  37  38
ENDBRANCH  36  37
ENDBRANCH  35  36
ENDBRANCH   3  35
TORSDOF 19
ENDMDL
MODEL 3
REMARK VINA RESULT:     -13.0      1.068      2.394
REMARK SMILES C=C[C@@H]1[C@@H](O)C[C@H]2[C@]3(CC[C@]4(C)[C@@H]([C@H](C)CCC=C(C)C)CC[C@]24C)C[C@]13CCC(=O)NCCCCNC(=O)c1ccc(-c2c3nc(c(-c4c(F)c(F)c(F)c(F)c4F)c4ccc([nH]4)c(-c4c(F)c(F)c(F)c(F)c4F)c4nc(c(-c5c(F)c(F)c(F)c(F)c5F)c5ccc2[nH]5)C=C4)C=C3)cc1
REMARK SMILES IDX 30 1 31 2 32 3 29 5 28 6 27 7 3 8 4 9 6 10 8 11 26 12 7 13
REMARK SMILES IDX 9 14 24 15 10 16 11 17 23 18 25 19 13 20 12 21 22 22 2 23
REMARK SMILES IDX 1 24 5 25 14 27 15 28 16 29 17 30 18 31 19 32 20 33 21 34
REMARK SMILES IDX 33 35 34 36 35 37 36 38 37 39 38 40 39 42 40 43 41 44 102 45
REMARK SMILES IDX 42 46 101 47 43 48 44 49 45 50 95 51 46 52 100 53 94 54
REMARK SMILES IDX 96 55 47 56 99 57 93 58 92 59 48 61 80 62 60 63 79 64 61 65
REMARK SMILES IDX 64 66 78 67 97 68 62 69 63 70 77 72 98 73 65 74 49 75 50 76
REMARK SMILES IDX 58 77 51 78 52 79 56 80 59 81 53 82 54 83 57 84 55 85 81 86
REMARK SMILES IDX 82 87 90 88 83 89 84 90 88 91 91 92 85 93 86 94 89 95 87 96
REMARK SMILES IDX 66 97 67 98 75 99 68 100 69 101 73 102 76 103 70 104 71 105
REMARK SMILES IDX 74 106 72 107
REMARK H PARENT 32 4 5 26 37 41 96 60 64 71
REMARK Flexibility Score: inf
ROOT
ATOM      1  C   UNL A   1      33.347  29.803  27.344  1.00  0.00     0.220 C 
ATOM      2  O   UNL A   1      33.006  28.780  27.945  1.00  0.00    -0.275 OA
ATOM      3  N   UNL A   1      34.259  30.612  27.966  1.00  0.00    -0.356 N 
ATOM      4  H   UNL A   1      34.627  30.235  28.796  1.00  0.00     0.163 HD
ENDROOT
BRANCH   1   5
ATOM      5  C   UNL A   1      32.789  30.104  25.953  1.00  0.00     0.100 C 
BRANCH   5   6
ATOM      6  C   UNL A   1      33.239  29.118  24.840  1.00  0.00     0.018 C 
BRANCH   6   7
ATOM      7  C   UNL A   1      32.232  27.997  24.422  1.00  0.00    -0.014 C 
ATOM      8  C   UNL A   1      31.303  28.369  23.247  1.00  0.00     0.047 C 
ATOM      9  C   UNL A   1      30.748  27.131  22.463  1.00  0.00     0.122 C 
ATOM     10  C   UNL A   1      30.856  25.742  23.118  1.00  0.00     0.037 C 
ATOM     11  C   UNL A   1      32.587  26.533  24.779  1.00  0.00    -0.019 C 
ATOM     12  C   UNL A   1      31.494  27.265  25.503  1.00  0.00     0.016 C 
ATOM     13  C   UNL A   1      32.231  25.445  23.769  1.00  0.00     0.005 C 
ATOM     14  C   UNL A   1      33.879  26.258  25.512  1.00  0.00     0.008 C 
ATOM     15  C   UNL A   1      32.344  23.970  24.399  1.00  0.00    -0.023 C 
ATOM     16  C   UNL A   1      33.841  24.917  26.217  1.00  0.00     0.008 C 
ATOM     17  C   UNL A   1      33.661  23.737  25.267  1.00  0.00    -0.024 C 
ATOM     18  C   UNL A   1      32.563  22.947  23.253  1.00  0.00     0.008 C 
ATOM     19  C   UNL A   1      31.065  23.628  25.205  1.00  0.00     0.012 C 
ATOM     20  C   UNL A   1      34.767  23.617  24.185  1.00  0.00    -0.002 C 
ATOM     21  C   UNL A   1      33.585  22.430  26.095  1.00  0.00     0.012 C 
ATOM     22  C   UNL A   1      34.083  22.710  23.137  1.00  0.00     0.005 C 
BRANCH   8  23
ATOM     23  C   UNL A   1      30.237  29.360  23.741  1.00  0.00    -0.028 C 
ATOM     24  C   UNL A   1      29.128  29.789  23.125  1.00  0.00     0.004 C 
ENDBRANCH   8  23
BRANCH   9  25
ATOM     25  O   UNL A   1      31.392  27.065  21.181  1.00  0.00    -0.392 OA
ATOM     26  H   UNL A   1      32.265  26.654  21.279  1.00  0.00     0.210 HD
ENDBRANCH   9  25
BRANCH  20  27
ATOM     27  C   UNL A   1      36.269  23.269  24.508  1.00  0.00    -0.010 C 
ATOM     28  C   UNL A   1      36.768  21.913  24.004  1.00  0.00     0.008 C 
BRANCH  27  29
ATOM     29  C   UNL A   1      36.928  23.694  25.857  1.00  0.00     0.008 C 
BRANCH  29  30
ATOM     30  C   UNL A   1      38.447  23.872  26.127  1.00  0.00     0.027 C 
BRANCH  30  31
ATOM     31  C   UNL A   1      39.232  22.813  26.848  1.00  0.00    -0.028 C 
ATOM     32  C   UNL A   1      40.562  22.840  27.083  1.00  0.00    -0.080 C 
ATOM     33  C   UNL A   1      41.210  21.822  27.983  1.00  0.00     0.039 C 
ATOM     34  C   UNL A   1      41.509  23.862  26.514  1.00  0.00     0.039 C 
ENDBRANCH  30  31
ENDBRANCH  29  30
ENDBRANCH  27  29
ENDBRANCH  20  27
ENDBRANCH   6   7
ENDBRANCH   5   6
ENDBRANCH   1   5
BRANCH   3  35
ATOM     35  C   UNL A   1      34.786  31.930  27.627  1.00  0.00     0.116 C 
BRANCH  35  36
ATOM     36  C   UNL A   1      33.847  33.035  28.107  1.00  0.00     0.023 C 
BRANCH  36  37
ATOM     37  C   UNL A   1      34.010  33.633  29.485  1.00  0.00     0.023 C 
BRANCH  37  38
ATOM     38  C   UNL A   1      33.885  35.144  29.461  1.00  0.00     0.116 C 
BRANCH  38  39
ATOM     39  N   UNL A   1      32.816  35.717  30.289  1.00  0.00    -0.352 N 
ATOM     40  C   UNL A   1      32.742  35.782  31.668  1.00  0.00     0.251 C 
ATOM     41  H   UNL A   1      32.054  36.106  29.799  1.00  0.00     0.163 HD
ATOM     42  O   UNL A   1      31.788  36.309  32.232  1.00  0.00    -0.269 OA
BRANCH  40  43
ATOM     43  C   UNL A   1      33.806  35.121  32.454  1.00  0.00     0.039 A 
ATOM     44  C   UNL A   1      33.603  33.829  32.943  1.00  0.00     0.014 A 
ATOM     45  C   UNL A   1      35.063  35.710  32.520  1.00  0.00     0.014 A 
ATOM     46  C   UNL A   1      34.704  33.083  33.372  1.00  0.00     0.010 A 
ATOM     47  C   UNL A   1      36.162  34.907  32.750  1.00  0.00     0.010 A 
ATOM     48  C   UNL A   1      36.003  33.591  33.207  1.00  0.00    -0.014 A 
BRANCH  48  49
ATOM     49  C   UNL A   1      37.223  32.809  33.535  1.00  0.00     0.031 A 
ATOM     50  C   UNL A   1      37.940  33.081  34.834  1.00  0.00     0.074 A 
ATOM     51  C   UNL A   1      37.766  31.970  32.630  1.00  0.00     0.049 A 
ATOM     52  N   UNL A   1      39.118  32.680  35.236  1.00  0.00    -0.248 NA
ATOM     53  C   UNL A   1      37.279  34.009  35.769  1.00  0.00     0.031 C 
ATOM     54  C   UNL A   1      37.244  31.702  31.288  1.00  0.00     0.029 A 
ATOM     55  N   UNL A   1      38.894  31.193  32.704  1.00  0.00    -0.354 N 
ATOM     56  C   UNL A   1      39.363  33.373  36.415  1.00  0.00     0.074 A 
ATOM     57  C   UNL A   1      38.261  34.284  36.611  1.00  0.00     0.031 C 
ATOM     58  C   UNL A   1      38.021  30.788  30.687  1.00  0.00     0.029 A 
ATOM     59  C   UNL A   1      39.114  30.428  31.584  1.00  0.00     0.049 A 
ATOM     60  H   UNL A   1      39.491  31.183  33.488  1.00  0.00     0.167 HD
ATOM     61  C   UNL A   1      40.388  33.227  37.288  1.00  0.00     0.037 A 
ATOM     62  C   UNL A   1      40.082  29.530  31.325  1.00  0.00     0.037 A 
ATOM     63  C   UNL A   1      41.407  32.225  37.149  1.00  0.00     0.049 A 
ATOM     64  C   UNL A   1      41.122  29.260  32.378  1.00  0.00     0.074 A 
ATOM     65  C   UNL A   1      42.416  31.887  38.029  1.00  0.00     0.029 A 
ATOM     66  N   UNL A   1      41.519  31.374  36.058  1.00  0.00    -0.354 N 
ATOM     67  N   UNL A   1      41.304  29.857  33.531  1.00  0.00    -0.248 NA
ATOM     68  C   UNL A   1      42.078  28.180  32.104  1.00  0.00     0.031 C 
ATOM     69  C   UNL A   1      43.151  30.839  37.464  1.00  0.00     0.029 A 
ATOM     70  C   UNL A   1      42.578  30.504  36.247  1.00  0.00     0.049 A 
ATOM     71  H   UNL A   1      40.933  31.387  35.267  1.00  0.00     0.167 HD
ATOM     72  C   UNL A   1      42.375  29.212  34.132  1.00  0.00     0.074 A 
ATOM     73  C   UNL A   1      42.793  28.165  33.220  1.00  0.00     0.031 C 
ATOM     74  C   UNL A   1      42.961  29.461  35.329  1.00  0.00     0.037 A 
BRANCH  61  75
ATOM     75  C   UNL A   1      40.420  34.148  38.475  1.00  0.00     0.064 A 
ATOM     76  C   UNL A   1      39.738  33.847  39.667  1.00  0.00     0.173 A 
ATOM     77  C   UNL A   1      41.110  35.367  38.410  1.00  0.00     0.173 A 
ATOM     78  F   UNL A   1      39.049  32.702  39.780  1.00  0.00    -0.203 F 
ATOM     79  C   UNL A   1      39.692  34.758  40.719  1.00  0.00     0.198 A 
ATOM     80  C   UNL A   1      41.097  36.258  39.481  1.00  0.00     0.198 A 
ATOM     81  F   UNL A   1      41.785  35.706  37.300  1.00  0.00    -0.203 F 
ATOM     82  F   UNL A   1      38.956  34.486  41.805  1.00  0.00    -0.200 F 
ATOM     83  C   UNL A   1      40.374  35.961  40.626  1.00  0.00     0.200 A 
ATOM     84  F   UNL A   1      41.767  37.415  39.396  1.00  0.00    -0.200 F 
ATOM     85  F   UNL A   1      40.320  36.842  41.635  1.00  0.00    -0.200 F 
ENDBRANCH  61  75
BRANCH  62  86
ATOM     86  C   UNL A   1      40.054  28.765  30.051  1.00  0.00     0.064 A 
ATOM     87  C   UNL A   1      40.673  29.274  28.900  1.00  0.00     0.173 A 
ATOM     88  C   UNL A   1      39.448  27.505  29.962  1.00  0.00     0.173 A 
ATOM     89  F   UNL A   1      41.255  30.483  28.933  1.00  0.00    -0.203 F 
ATOM     90  C   UNL A   1      40.675  28.559  27.705  1.00  0.00     0.198 A 
ATOM     91  C   UNL A   1      39.469  26.779  28.772  1.00  0.00     0.198 A 
ATOM     92  F   UNL A   1      38.853  26.969  31.038  1.00  0.00    -0.203 F 
ATOM     93  F   UNL A   1      41.248  29.083  26.613  1.00  0.00    -0.200 F 
ATOM     94  C   UNL A   1      40.078  27.308  27.644  1.00  0.00     0.200 A 
ATOM     95  F   UNL A   1      38.905  25.565  28.719  1.00  0.00    -0.200 F 
ATOM     96  F   UNL A   1      40.089  26.615  26.496  1.00  0.00    -0.200 F 
ENDBRANCH  62  86
BRANCH  74  97
ATOM     97  C   UNL A   1      44.091  28.568  35.738  1.00  0.00     0.064 A 
ATOM     98  C   UNL A   1      45.422  28.875  35.421  1.00  0.00     0.173 A 
ATOM     99  C   UNL A   1      43.842  27.418  36.503  1.00  0.00     0.173 A 
ATOM    100  F   UNL A   1      45.706  29.958  34.682  1.00  0.00    -0.203 F 
ATOM    101  C   UNL A   1      46.463  28.050  35.838  1.00  0.00     0.198 A 
ATOM    102  C   UNL A   1      44.887  26.611  36.941  1.00  0.00     0.198 A 
ATOM    103  F   UNL A   1      42.587  27.088  36.838  1.00  0.00    -0.203 F 
ATOM    104  F   UNL A   1      47.723  28.340  35.490  1.00  0.00    -0.200 F 
ATOM    105  C   UNL A   1      46.196  26.925  36.603  1.00  0.00     0.200 A 
ATOM    106  F   UNL A   1      44.630  25.531  37.691  1.00  0.00    -0.200 F 
ATOM    107  F   UNL A   1      47.201  26.137  37.010  1.00  0.00    -0.200 F 
ENDBRANCH  74  97
ENDBRANCH  48  49
ENDBRANCH  40  43
ENDBRANCH  38  39
ENDBRANCH  37  38
ENDBRANCH  36  37
ENDBRANCH  35  36
ENDBRANCH   3  35
TORSDOF 19
ENDMDL
