MODEL 1
REMARK VINA RESULT:     -13.7      0.000      0.000
REMARK SMILES Cc1ccn2c([C@@H]3CCCC[C@@H]3C(=O)NCCCCNC(=O)c3ccc(-c4c5nc(c(-c6c(F)c(F)c(F)c(F)c6F)c6ccc([nH]6)c(-c6c(F)c(F)c(F)c(F)c6F)c6nc(c(-c7c(F)c(F)c(F)c(F)c7F)c7ccc4[nH]7)C=C6)C=C5)cc3)nnc2c1
REMARK SMILES IDX 18 1 17 2 16 3 15 4 13 5 14 6 12 8 7 9 8 10 9 11 11 12 10 13
REMARK SMILES IDX 6 14 1 15 2 16 3 17 89 18 4 19 88 20 5 21 87 22 86 23 19 24
REMARK SMILES IDX 20 25 21 26 22 28 23 29 24 30 85 31 25 32 84 33 26 34 27 35
REMARK SMILES IDX 28 36 78 37 29 38 83 39 77 40 79 41 30 42 82 43 76 44 75 45
REMARK SMILES IDX 31 47 63 48 43 49 62 50 44 51 47 52 61 53 80 54 45 55 46 56
REMARK SMILES IDX 60 58 81 59 48 60 32 61 33 62 41 63 34 64 35 65 39 66 42 67
REMARK SMILES IDX 36 68 37 69 40 70 38 71 64 72 65 73 73 74 66 75 67 76 71 77
REMARK SMILES IDX 74 78 68 79 69 80 72 81 70 82 49 83 50 84 58 85 51 86 52 87
REMARK SMILES IDX 56 88 59 89 53 90 54 91 57 92 55 93
REMARK H PARENT 15 7 20 27 79 46 47 57
REMARK Flexibility Score: inf
ROOT
ATOM      1  C   UNL A   1      33.887  31.305  27.699  1.00  0.00     0.023 C 
ENDROOT
BRANCH   1   2
ATOM      2  C   UNL A   1      34.846  30.171  27.361  1.00  0.00     0.023 C 
BRANCH   2   3
ATOM      3  C   UNL A   1      34.172  28.932  26.812  1.00  0.00     0.116 C 
BRANCH   3   4
ATOM      4  N   UNL A   1      34.096  28.883  25.371  1.00  0.00    -0.356 N 
ATOM      5  C   UNL A   1      33.024  28.920  24.538  1.00  0.00     0.223 C 
ATOM      6  O   UNL A   1      33.281  29.155  23.352  1.00  0.00    -0.275 OA
ATOM      7  H   UNL A   1      34.966  28.810  24.917  1.00  0.00     0.163 HD
BRANCH   5   8
ATOM      8  C   UNL A   1      31.575  28.648  24.948  1.00  0.00     0.089 C 
ATOM      9  C   UNL A   1      30.898  27.279  24.825  1.00  0.00     0.071 C 
ATOM     10  C   UNL A   1      30.319  26.921  23.454  1.00  0.00     0.012 C 
ATOM     11  C   UNL A   1      29.603  28.087  22.747  1.00  0.00     0.001 C 
ATOM     12  C   UNL A   1      30.658  29.753  24.390  1.00  0.00     0.014 C 
ATOM     13  C   UNL A   1      30.146  29.501  22.980  1.00  0.00     0.001 C 
BRANCH   9  14
ATOM     14  C   UNL A   1      31.449  26.089  25.588  1.00  0.00     0.141 A 
ATOM     15  C   UNL A   1      35.955  22.722  25.884  1.00  0.00     0.044 C 
ATOM     16  C   UNL A   1      34.751  23.609  25.786  1.00  0.00    -0.046 A 
ATOM     17  C   UNL A   1      34.787  24.641  24.762  1.00  0.00     0.022 A 
ATOM     18  C   UNL A   1      33.675  23.499  26.595  1.00  0.00     0.053 A 
ATOM     19  C   UNL A   1      33.750  25.485  24.637  1.00  0.00     0.095 A 
ATOM     20  C   UNL A   1      32.572  24.390  26.448  1.00  0.00     0.161 A 
ATOM     21  N   UNL A   1      32.642  25.382  25.470  1.00  0.00    -0.286 N 
ATOM     22  N   UNL A   1      31.430  24.471  27.084  1.00  0.00    -0.130 NA
ATOM     23  N   UNL A   1      30.733  25.519  26.549  1.00  0.00    -0.134 NA
ENDBRANCH   9  14
ENDBRANCH   5   8
ENDBRANCH   3   4
ENDBRANCH   2   3
ENDBRANCH   1   2
BRANCH   1  24
ATOM     24  C   UNL A   1      34.462  32.443  28.558  1.00  0.00     0.116 C 
BRANCH  24  25
ATOM     25  N   UNL A   1      34.523  32.221  29.992  1.00  0.00    -0.352 N 
ATOM     26  C   UNL A   1      35.487  31.733  30.842  1.00  0.00     0.251 C 
ATOM     27  H   UNL A   1      33.693  32.478  30.457  1.00  0.00     0.163 HD
ATOM     28  O   UNL A   1      35.323  31.904  32.042  1.00  0.00    -0.269 OA
BRANCH  26  29
ATOM     29  C   UNL A   1      36.629  30.904  30.381  1.00  0.00     0.039 A 
ATOM     30  C   UNL A   1      36.631  29.515  30.372  1.00  0.00     0.014 A 
ATOM     31  C   UNL A   1      37.814  31.587  30.058  1.00  0.00     0.014 A 
ATOM     32  C   UNL A   1      37.826  28.824  30.329  1.00  0.00     0.010 A 
ATOM     33  C   UNL A   1      39.007  30.890  29.911  1.00  0.00     0.010 A 
ATOM     34  C   UNL A   1      39.021  29.519  30.154  1.00  0.00    -0.014 A 
BRANCH  34  35
ATOM     35  C   UNL A   1      40.244  28.725  30.175  1.00  0.00     0.031 A 
ATOM     36  C   UNL A   1      40.857  28.534  31.526  1.00  0.00     0.074 A 
ATOM     37  C   UNL A   1      40.745  28.147  29.067  1.00  0.00     0.049 A 
ATOM     38  N   UNL A   1      42.076  28.744  31.912  1.00  0.00    -0.248 NA
ATOM     39  C   UNL A   1      39.943  28.139  32.613  1.00  0.00     0.031 C 
ATOM     40  C   UNL A   1      40.126  28.040  27.743  1.00  0.00     0.029 A 
ATOM     41  N   UNL A   1      41.887  27.421  28.932  1.00  0.00    -0.354 N 
ATOM     42  C   UNL A   1      42.119  28.370  33.255  1.00  0.00     0.074 A 
ATOM     43  C   UNL A   1      40.762  28.111  33.662  1.00  0.00     0.031 C 
ATOM     44  C   UNL A   1      40.774  27.093  27.029  1.00  0.00     0.029 A 
ATOM     45  C   UNL A   1      41.917  26.630  27.796  1.00  0.00     0.049 A 
ATOM     46  H   UNL A   1      42.626  27.455  29.583  1.00  0.00     0.167 HD
ATOM     47  C   UNL A   1      43.279  28.123  33.922  1.00  0.00     0.037 A 
ATOM     48  C   UNL A   1      42.757  25.592  27.568  1.00  0.00     0.037 A 
ATOM     49  C   UNL A   1      44.410  28.760  33.316  1.00  0.00     0.049 A 
ATOM     50  C   UNL A   1      43.912  25.736  28.489  1.00  0.00     0.074 A 
ATOM     51  C   UNL A   1      44.786  30.073  33.116  1.00  0.00     0.029 A 
ATOM     52  N   UNL A   1      45.243  28.017  32.520  1.00  0.00    -0.354 N 
ATOM     53  N   UNL A   1      44.813  26.674  28.403  1.00  0.00    -0.248 NA
ATOM     54  C   UNL A   1      43.843  25.052  29.772  1.00  0.00     0.031 C 
ATOM     55  C   UNL A   1      45.471  30.080  31.867  1.00  0.00     0.029 A 
ATOM     56  C   UNL A   1      45.489  28.766  31.397  1.00  0.00     0.049 A 
ATOM     57  H   UNL A   1      45.595  27.120  32.716  1.00  0.00     0.167 HD
ATOM     58  C   UNL A   1      45.141  26.972  29.718  1.00  0.00     0.074 A 
ATOM     59  C   UNL A   1      44.589  25.878  30.507  1.00  0.00     0.031 C 
ATOM     60  C   UNL A   1      45.588  28.213  30.068  1.00  0.00     0.037 A 
BRANCH  47  61
ATOM     61  C   UNL A   1      43.395  27.066  34.986  1.00  0.00     0.064 A 
ATOM     62  C   UNL A   1      43.632  27.419  36.326  1.00  0.00     0.173 A 
ATOM     63  C   UNL A   1      43.535  25.694  34.679  1.00  0.00     0.173 A 
ATOM     64  F   UNL A   1      43.577  28.702  36.714  1.00  0.00    -0.203 F 
ATOM     65  C   UNL A   1      43.999  26.466  37.282  1.00  0.00     0.198 A 
ATOM     66  C   UNL A   1      43.846  24.740  35.644  1.00  0.00     0.198 A 
ATOM     67  F   UNL A   1      43.474  25.246  33.417  1.00  0.00    -0.203 F 
ATOM     68  F   UNL A   1      44.307  26.856  38.527  1.00  0.00    -0.200 F 
ATOM     69  C   UNL A   1      44.100  25.128  36.942  1.00  0.00     0.200 A 
ATOM     70  F   UNL A   1      43.964  23.453  35.287  1.00  0.00    -0.200 F 
ATOM     71  F   UNL A   1      44.490  24.221  37.848  1.00  0.00    -0.200 F 
ENDBRANCH  47  61
BRANCH  48  72
ATOM     72  C   UNL A   1      42.440  24.314  26.890  1.00  0.00     0.064 A 
ATOM     73  C   UNL A   1      43.288  23.804  25.894  1.00  0.00     0.173 A 
ATOM     74  C   UNL A   1      41.463  23.431  27.392  1.00  0.00     0.173 A 
ATOM     75  F   UNL A   1      44.274  24.562  25.395  1.00  0.00    -0.203 F 
ATOM     76  C   UNL A   1      43.184  22.482  25.450  1.00  0.00     0.198 A 
ATOM     77  C   UNL A   1      41.349  22.118  26.938  1.00  0.00     0.198 A 
ATOM     78  F   UNL A   1      40.660  23.790  28.404  1.00  0.00    -0.203 F 
ATOM     79  F   UNL A   1      44.056  22.009  24.549  1.00  0.00    -0.200 F 
ATOM     80  C   UNL A   1      42.220  21.638  25.978  1.00  0.00     0.200 A 
ATOM     81  F   UNL A   1      40.435  21.304  27.483  1.00  0.00    -0.200 F 
ATOM     82  F   UNL A   1      42.159  20.354  25.599  1.00  0.00    -0.200 F 
ENDBRANCH  48  72
BRANCH  60  83
ATOM     83  C   UNL A   1      45.947  29.159  28.957  1.00  0.00     0.064 A 
ATOM     84  C   UNL A   1      45.009  29.978  28.303  1.00  0.00     0.173 A 
ATOM     85  C   UNL A   1      47.298  29.347  28.637  1.00  0.00     0.173 A 
ATOM     86  F   UNL A   1      43.713  29.940  28.636  1.00  0.00    -0.203 F 
ATOM     87  C   UNL A   1      45.401  30.897  27.332  1.00  0.00     0.198 A 
ATOM     88  C   UNL A   1      47.691  30.295  27.694  1.00  0.00     0.198 A 
ATOM     89  F   UNL A   1      48.244  28.643  29.277  1.00  0.00    -0.203 F 
ATOM     90  F   UNL A   1      44.482  31.654  26.713  1.00  0.00    -0.200 F 
ATOM     91  C   UNL A   1      46.743  31.060  27.034  1.00  0.00     0.200 A 
ATOM     92  F   UNL A   1      48.994  30.489  27.447  1.00  0.00    -0.200 F 
ATOM     93  F   UNL A   1      47.125  31.975  26.131  1.00  0.00    -0.200 F 
ENDBRANCH  60  83
ENDBRANCH  34  35
ENDBRANCH  26  29
ENDBRANCH  24  25
ENDBRANCH   1  24
TORSDOF 12
ENDMDL
MODEL 2
REMARK VINA RESULT:     -13.6      3.661      8.943
REMARK SMILES Cc1ccn2c([C@@H]3CCCC[C@@H]3C(=O)NCCCCNC(=O)c3ccc(-c4c5nc(c(-c6c(F)c(F)c(F)c(F)c6F)c6ccc([nH]6)c(-c6c(F)c(F)c(F)c(F)c6F)c6nc(c(-c7c(F)c(F)c(F)c(F)c7F)c7ccc4[nH]7)C=C6)C=C5)cc3)nnc2c1
REMARK SMILES IDX 18 1 17 2 16 3 15 4 13 5 14 6 12 8 7 9 8 10 9 11 11 12 10 13
REMARK SMILES IDX 6 14 1 15 2 16 3 17 89 18 4 19 88 20 5 21 87 22 86 23 19 24
REMARK SMILES IDX 20 25 21 26 22 28 23 29 24 30 85 31 25 32 84 33 26 34 27 35
REMARK SMILES IDX 28 36 78 37 29 38 83 39 77 40 79 41 30 42 82 43 76 44 75 45
REMARK SMILES IDX 31 47 63 48 43 49 62 50 44 51 47 52 61 53 80 54 45 55 46 56
REMARK SMILES IDX 60 58 81 59 48 60 32 61 33 62 41 63 34 64 35 65 39 66 42 67
REMARK SMILES IDX 36 68 37 69 40 70 38 71 64 72 65 73 73 74 66 75 67 76 71 77
REMARK SMILES IDX 74 78 68 79 69 80 72 81 70 82 49 83 50 84 58 85 51 86 52 87
REMARK SMILES IDX 56 88 59 89 53 90 54 91 57 92 55 93
REMARK H PARENT 15 7 20 27 79 46 47 57
REMARK Flexibility Score: inf
ROOT
ATOM      1  C   UNL A   1      39.322  23.765  27.292  1.00  0.00     0.023 C 
ENDROOT
BRANCH   1   2
ATOM      2  C   UNL A   1      38.250  24.080  26.256  1.00  0.00     0.023 C 
BRANCH   2   3
ATOM      3  C   UNL A   1      37.489  22.867  25.765  1.00  0.00     0.116 C 
BRANCH   3   4
ATOM      4  N   UNL A   1      36.274  22.589  26.494  1.00  0.00    -0.356 N 
ATOM      5  C   UNL A   1      35.211  21.805  26.180  1.00  0.00     0.223 C 
ATOM      6  O   UNL A   1      34.458  21.530  27.121  1.00  0.00    -0.275 OA
ATOM      7  H   UNL A   1      36.206  23.043  27.365  1.00  0.00     0.163 HD
BRANCH   5   8
ATOM      8  C   UNL A   1      34.868  21.301  24.777  1.00  0.00     0.089 C 
ATOM      9  C   UNL A   1      33.739  21.879  23.917  1.00  0.00     0.071 C 
ATOM     10  C   UNL A   1      32.329  21.345  24.187  1.00  0.00     0.012 C 
ATOM     11  C   UNL A   1      32.267  19.827  24.441  1.00  0.00     0.001 C 
ATOM     12  C   UNL A   1      34.811  19.761  24.774  1.00  0.00     0.014 C 
ATOM     13  C   UNL A   1      33.459  19.175  25.151  1.00  0.00     0.001 C 
BRANCH   9  14
ATOM     14  C   UNL A   1      33.773  23.337  23.499  1.00  0.00     0.141 A 
ATOM     15  C   UNL A   1      33.519  28.552  25.612  1.00  0.00     0.044 C 
ATOM     16  C   UNL A   1      33.566  27.162  25.054  1.00  0.00    -0.046 A 
ATOM     17  C   UNL A   1      33.447  26.074  26.013  1.00  0.00     0.022 A 
ATOM     18  C   UNL A   1      33.722  26.889  23.741  1.00  0.00     0.053 A 
ATOM     19  C   UNL A   1      33.505  24.804  25.582  1.00  0.00     0.095 A 
ATOM     20  C   UNL A   1      33.771  25.538  23.290  1.00  0.00     0.161 A 
ATOM     21  N   UNL A   1      33.674  24.515  24.233  1.00  0.00    -0.286 N 
ATOM     22  N   UNL A   1      33.892  25.026  22.090  1.00  0.00    -0.130 NA
ATOM     23  N   UNL A   1      33.890  23.665  22.219  1.00  0.00    -0.134 NA
ENDBRANCH   9  14
ENDBRANCH   5   8
ENDBRANCH   3   4
ENDBRANCH   2   3
ENDBRANCH   1   2
BRANCH   1  24
ATOM     24  C   UNL A   1      40.123  22.473  27.065  1.00  0.00     0.116 C 
BRANCH  24  25
ATOM     25  N   UNL A   1      41.099  22.482  25.989  1.00  0.00    -0.352 N 
ATOM     26  C   UNL A   1      42.183  23.273  25.692  1.00  0.00     0.251 C 
ATOM     27  H   UNL A   1      40.952  21.765  25.330  1.00  0.00     0.163 HD
ATOM     28  O   UNL A   1      42.961  22.869  24.839  1.00  0.00    -0.269 OA
BRANCH  26  29
ATOM     29  C   UNL A   1      42.373  24.633  26.254  1.00  0.00     0.039 A 
ATOM     30  C   UNL A   1      43.042  24.900  27.442  1.00  0.00     0.014 A 
ATOM     31  C   UNL A   1      41.718  25.686  25.594  1.00  0.00     0.014 A 
ATOM     32  C   UNL A   1      42.832  26.094  28.104  1.00  0.00     0.010 A 
ATOM     33  C   UNL A   1      41.588  26.926  26.207  1.00  0.00     0.010 A 
ATOM     34  C   UNL A   1      42.058  27.087  27.507  1.00  0.00    -0.014 A 
BRANCH  34  35
ATOM     35  C   UNL A   1      41.836  28.297  28.292  1.00  0.00     0.031 A 
ATOM     36  C   UNL A   1      42.873  29.362  28.130  1.00  0.00     0.074 A 
ATOM     37  C   UNL A   1      40.738  28.469  29.051  1.00  0.00     0.049 A 
ATOM     38  N   UNL A   1      43.545  29.999  29.037  1.00  0.00    -0.248 NA
ATOM     39  C   UNL A   1      43.274  29.685  26.749  1.00  0.00     0.031 C 
ATOM     40  C   UNL A   1      39.536  27.632  29.110  1.00  0.00     0.029 A 
ATOM     41  N   UNL A   1      40.422  29.516  29.860  1.00  0.00    -0.354 N 
ATOM     42  C   UNL A   1      44.348  30.906  28.346  1.00  0.00     0.074 A 
ATOM     43  C   UNL A   1      44.223  30.597  26.946  1.00  0.00     0.031 C 
ATOM     44  C   UNL A   1      38.542  28.328  29.704  1.00  0.00     0.029 A 
ATOM     45  C   UNL A   1      39.076  29.594  30.176  1.00  0.00     0.049 A 
ATOM     46  H   UNL A   1      41.090  30.161  30.190  1.00  0.00     0.167 HD
ATOM     47  C   UNL A   1      44.941  31.977  28.941  1.00  0.00     0.037 A 
ATOM     48  C   UNL A   1      38.436  30.675  30.682  1.00  0.00     0.037 A 
ATOM     49  C   UNL A   1      45.100  31.804  30.354  1.00  0.00     0.049 A 
ATOM     50  C   UNL A   1      39.462  31.572  31.269  1.00  0.00     0.074 A 
ATOM     51  C   UNL A   1      45.831  30.940  31.146  1.00  0.00     0.029 A 
ATOM     52  N   UNL A   1      44.208  32.407  31.202  1.00  0.00    -0.354 N 
ATOM     53  N   UNL A   1      40.156  31.299  32.339  1.00  0.00    -0.248 NA
ATOM     54  C   UNL A   1      40.006  32.623  30.423  1.00  0.00     0.031 C 
ATOM     55  C   UNL A   1      45.022  30.712  32.296  1.00  0.00     0.029 A 
ATOM     56  C   UNL A   1      43.861  31.470  32.143  1.00  0.00     0.049 A 
ATOM     57  H   UNL A   1      43.878  33.333  31.145  1.00  0.00     0.167 HD
ATOM     58  C   UNL A   1      41.408  31.845  32.097  1.00  0.00     0.074 A 
ATOM     59  C   UNL A   1      41.226  32.729  30.952  1.00  0.00     0.031 C 
ATOM     60  C   UNL A   1      42.528  31.321  32.675  1.00  0.00     0.037 A 
BRANCH  47  61
ATOM     61  C   UNL A   1      45.128  33.296  28.241  1.00  0.00     0.064 A 
ATOM     62  C   UNL A   1      46.415  33.769  27.933  1.00  0.00     0.173 A 
ATOM     63  C   UNL A   1      44.078  34.230  28.094  1.00  0.00     0.173 A 
ATOM     64  F   UNL A   1      47.488  32.980  28.089  1.00  0.00    -0.203 F 
ATOM     65  C   UNL A   1      46.633  35.089  27.524  1.00  0.00     0.198 A 
ATOM     66  C   UNL A   1      44.291  35.526  27.633  1.00  0.00     0.198 A 
ATOM     67  F   UNL A   1      42.827  33.950  28.486  1.00  0.00    -0.203 F 
ATOM     68  F   UNL A   1      47.884  35.528  27.329  1.00  0.00    -0.200 F 
ATOM     69  C   UNL A   1      45.571  35.964  27.369  1.00  0.00     0.200 A 
ATOM     70  F   UNL A   1      43.251  36.364  27.515  1.00  0.00    -0.200 F 
ATOM     71  F   UNL A   1      45.783  37.238  27.015  1.00  0.00    -0.200 F 
ENDBRANCH  47  61
BRANCH  48  72
ATOM     72  C   UNL A   1      37.069  31.144  30.354  1.00  0.00     0.064 A 
ATOM     73  C   UNL A   1      36.194  31.560  31.369  1.00  0.00     0.173 A 
ATOM     74  C   UNL A   1      36.691  31.458  29.033  1.00  0.00     0.173 A 
ATOM     75  F   UNL A   1      36.501  31.341  32.655  1.00  0.00    -0.203 F 
ATOM     76  C   UNL A   1      35.026  32.274  31.082  1.00  0.00     0.198 A 
ATOM     77  C   UNL A   1      35.519  32.157  28.746  1.00  0.00     0.198 A 
ATOM     78  F   UNL A   1      37.497  31.183  27.998  1.00  0.00    -0.203 F 
ATOM     79  F   UNL A   1      34.251  32.717  32.082  1.00  0.00    -0.200 F 
ATOM     80  C   UNL A   1      34.695  32.580  29.772  1.00  0.00     0.200 A 
ATOM     81  F   UNL A   1      35.230  32.475  27.477  1.00  0.00    -0.200 F 
ATOM     82  F   UNL A   1      33.610  33.317  29.499  1.00  0.00    -0.200 F 
ENDBRANCH  48  72
BRANCH  60  83
ATOM     83  C   UNL A   1      42.335  30.302  33.762  1.00  0.00     0.064 A 
ATOM     84  C   UNL A   1      42.126  28.934  33.514  1.00  0.00     0.173 A 
ATOM     85  C   UNL A   1      42.502  30.695  35.096  1.00  0.00     0.173 A 
ATOM     86  F   UNL A   1      42.072  28.462  32.263  1.00  0.00    -0.203 F 
ATOM     87  C   UNL A   1      42.031  28.014  34.556  1.00  0.00     0.198 A 
ATOM     88  C   UNL A   1      42.445  29.767  36.135  1.00  0.00     0.198 A 
ATOM     89  F   UNL A   1      42.770  31.977  35.391  1.00  0.00    -0.203 F 
ATOM     90  F   UNL A   1      41.817  26.716  34.291  1.00  0.00    -0.200 F 
ATOM     91  C   UNL A   1      42.198  28.431  35.865  1.00  0.00     0.200 A 
ATOM     92  F   UNL A   1      42.662  30.165  37.396  1.00  0.00    -0.200 F 
ATOM     93  F   UNL A   1      42.150  27.540  36.867  1.00  0.00    -0.200 F 
ENDBRANCH  60  83
ENDBRANCH  34  35
ENDBRANCH  26  29
ENDBRANCH  24  25
ENDBRANCH   1  24
TORSDOF 12
ENDMDL
MODEL 3
REMARK VINA RESULT:     -13.5      1.616      2.347
REMARK SMILES Cc1ccn2c([C@@H]3CCCC[C@@H]3C(=O)NCCCCNC(=O)c3ccc(-c4c5nc(c(-c6c(F)c(F)c(F)c(F)c6F)c6ccc([nH]6)c(-c6c(F)c(F)c(F)c(F)c6F)c6nc(c(-c7c(F)c(F)c(F)c(F)c7F)c7ccc4[nH]7)C=C6)C=C5)cc3)nnc2c1
REMARK SMILES IDX 18 1 17 2 16 3 15 4 13 5 14 6 12 8 7 9 8 10 9 11 11 12 10 13
REMARK SMILES IDX 6 14 1 15 2 16 3 17 89 18 4 19 88 20 5 21 87 22 86 23 19 24
REMARK SMILES IDX 20 25 21 26 22 28 23 29 24 30 85 31 25 32 84 33 26 34 27 35
REMARK SMILES IDX 28 36 78 37 29 38 83 39 77 40 79 41 30 42 82 43 76 44 75 45
REMARK SMILES IDX 31 47 63 48 43 49 62 50 44 51 47 52 61 53 80 54 45 55 46 56
REMARK SMILES IDX 60 58 81 59 48 60 32 61 33 62 41 63 34 64 35 65 39 66 42 67
REMARK SMILES IDX 36 68 37 69 40 70 38 71 64 72 65 73 73 74 66 75 67 76 71 77
REMARK SMILES IDX 74 78 68 79 69 80 72 81 70 82 49 83 50 84 58 85 51 86 52 87
REMARK SMILES IDX 56 88 59 89 53 90 54 91 57 92 55 93
REMARK H PARENT 15 7 20 27 79 46 47 57
REMARK Flexibility Score: inf
ROOT
ATOM      1  C   UNL A   1      33.214  29.066  27.051  1.00  0.00     0.023 C 
ENDROOT
BRANCH   1   2
ATOM      2  C   UNL A   1      33.971  28.138  26.110  1.00  0.00     0.023 C 
BRANCH   2   3
ATOM      3  C   UNL A   1      34.068  28.643  24.686  1.00  0.00     0.116 C 
BRANCH   3   4
ATOM      4  N   UNL A   1      33.469  27.773  23.702  1.00  0.00    -0.356 N 
ATOM      5  C   UNL A   1      32.166  27.487  23.448  1.00  0.00     0.223 C 
ATOM      6  O   UNL A   1      31.945  26.940  22.361  1.00  0.00    -0.275 OA
ATOM      7  H   UNL A   1      34.112  27.311  23.118  1.00  0.00     0.163 HD
BRANCH   5   8
ATOM      8  C   UNL A   1      31.001  27.741  24.406  1.00  0.00     0.089 C 
ATOM      9  C   UNL A   1      29.922  26.702  24.729  1.00  0.00     0.071 C 
ATOM     10  C   UNL A   1      28.760  26.589  23.738  1.00  0.00     0.012 C 
ATOM     11  C   UNL A   1      28.249  27.942  23.208  1.00  0.00     0.001 C 
ATOM     12  C   UNL A   1      30.357  29.106  24.097  1.00  0.00     0.014 C 
ATOM     13  C   UNL A   1      29.273  29.069  23.030  1.00  0.00     0.001 C 
BRANCH   9  14
ATOM     14  C   UNL A   1      30.306  25.385  25.377  1.00  0.00     0.141 A 
ATOM     15  C   UNL A   1      32.628  20.388  24.205  1.00  0.00     0.044 C 
ATOM     16  C   UNL A   1      31.992  21.713  24.506  1.00  0.00    -0.046 A 
ATOM     17  C   UNL A   1      31.854  22.634  23.388  1.00  0.00     0.022 A 
ATOM     18  C   UNL A   1      31.570  22.076  25.735  1.00  0.00     0.053 A 
ATOM     19  C   UNL A   1      31.315  23.847  23.594  1.00  0.00     0.095 A 
ATOM     20  C   UNL A   1      30.987  23.360  25.944  1.00  0.00     0.161 A 
ATOM     21  N   UNL A   1      30.885  24.230  24.859  1.00  0.00    -0.286 N 
ATOM     22  N   UNL A   1      30.492  23.926  27.017  1.00  0.00    -0.130 NA
ATOM     23  N   UNL A   1      30.067  25.177  26.665  1.00  0.00    -0.134 NA
ENDBRANCH   9  14
ENDBRANCH   5   8
ENDBRANCH   3   4
ENDBRANCH   2   3
ENDBRANCH   1   2
BRANCH   1  24
ATOM     24  C   UNL A   1      33.631  30.545  27.021  1.00  0.00     0.116 C 
BRANCH  24  25
ATOM     25  N   UNL A   1      33.855  31.193  28.301  1.00  0.00    -0.352 N 
ATOM     26  C   UNL A   1      34.982  31.566  28.997  1.00  0.00     0.251 C 
ATOM     27  H   UNL A   1      33.020  31.415  28.772  1.00  0.00     0.163 HD
ATOM     28  O   UNL A   1      34.835  32.324  29.946  1.00  0.00    -0.269 OA
BRANCH  26  29
ATOM     29  C   UNL A   1      36.324  30.991  28.734  1.00  0.00     0.039 A 
ATOM     30  C   UNL A   1      36.549  29.668  28.373  1.00  0.00     0.014 A 
ATOM     31  C   UNL A   1      37.428  31.820  28.994  1.00  0.00     0.014 A 
ATOM     32  C   UNL A   1      37.799  29.106  28.543  1.00  0.00     0.010 A 
ATOM     33  C   UNL A   1      38.707  31.283  29.067  1.00  0.00     0.010 A 
ATOM     34  C   UNL A   1      38.867  29.905  28.944  1.00  0.00    -0.014 A 
BRANCH  34  35
ATOM     35  C   UNL A   1      40.142  29.228  29.156  1.00  0.00     0.031 A 
ATOM     36  C   UNL A   1      40.507  28.988  30.587  1.00  0.00     0.074 A 
ATOM     37  C   UNL A   1      40.900  28.789  28.135  1.00  0.00     0.049 A 
ATOM     38  N   UNL A   1      41.603  29.278  31.215  1.00  0.00    -0.248 NA
ATOM     39  C   UNL A   1      39.452  28.426  31.449  1.00  0.00     0.031 C 
ATOM     40  C   UNL A   1      40.557  28.730  26.711  1.00  0.00     0.029 A 
ATOM     41  N   UNL A   1      42.118  28.184  28.181  1.00  0.00    -0.354 N 
ATOM     42  C   UNL A   1      41.431  28.805  32.516  1.00  0.00     0.074 A 
ATOM     43  C   UNL A   1      40.058  28.390  32.633  1.00  0.00     0.031 C 
ATOM     44  C   UNL A   1      41.423  27.907  26.081  1.00  0.00     0.029 A 
ATOM     45  C   UNL A   1      42.445  27.492  27.028  1.00  0.00     0.049 A 
ATOM     46  H   UNL A   1      42.713  28.235  28.965  1.00  0.00     0.167 HD
ATOM     47  C   UNL A   1      42.465  28.614  33.379  1.00  0.00     0.037 A 
ATOM     48  C   UNL A   1      43.417  26.558  26.906  1.00  0.00     0.037 A 
ATOM     49  C   UNL A   1      43.616  29.399  33.045  1.00  0.00     0.049 A 
ATOM     50  C   UNL A   1      44.357  26.734  28.041  1.00  0.00     0.074 A 
ATOM     51  C   UNL A   1      43.882  30.753  33.002  1.00  0.00     0.029 A 
ATOM     52  N   UNL A   1      44.658  28.802  32.384  1.00  0.00    -0.354 N 
ATOM     53  N   UNL A   1      45.154  27.755  28.189  1.00  0.00    -0.248 NA
ATOM     54  C   UNL A   1      44.121  25.947  29.242  1.00  0.00     0.031 C 
ATOM     55  C   UNL A   1      44.784  30.922  31.912  1.00  0.00     0.029 A 
ATOM     56  C   UNL A   1      45.030  29.657  31.377  1.00  0.00     0.049 A 
ATOM     57  H   UNL A   1      45.060  27.928  32.591  1.00  0.00     0.167 HD
ATOM     58  C   UNL A   1      45.195  27.977  29.558  1.00  0.00     0.074 A 
ATOM     59  C   UNL A   1      44.624  26.777  30.157  1.00  0.00     0.031 C 
ATOM     60  C   UNL A   1      45.435  29.222  30.062  1.00  0.00     0.037 A 
BRANCH  47  61
ATOM     61  C   UNL A   1      42.491  27.491  34.381  1.00  0.00     0.064 A 
ATOM     62  C   UNL A   1      42.992  26.226  34.028  1.00  0.00     0.173 A 
ATOM     63  C   UNL A   1      41.797  27.557  35.610  1.00  0.00     0.173 A 
ATOM     64  F   UNL A   1      43.621  26.042  32.857  1.00  0.00    -0.203 F 
ATOM     65  C   UNL A   1      42.793  25.106  34.842  1.00  0.00     0.198 A 
ATOM     66  C   UNL A   1      41.650  26.452  36.444  1.00  0.00     0.198 A 
ATOM     67  F   UNL A   1      41.153  28.667  35.995  1.00  0.00    -0.203 F 
ATOM     68  F   UNL A   1      43.204  23.899  34.426  1.00  0.00    -0.200 F 
ATOM     69  C   UNL A   1      42.128  25.220  36.051  1.00  0.00     0.200 A 
ATOM     70  F   UNL A   1      40.980  26.581  37.598  1.00  0.00    -0.200 F 
ATOM     71  F   UNL A   1      41.904  24.141  36.812  1.00  0.00    -0.200 F 
ENDBRANCH  47  61
BRANCH  48  72
ATOM     72  C   UNL A   1      43.371  25.313  26.103  1.00  0.00     0.064 A 
ATOM     73  C   UNL A   1      44.385  25.021  25.178  1.00  0.00     0.173 A 
ATOM     74  C   UNL A   1      42.492  24.259  26.422  1.00  0.00     0.173 A 
ATOM     75  F   UNL A   1      45.292  25.954  24.854  1.00  0.00    -0.203 F 
ATOM     76  C   UNL A   1      44.530  23.743  24.629  1.00  0.00     0.198 A 
ATOM     77  C   UNL A   1      42.627  22.989  25.862  1.00  0.00     0.198 A 
ATOM     78  F   UNL A   1      41.543  24.407  27.358  1.00  0.00    -0.203 F 
ATOM     79  F   UNL A   1      45.553  23.482  23.804  1.00  0.00    -0.200 F 
ATOM     80  C   UNL A   1      43.656  22.726  24.978  1.00  0.00     0.200 A 
ATOM     81  F   UNL A   1      41.795  22.007  26.236  1.00  0.00    -0.200 F 
ATOM     82  F   UNL A   1      43.830  21.486  24.501  1.00  0.00    -0.200 F 
ENDBRANCH  48  72
BRANCH  60  83
ATOM     83  C   UNL A   1      45.894  30.283  29.102  1.00  0.00     0.064 A 
ATOM     84  C   UNL A   1      47.244  30.500  28.774  1.00  0.00     0.173 A 
ATOM     85  C   UNL A   1      44.934  31.011  28.386  1.00  0.00     0.173 A 
ATOM     86  F   UNL A   1      48.213  29.763  29.329  1.00  0.00    -0.203 F 
ATOM     87  C   UNL A   1      47.616  31.443  27.818  1.00  0.00     0.198 A 
ATOM     88  C   UNL A   1      45.306  31.925  27.403  1.00  0.00     0.198 A 
ATOM     89  F   UNL A   1      43.627  30.798  28.607  1.00  0.00    -0.203 F 
ATOM     90  F   UNL A   1      48.913  31.640  27.536  1.00  0.00    -0.200 F 
ATOM     91  C   UNL A   1      46.646  32.150  27.128  1.00  0.00     0.200 A 
ATOM     92  F   UNL A   1      44.364  32.567  26.699  1.00  0.00    -0.200 F 
ATOM     93  F   UNL A   1      47.001  33.026  26.177  1.00  0.00    -0.200 F 
ENDBRANCH  60  83
ENDBRANCH  34  35
ENDBRANCH  26  29
ENDBRANCH  24  25
ENDBRANCH   1  24
TORSDOF 12
ENDMDL
