MODEL 1
REMARK VINA RESULT:     -12.8      0.000      0.000
REMARK SMILES C[C@@H]1CCCN(C(=O)c2ccncc2/C=C/C(=O)NCCCCNC(=O)c2ccc(-c3c4nc(c(-c5c(F)c(F)c(F)c(F)c5F)c5ccc([nH]5)c(-c5c(F)c(F)c(F)c(F)c5F)c5nc(c(-c6c(F)c(F)c(F)c(F)c6F)c6ccc3[nH]6)C=C5)C=C4)cc2)[C@@H]1C
REMARK SMILES IDX 21 1 20 2 19 3 17 4 18 5 16 7 15 8 14 9 9 10 10 11 11 12
REMARK SMILES IDX 13 13 12 14 7 15 8 16 6 17 1 18 2 19 3 20 90 21 4 22 91 23
REMARK SMILES IDX 5 24 22 25 23 26 24 27 25 28 26 30 27 31 28 32 89 33 29 34
REMARK SMILES IDX 88 35 30 36 31 37 32 38 82 39 33 40 87 41 81 42 83 43 34 44
REMARK SMILES IDX 86 45 80 46 79 47 35 49 67 50 47 51 66 52 48 53 51 54 65 55
REMARK SMILES IDX 84 56 49 57 50 58 64 60 85 61 52 62 36 63 37 64 45 65 38 66
REMARK SMILES IDX 39 67 43 68 46 69 40 70 41 71 44 72 42 73 68 74 69 75 77 76
REMARK SMILES IDX 70 77 71 78 75 79 78 80 72 81 73 82 76 83 74 84 53 85 54 86
REMARK SMILES IDX 62 87 55 88 56 89 60 90 63 91 57 92 58 93 61 94 59 95
REMARK H PARENT 19 6 24 29 83 48 51 59
REMARK Flexibility Score: inf
ROOT
ATOM      1  C   UNL A   1      31.865  30.341  26.695  1.00  0.00     0.023 C 
ENDROOT
BRANCH   1   2
ATOM      2  C   UNL A   1      33.286  29.792  26.767  1.00  0.00     0.116 C 
BRANCH   2   3
ATOM      3  N   UNL A   1      33.755  29.420  25.445  1.00  0.00    -0.353 N 
ATOM      4  C   UNL A   1      33.603  28.246  24.773  1.00  0.00     0.244 C 
ATOM      5  O   UNL A   1      34.023  28.135  23.625  1.00  0.00    -0.270 OA
ATOM      6  H   UNL A   1      34.254  30.118  24.963  1.00  0.00     0.163 HD
BRANCH   4   7
ATOM      7  C   UNL A   1      32.843  27.131  25.381  1.00  0.00     0.072 C 
ATOM      8  C   UNL A   1      32.545  25.987  24.744  1.00  0.00     0.016 C 
BRANCH   8   9
ATOM      9  C   UNL A   1      31.796  24.885  25.371  1.00  0.00     0.006 A 
ATOM     10  C   UNL A   1      31.920  23.545  24.972  1.00  0.00     0.050 A 
ATOM     11  C   UNL A   1      31.221  22.533  25.642  1.00  0.00     0.034 A 
ATOM     12  C   UNL A   1      30.346  22.901  26.645  1.00  0.00     0.112 A 
ATOM     13  C   UNL A   1      30.870  25.132  26.383  1.00  0.00     0.119 A 
ATOM     14  N   UNL A   1      30.142  24.180  27.017  1.00  0.00    -0.264 NA
BRANCH  10  15
ATOM     15  C   UNL A   1      32.837  23.145  23.876  1.00  0.00     0.254 C 
ATOM     16  O   UNL A   1      32.337  23.063  22.758  1.00  0.00    -0.269 OA
BRANCH  15  17
ATOM     17  N   UNL A   1      34.184  22.899  24.175  1.00  0.00    -0.336 N 
ATOM     18  C   UNL A   1      34.344  21.973  27.168  1.00  0.00     0.010 C 
ATOM     19  C   UNL A   1      35.347  21.709  26.045  1.00  0.00     0.008 C 
ATOM     20  C   UNL A   1      36.426  22.806  26.022  1.00  0.00     0.007 C 
ATOM     21  C   UNL A   1      34.685  21.582  24.645  1.00  0.00     0.085 C 
ATOM     22  C   UNL A   1      35.888  24.127  25.481  1.00  0.00     0.022 C 
ATOM     23  C   UNL A   1      33.734  20.384  24.570  1.00  0.00     0.031 C 
ATOM     24  C   UNL A   1      35.225  23.937  24.121  1.00  0.00     0.120 C 
ENDBRANCH  15  17
ENDBRANCH  10  15
ENDBRANCH   8   9
ENDBRANCH   4   7
ENDBRANCH   2   3
ENDBRANCH   1   2
BRANCH   1  25
ATOM     25  C   UNL A   1      31.761  31.861  26.581  1.00  0.00     0.023 C 
BRANCH  25  26
ATOM     26  C   UNL A   1      32.810  32.631  27.375  1.00  0.00     0.116 C 
BRANCH  26  27
ATOM     27  N   UNL A   1      32.431  34.006  27.667  1.00  0.00    -0.352 N 
ATOM     28  C   UNL A   1      32.980  34.878  28.580  1.00  0.00     0.251 C 
ATOM     29  H   UNL A   1      31.678  34.360  27.142  1.00  0.00     0.163 HD
ATOM     30  O   UNL A   1      32.476  35.977  28.771  1.00  0.00    -0.269 OA
BRANCH  28  31
ATOM     31  C   UNL A   1      34.160  34.456  29.369  1.00  0.00     0.039 A 
ATOM     32  C   UNL A   1      33.957  33.894  30.633  1.00  0.00     0.014 A 
ATOM     33  C   UNL A   1      35.451  34.571  28.851  1.00  0.00     0.014 A 
ATOM     34  C   UNL A   1      35.042  33.368  31.336  1.00  0.00     0.010 A 
ATOM     35  C   UNL A   1      36.518  33.975  29.516  1.00  0.00     0.010 A 
ATOM     36  C   UNL A   1      36.323  33.360  30.761  1.00  0.00    -0.014 A 
BRANCH  36  37
ATOM     37  C   UNL A   1      37.468  32.697  31.433  1.00  0.00     0.031 A 
ATOM     38  C   UNL A   1      38.158  31.534  30.779  1.00  0.00     0.074 A 
ATOM     39  C   UNL A   1      37.828  33.088  32.671  1.00  0.00     0.049 A 
ATOM     40  N   UNL A   1      39.119  30.775  31.242  1.00  0.00    -0.248 NA
ATOM     41  C   UNL A   1      37.683  31.151  29.441  1.00  0.00     0.031 C 
ATOM     42  C   UNL A   1      37.190  34.160  33.439  1.00  0.00     0.029 A 
ATOM     43  N   UNL A   1      38.810  32.621  33.508  1.00  0.00    -0.354 N 
ATOM     44  C   UNL A   1      39.346  29.815  30.265  1.00  0.00     0.074 A 
ATOM     45  C   UNL A   1      38.390  30.055  29.207  1.00  0.00     0.031 C 
ATOM     46  C   UNL A   1      37.812  34.285  34.622  1.00  0.00     0.029 A 
ATOM     47  C   UNL A   1      38.869  33.283  34.711  1.00  0.00     0.049 A 
ATOM     48  H   UNL A   1      39.414  31.882  33.270  1.00  0.00     0.167 HD
ATOM     49  C   UNL A   1      40.283  28.839  30.242  1.00  0.00     0.037 A 
ATOM     50  C   UNL A   1      39.685  33.099  35.767  1.00  0.00     0.037 A 
ATOM     51  C   UNL A   1      41.259  28.629  31.279  1.00  0.00     0.049 A 
ATOM     52  C   UNL A   1      40.737  32.026  35.704  1.00  0.00     0.074 A 
ATOM     53  C   UNL A   1      42.299  27.717  31.314  1.00  0.00     0.029 A 
ATOM     54  N   UNL A   1      41.315  29.347  32.465  1.00  0.00    -0.354 N 
ATOM     55  N   UNL A   1      40.993  31.176  34.740  1.00  0.00    -0.248 NA
ATOM     56  C   UNL A   1      41.619  31.894  36.871  1.00  0.00     0.031 C 
ATOM     57  C   UNL A   1      42.964  27.860  32.537  1.00  0.00     0.029 A 
ATOM     58  C   UNL A   1      42.362  28.887  33.246  1.00  0.00     0.049 A 
ATOM     59  H   UNL A   1      40.700  30.074  32.715  1.00  0.00     0.167 HD
ATOM     60  C   UNL A   1      42.078  30.426  35.172  1.00  0.00     0.074 A 
ATOM     61  C   UNL A   1      42.441  30.930  36.479  1.00  0.00     0.031 C 
ATOM     62  C   UNL A   1      42.714  29.410  34.541  1.00  0.00     0.037 A 
BRANCH  49  63
ATOM     63  C   UNL A   1      40.307  27.931  29.049  1.00  0.00     0.064 A 
ATOM     64  C   UNL A   1      39.567  26.738  29.019  1.00  0.00     0.173 A 
ATOM     65  C   UNL A   1      41.052  28.269  27.910  1.00  0.00     0.173 A 
ATOM     66  F   UNL A   1      38.848  26.363  30.088  1.00  0.00    -0.203 F 
ATOM     67  C   UNL A   1      39.597  25.904  27.905  1.00  0.00     0.198 A 
ATOM     68  C   UNL A   1      41.057  27.446  26.786  1.00  0.00     0.198 A 
ATOM     69  F   UNL A   1      41.772  29.400  27.884  1.00  0.00    -0.203 F 
ATOM     70  F   UNL A   1      38.922  24.746  27.918  1.00  0.00    -0.200 F 
ATOM     71  C   UNL A   1      40.336  26.262  26.787  1.00  0.00     0.200 A 
ATOM     72  F   UNL A   1      41.762  27.798  25.702  1.00  0.00    -0.200 F 
ATOM     73  F   UNL A   1      40.359  25.460  25.714  1.00  0.00    -0.200 F 
ENDBRANCH  49  63
BRANCH  50  74
ATOM     74  C   UNL A   1      39.563  33.978  36.958  1.00  0.00     0.064 A 
ATOM     75  C   UNL A   1      38.804  33.578  38.067  1.00  0.00     0.173 A 
ATOM     76  C   UNL A   1      40.201  35.225  37.018  1.00  0.00     0.173 A 
ATOM     77  F   UNL A   1      38.161  32.401  38.048  1.00  0.00    -0.203 F 
ATOM     78  C   UNL A   1      38.673  34.400  39.184  1.00  0.00     0.198 A 
ATOM     79  C   UNL A   1      40.089  36.035  38.145  1.00  0.00     0.198 A 
ATOM     80  F   UNL A   1      40.943  35.650  35.985  1.00  0.00    -0.203 F 
ATOM     81  F   UNL A   1      37.910  34.010  40.214  1.00  0.00    -0.200 F 
ATOM     82  C   UNL A   1      39.321  35.626  39.224  1.00  0.00     0.200 A 
ATOM     83  F   UNL A   1      40.726  37.214  38.186  1.00  0.00    -0.200 F 
ATOM     84  F   UNL A   1      39.197  36.415  40.300  1.00  0.00    -0.200 F 
ENDBRANCH  50  74
BRANCH  62  85
ATOM     85  C   UNL A   1      43.890  28.796  35.241  1.00  0.00     0.064 A 
ATOM     86  C   UNL A   1      43.738  27.705  36.108  1.00  0.00     0.173 A 
ATOM     87  C   UNL A   1      45.187  29.275  35.003  1.00  0.00     0.173 A 
ATOM     88  F   UNL A   1      42.517  27.222  36.379  1.00  0.00    -0.203 F 
ATOM     89  C   UNL A   1      44.843  27.127  36.727  1.00  0.00     0.198 A 
ATOM     90  C   UNL A   1      46.291  28.678  35.603  1.00  0.00     0.198 A 
ATOM     91  F   UNL A   1      45.383  30.314  34.178  1.00  0.00    -0.203 F 
ATOM     92  F   UNL A   1      44.673  26.108  37.582  1.00  0.00    -0.200 F 
ATOM     93  C   UNL A   1      46.117  27.608  36.469  1.00  0.00     0.200 A 
ATOM     94  F   UNL A   1      47.523  29.138  35.345  1.00  0.00    -0.200 F 
ATOM     95  F   UNL A   1      47.181  27.044  37.059  1.00  0.00    -0.200 F 
ENDBRANCH  62  85
ENDBRANCH  36  37
ENDBRANCH  28  31
ENDBRANCH  26  27
ENDBRANCH  25  26
ENDBRANCH   1  25
TORSDOF 14
ENDMDL
MODEL 2
REMARK VINA RESULT:     -12.7      0.033      1.114
REMARK SMILES C[C@@H]1CCCN(C(=O)c2ccncc2/C=C/C(=O)NCCCCNC(=O)c2ccc(-c3c4nc(c(-c5c(F)c(F)c(F)c(F)c5F)c5ccc([nH]5)c(-c5c(F)c(F)c(F)c(F)c5F)c5nc(c(-c6c(F)c(F)c(F)c(F)c6F)c6ccc3[nH]6)C=C5)C=C4)cc2)[C@@H]1C
REMARK SMILES IDX 21 1 20 2 19 3 17 4 18 5 16 7 15 8 14 9 9 10 10 11 11 12
REMARK SMILES IDX 13 13 12 14 7 15 8 16 6 17 1 18 2 19 3 20 90 21 4 22 91 23
REMARK SMILES IDX 5 24 22 25 23 26 24 27 25 28 26 30 27 31 28 32 89 33 29 34
REMARK SMILES IDX 88 35 30 36 31 37 32 38 82 39 33 40 87 41 81 42 83 43 34 44
REMARK SMILES IDX 86 45 80 46 79 47 35 49 67 50 47 51 66 52 48 53 51 54 65 55
REMARK SMILES IDX 84 56 49 57 50 58 64 60 85 61 52 62 36 63 37 64 45 65 38 66
REMARK SMILES IDX 39 67 43 68 46 69 40 70 41 71 44 72 42 73 68 74 69 75 77 76
REMARK SMILES IDX 70 77 71 78 75 79 78 80 72 81 73 82 76 83 74 84 53 85 54 86
REMARK SMILES IDX 62 87 55 88 56 89 60 90 63 91 57 92 58 93 61 94 59 95
REMARK H PARENT 19 6 24 29 83 48 51 59
REMARK Flexibility Score: inf
ROOT
ATOM      1  C   UNL A   1      31.875  30.339  26.707  1.00  0.00     0.023 C 
ENDROOT
BRANCH   1   2
ATOM      2  C   UNL A   1      33.288  29.769  26.773  1.00  0.00     0.116 C 
BRANCH   2   3
ATOM      3  N   UNL A   1      33.751  29.403  25.447  1.00  0.00    -0.353 N 
ATOM      4  C   UNL A   1      33.599  28.232  24.772  1.00  0.00     0.244 C 
ATOM      5  O   UNL A   1      34.012  28.125  23.621  1.00  0.00    -0.270 OA
ATOM      6  H   UNL A   1      34.246  30.105  24.966  1.00  0.00     0.163 HD
BRANCH   4   7
ATOM      7  C   UNL A   1      32.844  27.112  25.380  1.00  0.00     0.072 C 
ATOM      8  C   UNL A   1      32.550  25.968  24.742  1.00  0.00     0.016 C 
BRANCH   8   9
ATOM      9  C   UNL A   1      31.806  24.862  25.369  1.00  0.00     0.006 A 
ATOM     10  C   UNL A   1      31.933  23.523  24.966  1.00  0.00     0.050 A 
ATOM     11  C   UNL A   1      31.240  22.507  25.636  1.00  0.00     0.034 A 
ATOM     12  C   UNL A   1      30.368  22.870  26.643  1.00  0.00     0.112 A 
ATOM     13  C   UNL A   1      30.884  25.103  26.385  1.00  0.00     0.119 A 
ATOM     14  N   UNL A   1      30.161  24.148  27.019  1.00  0.00    -0.264 NA
BRANCH  10  15
ATOM     15  C   UNL A   1      32.847  23.129  23.866  1.00  0.00     0.254 C 
ATOM     16  O   UNL A   1      32.344  23.053  22.748  1.00  0.00    -0.269 OA
BRANCH  15  17
ATOM     17  N   UNL A   1      34.195  22.883  24.159  1.00  0.00    -0.336 N 
ATOM     18  C   UNL A   1      34.367  21.965  27.155  1.00  0.00     0.010 C 
ATOM     19  C   UNL A   1      35.365  21.697  26.028  1.00  0.00     0.008 C 
ATOM     20  C   UNL A   1      36.445  22.792  25.997  1.00  0.00     0.007 C 
ATOM     21  C   UNL A   1      34.697  21.567  24.631  1.00  0.00     0.085 C 
ATOM     22  C   UNL A   1      35.906  24.112  25.454  1.00  0.00     0.022 C 
ATOM     23  C   UNL A   1      33.743  20.370  24.564  1.00  0.00     0.031 C 
ATOM     24  C   UNL A   1      35.237  23.919  24.098  1.00  0.00     0.120 C 
ENDBRANCH  15  17
ENDBRANCH  10  15
ENDBRANCH   8   9
ENDBRANCH   4   7
ENDBRANCH   2   3
ENDBRANCH   1   2
BRANCH   1  25
ATOM     25  C   UNL A   1      31.792  31.857  26.551  1.00  0.00     0.023 C 
BRANCH  25  26
ATOM     26  C   UNL A   1      32.838  32.634  27.341  1.00  0.00     0.116 C 
BRANCH  26  27
ATOM     27  N   UNL A   1      32.445  34.003  27.644  1.00  0.00    -0.352 N 
ATOM     28  C   UNL A   1      32.983  34.872  28.566  1.00  0.00     0.251 C 
ATOM     29  H   UNL A   1      31.691  34.355  27.119  1.00  0.00     0.163 HD
ATOM     30  O   UNL A   1      32.469  35.965  28.766  1.00  0.00    -0.269 OA
BRANCH  28  31
ATOM     31  C   UNL A   1      34.164  34.453  29.356  1.00  0.00     0.039 A 
ATOM     32  C   UNL A   1      33.962  33.891  30.620  1.00  0.00     0.014 A 
ATOM     33  C   UNL A   1      35.455  34.574  28.840  1.00  0.00     0.014 A 
ATOM     34  C   UNL A   1      35.047  33.368  31.324  1.00  0.00     0.010 A 
ATOM     35  C   UNL A   1      36.523  33.981  29.505  1.00  0.00     0.010 A 
ATOM     36  C   UNL A   1      36.329  33.365  30.750  1.00  0.00    -0.014 A 
BRANCH  36  37
ATOM     37  C   UNL A   1      37.476  32.706  31.423  1.00  0.00     0.031 A 
ATOM     38  C   UNL A   1      38.170  31.544  30.770  1.00  0.00     0.074 A 
ATOM     39  C   UNL A   1      37.834  33.098  32.661  1.00  0.00     0.049 A 
ATOM     40  N   UNL A   1      39.133  30.788  31.234  1.00  0.00    -0.248 NA
ATOM     41  C   UNL A   1      37.696  31.159  29.432  1.00  0.00     0.031 C 
ATOM     42  C   UNL A   1      37.193  34.168  33.428  1.00  0.00     0.029 A 
ATOM     43  N   UNL A   1      38.817  32.635  33.499  1.00  0.00    -0.354 N 
ATOM     44  C   UNL A   1      39.363  29.829  30.257  1.00  0.00     0.074 A 
ATOM     45  C   UNL A   1      38.406  30.065  29.198  1.00  0.00     0.031 C 
ATOM     46  C   UNL A   1      37.814  34.296  34.611  1.00  0.00     0.029 A 
ATOM     47  C   UNL A   1      38.874  33.297  34.701  1.00  0.00     0.049 A 
ATOM     48  H   UNL A   1      39.423  31.897  33.261  1.00  0.00     0.167 HD
ATOM     49  C   UNL A   1      40.303  28.855  30.235  1.00  0.00     0.037 A 
ATOM     50  C   UNL A   1      39.690  33.116  35.757  1.00  0.00     0.037 A 
ATOM     51  C   UNL A   1      41.279  28.649  31.272  1.00  0.00     0.049 A 
ATOM     52  C   UNL A   1      40.745  32.047  35.695  1.00  0.00     0.074 A 
ATOM     53  C   UNL A   1      42.321  27.740  31.309  1.00  0.00     0.029 A 
ATOM     54  N   UNL A   1      41.332  29.367  32.458  1.00  0.00    -0.354 N 
ATOM     55  N   UNL A   1      41.004  31.196  34.732  1.00  0.00    -0.248 NA
ATOM     56  C   UNL A   1      41.627  31.918  36.863  1.00  0.00     0.031 C 
ATOM     57  C   UNL A   1      42.986  27.885  32.531  1.00  0.00     0.029 A 
ATOM     58  C   UNL A   1      42.380  28.911  33.240  1.00  0.00     0.049 A 
ATOM     59  H   UNL A   1      40.715  30.093  32.707  1.00  0.00     0.167 HD
ATOM     60  C   UNL A   1      42.091  30.450  35.164  1.00  0.00     0.074 A 
ATOM     61  C   UNL A   1      42.452  30.955  36.472  1.00  0.00     0.031 C 
ATOM     62  C   UNL A   1      42.731  29.435  34.534  1.00  0.00     0.037 A 
BRANCH  49  63
ATOM     63  C   UNL A   1      40.330  27.946  29.043  1.00  0.00     0.064 A 
ATOM     64  C   UNL A   1      39.594  26.752  29.013  1.00  0.00     0.173 A 
ATOM     65  C   UNL A   1      41.075  28.286  27.903  1.00  0.00     0.173 A 
ATOM     66  F   UNL A   1      38.874  26.376  30.081  1.00  0.00    -0.203 F 
ATOM     67  C   UNL A   1      39.626  25.917  27.899  1.00  0.00     0.198 A 
ATOM     68  C   UNL A   1      41.083  27.463  26.780  1.00  0.00     0.198 A 
ATOM     69  F   UNL A   1      41.792  29.419  27.877  1.00  0.00    -0.203 F 
ATOM     70  F   UNL A   1      38.954  24.758  27.913  1.00  0.00    -0.200 F 
ATOM     71  C   UNL A   1      40.365  26.276  26.782  1.00  0.00     0.200 A 
ATOM     72  F   UNL A   1      41.788  27.816  25.697  1.00  0.00    -0.200 F 
ATOM     73  F   UNL A   1      40.391  25.474  25.709  1.00  0.00    -0.200 F 
ENDBRANCH  49  63
BRANCH  50  74
ATOM     74  C   UNL A   1      39.565  33.995  36.948  1.00  0.00     0.064 A 
ATOM     75  C   UNL A   1      40.210  35.239  36.989  1.00  0.00     0.173 A 
ATOM     76  C   UNL A   1      38.802  33.618  38.061  1.00  0.00     0.173 A 
ATOM     77  F   UNL A   1      40.967  35.635  35.955  1.00  0.00    -0.203 F 
ATOM     78  C   UNL A   1      40.110  36.066  38.107  1.00  0.00     0.198 A 
ATOM     79  C   UNL A   1      38.682  34.455  39.168  1.00  0.00     0.198 A 
ATOM     80  F   UNL A   1      38.161  32.440  38.068  1.00  0.00    -0.203 F 
ATOM     81  F   UNL A   1      40.769  37.232  38.135  1.00  0.00    -0.200 F 
ATOM     82  C   UNL A   1      39.341  35.675  39.193  1.00  0.00     0.200 A 
ATOM     83  F   UNL A   1      37.929  34.081  40.211  1.00  0.00    -0.200 F 
ATOM     84  F   UNL A   1      39.243  36.471  40.266  1.00  0.00    -0.200 F 
ENDBRANCH  50  74
BRANCH  62  85
ATOM     85  C   UNL A   1      43.908  28.825  35.236  1.00  0.00     0.064 A 
ATOM     86  C   UNL A   1      43.759  27.733  36.102  1.00  0.00     0.173 A 
ATOM     87  C   UNL A   1      45.203  29.309  34.999  1.00  0.00     0.173 A 
ATOM     88  F   UNL A   1      42.539  27.246  36.370  1.00  0.00    -0.203 F 
ATOM     89  C   UNL A   1      44.866  27.159  36.721  1.00  0.00     0.198 A 
ATOM     90  C   UNL A   1      46.309  28.716  35.600  1.00  0.00     0.198 A 
ATOM     91  F   UNL A   1      45.396  30.350  34.175  1.00  0.00    -0.203 F 
ATOM     92  F   UNL A   1      44.698  26.139  37.576  1.00  0.00    -0.200 F 
ATOM     93  C   UNL A   1      46.139  27.645  36.465  1.00  0.00     0.200 A 
ATOM     94  F   UNL A   1      47.539  29.180  35.343  1.00  0.00    -0.200 F 
ATOM     95  F   UNL A   1      47.203  27.085  37.056  1.00  0.00    -0.200 F 
ENDBRANCH  62  85
ENDBRANCH  36  37
ENDBRANCH  28  31
ENDBRANCH  26  27
ENDBRANCH  25  26
ENDBRANCH   1  25
TORSDOF 14
ENDMDL
MODEL 3
REMARK VINA RESULT:     -12.7      0.107      1.932
REMARK SMILES C[C@@H]1CCCN(C(=O)c2ccncc2/C=C/C(=O)NCCCCNC(=O)c2ccc(-c3c4nc(c(-c5c(F)c(F)c(F)c(F)c5F)c5ccc([nH]5)c(-c5c(F)c(F)c(F)c(F)c5F)c5nc(c(-c6c(F)c(F)c(F)c(F)c6F)c6ccc3[nH]6)C=C5)C=C4)cc2)[C@@H]1C
REMARK SMILES IDX 21 1 20 2 19 3 17 4 18 5 16 7 15 8 14 9 9 10 10 11 11 12
REMARK SMILES IDX 13 13 12 14 7 15 8 16 6 17 1 18 2 19 3 20 90 21 4 22 91 23
REMARK SMILES IDX 5 24 22 25 23 26 24 27 25 28 26 30 27 31 28 32 89 33 29 34
REMARK SMILES IDX 88 35 30 36 31 37 32 38 82 39 33 40 87 41 81 42 83 43 34 44
REMARK SMILES IDX 86 45 80 46 79 47 35 49 67 50 47 51 66 52 48 53 51 54 65 55
REMARK SMILES IDX 84 56 49 57 50 58 64 60 85 61 52 62 36 63 37 64 45 65 38 66
REMARK SMILES IDX 39 67 43 68 46 69 40 70 41 71 44 72 42 73 68 74 69 75 77 76
REMARK SMILES IDX 70 77 71 78 75 79 78 80 72 81 73 82 76 83 74 84 53 85 54 86
REMARK SMILES IDX 62 87 55 88 56 89 60 90 63 91 57 92 58 93 61 94 59 95
REMARK H PARENT 19 6 24 29 83 48 51 59
REMARK Flexibility Score: inf
ROOT
ATOM      1  C   UNL A   1      31.845  30.283  26.643  1.00  0.00     0.023 C 
ENDROOT
BRANCH   1   2
ATOM      2  C   UNL A   1      33.262  29.727  26.731  1.00  0.00     0.116 C 
BRANCH   2   3
ATOM      3  N   UNL A   1      33.748  29.360  25.414  1.00  0.00    -0.353 N 
ATOM      4  C   UNL A   1      33.592  28.195  24.729  1.00  0.00     0.244 C 
ATOM      5  O   UNL A   1      34.029  28.088  23.587  1.00  0.00    -0.270 OA
ATOM      6  H   UNL A   1      34.265  30.056  24.947  1.00  0.00     0.163 HD
BRANCH   4   7
ATOM      7  C   UNL A   1      32.806  27.085  25.314  1.00  0.00     0.072 C 
ATOM      8  C   UNL A   1      32.561  25.924  24.687  1.00  0.00     0.016 C 
BRANCH   8   9
ATOM      9  C   UNL A   1      31.784  24.827  25.292  1.00  0.00     0.006 A 
ATOM     10  C   UNL A   1      31.918  23.485  24.904  1.00  0.00     0.050 A 
ATOM     11  C   UNL A   1      31.191  22.479  25.553  1.00  0.00     0.034 A 
ATOM     12  C   UNL A   1      30.281  22.855  26.521  1.00  0.00     0.112 A 
ATOM     13  C   UNL A   1      30.823  25.083  26.267  1.00  0.00     0.119 A 
ATOM     14  N   UNL A   1      30.068  24.137  26.878  1.00  0.00    -0.264 NA
BRANCH  10  15
ATOM     15  C   UNL A   1      32.875  23.076  23.846  1.00  0.00     0.254 C 
ATOM     16  O   UNL A   1      32.415  22.986  22.711  1.00  0.00    -0.269 OA
BRANCH  15  17
ATOM     17  N   UNL A   1      34.209  22.831  24.195  1.00  0.00    -0.336 N 
ATOM     18  C   UNL A   1      34.263  21.964  27.210  1.00  0.00     0.010 C 
ATOM     19  C   UNL A   1      35.303  21.675  26.127  1.00  0.00     0.008 C 
ATOM     20  C   UNL A   1      36.387  22.766  26.119  1.00  0.00     0.007 C 
ATOM     21  C   UNL A   1      34.689  21.522  24.708  1.00  0.00     0.085 C 
ATOM     22  C   UNL A   1      35.874  24.078  25.534  1.00  0.00     0.022 C 
ATOM     23  C   UNL A   1      33.735  20.327  24.625  1.00  0.00     0.031 C 
ATOM     24  C   UNL A   1      35.256  23.864  24.156  1.00  0.00     0.120 C 
ENDBRANCH  15  17
ENDBRANCH  10  15
ENDBRANCH   8   9
ENDBRANCH   4   7
ENDBRANCH   2   3
ENDBRANCH   1   2
BRANCH   1  25
ATOM     25  C   UNL A   1      31.747  31.804  26.550  1.00  0.00     0.023 C 
BRANCH  25  26
ATOM     26  C   UNL A   1      32.789  32.558  27.368  1.00  0.00     0.116 C 
BRANCH  26  27
ATOM     27  N   UNL A   1      32.438  33.947  27.627  1.00  0.00    -0.352 N 
ATOM     28  C   UNL A   1      33.009  34.832  28.514  1.00  0.00     0.251 C 
ATOM     29  H   UNL A   1      31.689  34.302  27.096  1.00  0.00     0.163 HD
ATOM     30  O   UNL A   1      32.528  35.945  28.680  1.00  0.00    -0.269 OA
BRANCH  28  31
ATOM     31  C   UNL A   1      34.185  34.407  29.307  1.00  0.00     0.039 A 
ATOM     32  C   UNL A   1      33.979  33.876  30.583  1.00  0.00     0.014 A 
ATOM     33  C   UNL A   1      35.476  34.492  28.782  1.00  0.00     0.014 A 
ATOM     34  C   UNL A   1      35.057  33.347  31.294  1.00  0.00     0.010 A 
ATOM     35  C   UNL A   1      36.536  33.893  29.455  1.00  0.00     0.010 A 
ATOM     36  C   UNL A   1      36.336  33.307  30.714  1.00  0.00    -0.014 A 
BRANCH  36  37
ATOM     37  C   UNL A   1      37.473  32.640  31.396  1.00  0.00     0.031 A 
ATOM     38  C   UNL A   1      38.168  31.477  30.746  1.00  0.00     0.074 A 
ATOM     39  C   UNL A   1      37.821  33.027  32.639  1.00  0.00     0.049 A 
ATOM     40  N   UNL A   1      39.123  30.716  31.216  1.00  0.00    -0.248 NA
ATOM     41  C   UNL A   1      37.706  31.100  29.402  1.00  0.00     0.031 C 
ATOM     42  C   UNL A   1      37.177  34.097  33.403  1.00  0.00     0.029 A 
ATOM     43  N   UNL A   1      38.793  32.556  33.485  1.00  0.00    -0.354 N 
ATOM     44  C   UNL A   1      39.358  29.759  30.238  1.00  0.00     0.074 A 
ATOM     45  C   UNL A   1      38.413  30.003  29.171  1.00  0.00     0.031 C 
ATOM     46  C   UNL A   1      37.787  34.217  34.593  1.00  0.00     0.029 A 
ATOM     47  C   UNL A   1      38.841  33.213  34.690  1.00  0.00     0.049 A 
ATOM     48  H   UNL A   1      39.399  31.816  33.250  1.00  0.00     0.167 HD
ATOM     49  C   UNL A   1      40.294  28.781  30.222  1.00  0.00     0.037 A 
ATOM     50  C   UNL A   1      39.646  33.025  35.753  1.00  0.00     0.037 A 
ATOM     51  C   UNL A   1      41.259  28.566  31.268  1.00  0.00     0.049 A 
ATOM     52  C   UNL A   1      40.697  31.951  35.698  1.00  0.00     0.074 A 
ATOM     53  C   UNL A   1      42.296  27.652  31.311  1.00  0.00     0.029 A 
ATOM     54  N   UNL A   1      41.303  29.280  32.457  1.00  0.00    -0.354 N 
ATOM     55  N   UNL A   1      40.962  31.103  34.734  1.00  0.00    -0.248 NA
ATOM     56  C   UNL A   1      41.567  31.813  36.874  1.00  0.00     0.031 C 
ATOM     57  C   UNL A   1      42.949  27.790  32.541  1.00  0.00     0.029 A 
ATOM     58  C   UNL A   1      42.342  28.817  33.247  1.00  0.00     0.049 A 
ATOM     59  H   UNL A   1      40.687  30.008  32.703  1.00  0.00     0.167 HD
ATOM     60  C   UNL A   1      42.040  30.350  35.174  1.00  0.00     0.074 A 
ATOM     61  C   UNL A   1      42.391  30.849  36.487  1.00  0.00     0.031 C 
ATOM     62  C   UNL A   1      42.682  29.334  34.547  1.00  0.00     0.037 A 
BRANCH  49  63
ATOM     63  C   UNL A   1      40.328  27.876  29.026  1.00  0.00     0.064 A 
ATOM     64  C   UNL A   1      41.079  28.197  27.885  1.00  0.00     0.173 A 
ATOM     65  C   UNL A   1      39.628  26.661  29.031  1.00  0.00     0.173 A 
ATOM     66  F   UNL A   1      41.756  29.353  27.825  1.00  0.00    -0.203 F 
ATOM     67  C   UNL A   1      41.103  27.348  26.781  1.00  0.00     0.198 A 
ATOM     68  C   UNL A   1      39.677  25.801  27.937  1.00  0.00     0.198 A 
ATOM     69  F   UNL A   1      38.900  26.303  30.100  1.00  0.00    -0.203 F 
ATOM     70  F   UNL A   1      41.786  27.699  25.683  1.00  0.00    -0.200 F 
ATOM     71  C   UNL A   1      40.407  26.149  26.811  1.00  0.00     0.200 A 
ATOM     72  F   UNL A   1      39.015  24.637  27.970  1.00  0.00    -0.200 F 
ATOM     73  F   UNL A   1      40.436  25.331  25.750  1.00  0.00    -0.200 F 
ENDBRANCH  49  63
BRANCH  50  74
ATOM     74  C   UNL A   1      39.513  33.900  36.946  1.00  0.00     0.064 A 
ATOM     75  C   UNL A   1      40.133  35.157  36.983  1.00  0.00     0.173 A 
ATOM     76  C   UNL A   1      38.767  33.506  38.065  1.00  0.00     0.173 A 
ATOM     77  F   UNL A   1      40.874  35.568  35.943  1.00  0.00    -0.203 F 
ATOM     78  C   UNL A   1      40.027  35.980  38.102  1.00  0.00     0.198 A 
ATOM     79  C   UNL A   1      38.640  34.340  39.174  1.00  0.00     0.198 A 
ATOM     80  F   UNL A   1      38.150  32.316  38.076  1.00  0.00    -0.203 F 
ATOM     81  F   UNL A   1      40.661  37.159  38.126  1.00  0.00    -0.200 F 
ATOM     82  C   UNL A   1      39.275  35.573  39.195  1.00  0.00     0.200 A 
ATOM     83  F   UNL A   1      37.903  33.950  40.223  1.00  0.00    -0.200 F 
ATOM     84  F   UNL A   1      39.169  36.366  40.269  1.00  0.00    -0.200 F 
ENDBRANCH  50  74
BRANCH  62  85
ATOM     85  C   UNL A   1      43.849  28.716  35.258  1.00  0.00     0.064 A 
ATOM     86  C   UNL A   1      45.153  29.198  35.080  1.00  0.00     0.173 A 
ATOM     87  C   UNL A   1      43.651  27.663  36.163  1.00  0.00     0.173 A 
ATOM     88  F   UNL A   1      45.393  30.193  34.214  1.00  0.00    -0.203 F 
ATOM     89  C   UNL A   1      46.222  28.633  35.771  1.00  0.00     0.198 A 
ATOM     90  C   UNL A   1      44.718  27.118  36.870  1.00  0.00     0.198 A 
ATOM     91  F   UNL A   1      42.420  27.171  36.370  1.00  0.00    -0.203 F 
ATOM     92  F   UNL A   1      47.467  29.084  35.559  1.00  0.00    -0.200 F 
ATOM     93  C   UNL A   1      46.003  27.600  36.670  1.00  0.00     0.200 A 
ATOM     94  F   UNL A   1      44.504  26.127  37.746  1.00  0.00    -0.200 F 
ATOM     95  F   UNL A   1      47.033  27.064  37.340  1.00  0.00    -0.200 F 
ENDBRANCH  62  85
ENDBRANCH  36  37
ENDBRANCH  28  31
ENDBRANCH  26  27
ENDBRANCH  25  26
ENDBRANCH   1  25
TORSDOF 14
ENDMDL
