MODEL 1
REMARK VINA RESULT:     -12.3      0.000      0.000
REMARK SMILES Cc1cccc(C[NH+]2CCC(OCC(=O)NCCCCNC(=O)c3ccc(-c4c5nc(c(-c6c(F)c(F)c(F)c(F)c6F)c6ccc([nH]6)c(-c6c(F)c(F)c(F)c(F)c6F)c6nc(c(-c7c(F)c(F)c(F)c(F)c7F)c7ccc4[nH]7)C=C6)C=C5)cc3)CC2)n1
REMARK SMILES IDX 17 1 16 2 14 3 15 4 13 6 12 7 11 8 8 9 9 10 88 11 10 13
REMARK SMILES IDX 87 14 7 15 6 16 1 17 2 18 3 19 89 20 4 21 5 22 18 23 19 24
REMARK SMILES IDX 20 25 21 26 22 27 23 29 24 30 25 31 86 32 26 33 85 34 27 35
REMARK SMILES IDX 28 36 29 37 79 38 30 39 84 40 78 41 80 42 31 43 83 44 77 45
REMARK SMILES IDX 76 46 32 48 64 49 44 50 63 51 45 52 48 53 62 54 81 55 46 56
REMARK SMILES IDX 47 57 61 59 82 60 49 61 33 62 34 63 42 64 35 65 36 66 40 67
REMARK SMILES IDX 43 68 37 69 38 70 41 71 39 72 65 73 66 74 74 75 67 76 68 77
REMARK SMILES IDX 72 78 75 79 69 80 70 81 73 82 71 83 50 84 51 85 59 86 52 87
REMARK SMILES IDX 53 88 57 89 60 90 54 91 55 92 58 93 56 94
REMARK H PARENT 16 5 8 12 21 28 80 47 48 58
REMARK Flexibility Score: inf
ROOT
ATOM      1  C   UNL A   1      33.325  29.869  26.524  1.00  0.00     0.116 C 
ENDROOT
BRANCH   1   2
ATOM      2  N   UNL A   1      33.711  29.311  25.244  1.00  0.00    -0.354 N 
ATOM      3  C   UNL A   1      33.763  27.998  24.870  1.00  0.00     0.246 C 
ATOM      4  O   UNL A   1      33.946  27.732  23.680  1.00  0.00    -0.272 OA
ATOM      5  H   UNL A   1      33.971  29.964  24.553  1.00  0.00     0.163 HD
BRANCH   3   6
ATOM      6  C   UNL A   1      33.574  26.898  25.923  1.00  0.00     0.260 C 
BRANCH   6   7
ATOM      7  O   UNL A   1      34.246  25.667  25.714  1.00  0.00    -0.368 OA
BRANCH   7   8
ATOM      8  C   UNL A   1      33.458  24.471  25.702  1.00  0.00     0.130 C 
ATOM      9  N   UNL A   1      32.837  21.697  25.151  1.00  0.00    -0.330 N 
ATOM     10  C   UNL A   1      32.176  22.747  24.370  1.00  0.00     0.265 C 
ATOM     11  C   UNL A   1      33.110  22.138  26.524  1.00  0.00     0.265 C 
ATOM     12  H   UNL A   1      33.730  21.523  24.690  1.00  0.00     0.348 HD
ATOM     13  C   UNL A   1      33.059  24.002  24.299  1.00  0.00     0.093 C 
ATOM     14  C   UNL A   1      34.063  23.320  26.502  1.00  0.00     0.093 C 
BRANCH   9  15
ATOM     15  C   UNL A   1      32.114  20.405  25.127  1.00  0.00     0.319 C 
BRANCH  15  16
ATOM     16  C   UNL A   1      32.963  19.146  25.049  1.00  0.00     0.095 A 
ATOM     17  C   UNL A   1      32.366  15.582  25.722  1.00  0.00     0.067 C 
ATOM     18  C   UNL A   1      33.094  16.836  25.346  1.00  0.00     0.038 A 
ATOM     19  C   UNL A   1      34.369  16.802  24.803  1.00  0.00     0.023 A 
ATOM     20  N   UNL A   1      32.405  17.989  25.494  1.00  0.00    -0.252 NA
ATOM     21  C   UNL A   1      34.955  17.997  24.396  1.00  0.00     0.004 A 
ATOM     22  C   UNL A   1      34.243  19.186  24.510  1.00  0.00     0.030 A 
ENDBRANCH  15  16
ENDBRANCH   9  15
ENDBRANCH   7   8
ENDBRANCH   6   7
ENDBRANCH   3   6
ENDBRANCH   1   2
BRANCH   1  23
ATOM     23  C   UNL A   1      31.863  30.309  26.597  1.00  0.00     0.023 C 
BRANCH  23  24
ATOM     24  C   UNL A   1      31.626  31.815  26.728  1.00  0.00     0.023 C 
BRANCH  24  25
ATOM     25  C   UNL A   1      32.788  32.621  27.297  1.00  0.00     0.116 C 
BRANCH  25  26
ATOM     26  N   UNL A   1      32.433  33.994  27.621  1.00  0.00    -0.352 N 
ATOM     27  C   UNL A   1      33.013  34.849  28.528  1.00  0.00     0.251 C 
ATOM     28  H   UNL A   1      31.670  34.362  27.120  1.00  0.00     0.163 HD
ATOM     29  O   UNL A   1      32.519  35.952  28.742  1.00  0.00    -0.269 OA
BRANCH  27  30
ATOM     30  C   UNL A   1      34.213  34.424  29.278  1.00  0.00     0.039 A 
ATOM     31  C   UNL A   1      34.046  33.790  30.513  1.00  0.00     0.014 A 
ATOM     32  C   UNL A   1      35.494  34.631  28.761  1.00  0.00     0.014 A 
ATOM     33  C   UNL A   1      35.159  33.290  31.193  1.00  0.00     0.010 A 
ATOM     34  C   UNL A   1      36.596  34.076  29.408  1.00  0.00     0.010 A 
ATOM     35  C   UNL A   1      36.438  33.393  30.625  1.00  0.00    -0.014 A 
BRANCH  35  36
ATOM     36  C   UNL A   1      37.629  32.784  31.266  1.00  0.00     0.031 A 
ATOM     37  C   UNL A   1      38.330  31.632  30.606  1.00  0.00     0.074 A 
ATOM     38  C   UNL A   1      38.011  33.195  32.490  1.00  0.00     0.049 A 
ATOM     39  N   UNL A   1      39.281  30.863  31.069  1.00  0.00    -0.248 NA
ATOM     40  C   UNL A   1      37.876  31.280  29.253  1.00  0.00     0.031 C 
ATOM     41  C   UNL A   1      37.383  34.274  33.254  1.00  0.00     0.029 A 
ATOM     42  N   UNL A   1      39.001  32.731  33.322  1.00  0.00    -0.354 N 
ATOM     43  C   UNL A   1      39.522  29.923  30.079  1.00  0.00     0.074 A 
ATOM     44  C   UNL A   1      38.588  30.191  29.005  1.00  0.00     0.031 C 
ATOM     45  C   UNL A   1      37.999  34.387  34.442  1.00  0.00     0.029 A 
ATOM     46  C   UNL A   1      39.036  33.365  34.540  1.00  0.00     0.049 A 
ATOM     47  H   UNL A   1      39.626  32.014  33.069  1.00  0.00     0.167 HD
ATOM     48  C   UNL A   1      40.448  28.934  30.059  1.00  0.00     0.037 A 
ATOM     49  C   UNL A   1      39.801  33.131  35.623  1.00  0.00     0.037 A 
ATOM     50  C   UNL A   1      41.391  28.689  31.118  1.00  0.00     0.049 A 
ATOM     51  C   UNL A   1      40.826  32.031  35.579  1.00  0.00     0.074 A 
ATOM     52  C   UNL A   1      42.411  27.756  31.166  1.00  0.00     0.029 A 
ATOM     53  N   UNL A   1      41.425  29.382  32.320  1.00  0.00    -0.354 N 
ATOM     54  N   UNL A   1      41.088  31.186  34.612  1.00  0.00    -0.248 NA
ATOM     55  C   UNL A   1      41.664  31.854  36.774  1.00  0.00     0.031 C 
ATOM     56  C   UNL A   1      43.038  27.856  32.412  1.00  0.00     0.029 A 
ATOM     57  C   UNL A   1      42.438  28.883  33.124  1.00  0.00     0.049 A 
ATOM     58  H   UNL A   1      40.819  30.118  32.565  1.00  0.00     0.167 HD
ATOM     59  C   UNL A   1      42.132  30.394  35.068  1.00  0.00     0.074 A 
ATOM     60  C   UNL A   1      42.463  30.865  36.397  1.00  0.00     0.031 C 
ATOM     61  C   UNL A   1      42.760  29.370  34.441  1.00  0.00     0.037 A 
BRANCH  48  62
ATOM     62  C   UNL A   1      40.481  28.045  28.851  1.00  0.00     0.064 A 
ATOM     63  C   UNL A   1      39.759  26.843  28.801  1.00  0.00     0.173 A 
ATOM     64  C   UNL A   1      41.230  28.407  27.721  1.00  0.00     0.173 A 
ATOM     65  F   UNL A   1      39.036  26.446  29.859  1.00  0.00    -0.203 F 
ATOM     66  C   UNL A   1      39.815  26.019  27.681  1.00  0.00     0.198 A 
ATOM     67  C   UNL A   1      41.259  27.596  26.589  1.00  0.00     0.198 A 
ATOM     68  F   UNL A   1      41.933  29.550  27.712  1.00  0.00    -0.203 F 
ATOM     69  F   UNL A   1      39.163  24.848  27.679  1.00  0.00    -0.200 F 
ATOM     70  C   UNL A   1      40.561  26.398  26.575  1.00  0.00     0.200 A 
ATOM     71  F   UNL A   1      41.969  27.969  25.516  1.00  0.00    -0.200 F 
ATOM     72  F   UNL A   1      40.613  25.604  25.496  1.00  0.00    -0.200 F 
ENDBRANCH  48  62
BRANCH  49  73
ATOM     73  C   UNL A   1      39.627  33.967  36.839  1.00  0.00     0.064 A 
ATOM     74  C   UNL A   1      40.254  35.214  36.950  1.00  0.00     0.173 A 
ATOM     75  C   UNL A   1      38.816  33.545  37.903  1.00  0.00     0.173 A 
ATOM     76  F   UNL A   1      41.054  35.651  35.967  1.00  0.00    -0.203 F 
ATOM     77  C   UNL A   1      40.085  36.005  38.084  1.00  0.00     0.198 A 
ATOM     78  C   UNL A   1      38.628  34.348  39.026  1.00  0.00     0.198 A 
ATOM     79  F   UNL A   1      38.191  32.360  37.842  1.00  0.00    -0.203 F 
ATOM     80  F   UNL A   1      40.722  37.180  38.180  1.00  0.00    -0.200 F 
ATOM     81  C   UNL A   1      39.267  35.575  39.118  1.00  0.00     0.200 A 
ATOM     82  F   UNL A   1      37.826  33.934  40.016  1.00  0.00    -0.200 F 
ATOM     83  F   UNL A   1      39.097  36.341  40.205  1.00  0.00    -0.200 F 
ENDBRANCH  49  73
BRANCH  61  84
ATOM     84  C   UNL A   1      43.894  28.707  35.166  1.00  0.00     0.064 A 
ATOM     85  C   UNL A   1      45.206  29.191  35.075  1.00  0.00     0.173 A 
ATOM     86  C   UNL A   1      43.651  27.613  36.009  1.00  0.00     0.173 A 
ATOM     87  F   UNL A   1      45.490  30.225  34.268  1.00  0.00    -0.203 F 
ATOM     88  C   UNL A   1      46.239  28.595  35.795  1.00  0.00     0.198 A 
ATOM     89  C   UNL A   1      44.680  27.036  36.747  1.00  0.00     0.198 A 
ATOM     90  F   UNL A   1      42.411  27.116  36.133  1.00  0.00    -0.203 F 
ATOM     91  F   UNL A   1      47.492  29.053  35.671  1.00  0.00    -0.200 F 
ATOM     92  C   UNL A   1      45.973  27.525  36.637  1.00  0.00     0.200 A 
ATOM     93  F   UNL A   1      44.420  26.010  37.569  1.00  0.00    -0.200 F 
ATOM     94  F   UNL A   1      46.965  26.962  37.341  1.00  0.00    -0.200 F 
ENDBRANCH  61  84
ENDBRANCH  35  36
ENDBRANCH  27  30
ENDBRANCH  25  26
ENDBRANCH  24  25
ENDBRANCH  23  24
ENDBRANCH   1  23
TORSDOF 15
ENDMDL
MODEL 2
REMARK VINA RESULT:     -12.2      3.144      4.851
REMARK SMILES Cc1cccc(C[NH+]2CCC(OCC(=O)NCCCCNC(=O)c3ccc(-c4c5nc(c(-c6c(F)c(F)c(F)c(F)c6F)c6ccc([nH]6)c(-c6c(F)c(F)c(F)c(F)c6F)c6nc(c(-c7c(F)c(F)c(F)c(F)c7F)c7ccc4[nH]7)C=C6)C=C5)cc3)CC2)n1
REMARK SMILES IDX 17 1 16 2 14 3 15 4 13 6 12 7 11 8 8 9 9 10 88 11 10 13
REMARK SMILES IDX 87 14 7 15 6 16 1 17 2 18 3 19 89 20 4 21 5 22 18 23 19 24
REMARK SMILES IDX 20 25 21 26 22 27 23 29 24 30 25 31 86 32 26 33 85 34 27 35
REMARK SMILES IDX 28 36 29 37 79 38 30 39 84 40 78 41 80 42 31 43 83 44 77 45
REMARK SMILES IDX 76 46 32 48 64 49 44 50 63 51 45 52 48 53 62 54 81 55 46 56
REMARK SMILES IDX 47 57 61 59 82 60 49 61 33 62 34 63 42 64 35 65 36 66 40 67
REMARK SMILES IDX 43 68 37 69 38 70 41 71 39 72 65 73 66 74 74 75 67 76 68 77
REMARK SMILES IDX 72 78 75 79 69 80 70 81 73 82 71 83 50 84 51 85 59 86 52 87
REMARK SMILES IDX 53 88 57 89 60 90 54 91 55 92 58 93 56 94
REMARK H PARENT 16 5 8 12 21 28 80 47 48 58
REMARK Flexibility Score: inf
ROOT
ATOM      1  C   UNL A   1      32.208  29.655  27.269  1.00  0.00     0.116 C 
ENDROOT
BRANCH   1   2
ATOM      2  N   UNL A   1      33.635  29.619  27.519  1.00  0.00    -0.354 N 
ATOM      3  C   UNL A   1      34.542  28.678  27.125  1.00  0.00     0.246 C 
ATOM      4  O   UNL A   1      35.742  28.914  27.284  1.00  0.00    -0.272 OA
ATOM      5  H   UNL A   1      33.997  30.371  28.042  1.00  0.00     0.163 HD
BRANCH   3   6
ATOM      6  C   UNL A   1      34.056  27.371  26.483  1.00  0.00     0.260 C 
BRANCH   6   7
ATOM      7  O   UNL A   1      34.191  27.240  25.078  1.00  0.00    -0.368 OA
BRANCH   7   8
ATOM      8  C   UNL A   1      33.014  27.396  24.278  1.00  0.00     0.130 C 
ATOM      9  N   UNL A   1      30.427  28.461  23.525  1.00  0.00    -0.330 N 
ATOM     10  C   UNL A   1      30.518  27.088  24.031  1.00  0.00     0.265 C 
ATOM     11  C   UNL A   1      31.633  28.838  22.777  1.00  0.00     0.265 C 
ATOM     12  H   UNL A   1      30.365  29.061  24.348  1.00  0.00     0.348 HD
ATOM     13  C   UNL A   1      31.725  26.936  24.967  1.00  0.00     0.093 C 
ATOM     14  C   UNL A   1      32.841  28.797  23.695  1.00  0.00     0.093 C 
BRANCH   9  15
ATOM     15  C   UNL A   1      29.197  28.719  22.744  1.00  0.00     0.319 C 
BRANCH  15  16
ATOM     16  C   UNL A   1      28.853  30.174  22.468  1.00  0.00     0.095 A 
ATOM     17  C   UNL A   1      27.792  32.059  19.497  1.00  0.00     0.067 C 
ATOM     18  C   UNL A   1      28.193  31.783  20.913  1.00  0.00     0.038 A 
ATOM     19  C   UNL A   1      28.075  32.745  21.904  1.00  0.00     0.023 A 
ATOM     20  N   UNL A   1      28.600  30.522  21.178  1.00  0.00    -0.252 NA
ATOM     21  C   UNL A   1      28.386  32.397  23.215  1.00  0.00     0.004 A 
ATOM     22  C   UNL A   1      28.770  31.093  23.508  1.00  0.00     0.030 A 
ENDBRANCH  15  16
ENDBRANCH   9  15
ENDBRANCH   7   8
ENDBRANCH   6   7
ENDBRANCH   3   6
ENDBRANCH   1   2
BRANCH   1  23
ATOM     23  C   UNL A   1      31.781  30.706  26.244  1.00  0.00     0.023 C 
BRANCH  23  24
ATOM     24  C   UNL A   1      31.465  32.094  26.805  1.00  0.00     0.023 C 
BRANCH  24  25
ATOM     25  C   UNL A   1      32.643  32.846  27.416  1.00  0.00     0.116 C 
BRANCH  25  26
ATOM     26  N   UNL A   1      32.351  34.242  27.701  1.00  0.00    -0.352 N 
ATOM     27  C   UNL A   1      32.979  35.099  28.573  1.00  0.00     0.251 C 
ATOM     28  H   UNL A   1      31.597  34.626  27.198  1.00  0.00     0.163 HD
ATOM     29  O   UNL A   1      32.534  36.228  28.759  1.00  0.00    -0.269 OA
BRANCH  27  30
ATOM     30  C   UNL A   1      34.170  34.646  29.322  1.00  0.00     0.039 A 
ATOM     31  C   UNL A   1      34.001  34.147  30.617  1.00  0.00     0.014 A 
ATOM     32  C   UNL A   1      35.442  34.695  28.746  1.00  0.00     0.014 A 
ATOM     33  C   UNL A   1      35.097  33.620  31.306  1.00  0.00     0.010 A 
ATOM     34  C   UNL A   1      36.520  34.113  29.407  1.00  0.00     0.010 A 
ATOM     35  C   UNL A   1      36.356  33.562  30.689  1.00  0.00    -0.014 A 
BRANCH  35  36
ATOM     36  C   UNL A   1      37.519  32.917  31.347  1.00  0.00     0.031 A 
ATOM     37  C   UNL A   1      38.186  31.737  30.703  1.00  0.00     0.074 A 
ATOM     38  C   UNL A   1      37.903  33.325  32.572  1.00  0.00     0.049 A 
ATOM     39  N   UNL A   1      39.106  30.939  31.182  1.00  0.00    -0.248 NA
ATOM     40  C   UNL A   1      37.734  31.390  29.348  1.00  0.00     0.031 C 
ATOM     41  C   UNL A   1      37.305  34.430  33.321  1.00  0.00     0.029 A 
ATOM     42  N   UNL A   1      38.868  32.834  33.417  1.00  0.00    -0.354 N 
ATOM     43  C   UNL A   1      39.324  29.983  30.201  1.00  0.00     0.074 A 
ATOM     44  C   UNL A   1      38.411  30.274  29.116  1.00  0.00     0.031 C 
ATOM     45  C   UNL A   1      37.912  34.532  34.514  1.00  0.00     0.029 A 
ATOM     46  C   UNL A   1      38.913  33.475  34.631  1.00  0.00     0.049 A 
ATOM     47  H   UNL A   1      39.470  32.093  33.176  1.00  0.00     0.167 HD
ATOM     48  C   UNL A   1      40.216  28.963  30.198  1.00  0.00     0.037 A 
ATOM     49  C   UNL A   1      39.658  33.224  35.724  1.00  0.00     0.037 A 
ATOM     50  C   UNL A   1      41.139  28.693  31.268  1.00  0.00     0.049 A 
ATOM     51  C   UNL A   1      40.645  32.089  35.698  1.00  0.00     0.074 A 
ATOM     52  C   UNL A   1      42.126  27.726  31.335  1.00  0.00     0.029 A 
ATOM     53  N   UNL A   1      41.185  29.394  32.466  1.00  0.00    -0.354 N 
ATOM     54  N   UNL A   1      40.887  31.228  34.740  1.00  0.00    -0.248 NA
ATOM     55  C   UNL A   1      41.464  31.893  36.903  1.00  0.00     0.031 C 
ATOM     56  C   UNL A   1      42.743  27.815  32.586  1.00  0.00     0.029 A 
ATOM     57  C   UNL A   1      42.172  28.868  33.284  1.00  0.00     0.049 A 
ATOM     58  H   UNL A   1      40.602  30.154  32.699  1.00  0.00     0.167 HD
ATOM     59  C   UNL A   1      41.899  30.404  35.213  1.00  0.00     0.074 A 
ATOM     60  C   UNL A   1      42.233  30.874  36.542  1.00  0.00     0.031 C 
ATOM     61  C   UNL A   1      42.498  29.354  34.601  1.00  0.00     0.037 A 
BRANCH  48  62
ATOM     62  C   UNL A   1      40.231  28.063  28.998  1.00  0.00     0.064 A 
ATOM     63  C   UNL A   1      39.513  26.858  28.972  1.00  0.00     0.173 A 
ATOM     64  C   UNL A   1      40.956  28.419  27.851  1.00  0.00     0.173 A 
ATOM     65  F   UNL A   1      38.811  26.467  30.046  1.00  0.00    -0.203 F 
ATOM     66  C   UNL A   1      39.552  26.025  27.858  1.00  0.00     0.198 A 
ATOM     67  C   UNL A   1      40.968  27.598  26.726  1.00  0.00     0.198 A 
ATOM     68  F   UNL A   1      41.654  29.565  27.819  1.00  0.00    -0.203 F 
ATOM     69  F   UNL A   1      38.904  24.852  27.878  1.00  0.00    -0.200 F 
ATOM     70  C   UNL A   1      40.274  26.398  26.734  1.00  0.00     0.200 A 
ATOM     71  F   UNL A   1      41.657  27.965  25.637  1.00  0.00    -0.200 F 
ATOM     72  F   UNL A   1      40.310  25.594  25.662  1.00  0.00    -0.200 F 
ENDBRANCH  48  62
BRANCH  49  73
ATOM     73  C   UNL A   1      39.501  34.075  36.931  1.00  0.00     0.064 A 
ATOM     74  C   UNL A   1      38.724  33.649  38.015  1.00  0.00     0.173 A 
ATOM     75  C   UNL A   1      40.142  35.319  37.033  1.00  0.00     0.173 A 
ATOM     76  F   UNL A   1      38.077  32.476  37.956  1.00  0.00    -0.203 F 
ATOM     77  C   UNL A   1      38.584  34.440  39.154  1.00  0.00     0.198 A 
ATOM     78  C   UNL A   1      40.021  36.098  38.181  1.00  0.00     0.198 A 
ATOM     79  F   UNL A   1      40.901  35.768  36.023  1.00  0.00    -0.203 F 
ATOM     80  F   UNL A   1      37.807  34.025  40.164  1.00  0.00    -0.200 F 
ATOM     81  C   UNL A   1      39.238  35.661  39.239  1.00  0.00     0.200 A 
ATOM     82  F   UNL A   1      40.665  37.270  38.265  1.00  0.00    -0.200 F 
ATOM     83  F   UNL A   1      39.110  36.417  40.338  1.00  0.00    -0.200 F 
ENDBRANCH  49  73
BRANCH  61  84
ATOM     84  C   UNL A   1      43.601  28.658  35.342  1.00  0.00     0.064 A 
ATOM     85  C   UNL A   1      44.936  29.070  35.228  1.00  0.00     0.173 A 
ATOM     86  C   UNL A   1      43.307  27.608  36.224  1.00  0.00     0.173 A 
ATOM     87  F   UNL A   1      45.267  30.059  34.384  1.00  0.00    -0.203 F 
ATOM     88  C   UNL A   1      45.941  28.446  35.963  1.00  0.00     0.198 A 
ATOM     89  C   UNL A   1      44.310  27.003  36.976  1.00  0.00     0.198 A 
ATOM     90  F   UNL A   1      42.044  27.180  36.371  1.00  0.00    -0.203 F 
ATOM     91  F   UNL A   1      47.215  28.834  35.817  1.00  0.00    -0.200 F 
ATOM     92  C   UNL A   1      45.626  27.421  36.843  1.00  0.00     0.200 A 
ATOM     93  F   UNL A   1      44.003  26.021  37.834  1.00  0.00    -0.200 F 
ATOM     94  F   UNL A   1      46.592  26.831  37.560  1.00  0.00    -0.200 F 
ENDBRANCH  61  84
ENDBRANCH  35  36
ENDBRANCH  27  30
ENDBRANCH  25  26
ENDBRANCH  24  25
ENDBRANCH  23  24
ENDBRANCH   1  23
TORSDOF 15
ENDMDL
MODEL 3
REMARK VINA RESULT:     -12.2      4.824     11.043
REMARK SMILES Cc1cccc(C[NH+]2CCC(OCC(=O)NCCCCNC(=O)c3ccc(-c4c5nc(c(-c6c(F)c(F)c(F)c(F)c6F)c6ccc([nH]6)c(-c6c(F)c(F)c(F)c(F)c6F)c6nc(c(-c7c(F)c(F)c(F)c(F)c7F)c7ccc4[nH]7)C=C6)C=C5)cc3)CC2)n1
REMARK SMILES IDX 17 1 16 2 14 3 15 4 13 6 12 7 11 8 8 9 9 10 88 11 10 13
REMARK SMILES IDX 87 14 7 15 6 16 1 17 2 18 3 19 89 20 4 21 5 22 18 23 19 24
REMARK SMILES IDX 20 25 21 26 22 27 23 29 24 30 25 31 86 32 26 33 85 34 27 35
REMARK SMILES IDX 28 36 29 37 79 38 30 39 84 40 78 41 80 42 31 43 83 44 77 45
REMARK SMILES IDX 76 46 32 48 64 49 44 50 63 51 45 52 48 53 62 54 81 55 46 56
REMARK SMILES IDX 47 57 61 59 82 60 49 61 33 62 34 63 42 64 35 65 36 66 40 67
REMARK SMILES IDX 43 68 37 69 38 70 41 71 39 72 65 73 66 74 74 75 67 76 68 77
REMARK SMILES IDX 72 78 75 79 69 80 70 81 73 82 71 83 50 84 51 85 59 86 52 87
REMARK SMILES IDX 53 88 57 89 60 90 54 91 55 92 58 93 56 94
REMARK H PARENT 16 5 8 12 21 28 80 47 48 58
REMARK Flexibility Score: inf
ROOT
ATOM      1  C   UNL A   1      33.091  34.758  28.752  1.00  0.00     0.116 C 
ENDROOT
BRANCH   1   2
ATOM      2  N   UNL A   1      32.823  36.029  29.394  1.00  0.00    -0.354 N 
ATOM      3  C   UNL A   1      33.060  36.393  30.688  1.00  0.00     0.246 C 
ATOM      4  O   UNL A   1      32.926  37.578  31.000  1.00  0.00    -0.272 OA
ATOM      5  H   UNL A   1      32.416  36.720  28.822  1.00  0.00     0.163 HD
BRANCH   3   6
ATOM      6  C   UNL A   1      33.502  35.335  31.709  1.00  0.00     0.260 C 
BRANCH   6   7
ATOM      7  O   UNL A   1      34.010  35.793  32.951  1.00  0.00    -0.368 OA
BRANCH   7   8
ATOM      8  C   UNL A   1      35.267  35.267  33.391  1.00  0.00     0.130 C 
ATOM      9  N   UNL A   1      37.304  33.257  33.833  1.00  0.00    -0.330 N 
ATOM     10  C   UNL A   1      36.539  33.765  34.976  1.00  0.00     0.265 C 
ATOM     11  C   UNL A   1      37.492  34.291  32.809  1.00  0.00     0.265 C 
ATOM     12  H   UNL A   1      36.742  32.508  33.429  1.00  0.00     0.348 HD
ATOM     13  C   UNL A   1      35.152  34.244  34.526  1.00  0.00     0.093 C 
ATOM     14  C   UNL A   1      36.142  34.723  32.264  1.00  0.00     0.093 C 
BRANCH   9  15
ATOM     15  C   UNL A   1      38.590  32.632  34.219  1.00  0.00     0.319 C 
BRANCH  15  16
ATOM     16  C   UNL A   1      38.828  31.207  33.745  1.00  0.00     0.095 A 
ATOM     17  C   UNL A   1      41.678  28.888  33.860  1.00  0.00     0.067 C 
ATOM     18  C   UNL A   1      40.308  29.414  33.558  1.00  0.00     0.038 A 
ATOM     19  C   UNL A   1      39.309  28.593  33.057  1.00  0.00     0.023 A 
ATOM     20  N   UNL A   1      40.086  30.708  33.875  1.00  0.00    -0.252 NA
ATOM     21  C   UNL A   1      38.035  29.125  32.878  1.00  0.00     0.004 A 
ATOM     22  C   UNL A   1      37.784  30.445  33.235  1.00  0.00     0.030 A 
ENDBRANCH  15  16
ENDBRANCH   9  15
ENDBRANCH   7   8
ENDBRANCH   6   7
ENDBRANCH   3   6
ENDBRANCH   1   2
BRANCH   1  23
ATOM     23  C   UNL A   1      34.426  34.703  28.010  1.00  0.00     0.023 C 
BRANCH  23  24
ATOM     24  C   UNL A   1      35.134  33.346  28.011  1.00  0.00     0.023 C 
BRANCH  24  25
ATOM     25  C   UNL A   1      34.470  32.253  28.841  1.00  0.00     0.116 C 
BRANCH  25  26
ATOM     26  N   UNL A   1      34.003  31.128  28.046  1.00  0.00    -0.352 N 
ATOM     27  C   UNL A   1      34.691  30.012  27.633  1.00  0.00     0.251 C 
ATOM     28  H   UNL A   1      33.061  31.173  27.764  1.00  0.00     0.163 HD
ATOM     29  O   UNL A   1      34.161  29.202  26.880  1.00  0.00    -0.269 OA
BRANCH  27  30
ATOM     30  C   UNL A   1      36.090  29.807  28.066  1.00  0.00     0.039 A 
ATOM     31  C   UNL A   1      36.332  29.329  29.358  1.00  0.00     0.014 A 
ATOM     32  C   UNL A   1      37.155  30.065  27.200  1.00  0.00     0.014 A 
ATOM     33  C   UNL A   1      37.638  29.032  29.754  1.00  0.00     0.010 A 
ATOM     34  C   UNL A   1      38.448  29.709  27.573  1.00  0.00     0.010 A 
ATOM     35  C   UNL A   1      38.701  29.181  28.850  1.00  0.00    -0.014 A 
BRANCH  35  36
ATOM     36  C   UNL A   1      40.085  28.779  29.199  1.00  0.00     0.031 A 
ATOM     37  C   UNL A   1      40.996  29.749  29.894  1.00  0.00     0.074 A 
ATOM     38  C   UNL A   1      40.555  27.583  28.795  1.00  0.00     0.049 A 
ATOM     39  N   UNL A   1      42.277  29.652  30.145  1.00  0.00    -0.248 NA
ATOM     40  C   UNL A   1      40.388  31.011  30.340  1.00  0.00     0.031 C 
ATOM     41  C   UNL A   1      39.782  26.571  28.073  1.00  0.00     0.029 A 
ATOM     42  N   UNL A   1      41.807  27.028  28.906  1.00  0.00    -0.354 N 
ATOM     43  C   UNL A   1      42.633  30.848  30.752  1.00  0.00     0.074 A 
ATOM     44  C   UNL A   1      41.443  31.671  30.795  1.00  0.00     0.031 C 
ATOM     45  C   UNL A   1      40.575  25.523  27.802  1.00  0.00     0.029 A 
ATOM     46  C   UNL A   1      41.920  25.804  28.294  1.00  0.00     0.049 A 
ATOM     47  H   UNL A   1      42.551  27.466  29.378  1.00  0.00     0.167 HD
ATOM     48  C   UNL A   1      43.840  31.219  31.243  1.00  0.00     0.037 A 
ATOM     49  C   UNL A   1      42.994  25.009  28.126  1.00  0.00     0.037 A 
ATOM     50  C   UNL A   1      45.013  30.386  31.221  1.00  0.00     0.049 A 
ATOM     51  C   UNL A   1      44.324  25.438  28.683  1.00  0.00     0.074 A 
ATOM     52  C   UNL A   1      46.265  30.643  31.751  1.00  0.00     0.029 A 
ATOM     53  N   UNL A   1      45.078  29.131  30.631  1.00  0.00    -0.354 N 
ATOM     54  N   UNL A   1      44.637  26.545  29.311  1.00  0.00    -0.248 NA
ATOM     55  C   UNL A   1      45.449  24.508  28.511  1.00  0.00     0.031 C 
ATOM     56  C   UNL A   1      47.099  29.562  31.448  1.00  0.00     0.029 A 
ATOM     57  C   UNL A   1      46.355  28.610  30.769  1.00  0.00     0.049 A 
ATOM     58  H   UNL A   1      44.327  28.678  30.182  1.00  0.00     0.167 HD
ATOM     59  C   UNL A   1      45.983  26.437  29.630  1.00  0.00     0.074 A 
ATOM     60  C   UNL A   1      46.427  25.151  29.134  1.00  0.00     0.031 C 
ATOM     61  C   UNL A   1      46.778  27.323  30.277  1.00  0.00     0.037 A 
BRANCH  48  62
ATOM     62  C   UNL A   1      43.947  32.589  31.845  1.00  0.00     0.064 A 
ATOM     63  C   UNL A   1      44.267  33.712  31.067  1.00  0.00     0.173 A 
ATOM     64  C   UNL A   1      43.708  32.786  33.213  1.00  0.00     0.173 A 
ATOM     65  F   UNL A   1      44.515  33.576  29.755  1.00  0.00    -0.203 F 
ATOM     66  C   UNL A   1      44.382  34.974  31.643  1.00  0.00     0.198 A 
ATOM     67  C   UNL A   1      43.793  34.055  33.781  1.00  0.00     0.198 A 
ATOM     68  F   UNL A   1      43.390  31.748  34.002  1.00  0.00    -0.203 F 
ATOM     69  F   UNL A   1      44.745  36.021  30.890  1.00  0.00    -0.200 F 
ATOM     70  C   UNL A   1      44.140  35.145  32.997  1.00  0.00     0.200 A 
ATOM     71  F   UNL A   1      43.547  34.222  35.087  1.00  0.00    -0.200 F 
ATOM     72  F   UNL A   1      44.250  36.362  33.550  1.00  0.00    -0.200 F 
ENDBRANCH  48  62
BRANCH  49  73
ATOM     73  C   UNL A   1      42.847  23.719  27.404  1.00  0.00     0.064 A 
ATOM     74  C   UNL A   1      42.308  22.595  28.042  1.00  0.00     0.173 A 
ATOM     75  C   UNL A   1      43.223  23.591  26.058  1.00  0.00     0.173 A 
ATOM     76  F   UNL A   1      41.952  22.664  29.333  1.00  0.00    -0.203 F 
ATOM     77  C   UNL A   1      42.159  21.386  27.364  1.00  0.00     0.198 A 
ATOM     78  C   UNL A   1      43.051  22.390  25.375  1.00  0.00     0.198 A 
ATOM     79  F   UNL A   1      43.740  24.640  25.403  1.00  0.00    -0.203 F 
ATOM     80  F   UNL A   1      41.672  20.317  28.007  1.00  0.00    -0.200 F 
ATOM     81  C   UNL A   1      42.524  21.287  26.030  1.00  0.00     0.200 A 
ATOM     82  F   UNL A   1      43.392  22.301  24.083  1.00  0.00    -0.200 F 
ATOM     83  F   UNL A   1      42.372  20.126  25.376  1.00  0.00    -0.200 F 
ENDBRANCH  49  73
BRANCH  61  84
ATOM     84  C   UNL A   1      48.203  26.925  30.520  1.00  0.00     0.064 A 
ATOM     85  C   UNL A   1      48.569  26.145  31.626  1.00  0.00     0.173 A 
ATOM     86  C   UNL A   1      49.203  27.275  29.600  1.00  0.00     0.173 A 
ATOM     87  F   UNL A   1      47.651  25.800  32.542  1.00  0.00    -0.203 F 
ATOM     88  C   UNL A   1      49.889  25.740  31.809  1.00  0.00     0.198 A 
ATOM     89  C   UNL A   1      50.515  26.847  29.772  1.00  0.00     0.198 A 
ATOM     90  F   UNL A   1      48.901  28.016  28.523  1.00  0.00    -0.203 F 
ATOM     91  F   UNL A   1      50.225  25.021  32.889  1.00  0.00    -0.200 F 
ATOM     92  C   UNL A   1      50.858  26.083  30.877  1.00  0.00     0.200 A 
ATOM     93  F   UNL A   1      51.448  27.169  28.866  1.00  0.00    -0.200 F 
ATOM     94  F   UNL A   1      52.125  25.680  31.047  1.00  0.00    -0.200 F 
ENDBRANCH  61  84
ENDBRANCH  35  36
ENDBRANCH  27  30
ENDBRANCH  25  26
ENDBRANCH  24  25
ENDBRANCH  23  24
ENDBRANCH   1  23
TORSDOF 15
ENDMDL
