MODEL 1
REMARK VINA RESULT:     -12.6      0.000      0.000
REMARK SMILES O=C(NCCCCNC(=O)c1cc(Br)n(Cc2ccn(C3CCCC3)n2)c1)c1ccc(-c2c3nc(c(-c4c(F)c(F)c(F)c(F)c4F)c4ccc([nH]4)c(-c4c(F)c(F)c(F)c(F)c4F)c4nc(c(-c5c(F)c(F)c(F)c(F)c5F)c5ccc2[nH]5)C=C4)C=C3)cc1
REMARK SMILES IDX 6 1 5 2 4 3 3 4 1 5 2 6 28 8 29 9 90 10 30 11 89 12 31 13
REMARK SMILES IDX 32 14 33 15 83 16 34 17 88 18 82 19 84 20 35 21 87 22 81 23
REMARK SMILES IDX 80 24 36 26 68 27 48 28 67 29 49 30 52 31 66 32 85 33 50 34
REMARK SMILES IDX 51 35 65 37 86 38 53 39 37 40 38 41 46 42 39 43 40 44 44 45
REMARK SMILES IDX 47 46 41 47 42 48 45 49 43 50 69 51 70 52 78 53 71 54 72 55
REMARK SMILES IDX 76 56 79 57 73 58 74 59 77 60 75 61 54 62 55 63 63 64 56 65
REMARK SMILES IDX 57 66 61 67 64 68 58 69 59 70 62 71 60 72 7 73 8 74 9 75
REMARK SMILES IDX 10 77 11 78 12 79 27 80 13 81 15 82 14 83 16 84 17 85 18 86
REMARK SMILES IDX 26 87 19 88 20 89 21 90 22 91 25 92 23 93 24 94
REMARK H PARENT 3 7 84 25 52 36 8 76
REMARK Flexibility Score: inf
ROOT
ATOM      1  C   UNL A   1      35.184  22.701  26.679  1.00  0.00     0.023 C 
ENDROOT
BRANCH   1   2
ATOM      2  C   UNL A   1      35.835  21.732  25.685  1.00  0.00     0.023 C 
BRANCH   2   3
ATOM      3  C   UNL A   1      37.099  22.256  25.010  1.00  0.00     0.116 C 
BRANCH   3   4
ATOM      4  N   UNL A   1      38.314  21.582  25.411  1.00  0.00    -0.352 N 
ATOM      5  O   UNL A   1      40.039  20.914  26.617  1.00  0.00    -0.269 OA
ATOM      6  C   UNL A   1      39.283  21.848  26.337  1.00  0.00     0.251 C 
ATOM      7  H   UNL A   1      38.478  20.751  24.907  1.00  0.00     0.163 HD
BRANCH   6   8
ATOM      8  C   UNL A   1      39.562  23.192  26.914  1.00  0.00     0.039 A 
ATOM      9  C   UNL A   1      38.781  24.341  26.779  1.00  0.00     0.014 A 
ATOM     10  C   UNL A   1      40.781  23.290  27.611  1.00  0.00     0.014 A 
ATOM     11  C   UNL A   1      39.281  25.580  27.194  1.00  0.00     0.010 A 
ATOM     12  C   UNL A   1      41.282  24.515  28.025  1.00  0.00     0.010 A 
ATOM     13  C   UNL A   1      40.560  25.674  27.764  1.00  0.00    -0.014 A 
BRANCH  13  14
ATOM     14  C   UNL A   1      40.986  26.922  28.409  1.00  0.00     0.031 A 
ATOM     15  C   UNL A   1      42.234  27.423  27.758  1.00  0.00     0.074 A 
ATOM     16  C   UNL A   1      40.267  27.595  29.345  1.00  0.00     0.049 A 
ATOM     17  N   UNL A   1      43.413  27.467  28.285  1.00  0.00    -0.248 NA
ATOM     18  C   UNL A   1      42.243  27.665  26.302  1.00  0.00     0.031 C 
ATOM     19  C   UNL A   1      38.955  27.230  29.887  1.00  0.00     0.029 A 
ATOM     20  N   UNL A   1      40.511  28.805  29.967  1.00  0.00    -0.354 N 
ATOM     21  C   UNL A   1      44.243  28.016  27.307  1.00  0.00     0.074 A 
ATOM     22  C   UNL A   1      43.540  27.880  26.066  1.00  0.00     0.031 C 
ATOM     23  C   UNL A   1      38.413  28.281  30.548  1.00  0.00     0.029 A 
ATOM     24  C   UNL A   1      39.374  29.364  30.596  1.00  0.00     0.049 A 
ATOM     25  H   UNL A   1      41.394  29.239  29.971  1.00  0.00     0.167 HD
ATOM     26  C   UNL A   1      45.225  28.883  27.687  1.00  0.00     0.037 A 
ATOM     27  C   UNL A   1      39.241  30.630  31.095  1.00  0.00     0.037 A 
ATOM     28  C   UNL A   1      45.501  28.697  29.095  1.00  0.00     0.049 A 
ATOM     29  C   UNL A   1      40.607  31.138  31.330  1.00  0.00     0.074 A 
ATOM     30  C   UNL A   1      46.001  27.706  29.913  1.00  0.00     0.029 A 
ATOM     31  N   UNL A   1      44.758  29.524  29.887  1.00  0.00    -0.354 N 
ATOM     32  N   UNL A   1      41.399  30.662  32.248  1.00  0.00    -0.248 NA
ATOM     33  C   UNL A   1      41.248  31.832  30.229  1.00  0.00     0.031 C 
ATOM     34  C   UNL A   1      45.313  27.849  31.162  1.00  0.00     0.029 A 
ATOM     35  C   UNL A   1      44.500  28.979  31.103  1.00  0.00     0.049 A 
ATOM     36  H   UNL A   1      44.443  30.414  29.607  1.00  0.00     0.167 HD
ATOM     37  C   UNL A   1      42.617  30.542  31.603  1.00  0.00     0.074 A 
ATOM     38  C   UNL A   1      42.492  31.383  30.407  1.00  0.00     0.031 C 
ATOM     39  C   UNL A   1      43.464  29.523  31.947  1.00  0.00     0.037 A 
BRANCH  26  40
ATOM     40  C   UNL A   1      45.408  30.269  27.045  1.00  0.00     0.064 A 
ATOM     41  C   UNL A   1      46.728  30.732  26.836  1.00  0.00     0.173 A 
ATOM     42  C   UNL A   1      44.415  31.275  26.971  1.00  0.00     0.173 A 
ATOM     43  F   UNL A   1      47.765  29.882  26.887  1.00  0.00    -0.203 F 
ATOM     44  C   UNL A   1      47.032  32.091  26.684  1.00  0.00     0.198 A 
ATOM     45  C   UNL A   1      44.719  32.625  26.781  1.00  0.00     0.198 A 
ATOM     46  F   UNL A   1      43.118  31.034  27.176  1.00  0.00    -0.203 F 
ATOM     47  F   UNL A   1      48.310  32.487  26.632  1.00  0.00    -0.200 F 
ATOM     48  C   UNL A   1      46.027  33.038  26.670  1.00  0.00     0.200 A 
ATOM     49  F   UNL A   1      43.728  33.527  26.792  1.00  0.00    -0.200 F 
ATOM     50  F   UNL A   1      46.314  34.343  26.592  1.00  0.00    -0.200 F 
ENDBRANCH  26  40
BRANCH  27  51
ATOM     51  C   UNL A   1      38.080  31.573  31.080  1.00  0.00     0.064 A 
ATOM     52  C   UNL A   1      37.560  32.106  29.878  1.00  0.00     0.173 A 
ATOM     53  C   UNL A   1      37.255  31.710  32.211  1.00  0.00     0.173 A 
ATOM     54  F   UNL A   1      38.242  31.978  28.729  1.00  0.00    -0.203 F 
ATOM     55  C   UNL A   1      36.292  32.707  29.814  1.00  0.00     0.198 A 
ATOM     56  C   UNL A   1      35.991  32.306  32.145  1.00  0.00     0.198 A 
ATOM     57  F   UNL A   1      37.615  31.172  33.384  1.00  0.00    -0.203 F 
ATOM     58  F   UNL A   1      35.810  33.144  28.641  1.00  0.00    -0.200 F 
ATOM     59  C   UNL A   1      35.503  32.793  30.947  1.00  0.00     0.200 A 
ATOM     60  F   UNL A   1      35.219  32.343  33.241  1.00  0.00    -0.200 F 
ATOM     61  F   UNL A   1      34.264  33.302  30.879  1.00  0.00    -0.200 F 
ENDBRANCH  27  51
BRANCH  39  62
ATOM     62  C   UNL A   1      43.235  28.847  33.266  1.00  0.00     0.064 A 
ATOM     63  C   UNL A   1      42.296  27.829  33.502  1.00  0.00     0.173 A 
ATOM     64  C   UNL A   1      44.089  29.198  34.321  1.00  0.00     0.173 A 
ATOM     65  F   UNL A   1      41.509  27.372  32.517  1.00  0.00    -0.203 F 
ATOM     66  C   UNL A   1      42.190  27.229  34.759  1.00  0.00     0.198 A 
ATOM     67  C   UNL A   1      44.009  28.572  35.558  1.00  0.00     0.198 A 
ATOM     68  F   UNL A   1      45.038  30.129  34.132  1.00  0.00    -0.203 F 
ATOM     69  F   UNL A   1      41.275  26.272  34.973  1.00  0.00    -0.200 F 
ATOM     70  C   UNL A   1      43.048  27.599  35.782  1.00  0.00     0.200 A 
ATOM     71  F   UNL A   1      44.877  28.898  36.523  1.00  0.00    -0.200 F 
ATOM     72  F   UNL A   1      42.968  27.004  36.980  1.00  0.00    -0.200 F 
ENDBRANCH  39  62
ENDBRANCH  13  14
ENDBRANCH   6   8
ENDBRANCH   3   4
ENDBRANCH   2   3
ENDBRANCH   1   2
BRANCH   1  73
ATOM     73  C   UNL A   1      33.790  22.302  27.167  1.00  0.00     0.116 C 
BRANCH  73  74
ATOM     74  N   UNL A   1      33.251  21.181  26.415  1.00  0.00    -0.352 N 
ATOM     75  C   UNL A   1      32.350  21.211  25.389  1.00  0.00     0.252 C 
ATOM     76  H   UNL A   1      33.576  20.289  26.678  1.00  0.00     0.163 HD
ATOM     77  O   UNL A   1      31.814  20.150  25.023  1.00  0.00    -0.269 OA
BRANCH  75  78
ATOM     78  C   UNL A   1      32.065  22.480  24.751  1.00  0.00     0.058 A 
ATOM     79  C   UNL A   1      32.776  23.097  23.682  1.00  0.00     0.049 A 
ATOM     80  C   UNL A   1      30.987  23.304  25.025  1.00  0.00     0.101 A 
ATOM     81  C   UNL A   1      32.105  24.247  23.342  1.00  0.00     0.086 A 
ATOM     82  N   UNL A   1      31.078  24.432  24.236  1.00  0.00    -0.335 N 
ATOM     83  Br  UNL A   1      32.570  25.277  21.854  1.00  0.00    -0.031 Br
BRANCH  82  84
ATOM     84  C   UNL A   1      30.125  25.541  24.280  1.00  0.00     0.180 C 
BRANCH  84  85
ATOM     85  C   UNL A   1      30.779  26.861  24.572  1.00  0.00     0.082 A 
ATOM     86  C   UNL A   1      30.630  28.083  23.870  1.00  0.00     0.047 A 
ATOM     87  N   UNL A   1      31.554  27.029  25.660  1.00  0.00    -0.176 NA
ATOM     88  C   UNL A   1      31.373  29.003  24.564  1.00  0.00     0.109 A 
ATOM     89  N   UNL A   1      31.894  28.337  25.633  1.00  0.00    -0.269 N 
BRANCH  89  90
ATOM     90  C   UNL A   1      32.687  28.944  26.677  1.00  0.00     0.107 C 
ATOM     91  C   UNL A   1      34.194  28.746  26.542  1.00  0.00     0.027 C 
ATOM     92  C   UNL A   1      32.549  30.458  26.801  1.00  0.00     0.027 C 
ATOM     93  C   UNL A   1      34.760  29.723  27.565  1.00  0.00     0.002 C 
ATOM     94  C   UNL A   1      33.759  30.880  27.636  1.00  0.00     0.002 C 
ENDBRANCH  89  90
ENDBRANCH  84  85
ENDBRANCH  82  84
ENDBRANCH  75  78
ENDBRANCH  73  74
ENDBRANCH   1  73
TORSDOF 14
ENDMDL
MODEL 2
REMARK VINA RESULT:     -12.4      1.528      2.132
REMARK SMILES O=C(NCCCCNC(=O)c1cc(Br)n(Cc2ccn(C3CCCC3)n2)c1)c1ccc(-c2c3nc(c(-c4c(F)c(F)c(F)c(F)c4F)c4ccc([nH]4)c(-c4c(F)c(F)c(F)c(F)c4F)c4nc(c(-c5c(F)c(F)c(F)c(F)c5F)c5ccc2[nH]5)C=C4)C=C3)cc1
REMARK SMILES IDX 6 1 5 2 4 3 3 4 1 5 2 6 28 8 29 9 90 10 30 11 89 12 31 13
REMARK SMILES IDX 32 14 33 15 83 16 34 17 88 18 82 19 84 20 35 21 87 22 81 23
REMARK SMILES IDX 80 24 36 26 68 27 48 28 67 29 49 30 52 31 66 32 85 33 50 34
REMARK SMILES IDX 51 35 65 37 86 38 53 39 37 40 38 41 46 42 39 43 40 44 44 45
REMARK SMILES IDX 47 46 41 47 42 48 45 49 43 50 69 51 70 52 78 53 71 54 72 55
REMARK SMILES IDX 76 56 79 57 73 58 74 59 77 60 75 61 54 62 55 63 63 64 56 65
REMARK SMILES IDX 57 66 61 67 64 68 58 69 59 70 62 71 60 72 7 73 8 74 9 75
REMARK SMILES IDX 10 77 11 78 12 79 27 80 13 81 15 82 14 83 16 84 17 85 18 86
REMARK SMILES IDX 26 87 19 88 20 89 21 90 22 91 25 92 23 93 24 94
REMARK H PARENT 3 7 84 25 52 36 8 76
REMARK Flexibility Score: inf
ROOT
ATOM      1  C   UNL A   1      35.163  21.476  25.882  1.00  0.00     0.023 C 
ENDROOT
BRANCH   1   2
ATOM      2  C   UNL A   1      36.224  22.582  25.834  1.00  0.00     0.023 C 
BRANCH   2   3
ATOM      3  C   UNL A   1      37.335  22.365  24.811  1.00  0.00     0.116 C 
BRANCH   3   4
ATOM      4  N   UNL A   1      38.482  21.646  25.317  1.00  0.00    -0.352 N 
ATOM      5  O   UNL A   1      40.073  20.925  26.668  1.00  0.00    -0.269 OA
ATOM      6  C   UNL A   1      39.384  21.886  26.315  1.00  0.00     0.251 C 
ATOM      7  H   UNL A   1      38.649  20.801  24.840  1.00  0.00     0.163 HD
BRANCH   6   8
ATOM      8  C   UNL A   1      39.676  23.226  26.894  1.00  0.00     0.039 A 
ATOM      9  C   UNL A   1      38.942  24.398  26.708  1.00  0.00     0.014 A 
ATOM     10  C   UNL A   1      40.860  23.292  27.653  1.00  0.00     0.014 A 
ATOM     11  C   UNL A   1      39.458  25.624  27.139  1.00  0.00     0.010 A 
ATOM     12  C   UNL A   1      41.378  24.505  28.082  1.00  0.00     0.010 A 
ATOM     13  C   UNL A   1      40.708  25.684  27.774  1.00  0.00    -0.014 A 
BRANCH  13  14
ATOM     14  C   UNL A   1      41.141  26.924  28.430  1.00  0.00     0.031 A 
ATOM     15  C   UNL A   1      42.392  27.424  27.785  1.00  0.00     0.074 A 
ATOM     16  C   UNL A   1      40.425  27.593  29.371  1.00  0.00     0.049 A 
ATOM     17  N   UNL A   1      43.571  27.457  28.313  1.00  0.00    -0.248 NA
ATOM     18  C   UNL A   1      42.403  27.678  26.330  1.00  0.00     0.031 C 
ATOM     19  C   UNL A   1      39.110  27.230  29.908  1.00  0.00     0.029 A 
ATOM     20  N   UNL A   1      40.673  28.797  30.003  1.00  0.00    -0.354 N 
ATOM     21  C   UNL A   1      44.405  28.010  27.340  1.00  0.00     0.074 A 
ATOM     22  C   UNL A   1      43.702  27.888  26.098  1.00  0.00     0.031 C 
ATOM     23  C   UNL A   1      38.573  28.278  30.578  1.00  0.00     0.029 A 
ATOM     24  C   UNL A   1      39.539  29.356  30.635  1.00  0.00     0.049 A 
ATOM     25  H   UNL A   1      41.560  29.225  30.011  1.00  0.00     0.167 HD
ATOM     26  C   UNL A   1      45.390  28.868  27.728  1.00  0.00     0.037 A 
ATOM     27  C   UNL A   1      39.412  30.619  31.145  1.00  0.00     0.037 A 
ATOM     28  C   UNL A   1      45.665  28.669  29.136  1.00  0.00     0.049 A 
ATOM     29  C   UNL A   1      40.781  31.118  31.385  1.00  0.00     0.074 A 
ATOM     30  C   UNL A   1      46.158  27.669  29.946  1.00  0.00     0.029 A 
ATOM     31  N   UNL A   1      44.924  29.494  29.933  1.00  0.00    -0.354 N 
ATOM     32  N   UNL A   1      41.570  30.630  32.300  1.00  0.00    -0.248 NA
ATOM     33  C   UNL A   1      41.427  31.817  30.291  1.00  0.00     0.031 C 
ATOM     34  C   UNL A   1      45.470  27.805  31.196  1.00  0.00     0.029 A 
ATOM     35  C   UNL A   1      44.662  28.940  31.144  1.00  0.00     0.049 A 
ATOM     36  H   UNL A   1      44.615  30.387  29.660  1.00  0.00     0.167 HD
ATOM     37  C   UNL A   1      42.788  30.508  31.656  1.00  0.00     0.074 A 
ATOM     38  C   UNL A   1      42.669  31.360  30.467  1.00  0.00     0.031 C 
ATOM     39  C   UNL A   1      43.629  29.483  31.993  1.00  0.00     0.037 A 
BRANCH  26  40
ATOM     40  C   UNL A   1      45.582  30.259  27.099  1.00  0.00     0.064 A 
ATOM     41  C   UNL A   1      46.904  30.723  26.908  1.00  0.00     0.173 A 
ATOM     42  C   UNL A   1      44.590  31.266  27.020  1.00  0.00     0.173 A 
ATOM     43  F   UNL A   1      47.941  29.872  26.967  1.00  0.00    -0.203 F 
ATOM     44  C   UNL A   1      47.211  32.083  26.769  1.00  0.00     0.198 A 
ATOM     45  C   UNL A   1      44.897  32.616  26.842  1.00  0.00     0.198 A 
ATOM     46  F   UNL A   1      43.291  31.024  27.207  1.00  0.00    -0.203 F 
ATOM     47  F   UNL A   1      48.489  32.478  26.735  1.00  0.00    -0.200 F 
ATOM     48  C   UNL A   1      46.206  33.030  26.750  1.00  0.00     0.200 A 
ATOM     49  F   UNL A   1      43.906  33.519  26.847  1.00  0.00    -0.200 F 
ATOM     50  F   UNL A   1      46.495  34.335  26.685  1.00  0.00    -0.200 F 
ENDBRANCH  26  40
BRANCH  27  51
ATOM     51  C   UNL A   1      38.256  31.568  31.137  1.00  0.00     0.064 A 
ATOM     52  C   UNL A   1      37.605  31.948  29.940  1.00  0.00     0.173 A 
ATOM     53  C   UNL A   1      37.563  31.861  32.324  1.00  0.00     0.173 A 
ATOM     54  F   UNL A   1      38.153  31.664  28.749  1.00  0.00    -0.203 F 
ATOM     55  C   UNL A   1      36.337  32.553  29.940  1.00  0.00     0.198 A 
ATOM     56  C   UNL A   1      36.299  32.461  32.322  1.00  0.00     0.198 A 
ATOM     57  F   UNL A   1      38.052  31.475  33.510  1.00  0.00    -0.203 F 
ATOM     58  F   UNL A   1      35.726  32.841  28.781  1.00  0.00    -0.200 F 
ATOM     59  C   UNL A   1      35.680  32.797  31.132  1.00  0.00     0.200 A 
ATOM     60  F   UNL A   1      35.655  32.650  33.483  1.00  0.00    -0.200 F 
ATOM     61  F   UNL A   1      34.441  33.310  31.137  1.00  0.00    -0.200 F 
ENDBRANCH  27  51
BRANCH  39  62
ATOM     62  C   UNL A   1      43.395  28.796  33.305  1.00  0.00     0.064 A 
ATOM     63  C   UNL A   1      42.461  27.771  33.528  1.00  0.00     0.173 A 
ATOM     64  C   UNL A   1      44.238  29.147  34.368  1.00  0.00     0.173 A 
ATOM     65  F   UNL A   1      41.684  27.314  32.535  1.00  0.00    -0.203 F 
ATOM     66  C   UNL A   1      42.349  27.162  34.780  1.00  0.00     0.198 A 
ATOM     67  C   UNL A   1      44.153  28.513  35.601  1.00  0.00     0.198 A 
ATOM     68  F   UNL A   1      45.182  30.085  34.193  1.00  0.00    -0.203 F 
ATOM     69  F   UNL A   1      41.439  26.198  34.982  1.00  0.00    -0.200 F 
ATOM     70  C   UNL A   1      43.198  27.532  35.812  1.00  0.00     0.200 A 
ATOM     71  F   UNL A   1      45.012  28.839  36.574  1.00  0.00    -0.200 F 
ATOM     72  F   UNL A   1      43.113  26.928  37.006  1.00  0.00    -0.200 F 
ENDBRANCH  39  62
ENDBRANCH  13  14
ENDBRANCH   6   8
ENDBRANCH   3   4
ENDBRANCH   2   3
ENDBRANCH   1   2
BRANCH   1  73
ATOM     73  C   UNL A   1      33.804  21.842  25.284  1.00  0.00     0.116 C 
BRANCH  73  74
ATOM     74  N   UNL A   1      32.798  22.053  26.312  1.00  0.00    -0.352 N 
ATOM     75  C   UNL A   1      32.148  23.212  26.629  1.00  0.00     0.252 C 
ATOM     76  H   UNL A   1      32.555  21.263  26.847  1.00  0.00     0.163 HD
ATOM     77  O   UNL A   1      31.502  23.273  27.690  1.00  0.00    -0.269 OA
BRANCH  75  78
ATOM     78  C   UNL A   1      32.221  24.325  25.705  1.00  0.00     0.058 A 
ATOM     79  C   UNL A   1      32.973  25.526  25.845  1.00  0.00     0.049 A 
ATOM     80  C   UNL A   1      31.615  24.392  24.462  1.00  0.00     0.101 A 
ATOM     81  C   UNL A   1      32.810  26.260  24.694  1.00  0.00     0.086 A 
ATOM     82  N   UNL A   1      31.892  25.619  23.898  1.00  0.00    -0.335 N 
ATOM     83  Br  UNL A   1      33.777  27.822  24.355  1.00  0.00    -0.031 Br
BRANCH  82  84
ATOM     84  C   UNL A   1      31.385  26.055  22.596  1.00  0.00     0.180 C 
BRANCH  84  85
ATOM     85  C   UNL A   1      30.358  27.145  22.705  1.00  0.00     0.082 A 
ATOM     86  C   UNL A   1      29.176  27.155  23.486  1.00  0.00     0.047 A 
ATOM     87  N   UNL A   1      30.533  28.331  22.092  1.00  0.00    -0.176 NA
ATOM     88  C   UNL A   1      28.618  28.393  23.300  1.00  0.00     0.109 A 
ATOM     89  N   UNL A   1      29.467  29.069  22.475  1.00  0.00    -0.269 N 
BRANCH  89  90
ATOM     90  C   UNL A   1      29.305  30.448  22.074  1.00  0.00     0.107 C 
ATOM     91  C   UNL A   1      28.197  30.698  21.056  1.00  0.00     0.027 C 
ATOM     92  C   UNL A   1      28.963  31.417  23.201  1.00  0.00     0.027 C 
ATOM     93  C   UNL A   1      28.062  32.216  21.065  1.00  0.00     0.002 C 
ATOM     94  C   UNL A   1      28.436  32.659  22.482  1.00  0.00     0.002 C 
ENDBRANCH  89  90
ENDBRANCH  84  85
ENDBRANCH  82  84
ENDBRANCH  75  78
ENDBRANCH  73  74
ENDBRANCH   1  73
TORSDOF 14
ENDMDL
MODEL 3
REMARK VINA RESULT:     -12.2      3.038      8.292
REMARK SMILES O=C(NCCCCNC(=O)c1cc(Br)n(Cc2ccn(C3CCCC3)n2)c1)c1ccc(-c2c3nc(c(-c4c(F)c(F)c(F)c(F)c4F)c4ccc([nH]4)c(-c4c(F)c(F)c(F)c(F)c4F)c4nc(c(-c5c(F)c(F)c(F)c(F)c5F)c5ccc2[nH]5)C=C4)C=C3)cc1
REMARK SMILES IDX 6 1 5 2 4 3 3 4 1 5 2 6 28 8 29 9 90 10 30 11 89 12 31 13
REMARK SMILES IDX 32 14 33 15 83 16 34 17 88 18 82 19 84 20 35 21 87 22 81 23
REMARK SMILES IDX 80 24 36 26 68 27 48 28 67 29 49 30 52 31 66 32 85 33 50 34
REMARK SMILES IDX 51 35 65 37 86 38 53 39 37 40 38 41 46 42 39 43 40 44 44 45
REMARK SMILES IDX 47 46 41 47 42 48 45 49 43 50 69 51 70 52 78 53 71 54 72 55
REMARK SMILES IDX 76 56 79 57 73 58 74 59 77 60 75 61 54 62 55 63 63 64 56 65
REMARK SMILES IDX 57 66 61 67 64 68 58 69 59 70 62 71 60 72 7 73 8 74 9 75
REMARK SMILES IDX 10 77 11 78 12 79 27 80 13 81 15 82 14 83 16 84 17 85 18 86
REMARK SMILES IDX 26 87 19 88 20 89 21 90 22 91 25 92 23 93 24 94
REMARK H PARENT 3 7 84 25 52 36 8 76
REMARK Flexibility Score: inf
ROOT
ATOM      1  C   UNL A   1      33.962  28.691  26.695  1.00  0.00     0.023 C 
ENDROOT
BRANCH   1   2
ATOM      2  C   UNL A   1      33.115  29.845  27.244  1.00  0.00     0.023 C 
BRANCH   2   3
ATOM      3  C   UNL A   1      33.824  31.195  27.297  1.00  0.00     0.116 C 
BRANCH   3   4
ATOM      4  N   UNL A   1      33.912  31.773  28.618  1.00  0.00    -0.352 N 
ATOM      5  O   UNL A   1      34.721  32.728  30.438  1.00  0.00    -0.269 OA
ATOM      6  C   UNL A   1      34.931  31.938  29.515  1.00  0.00     0.251 C 
ATOM      7  H   UNL A   1      33.051  32.126  28.943  1.00  0.00     0.163 HD
BRANCH   6   8
ATOM      8  C   UNL A   1      36.190  31.144  29.525  1.00  0.00     0.039 A 
ATOM      9  C   UNL A   1      36.305  29.753  29.557  1.00  0.00     0.014 A 
ATOM     10  C   UNL A   1      37.368  31.913  29.567  1.00  0.00     0.014 A 
ATOM     11  C   UNL A   1      37.551  29.158  29.781  1.00  0.00     0.010 A 
ATOM     12  C   UNL A   1      38.607  31.329  29.789  1.00  0.00     0.010 A 
ATOM     13  C   UNL A   1      38.694  29.952  29.958  1.00  0.00    -0.014 A 
BRANCH  13  14
ATOM     14  C   UNL A   1      40.027  29.333  29.957  1.00  0.00     0.031 A 
ATOM     15  C   UNL A   1      40.522  29.208  31.361  1.00  0.00     0.074 A 
ATOM     16  C   UNL A   1      40.638  28.812  28.862  1.00  0.00     0.049 A 
ATOM     17  N   UNL A   1      41.501  29.862  31.893  1.00  0.00    -0.248 NA
ATOM     18  C   UNL A   1      39.707  28.479  32.353  1.00  0.00     0.031 C 
ATOM     19  C   UNL A   1      40.112  28.758  27.494  1.00  0.00     0.029 A 
ATOM     20  N   UNL A   1      41.838  28.138  28.737  1.00  0.00    -0.354 N 
ATOM     21  C   UNL A   1      41.593  29.400  33.207  1.00  0.00     0.074 A 
ATOM     22  C   UNL A   1      40.343  28.763  33.493  1.00  0.00     0.031 C 
ATOM     23  C   UNL A   1      40.844  27.899  26.745  1.00  0.00     0.029 A 
ATOM     24  C   UNL A   1      41.969  27.423  27.524  1.00  0.00     0.049 A 
ATOM     25  H   UNL A   1      42.537  28.154  29.430  1.00  0.00     0.167 HD
ATOM     26  C   UNL A   1      42.828  29.235  33.761  1.00  0.00     0.037 A 
ATOM     27  C   UNL A   1      42.926  26.499  27.206  1.00  0.00     0.037 A 
ATOM     28  C   UNL A   1      43.790  30.020  33.018  1.00  0.00     0.049 A 
ATOM     29  C   UNL A   1      44.066  26.741  28.111  1.00  0.00     0.074 A 
ATOM     30  C   UNL A   1      44.037  31.352  32.761  1.00  0.00     0.029 A 
ATOM     31  N   UNL A   1      44.379  29.309  32.013  1.00  0.00    -0.354 N 
ATOM     32  N   UNL A   1      44.814  27.806  28.051  1.00  0.00    -0.248 NA
ATOM     33  C   UNL A   1      44.061  26.036  29.378  1.00  0.00     0.031 C 
ATOM     34  C   UNL A   1      44.577  31.399  31.434  1.00  0.00     0.029 A 
ATOM     35  C   UNL A   1      44.741  30.096  30.968  1.00  0.00     0.049 A 
ATOM     36  H   UNL A   1      44.524  28.336  32.043  1.00  0.00     0.167 HD
ATOM     37  C   UNL A   1      44.956  28.186  29.373  1.00  0.00     0.074 A 
ATOM     38  C   UNL A   1      44.573  26.999  30.147  1.00  0.00     0.031 C 
ATOM     39  C   UNL A   1      45.058  29.514  29.686  1.00  0.00     0.037 A 
BRANCH  26  40
ATOM     40  C   UNL A   1      43.267  27.929  34.445  1.00  0.00     0.064 A 
ATOM     41  C   UNL A   1      43.951  28.025  35.679  1.00  0.00     0.173 A 
ATOM     42  C   UNL A   1      43.382  26.670  33.808  1.00  0.00     0.173 A 
ATOM     43  F   UNL A   1      43.931  29.168  36.382  1.00  0.00    -0.203 F 
ATOM     44  C   UNL A   1      44.766  26.996  36.169  1.00  0.00     0.198 A 
ATOM     45  C   UNL A   1      44.164  25.632  34.319  1.00  0.00     0.198 A 
ATOM     46  F   UNL A   1      42.834  26.403  32.621  1.00  0.00    -0.203 F 
ATOM     47  F   UNL A   1      45.502  27.195  37.270  1.00  0.00    -0.200 F 
ATOM     48  C   UNL A   1      44.882  25.804  35.481  1.00  0.00     0.200 A 
ATOM     49  F   UNL A   1      44.278  24.493  33.622  1.00  0.00    -0.200 F 
ATOM     50  F   UNL A   1      45.710  24.843  35.907  1.00  0.00    -0.200 F 
ENDBRANCH  26  40
BRANCH  27  51
ATOM     51  C   UNL A   1      42.835  25.221  26.434  1.00  0.00     0.064 A 
ATOM     52  C   UNL A   1      43.736  24.909  25.389  1.00  0.00     0.173 A 
ATOM     53  C   UNL A   1      42.075  24.144  26.921  1.00  0.00     0.173 A 
ATOM     54  F   UNL A   1      44.550  25.852  24.891  1.00  0.00    -0.203 F 
ATOM     55  C   UNL A   1      43.879  23.603  24.892  1.00  0.00     0.198 A 
ATOM     56  C   UNL A   1      42.221  22.843  26.427  1.00  0.00     0.198 A 
ATOM     57  F   UNL A   1      41.248  24.311  27.962  1.00  0.00    -0.203 F 
ATOM     58  F   UNL A   1      44.790  23.337  23.944  1.00  0.00    -0.200 F 
ATOM     59  C   UNL A   1      43.130  22.569  25.422  1.00  0.00     0.200 A 
ATOM     60  F   UNL A   1      41.520  21.843  26.981  1.00  0.00    -0.200 F 
ATOM     61  F   UNL A   1      43.311  21.308  25.001  1.00  0.00    -0.200 F 
ENDBRANCH  27  51
BRANCH  39  62
ATOM     62  C   UNL A   1      45.429  30.460  28.582  1.00  0.00     0.064 A 
ATOM     63  C   UNL A   1      44.521  31.080  27.707  1.00  0.00     0.173 A 
ATOM     64  C   UNL A   1      46.780  30.820  28.477  1.00  0.00     0.173 A 
ATOM     65  F   UNL A   1      43.202  30.860  27.809  1.00  0.00    -0.203 F 
ATOM     66  C   UNL A   1      44.963  31.983  26.738  1.00  0.00     0.198 A 
ATOM     67  C   UNL A   1      47.211  31.748  27.539  1.00  0.00     0.198 A 
ATOM     68  F   UNL A   1      47.680  30.295  29.323  1.00  0.00    -0.203 F 
ATOM     69  F   UNL A   1      44.086  32.552  25.898  1.00  0.00    -0.200 F 
ATOM     70  C   UNL A   1      46.306  32.318  26.659  1.00  0.00     0.200 A 
ATOM     71  F   UNL A   1      48.501  32.105  27.506  1.00  0.00    -0.200 F 
ATOM     72  F   UNL A   1      46.728  33.207  25.749  1.00  0.00    -0.200 F 
ENDBRANCH  39  62
ENDBRANCH  13  14
ENDBRANCH   6   8
ENDBRANCH   3   4
ENDBRANCH   2   3
ENDBRANCH   1   2
BRANCH   1  73
ATOM     73  C   UNL A   1      33.649  28.272  25.258  1.00  0.00     0.116 C 
BRANCH  73  74
ATOM     74  N   UNL A   1      32.343  28.744  24.827  1.00  0.00    -0.352 N 
ATOM     75  C   UNL A   1      31.293  28.006  24.360  1.00  0.00     0.252 C 
ATOM     76  H   UNL A   1      32.197  29.716  24.879  1.00  0.00     0.163 HD
ATOM     77  O   UNL A   1      30.343  28.588  23.808  1.00  0.00    -0.269 OA
BRANCH  75  78
ATOM     78  C   UNL A   1      31.318  26.569  24.541  1.00  0.00     0.058 A 
ATOM     79  C   UNL A   1      30.905  25.828  25.685  1.00  0.00     0.049 A 
ATOM     80  C   UNL A   1      31.690  25.635  23.589  1.00  0.00     0.101 A 
ATOM     81  C   UNL A   1      31.025  24.492  25.385  1.00  0.00     0.086 A 
ATOM     82  N   UNL A   1      31.611  24.376  24.147  1.00  0.00    -0.335 N 
ATOM     83  Br  UNL A   1      30.406  23.148  26.525  1.00  0.00    -0.031 Br
BRANCH  82  84
ATOM     84  C   UNL A   1      31.962  23.143  23.441  1.00  0.00     0.180 C 
BRANCH  84  85
ATOM     85  C   UNL A   1      33.025  22.351  24.145  1.00  0.00     0.082 A 
ATOM     86  C   UNL A   1      33.131  20.942  24.260  1.00  0.00     0.047 A 
ATOM     87  N   UNL A   1      34.097  22.954  24.693  1.00  0.00    -0.176 NA
ATOM     88  C   UNL A   1      34.305  20.711  24.931  1.00  0.00     0.109 A 
ATOM     89  N   UNL A   1      34.857  21.937  25.156  1.00  0.00    -0.269 N 
BRANCH  89  90
ATOM     90  C   UNL A   1      36.144  22.162  25.773  1.00  0.00     0.107 C 
ATOM     91  C   UNL A   1      37.316  21.456  25.098  1.00  0.00     0.027 C 
ATOM     92  C   UNL A   1      36.598  23.618  25.817  1.00  0.00     0.027 C 
ATOM     93  C   UNL A   1      38.530  22.108  25.751  1.00  0.00     0.002 C 
ATOM     94  C   UNL A   1      38.099  23.536  26.098  1.00  0.00     0.002 C 
ENDBRANCH  89  90
ENDBRANCH  84  85
ENDBRANCH  82  84
ENDBRANCH  75  78
ENDBRANCH  73  74
ENDBRANCH   1  73
TORSDOF 14
ENDMDL
