MODEL 1
REMARK VINA RESULT:     -11.5      0.000      0.000
REMARK SMILES C[C@@H](C(=O)NCCCCNC(=O)c1ccc(-c2c3nc(c(-c4c(F)c(F)c(F)c(F)c4F)c4ccc([nH]4)c(-c4c(F)c(F)c(F)c(F)c4F)c4nc(c(-c5c(F)c(F)c(F)c(F)c5F)c5ccc2[nH]5)C=C4)C=C3)cc1)c1ccc(-c2cccc(OC(=O)NCCCc3ccccc3)c2)c(F)c1
REMARK SMILES IDX 1 1 2 2 3 3 4 4 5 5 6 7 7 8 8 9 9 10 10 11 11 12 12 14 13 15
REMARK SMILES IDX 14 16 75 17 15 18 74 19 16 20 17 21 18 22 68 23 19 24 73 25
REMARK SMILES IDX 67 26 69 27 20 28 72 29 66 30 65 31 21 33 53 34 33 35 52 36
REMARK SMILES IDX 34 37 37 38 51 39 70 40 35 41 36 42 50 44 71 45 38 46 22 47
REMARK SMILES IDX 23 48 31 49 24 50 25 51 29 52 32 53 26 54 27 55 30 56 28 57
REMARK SMILES IDX 54 58 55 59 63 60 56 61 57 62 61 63 64 64 58 65 59 66 62 67
REMARK SMILES IDX 60 68 39 69 40 70 48 71 41 72 42 73 46 74 49 75 43 76 44 77
REMARK SMILES IDX 47 78 45 79 76 80 77 81 101 82 78 83 99 84 79 85 100 86
REMARK SMILES IDX 80 87 81 88 98 89 82 90 84 91 83 92 85 93 86 94 87 95 88 96
REMARK SMILES IDX 89 98 90 99 91 100 92 101 93 102 97 103 94 104 96 105 95 106
REMARK H PARENT 5 6 10 13 69 32 37 43 88 97
REMARK Flexibility Score: inf
ROOT
ATOM      1  C   UNL A   1      32.717  26.720  22.936  1.00  0.00     0.023 C 
ATOM      2  C   UNL A   1      33.173  26.520  24.386  1.00  0.00     0.105 C 
ENDROOT
BRANCH   2   3
ATOM      3  C   UNL A   1      31.965  26.486  25.346  1.00  0.00     0.227 C 
ATOM      4  O   UNL A   1      31.374  25.449  25.655  1.00  0.00    -0.274 OA
ATOM      5  N   UNL A   1      31.525  27.637  25.935  1.00  0.00    -0.356 N 
ATOM      6  H   UNL A   1      30.885  27.513  26.673  1.00  0.00     0.163 HD
BRANCH   5   7
ATOM      7  C   UNL A   1      31.861  29.011  25.635  1.00  0.00     0.116 C 
BRANCH   7   8
ATOM      8  C   UNL A   1      31.865  29.854  26.913  1.00  0.00     0.023 C 
BRANCH   8   9
ATOM      9  C   UNL A   1      31.638  31.350  26.692  1.00  0.00     0.023 C 
BRANCH   9  10
ATOM     10  C   UNL A   1      32.862  32.226  26.909  1.00  0.00     0.116 C 
BRANCH  10  11
ATOM     11  N   UNL A   1      32.527  33.548  27.411  1.00  0.00    -0.352 N 
ATOM     12  C   UNL A   1      33.110  34.271  28.420  1.00  0.00     0.251 C 
ATOM     13  H   UNL A   1      31.771  33.989  26.961  1.00  0.00     0.163 HD
ATOM     14  O   UNL A   1      32.600  35.323  28.792  1.00  0.00    -0.269 OA
BRANCH  12  15
ATOM     15  C   UNL A   1      34.332  33.768  29.084  1.00  0.00     0.039 A 
ATOM     16  C   UNL A   1      34.190  32.830  30.109  1.00  0.00     0.014 A 
ATOM     17  C   UNL A   1      35.603  34.215  28.713  1.00  0.00     0.014 A 
ATOM     18  C   UNL A   1      35.325  32.305  30.725  1.00  0.00     0.010 A 
ATOM     19  C   UNL A   1      36.737  33.632  29.274  1.00  0.00     0.010 A 
ATOM     20  C   UNL A   1      36.609  32.678  30.292  1.00  0.00    -0.014 A 
BRANCH  20  21
ATOM     21  C   UNL A   1      37.814  32.064  30.903  1.00  0.00     0.031 A 
ATOM     22  C   UNL A   1      38.287  32.495  32.263  1.00  0.00     0.074 A 
ATOM     23  C   UNL A   1      38.495  31.127  30.217  1.00  0.00     0.049 A 
ATOM     24  N   UNL A   1      39.297  32.049  32.967  1.00  0.00    -0.248 NA
ATOM     25  C   UNL A   1      37.543  33.587  32.911  1.00  0.00     0.031 C 
ATOM     26  C   UNL A   1      38.177  30.677  28.860  1.00  0.00     0.029 A 
ATOM     27  N   UNL A   1      39.593  30.382  30.564  1.00  0.00    -0.354 N 
ATOM     28  C   UNL A   1      39.305  32.798  34.136  1.00  0.00     0.074 A 
ATOM     29  C   UNL A   1      38.245  33.775  34.019  1.00  0.00     0.031 C 
ATOM     30  C   UNL A   1      39.040  29.712  28.503  1.00  0.00     0.029 A 
ATOM     31  C   UNL A   1      39.987  29.495  29.592  1.00  0.00     0.049 A 
ATOM     32  H   UNL A   1      40.056  30.475  31.428  1.00  0.00     0.167 HD
ATOM     33  C   UNL A   1      40.101  32.661  35.222  1.00  0.00     0.037 A 
ATOM     34  C   UNL A   1      40.994  28.602  29.583  1.00  0.00     0.037 A 
ATOM     35  C   UNL A   1      41.152  31.684  35.339  1.00  0.00     0.049 A 
ATOM     36  C   UNL A   1      41.855  28.462  30.809  1.00  0.00     0.074 A 
ATOM     37  C   UNL A   1      41.994  31.441  36.410  1.00  0.00     0.029 A 
ATOM     38  N   UNL A   1      41.505  30.784  34.343  1.00  0.00    -0.354 N 
ATOM     39  N   UNL A   1      41.802  29.124  31.939  1.00  0.00    -0.248 NA
ATOM     40  C   UNL A   1      42.905  27.435  30.763  1.00  0.00     0.031 C 
ATOM     41  C   UNL A   1      42.883  30.423  36.049  1.00  0.00     0.029 A 
ATOM     42  C   UNL A   1      42.561  29.994  34.771  1.00  0.00     0.049 A 
ATOM     43  H   UNL A   1      41.070  30.716  33.463  1.00  0.00     0.167 HD
ATOM     44  C   UNL A   1      42.795  28.583  32.745  1.00  0.00     0.074 A 
ATOM     45  C   UNL A   1      43.413  27.517  31.984  1.00  0.00     0.031 C 
ATOM     46  C   UNL A   1      43.166  28.939  34.000  1.00  0.00     0.037 A 
BRANCH  33  47
ATOM     47  C   UNL A   1      39.852  33.582  36.384  1.00  0.00     0.064 A 
ATOM     48  C   UNL A   1      40.464  34.843  36.461  1.00  0.00     0.173 A 
ATOM     49  C   UNL A   1      38.965  33.222  37.408  1.00  0.00     0.173 A 
ATOM     50  F   UNL A   1      41.332  35.231  35.513  1.00  0.00    -0.203 F 
ATOM     51  C   UNL A   1      40.218  35.697  37.532  1.00  0.00     0.198 A 
ATOM     52  C   UNL A   1      38.696  34.091  38.463  1.00  0.00     0.198 A 
ATOM     53  F   UNL A   1      38.347  32.031  37.382  1.00  0.00    -0.203 F 
ATOM     54  F   UNL A   1      40.851  36.875  37.607  1.00  0.00    -0.200 F 
ATOM     55  C   UNL A   1      39.328  35.324  38.527  1.00  0.00     0.200 A 
ATOM     56  F   UNL A   1      37.826  33.735  39.418  1.00  0.00    -0.200 F 
ATOM     57  F   UNL A   1      39.085  36.150  39.554  1.00  0.00    -0.200 F 
ENDBRANCH  33  47
BRANCH  34  58
ATOM     58  C   UNL A   1      41.223  27.751  28.387  1.00  0.00     0.064 A 
ATOM     59  C   UNL A   1      42.087  28.159  27.361  1.00  0.00     0.173 A 
ATOM     60  C   UNL A   1      40.575  26.517  28.240  1.00  0.00     0.173 A 
ATOM     61  F   UNL A   1      42.718  29.339  27.448  1.00  0.00    -0.203 F 
ATOM     62  C   UNL A   1      42.270  27.380  26.221  1.00  0.00     0.198 A 
ATOM     63  C   UNL A   1      40.782  25.723  27.114  1.00  0.00     0.198 A 
ATOM     64  F   UNL A   1      39.744  26.076  29.197  1.00  0.00    -0.203 F 
ATOM     65  F   UNL A   1      43.059  27.820  25.231  1.00  0.00    -0.200 F 
ATOM     66  C   UNL A   1      41.621  26.160  26.100  1.00  0.00     0.200 A 
ATOM     67  F   UNL A   1      40.166  24.538  27.009  1.00  0.00    -0.200 F 
ATOM     68  F   UNL A   1      41.797  25.411  25.003  1.00  0.00    -0.200 F 
ENDBRANCH  34  58
BRANCH  46  69
ATOM     69  C   UNL A   1      44.278  28.151  34.630  1.00  0.00     0.064 A 
ATOM     70  C   UNL A   1      45.624  28.500  34.448  1.00  0.00     0.173 A 
ATOM     71  C   UNL A   1      43.993  27.037  35.435  1.00  0.00     0.173 A 
ATOM     72  F   UNL A   1      45.951  29.548  33.676  1.00  0.00    -0.203 F 
ATOM     73  C   UNL A   1      46.644  27.741  35.013  1.00  0.00     0.198 A 
ATOM     74  C   UNL A   1      45.015  26.299  36.026  1.00  0.00     0.198 A 
ATOM     75  F   UNL A   1      42.721  26.665  35.649  1.00  0.00    -0.203 F 
ATOM     76  F   UNL A   1      47.925  28.056  34.772  1.00  0.00    -0.200 F 
ATOM     77  C   UNL A   1      46.339  26.644  35.805  1.00  0.00     0.200 A 
ATOM     78  F   UNL A   1      44.717  25.248  36.802  1.00  0.00    -0.200 F 
ATOM     79  F   UNL A   1      47.323  25.912  36.347  1.00  0.00    -0.200 F 
ENDBRANCH  46  69
ENDBRANCH  20  21
ENDBRANCH  12  15
ENDBRANCH  10  11
ENDBRANCH   9  10
ENDBRANCH   8   9
ENDBRANCH   7   8
ENDBRANCH   5   7
ENDBRANCH   2   3
BRANCH   2  80
ATOM     80  C   UNL A   1      34.070  25.293  24.560  1.00  0.00    -0.033 A 
ATOM     81  C   UNL A   1      34.637  24.938  25.793  1.00  0.00     0.005 A 
ATOM     82  C   UNL A   1      34.368  24.491  23.446  1.00  0.00     0.044 A 
ATOM     83  C   UNL A   1      35.486  23.836  25.907  1.00  0.00     0.012 A 
ATOM     84  C   UNL A   1      35.233  23.403  23.565  1.00  0.00     0.131 A 
ATOM     85  C   UNL A   1      35.814  23.059  24.790  1.00  0.00     0.018 A 
ATOM     86  F   UNL A   1      35.514  22.694  22.459  1.00  0.00    -0.206 F 
BRANCH  85  87
ATOM     87  C   UNL A   1      36.825  22.005  24.918  1.00  0.00    -0.012 A 
ATOM     88  C   UNL A   1      36.492  20.646  24.795  1.00  0.00     0.009 A 
ATOM     89  C   UNL A   1      38.140  22.347  25.271  1.00  0.00     0.056 A 
ATOM     90  C   UNL A   1      37.443  19.652  25.036  1.00  0.00     0.004 A 
ATOM     91  C   UNL A   1      39.076  21.354  25.534  1.00  0.00     0.133 A 
ATOM     92  C   UNL A   1      38.735  20.006  25.414  1.00  0.00     0.047 A 
BRANCH  91  93
ATOM     93  O   UNL A   1      40.411  21.611  25.917  1.00  0.00    -0.410 OA
BRANCH  93  94
ATOM     94  C   UNL A   1      40.970  21.314  27.158  1.00  0.00     0.412 C 
ATOM     95  O   UNL A   1      40.432  21.428  28.252  1.00  0.00    -0.224 OA
ATOM     96  N   UNL A   1      42.244  20.830  27.062  1.00  0.00    -0.321 N 
ATOM     97  H   UNL A   1      42.748  20.718  27.900  1.00  0.00     0.167 HD
BRANCH  96  98
ATOM     98  C   UNL A   1      42.913  20.470  25.835  1.00  0.00     0.120 C 
BRANCH  98  99
ATOM     99  C   UNL A   1      44.167  21.288  25.535  1.00  0.00     0.026 C 
BRANCH  99 100
ATOM    100  C   UNL A   1      44.008  22.787  25.251  1.00  0.00     0.037 C 
BRANCH 100 101
ATOM    101  C   UNL A   1      44.376  23.812  26.299  1.00  0.00    -0.048 A 
ATOM    102  C   UNL A   1      43.933  23.793  27.625  1.00  0.00     0.004 A 
ATOM    103  C   UNL A   1      45.176  24.896  25.891  1.00  0.00     0.004 A 
ATOM    104  C   UNL A   1      44.271  24.820  28.512  1.00  0.00     0.000 A 
ATOM    105  C   UNL A   1      45.523  25.917  26.777  1.00  0.00     0.000 A 
ATOM    106  C   UNL A   1      45.065  25.882  28.089  1.00  0.00     0.000 A 
ENDBRANCH 100 101
ENDBRANCH  99 100
ENDBRANCH  98  99
ENDBRANCH  96  98
ENDBRANCH  93  94
ENDBRANCH  91  93
ENDBRANCH  85  87
ENDBRANCH   2  80
TORSDOF 19
ENDMDL
MODEL 2
REMARK VINA RESULT:     -11.4      0.774      2.108
REMARK SMILES C[C@@H](C(=O)NCCCCNC(=O)c1ccc(-c2c3nc(c(-c4c(F)c(F)c(F)c(F)c4F)c4ccc([nH]4)c(-c4c(F)c(F)c(F)c(F)c4F)c4nc(c(-c5c(F)c(F)c(F)c(F)c5F)c5ccc2[nH]5)C=C4)C=C3)cc1)c1ccc(-c2cccc(OC(=O)NCCCc3ccccc3)c2)c(F)c1
REMARK SMILES IDX 1 1 2 2 3 3 4 4 5 5 6 7 7 8 8 9 9 10 10 11 11 12 12 14 13 15
REMARK SMILES IDX 14 16 75 17 15 18 74 19 16 20 17 21 18 22 68 23 19 24 73 25
REMARK SMILES IDX 67 26 69 27 20 28 72 29 66 30 65 31 21 33 53 34 33 35 52 36
REMARK SMILES IDX 34 37 37 38 51 39 70 40 35 41 36 42 50 44 71 45 38 46 22 47
REMARK SMILES IDX 23 48 31 49 24 50 25 51 29 52 32 53 26 54 27 55 30 56 28 57
REMARK SMILES IDX 54 58 55 59 63 60 56 61 57 62 61 63 64 64 58 65 59 66 62 67
REMARK SMILES IDX 60 68 39 69 40 70 48 71 41 72 42 73 46 74 49 75 43 76 44 77
REMARK SMILES IDX 47 78 45 79 76 80 77 81 101 82 78 83 99 84 79 85 100 86
REMARK SMILES IDX 80 87 81 88 98 89 82 90 84 91 83 92 85 93 86 94 87 95 88 96
REMARK SMILES IDX 89 98 90 99 91 100 92 101 93 102 97 103 94 104 96 105 95 106
REMARK H PARENT 5 6 10 13 69 32 37 43 88 97
REMARK Flexibility Score: inf
ROOT
ATOM      1  C   UNL A   1      32.958  27.307  22.748  1.00  0.00     0.023 C 
ATOM      2  C   UNL A   1      33.158  26.943  24.224  1.00  0.00     0.105 C 
ENDROOT
BRANCH   2   3
ATOM      3  C   UNL A   1      31.810  26.925  24.977  1.00  0.00     0.227 C 
ATOM      4  O   UNL A   1      31.108  25.918  25.086  1.00  0.00    -0.274 OA
ATOM      5  N   UNL A   1      31.360  28.052  25.603  1.00  0.00    -0.356 N 
ATOM      6  H   UNL A   1      30.602  27.918  26.217  1.00  0.00     0.163 HD
BRANCH   5   7
ATOM      7  C   UNL A   1      31.833  29.415  25.497  1.00  0.00     0.116 C 
BRANCH   7   8
ATOM      8  C   UNL A   1      31.746  30.120  26.853  1.00  0.00     0.023 C 
BRANCH   8   9
ATOM      9  C   UNL A   1      31.505  31.628  26.774  1.00  0.00     0.023 C 
BRANCH   9  10
ATOM     10  C   UNL A   1      32.752  32.487  26.923  1.00  0.00     0.116 C 
BRANCH  10  11
ATOM     11  N   UNL A   1      32.462  33.818  27.431  1.00  0.00    -0.352 N 
ATOM     12  C   UNL A   1      33.064  34.512  28.449  1.00  0.00     0.251 C 
ATOM     13  H   UNL A   1      31.725  34.289  26.980  1.00  0.00     0.163 HD
ATOM     14  O   UNL A   1      32.590  35.580  28.824  1.00  0.00    -0.269 OA
BRANCH  12  15
ATOM     15  C   UNL A   1      34.262  33.961  29.117  1.00  0.00     0.039 A 
ATOM     16  C   UNL A   1      34.091  32.912  30.024  1.00  0.00     0.014 A 
ATOM     17  C   UNL A   1      35.539  34.470  28.866  1.00  0.00     0.014 A 
ATOM     18  C   UNL A   1      35.205  32.343  30.638  1.00  0.00     0.010 A 
ATOM     19  C   UNL A   1      36.657  33.848  29.419  1.00  0.00     0.010 A 
ATOM     20  C   UNL A   1      36.500  32.785  30.317  1.00  0.00    -0.014 A 
BRANCH  20  21
ATOM     21  C   UNL A   1      37.687  32.129  30.921  1.00  0.00     0.031 A 
ATOM     22  C   UNL A   1      38.147  32.500  32.303  1.00  0.00     0.074 A 
ATOM     23  C   UNL A   1      38.363  31.208  30.208  1.00  0.00     0.049 A 
ATOM     24  N   UNL A   1      39.141  32.011  33.002  1.00  0.00    -0.248 NA
ATOM     25  C   UNL A   1      37.412  33.578  32.982  1.00  0.00     0.031 C 
ATOM     26  C   UNL A   1      38.057  30.815  28.830  1.00  0.00     0.029 A 
ATOM     27  N   UNL A   1      39.445  30.433  30.540  1.00  0.00    -0.354 N 
ATOM     28  C   UNL A   1      39.143  32.714  34.199  1.00  0.00     0.074 A 
ATOM     29  C   UNL A   1      38.101  33.712  34.105  1.00  0.00     0.031 C 
ATOM     30  C   UNL A   1      38.910  29.852  28.448  1.00  0.00     0.029 A 
ATOM     31  C   UNL A   1      39.838  29.578  29.540  1.00  0.00     0.049 A 
ATOM     32  H   UNL A   1      39.897  30.485  31.414  1.00  0.00     0.167 HD
ATOM     33  C   UNL A   1      39.922  32.523  35.290  1.00  0.00     0.037 A 
ATOM     34  C   UNL A   1      40.832  28.670  29.511  1.00  0.00     0.037 A 
ATOM     35  C   UNL A   1      40.956  31.525  35.383  1.00  0.00     0.049 A 
ATOM     36  C   UNL A   1      41.673  28.469  30.742  1.00  0.00     0.074 A 
ATOM     37  C   UNL A   1      41.779  31.228  36.455  1.00  0.00     0.029 A 
ATOM     38  N   UNL A   1      41.310  30.659  34.358  1.00  0.00    -0.354 N 
ATOM     39  N   UNL A   1      41.615  29.088  31.895  1.00  0.00    -0.248 NA
ATOM     40  C   UNL A   1      42.707  27.428  30.670  1.00  0.00     0.031 C 
ATOM     41  C   UNL A   1      42.657  30.211  36.067  1.00  0.00     0.029 A 
ATOM     42  C   UNL A   1      42.347  29.836  34.769  1.00  0.00     0.049 A 
ATOM     43  H   UNL A   1      40.885  30.632  33.470  1.00  0.00     0.167 HD
ATOM     44  C   UNL A   1      42.587  28.501  32.693  1.00  0.00     0.074 A 
ATOM     45  C   UNL A   1      43.200  27.455  31.900  1.00  0.00     0.031 C 
ATOM     46  C   UNL A   1      42.946  28.802  33.966  1.00  0.00     0.037 A 
BRANCH  33  47
ATOM     47  C   UNL A   1      39.671  33.402  36.483  1.00  0.00     0.064 A 
ATOM     48  C   UNL A   1      38.781  33.018  37.499  1.00  0.00     0.173 A 
ATOM     49  C   UNL A   1      40.352  34.618  36.635  1.00  0.00     0.173 A 
ATOM     50  F   UNL A   1      38.094  31.870  37.396  1.00  0.00    -0.203 F 
ATOM     51  C   UNL A   1      38.564  33.831  38.608  1.00  0.00     0.198 A 
ATOM     52  C   UNL A   1      40.156  35.414  37.761  1.00  0.00     0.198 A 
ATOM     53  F   UNL A   1      41.218  35.032  35.697  1.00  0.00    -0.203 F 
ATOM     54  F   UNL A   1      37.674  33.465  39.540  1.00  0.00    -0.200 F 
ATOM     55  C   UNL A   1      39.257  35.023  38.742  1.00  0.00     0.200 A 
ATOM     56  F   UNL A   1      40.836  36.561  37.896  1.00  0.00    -0.200 F 
ATOM     57  F   UNL A   1      39.053  35.801  39.814  1.00  0.00    -0.200 F 
ENDBRANCH  33  47
BRANCH  34  58
ATOM     58  C   UNL A   1      41.065  27.862  28.285  1.00  0.00     0.064 A 
ATOM     59  C   UNL A   1      40.332  26.693  28.037  1.00  0.00     0.173 A 
ATOM     60  C   UNL A   1      42.032  28.238  27.342  1.00  0.00     0.173 A 
ATOM     61  F   UNL A   1      39.407  26.284  28.917  1.00  0.00    -0.203 F 
ATOM     62  C   UNL A   1      40.580  25.914  26.910  1.00  0.00     0.198 A 
ATOM     63  C   UNL A   1      42.258  27.475  26.198  1.00  0.00     0.198 A 
ATOM     64  F   UNL A   1      42.754  29.353  27.528  1.00  0.00    -0.203 F 
ATOM     65  F   UNL A   1      39.903  24.772  26.725  1.00  0.00    -0.200 F 
ATOM     66  C   UNL A   1      41.539  26.308  25.988  1.00  0.00     0.200 A 
ATOM     67  F   UNL A   1      43.173  27.868  25.303  1.00  0.00    -0.200 F 
ATOM     68  F   UNL A   1      41.776  25.559  24.902  1.00  0.00    -0.200 F 
ENDBRANCH  34  58
BRANCH  46  69
ATOM     69  C   UNL A   1      44.037  27.973  34.580  1.00  0.00     0.064 A 
ATOM     70  C   UNL A   1      43.762  26.766  35.241  1.00  0.00     0.173 A 
ATOM     71  C   UNL A   1      45.376  28.386  34.499  1.00  0.00     0.173 A 
ATOM     72  F   UNL A   1      42.497  26.334  35.360  1.00  0.00    -0.203 F 
ATOM     73  C   UNL A   1      44.781  26.026  35.833  1.00  0.00     0.198 A 
ATOM     74  C   UNL A   1      46.396  27.625  35.063  1.00  0.00     0.198 A 
ATOM     75  F   UNL A   1      45.695  29.527  33.869  1.00  0.00    -0.203 F 
ATOM     76  F   UNL A   1      44.487  24.910  36.516  1.00  0.00    -0.200 F 
ATOM     77  C   UNL A   1      46.097  26.454  35.740  1.00  0.00     0.200 A 
ATOM     78  F   UNL A   1      47.669  28.033  34.959  1.00  0.00    -0.200 F 
ATOM     79  F   UNL A   1      47.077  25.740  36.312  1.00  0.00    -0.200 F 
ENDBRANCH  46  69
ENDBRANCH  20  21
ENDBRANCH  12  15
ENDBRANCH  10  11
ENDBRANCH   9  10
ENDBRANCH   8   9
ENDBRANCH   7   8
ENDBRANCH   5   7
ENDBRANCH   2   3
BRANCH   2  80
ATOM     80  C   UNL A   1      33.929  25.635  24.412  1.00  0.00    -0.033 A 
ATOM     81  C   UNL A   1      34.514  25.270  25.633  1.00  0.00     0.005 A 
ATOM     82  C   UNL A   1      34.089  24.765  23.321  1.00  0.00     0.044 A 
ATOM     83  C   UNL A   1      35.248  24.089  25.758  1.00  0.00     0.012 A 
ATOM     84  C   UNL A   1      34.840  23.596  23.449  1.00  0.00     0.131 A 
ATOM     85  C   UNL A   1      35.441  23.239  24.663  1.00  0.00     0.018 A 
ATOM     86  F   UNL A   1      34.994  22.820  22.364  1.00  0.00    -0.206 F 
BRANCH  85  87
ATOM     87  C   UNL A   1      36.341  22.090  24.791  1.00  0.00    -0.012 A 
ATOM     88  C   UNL A   1      35.864  20.770  24.732  1.00  0.00     0.009 A 
ATOM     89  C   UNL A   1      37.697  22.303  25.082  1.00  0.00     0.056 A 
ATOM     90  C   UNL A   1      36.716  19.690  24.973  1.00  0.00     0.004 A 
ATOM     91  C   UNL A   1      38.535  21.227  25.347  1.00  0.00     0.133 A 
ATOM     92  C   UNL A   1      38.052  19.919  25.289  1.00  0.00     0.047 A 
BRANCH  91  93
ATOM     93  O   UNL A   1      39.904  21.354  25.671  1.00  0.00    -0.410 OA
BRANCH  93  94
ATOM     94  C   UNL A   1      40.442  21.308  26.955  1.00  0.00     0.412 C 
ATOM     95  O   UNL A   1      40.144  22.025  27.901  1.00  0.00    -0.224 OA
ATOM     96  N   UNL A   1      41.376  20.322  27.102  1.00  0.00    -0.321 N 
ATOM     97  H   UNL A   1      41.889  20.308  27.941  1.00  0.00     0.167 HD
BRANCH  96  98
ATOM     98  C   UNL A   1      41.672  19.297  26.130  1.00  0.00     0.120 C 
BRANCH  98  99
ATOM     99  C   UNL A   1      43.156  18.961  25.998  1.00  0.00     0.026 C 
BRANCH  99 100
ATOM    100  C   UNL A   1      43.943  19.583  24.837  1.00  0.00     0.037 C 
BRANCH 100 101
ATOM    101  C   UNL A   1      44.476  20.993  24.936  1.00  0.00    -0.048 A 
ATOM    102  C   UNL A   1      43.743  22.094  25.390  1.00  0.00     0.004 A 
ATOM    103  C   UNL A   1      45.788  21.222  24.481  1.00  0.00     0.004 A 
ATOM    104  C   UNL A   1      44.296  23.379  25.387  1.00  0.00     0.000 A 
ATOM    105  C   UNL A   1      46.346  22.502  24.487  1.00  0.00     0.000 A 
ATOM    106  C   UNL A   1      45.597  23.584  24.936  1.00  0.00     0.000 A 
ENDBRANCH 100 101
ENDBRANCH  99 100
ENDBRANCH  98  99
ENDBRANCH  96  98
ENDBRANCH  93  94
ENDBRANCH  91  93
ENDBRANCH  85  87
ENDBRANCH   2  80
TORSDOF 19
ENDMDL
MODEL 3
REMARK VINA RESULT:     -11.3      4.108     10.431
REMARK SMILES C[C@@H](C(=O)NCCCCNC(=O)c1ccc(-c2c3nc(c(-c4c(F)c(F)c(F)c(F)c4F)c4ccc([nH]4)c(-c4c(F)c(F)c(F)c(F)c4F)c4nc(c(-c5c(F)c(F)c(F)c(F)c5F)c5ccc2[nH]5)C=C4)C=C3)cc1)c1ccc(-c2cccc(OC(=O)NCCCc3ccccc3)c2)c(F)c1
REMARK SMILES IDX 1 1 2 2 3 3 4 4 5 5 6 7 7 8 8 9 9 10 10 11 11 12 12 14 13 15
REMARK SMILES IDX 14 16 75 17 15 18 74 19 16 20 17 21 18 22 68 23 19 24 73 25
REMARK SMILES IDX 67 26 69 27 20 28 72 29 66 30 65 31 21 33 53 34 33 35 52 36
REMARK SMILES IDX 34 37 37 38 51 39 70 40 35 41 36 42 50 44 71 45 38 46 22 47
REMARK SMILES IDX 23 48 31 49 24 50 25 51 29 52 32 53 26 54 27 55 30 56 28 57
REMARK SMILES IDX 54 58 55 59 63 60 56 61 57 62 61 63 64 64 58 65 59 66 62 67
REMARK SMILES IDX 60 68 39 69 40 70 48 71 41 72 42 73 46 74 49 75 43 76 44 77
REMARK SMILES IDX 47 78 45 79 76 80 77 81 101 82 78 83 99 84 79 85 100 86
REMARK SMILES IDX 80 87 81 88 98 89 82 90 84 91 83 92 85 93 86 94 87 95 88 96
REMARK SMILES IDX 89 98 90 99 91 100 92 101 93 102 97 103 94 104 96 105 95 106
REMARK H PARENT 5 6 10 13 69 32 37 43 88 97
REMARK Flexibility Score: inf
ROOT
ATOM      1  C   UNL A   1      41.453  26.572  25.769  1.00  0.00     0.023 C 
ATOM      2  C   UNL A   1      41.184  25.937  27.139  1.00  0.00     0.105 C 
ENDROOT
BRANCH   2   3
ATOM      3  C   UNL A   1      42.451  25.247  27.687  1.00  0.00     0.227 C 
ATOM      4  O   UNL A   1      42.980  25.553  28.758  1.00  0.00    -0.274 OA
ATOM      5  N   UNL A   1      43.019  24.213  27.000  1.00  0.00    -0.356 N 
ATOM      6  H   UNL A   1      43.699  23.701  27.497  1.00  0.00     0.163 HD
BRANCH   5   7
ATOM      7  C   UNL A   1      42.771  23.757  25.650  1.00  0.00     0.116 C 
BRANCH   7   8
ATOM      8  C   UNL A   1      43.984  24.034  24.759  1.00  0.00     0.023 C 
BRANCH   8   9
ATOM      9  C   UNL A   1      45.277  23.352  25.210  1.00  0.00     0.023 C 
BRANCH   9  10
ATOM     10  C   UNL A   1      46.338  24.288  25.768  1.00  0.00     0.116 C 
BRANCH  10  11
ATOM     11  N   UNL A   1      46.872  25.195  24.765  1.00  0.00    -0.352 N 
ATOM     12  C   UNL A   1      46.821  26.565  24.714  1.00  0.00     0.251 C 
ATOM     13  H   UNL A   1      47.337  24.763  24.013  1.00  0.00     0.163 HD
ATOM     14  O   UNL A   1      47.215  27.153  23.712  1.00  0.00    -0.269 OA
BRANCH  12  15
ATOM     15  C   UNL A   1      46.260  27.330  25.847  1.00  0.00     0.039 A 
ATOM     16  C   UNL A   1      47.137  27.803  26.825  1.00  0.00     0.014 A 
ATOM     17  C   UNL A   1      44.888  27.576  25.957  1.00  0.00     0.014 A 
ATOM     18  C   UNL A   1      46.645  28.564  27.884  1.00  0.00     0.010 A 
ATOM     19  C   UNL A   1      44.409  28.402  26.971  1.00  0.00     0.010 A 
ATOM     20  C   UNL A   1      45.281  28.897  27.949  1.00  0.00    -0.014 A 
BRANCH  20  21
ATOM     21  C   UNL A   1      44.772  29.766  29.040  1.00  0.00     0.031 A 
ATOM     22  C   UNL A   1      44.387  29.181  30.369  1.00  0.00     0.074 A 
ATOM     23  C   UNL A   1      44.639  31.088  28.820  1.00  0.00     0.049 A 
ATOM     24  N   UNL A   1      43.956  29.788  31.446  1.00  0.00    -0.248 NA
ATOM     25  C   UNL A   1      44.475  27.718  30.503  1.00  0.00     0.031 C 
ATOM     26  C   UNL A   1      44.912  31.764  27.549  1.00  0.00     0.029 A 
ATOM     27  N   UNL A   1      44.245  32.102  29.656  1.00  0.00    -0.354 N 
ATOM     28  C   UNL A   1      43.729  28.787  32.381  1.00  0.00     0.074 A 
ATOM     29  C   UNL A   1      44.000  27.527  31.724  1.00  0.00     0.031 C 
ATOM     30  C   UNL A   1      44.707  33.082  27.700  1.00  0.00     0.029 A 
ATOM     31  C   UNL A   1      44.264  33.341  29.065  1.00  0.00     0.049 A 
ATOM     32  H   UNL A   1      43.973  31.953  30.591  1.00  0.00     0.167 HD
ATOM     33  C   UNL A   1      43.360  28.909  33.678  1.00  0.00     0.037 A 
ATOM     34  C   UNL A   1      43.964  34.552  29.572  1.00  0.00     0.037 A 
ATOM     35  C   UNL A   1      43.095  30.164  34.331  1.00  0.00     0.049 A 
ATOM     36  C   UNL A   1      43.570  34.660  31.020  1.00  0.00     0.074 A 
ATOM     37  C   UNL A   1      42.747  30.398  35.649  1.00  0.00     0.029 A 
ATOM     38  N   UNL A   1      43.149  31.403  33.707  1.00  0.00    -0.354 N 
ATOM     39  N   UNL A   1      43.433  33.712  31.914  1.00  0.00    -0.248 NA
ATOM     40  C   UNL A   1      43.306  36.011  31.532  1.00  0.00     0.031 C 
ATOM     41  C   UNL A   1      42.552  31.774  35.815  1.00  0.00     0.029 A 
ATOM     42  C   UNL A   1      42.829  32.403  34.612  1.00  0.00     0.049 A 
ATOM     43  H   UNL A   1      43.382  31.550  32.762  1.00  0.00     0.167 HD
ATOM     44  C   UNL A   1      43.089  34.351  33.098  1.00  0.00     0.074 A 
ATOM     45  C   UNL A   1      43.067  35.771  32.813  1.00  0.00     0.031 C 
ATOM     46  C   UNL A   1      42.810  33.812  34.310  1.00  0.00     0.037 A 
BRANCH  33  47
ATOM     47  C   UNL A   1      43.239  27.647  34.485  1.00  0.00     0.064 A 
ATOM     48  C   UNL A   1      44.342  27.108  35.168  1.00  0.00     0.173 A 
ATOM     49  C   UNL A   1      42.007  26.991  34.613  1.00  0.00     0.173 A 
ATOM     50  F   UNL A   1      45.547  27.690  35.068  1.00  0.00    -0.203 F 
ATOM     51  C   UNL A   1      44.220  25.947  35.925  1.00  0.00     0.198 A 
ATOM     52  C   UNL A   1      41.881  25.846  35.397  1.00  0.00     0.198 A 
ATOM     53  F   UNL A   1      40.919  27.464  33.986  1.00  0.00    -0.203 F 
ATOM     54  F   UNL A   1      45.297  25.426  36.528  1.00  0.00    -0.200 F 
ATOM     55  C   UNL A   1      42.989  25.322  36.045  1.00  0.00     0.200 A 
ATOM     56  F   UNL A   1      40.688  25.250  35.523  1.00  0.00    -0.200 F 
ATOM     57  F   UNL A   1      42.871  24.208  36.782  1.00  0.00    -0.200 F 
ENDBRANCH  33  47
BRANCH  34  58
ATOM     58  C   UNL A   1      44.054  35.761  28.712  1.00  0.00     0.064 A 
ATOM     59  C   UNL A   1      42.931  36.257  28.037  1.00  0.00     0.173 A 
ATOM     60  C   UNL A   1      45.270  36.439  28.540  1.00  0.00     0.173 A 
ATOM     61  F   UNL A   1      41.749  35.633  28.157  1.00  0.00    -0.203 F 
ATOM     62  C   UNL A   1      43.025  37.365  27.199  1.00  0.00     0.198 A 
ATOM     63  C   UNL A   1      45.357  37.566  27.726  1.00  0.00     0.198 A 
ATOM     64  F   UNL A   1      46.373  36.010  29.171  1.00  0.00    -0.203 F 
ATOM     65  F   UNL A   1      41.946  37.785  26.523  1.00  0.00    -0.200 F 
ATOM     66  C   UNL A   1      44.237  38.023  27.048  1.00  0.00     0.200 A 
ATOM     67  F   UNL A   1      46.525  38.208  27.597  1.00  0.00    -0.200 F 
ATOM     68  F   UNL A   1      44.327  39.090  26.242  1.00  0.00    -0.200 F 
ENDBRANCH  34  58
BRANCH  46  69
ATOM     69  C   UNL A   1      42.479  34.767  35.420  1.00  0.00     0.064 A 
ATOM     70  C   UNL A   1      43.478  35.353  36.212  1.00  0.00     0.173 A 
ATOM     71  C   UNL A   1      41.145  35.109  35.690  1.00  0.00     0.173 A 
ATOM     72  F   UNL A   1      44.768  35.048  36.004  1.00  0.00    -0.203 F 
ATOM     73  C   UNL A   1      43.153  36.212  37.258  1.00  0.00     0.198 A 
ATOM     74  C   UNL A   1      40.825  35.995  36.716  1.00  0.00     0.198 A 
ATOM     75  F   UNL A   1      40.150  34.585  34.958  1.00  0.00    -0.203 F 
ATOM     76  F   UNL A   1      44.120  36.708  38.041  1.00  0.00    -0.200 F 
ATOM     77  C   UNL A   1      41.827  36.535  37.506  1.00  0.00     0.200 A 
ATOM     78  F   UNL A   1      39.544  36.317  36.945  1.00  0.00    -0.200 F 
ATOM     79  F   UNL A   1      41.515  37.361  38.514  1.00  0.00    -0.200 F 
ENDBRANCH  46  69
ENDBRANCH  20  21
ENDBRANCH  12  15
ENDBRANCH  10  11
ENDBRANCH   9  10
ENDBRANCH   8   9
ENDBRANCH   7   8
ENDBRANCH   5   7
ENDBRANCH   2   3
BRANCH   2  80
ATOM     80  C   UNL A   1      40.597  26.928  28.146  1.00  0.00    -0.033 A 
ATOM     81  C   UNL A   1      40.932  28.291  28.149  1.00  0.00     0.005 A 
ATOM     82  C   UNL A   1      39.706  26.469  29.129  1.00  0.00     0.044 A 
ATOM     83  C   UNL A   1      40.411  29.160  29.109  1.00  0.00     0.012 A 
ATOM     84  C   UNL A   1      39.205  27.341  30.096  1.00  0.00     0.131 A 
ATOM     85  C   UNL A   1      39.552  28.697  30.112  1.00  0.00     0.018 A 
ATOM     86  F   UNL A   1      38.387  26.840  31.037  1.00  0.00    -0.206 F 
BRANCH  85  87
ATOM     87  C   UNL A   1      39.147  29.604  31.190  1.00  0.00    -0.012 A 
ATOM     88  C   UNL A   1      40.061  30.055  32.157  1.00  0.00     0.009 A 
ATOM     89  C   UNL A   1      37.795  29.956  31.326  1.00  0.00     0.056 A 
ATOM     90  C   UNL A   1      39.633  30.823  33.241  1.00  0.00     0.004 A 
ATOM     91  C   UNL A   1      37.370  30.698  32.420  1.00  0.00     0.133 A 
ATOM     92  C   UNL A   1      38.284  31.139  33.378  1.00  0.00     0.047 A 
BRANCH  91  93
ATOM     93  O   UNL A   1      36.027  31.074  32.645  1.00  0.00    -0.410 OA
BRANCH  93  94
ATOM     94  C   UNL A   1      35.592  32.341  33.025  1.00  0.00     0.412 C 
ATOM     95  O   UNL A   1      35.800  32.898  34.095  1.00  0.00    -0.224 OA
ATOM     96  N   UNL A   1      34.886  32.975  32.042  1.00  0.00    -0.321 N 
ATOM     97  H   UNL A   1      34.440  33.819  32.279  1.00  0.00     0.167 HD
BRANCH  96  98
ATOM     98  C   UNL A   1      34.740  32.510  30.684  1.00  0.00     0.120 C 
BRANCH  98  99
ATOM     99  C   UNL A   1      35.072  33.554  29.619  1.00  0.00     0.026 C 
BRANCH  99 100
ATOM    100  C   UNL A   1      36.485  33.560  29.021  1.00  0.00     0.037 C 
BRANCH 100 101
ATOM    101  C   UNL A   1      37.698  33.667  29.915  1.00  0.00    -0.048 A 
ATOM    102  C   UNL A   1      37.762  34.424  31.090  1.00  0.00     0.004 A 
ATOM    103  C   UNL A   1      38.867  33.002  29.501  1.00  0.00     0.004 A 
ATOM    104  C   UNL A   1      38.949  34.518  31.823  1.00  0.00     0.000 A 
ATOM    105  C   UNL A   1      40.050  33.086  30.237  1.00  0.00     0.000 A 
ATOM    106  C   UNL A   1      40.093  33.850  31.398  1.00  0.00     0.000 A 
ENDBRANCH 100 101
ENDBRANCH  99 100
ENDBRANCH  98  99
ENDBRANCH  96  98
ENDBRANCH  93  94
ENDBRANCH  91  93
ENDBRANCH  85  87
ENDBRANCH   2  80
TORSDOF 19
ENDMDL
