MODEL 1
REMARK VINA RESULT:     -12.0      0.000      0.000
REMARK SMILES C/C(=N/OCc1ccccc1Nc1c(Cl)cccc1Cl)C(=O)NCCCCNC(=O)c1ccc(-c2c3nc(c(-c4c(F)c(F)c(F)c(F)c4F)c4ccc([nH]4)c(-c4c(F)c(F)c(F)c(F)c4F)c4nc(c(-c5c(F)c(F)c(F)c(F)c5F)c5ccc2[nH]5)C=C4)C=C3)cc1
REMARK SMILES IDX 24 1 23 2 21 3 22 4 2 6 1 7 3 8 4 9 5 10 6 11 7 12 11 13
REMARK SMILES IDX 8 14 10 15 9 16 12 17 13 19 14 20 19 21 15 22 16 23 18 24
REMARK SMILES IDX 20 25 17 26 25 27 26 28 27 29 28 30 29 31 30 33 31 34 32 35
REMARK SMILES IDX 93 36 33 37 92 38 34 39 35 40 36 41 86 42 37 43 91 44 85 45
REMARK SMILES IDX 87 46 38 47 90 48 84 49 83 50 39 52 71 53 51 54 70 55 52 56
REMARK SMILES IDX 55 57 69 58 88 59 53 60 54 61 68 63 89 64 56 65 40 66 41 67
REMARK SMILES IDX 49 68 42 69 43 70 47 71 50 72 44 73 45 74 48 75 46 76 72 77
REMARK SMILES IDX 73 78 81 79 74 80 75 81 79 82 82 83 76 84 77 85 80 86 78 87
REMARK SMILES IDX 57 88 58 89 66 90 59 91 60 92 64 93 67 94 61 95 62 96 65 97
REMARK SMILES IDX 63 98
REMARK H PARENT 23 5 12 18 28 32 87 51 55 62
REMARK Flexibility Score: inf
ROOT
ATOM      1  C   UNL A   1      31.079  27.576  26.328  1.00  0.00     0.116 C 
ENDROOT
BRANCH   1   2
ATOM      2  N   UNL A   1      30.588  26.275  26.693  1.00  0.00    -0.351 N 
ATOM      3  C   UNL A   1      30.785  25.039  26.135  1.00  0.00     0.268 C 
ATOM      4  O   UNL A   1      30.109  24.116  26.596  1.00  0.00    -0.268 OA
ATOM      5  H   UNL A   1      30.007  26.271  27.488  1.00  0.00     0.163 HD
BRANCH   3   6
ATOM      6  C   UNL A   1      31.825  24.662  25.083  1.00  0.00     0.141 C 
ATOM      7  C   UNL A   1      31.311  24.811  23.663  1.00  0.00     0.077 C 
ATOM      8  N   UNL A   1      33.067  24.283  25.183  1.00  0.00    -0.086 NA
BRANCH   8   9
ATOM      9  O   UNL A   1      33.562  24.138  26.467  1.00  0.00    -0.390 OA
BRANCH   9  10
ATOM     10  C   UNL A   1      33.944  22.775  26.735  1.00  0.00     0.302 C 
BRANCH  10  11
ATOM     11  C   UNL A   1      35.223  22.303  26.067  1.00  0.00     0.016 A 
ATOM     12  C   UNL A   1      36.261  23.256  25.969  1.00  0.00     0.009 A 
ATOM     13  C   UNL A   1      35.423  21.004  25.546  1.00  0.00     0.045 A 
ATOM     14  C   UNL A   1      37.483  22.942  25.385  1.00  0.00     0.001 A 
ATOM     15  C   UNL A   1      36.668  20.716  24.955  1.00  0.00     0.026 A 
ATOM     16  C   UNL A   1      37.685  21.669  24.873  1.00  0.00     0.002 A 
BRANCH  13  17
ATOM     17  N   UNL A   1      34.445  19.987  25.670  1.00  0.00    -0.353 N 
ATOM     18  H   UNL A   1      34.120  19.821  26.585  1.00  0.00     0.167 HD
BRANCH  17  19
ATOM     19  C   UNL A   1      33.866  19.174  24.659  1.00  0.00     0.076 A 
ATOM     20  C   UNL A   1      32.767  19.641  23.904  1.00  0.00     0.066 A 
ATOM     21  C   UNL A   1      34.395  17.916  24.300  1.00  0.00     0.066 A 
ATOM     22  Cl  UNL A   1      32.053  21.185  24.210  1.00  0.00    -0.082 Cl
ATOM     23  C   UNL A   1      32.223  18.894  22.851  1.00  0.00     0.023 A 
ATOM     24  C   UNL A   1      33.854  17.174  23.238  1.00  0.00     0.023 A 
ATOM     25  Cl  UNL A   1      35.692  17.180  25.182  1.00  0.00    -0.082 Cl
ATOM     26  C   UNL A   1      32.771  17.663  22.513  1.00  0.00     0.003 A 
ENDBRANCH  17  19
ENDBRANCH  13  17
ENDBRANCH  10  11
ENDBRANCH   9  10
ENDBRANCH   8   9
ENDBRANCH   3   6
ENDBRANCH   1   2
BRANCH   1  27
ATOM     27  C   UNL A   1      32.316  27.940  27.158  1.00  0.00     0.023 C 
BRANCH  27  28
ATOM     28  C   UNL A   1      33.639  27.700  26.440  1.00  0.00     0.023 C 
BRANCH  28  29
ATOM     29  C   UNL A   1      34.267  28.968  25.876  1.00  0.00     0.116 C 
BRANCH  29  30
ATOM     30  N   UNL A   1      33.895  30.178  26.594  1.00  0.00    -0.352 N 
ATOM     31  C   UNL A   1      34.565  30.791  27.626  1.00  0.00     0.251 C 
ATOM     32  H   UNL A   1      33.060  30.610  26.304  1.00  0.00     0.163 HD
ATOM     33  O   UNL A   1      34.088  31.761  28.194  1.00  0.00    -0.269 OA
BRANCH  31  34
ATOM     34  C   UNL A   1      35.853  30.223  28.076  1.00  0.00     0.039 A 
ATOM     35  C   UNL A   1      36.993  30.462  27.306  1.00  0.00     0.014 A 
ATOM     36  C   UNL A   1      35.943  29.496  29.266  1.00  0.00     0.014 A 
ATOM     37  C   UNL A   1      38.232  30.008  27.755  1.00  0.00     0.010 A 
ATOM     38  C   UNL A   1      37.188  29.125  29.757  1.00  0.00     0.010 A 
ATOM     39  C   UNL A   1      38.342  29.355  28.995  1.00  0.00    -0.014 A 
BRANCH  39  40
ATOM     40  C   UNL A   1      39.655  28.860  29.476  1.00  0.00     0.031 A 
ATOM     41  C   UNL A   1      40.408  29.637  30.520  1.00  0.00     0.074 A 
ATOM     42  C   UNL A   1      40.179  27.734  28.956  1.00  0.00     0.049 A 
ATOM     43  N   UNL A   1      41.563  29.374  31.076  1.00  0.00    -0.248 NA
ATOM     44  C   UNL A   1      39.797  30.894  30.982  1.00  0.00     0.031 C 
ATOM     45  C   UNL A   1      39.573  26.929  27.893  1.00  0.00     0.029 A 
ATOM     46  N   UNL A   1      41.341  27.070  29.254  1.00  0.00    -0.354 N 
ATOM     47  C   UNL A   1      41.818  30.434  31.937  1.00  0.00     0.074 A 
ATOM     48  C   UNL A   1      40.734  31.379  31.780  1.00  0.00     0.031 C 
ATOM     49  C   UNL A   1      40.351  25.861  27.653  1.00  0.00     0.029 A 
ATOM     50  C   UNL A   1      41.519  25.920  28.526  1.00  0.00     0.049 A 
ATOM     51  H   UNL A   1      41.986  27.387  29.927  1.00  0.00     0.167 HD
ATOM     52  C   UNL A   1      42.844  30.590  32.806  1.00  0.00     0.037 A 
ATOM     53  C   UNL A   1      42.511  25.009  28.570  1.00  0.00     0.037 A 
ATOM     54  C   UNL A   1      43.901  29.633  32.982  1.00  0.00     0.049 A 
ATOM     55  C   UNL A   1      43.625  25.193  29.567  1.00  0.00     0.074 A 
ATOM     56  C   UNL A   1      44.959  29.667  33.873  1.00  0.00     0.029 A 
ATOM     57  N   UNL A   1      44.031  28.461  32.251  1.00  0.00    -0.354 N 
ATOM     58  N   UNL A   1      43.814  26.159  30.432  1.00  0.00    -0.248 NA
ATOM     59  C   UNL A   1      44.654  24.144  29.605  1.00  0.00     0.031 C 
ATOM     60  C   UNL A   1      45.753  28.536  33.653  1.00  0.00     0.029 A 
ATOM     61  C   UNL A   1      45.160  27.769  32.662  1.00  0.00     0.049 A 
ATOM     62  H   UNL A   1      43.412  28.164  31.544  1.00  0.00     0.167 HD
ATOM     63  C   UNL A   1      44.960  25.820  31.139  1.00  0.00     0.074 A 
ATOM     64  C   UNL A   1      45.412  24.548  30.614  1.00  0.00     0.031 C 
ATOM     65  C   UNL A   1      45.584  26.499  32.134  1.00  0.00     0.037 A 
BRANCH  52  66
ATOM     66  C   UNL A   1      42.860  31.839  33.640  1.00  0.00     0.064 A 
ATOM     67  C   UNL A   1      43.466  33.021  33.185  1.00  0.00     0.173 A 
ATOM     68  C   UNL A   1      42.245  31.863  34.900  1.00  0.00     0.173 A 
ATOM     69  F   UNL A   1      44.085  33.048  31.995  1.00  0.00    -0.203 F 
ATOM     70  C   UNL A   1      43.484  34.168  33.974  1.00  0.00     0.198 A 
ATOM     71  C   UNL A   1      42.235  33.022  35.673  1.00  0.00     0.198 A 
ATOM     72  F   UNL A   1      41.649  30.762  35.383  1.00  0.00    -0.203 F 
ATOM     73  F   UNL A   1      44.120  35.266  33.542  1.00  0.00    -0.200 F 
ATOM     74  C   UNL A   1      42.862  34.170  35.212  1.00  0.00     0.200 A 
ATOM     75  F   UNL A   1      41.623  33.025  36.865  1.00  0.00    -0.200 F 
ATOM     76  F   UNL A   1      42.875  35.277  35.969  1.00  0.00    -0.200 F 
ENDBRANCH  52  66
BRANCH  53  77
ATOM     77  C   UNL A   1      42.473  23.819  27.681  1.00  0.00     0.064 A 
ATOM     78  C   UNL A   1      42.017  22.580  28.154  1.00  0.00     0.173 A 
ATOM     79  C   UNL A   1      42.907  23.888  26.350  1.00  0.00     0.173 A 
ATOM     80  F   UNL A   1      41.608  22.459  29.426  1.00  0.00    -0.203 F 
ATOM     81  C   UNL A   1      42.025  21.450  27.339  1.00  0.00     0.198 A 
ATOM     82  C   UNL A   1      42.887  22.764  25.527  1.00  0.00     0.198 A 
ATOM     83  F   UNL A   1      43.346  25.051  25.845  1.00  0.00    -0.203 F 
ATOM     84  F   UNL A   1      41.636  20.267  27.834  1.00  0.00    -0.200 F 
ATOM     85  C   UNL A   1      42.457  21.543  26.025  1.00  0.00     0.200 A 
ATOM     86  F   UNL A   1      43.292  22.862  24.253  1.00  0.00    -0.200 F 
ATOM     87  F   UNL A   1      42.467  20.456  25.242  1.00  0.00    -0.200 F 
ENDBRANCH  53  77
BRANCH  65  88
ATOM     88  C   UNL A   1      46.794  25.854  32.748  1.00  0.00     0.064 A 
ATOM     89  C   UNL A   1      48.086  26.083  32.252  1.00  0.00     0.173 A 
ATOM     90  C   UNL A   1      46.657  25.010  33.860  1.00  0.00     0.173 A 
ATOM     91  F   UNL A   1      48.269  26.872  31.182  1.00  0.00    -0.203 F 
ATOM     92  C   UNL A   1      49.191  25.458  32.821  1.00  0.00     0.198 A 
ATOM     93  C   UNL A   1      47.768  24.414  34.449  1.00  0.00     0.198 A 
ATOM     94  F   UNL A   1      45.445  24.767  34.381  1.00  0.00    -0.203 F 
ATOM     95  F   UNL A   1      50.409  25.642  32.292  1.00  0.00    -0.200 F 
ATOM     96  C   UNL A   1      49.032  24.630  33.922  1.00  0.00     0.200 A 
ATOM     97  F   UNL A   1      47.615  23.627  35.523  1.00  0.00    -0.200 F 
ATOM     98  F   UNL A   1      50.099  24.030  34.471  1.00  0.00    -0.200 F 
ENDBRANCH  65  88
ENDBRANCH  39  40
ENDBRANCH  31  34
ENDBRANCH  29  30
ENDBRANCH  28  29
ENDBRANCH  27  28
ENDBRANCH   1  27
TORSDOF 16
ENDMDL
MODEL 2
REMARK VINA RESULT:     -11.9      2.184      3.608
REMARK SMILES C/C(=N/OCc1ccccc1Nc1c(Cl)cccc1Cl)C(=O)NCCCCNC(=O)c1ccc(-c2c3nc(c(-c4c(F)c(F)c(F)c(F)c4F)c4ccc([nH]4)c(-c4c(F)c(F)c(F)c(F)c4F)c4nc(c(-c5c(F)c(F)c(F)c(F)c5F)c5ccc2[nH]5)C=C4)C=C3)cc1
REMARK SMILES IDX 24 1 23 2 21 3 22 4 2 6 1 7 3 8 4 9 5 10 6 11 7 12 11 13
REMARK SMILES IDX 8 14 10 15 9 16 12 17 13 19 14 20 19 21 15 22 16 23 18 24
REMARK SMILES IDX 20 25 17 26 25 27 26 28 27 29 28 30 29 31 30 33 31 34 32 35
REMARK SMILES IDX 93 36 33 37 92 38 34 39 35 40 36 41 86 42 37 43 91 44 85 45
REMARK SMILES IDX 87 46 38 47 90 48 84 49 83 50 39 52 71 53 51 54 70 55 52 56
REMARK SMILES IDX 55 57 69 58 88 59 53 60 54 61 68 63 89 64 56 65 40 66 41 67
REMARK SMILES IDX 49 68 42 69 43 70 47 71 50 72 44 73 45 74 48 75 46 76 72 77
REMARK SMILES IDX 73 78 81 79 74 80 75 81 79 82 82 83 76 84 77 85 80 86 78 87
REMARK SMILES IDX 57 88 58 89 66 90 59 91 60 92 64 93 67 94 61 95 62 96 65 97
REMARK SMILES IDX 63 98
REMARK H PARENT 23 5 12 18 28 32 87 51 55 62
REMARK Flexibility Score: inf
ROOT
ATOM      1  C   UNL A   1      32.225  26.720  26.441  1.00  0.00     0.116 C 
ENDROOT
BRANCH   1   2
ATOM      2  N   UNL A   1      31.389  25.632  26.871  1.00  0.00    -0.351 N 
ATOM      3  C   UNL A   1      30.587  24.770  26.170  1.00  0.00     0.268 C 
ATOM      4  O   UNL A   1      29.874  24.019  26.840  1.00  0.00    -0.268 OA
ATOM      5  H   UNL A   1      31.394  25.478  27.843  1.00  0.00     0.163 HD
BRANCH   3   6
ATOM      6  C   UNL A   1      30.564  24.562  24.657  1.00  0.00     0.141 C 
ATOM      7  C   UNL A   1      29.946  25.730  23.911  1.00  0.00     0.077 C 
ATOM      8  N   UNL A   1      31.009  23.599  23.903  1.00  0.00    -0.086 NA
BRANCH   8   9
ATOM      9  O   UNL A   1      31.577  22.520  24.558  1.00  0.00    -0.390 OA
BRANCH   9  10
ATOM     10  C   UNL A   1      32.717  22.009  23.842  1.00  0.00     0.302 C 
BRANCH  10  11
ATOM     11  C   UNL A   1      32.916  20.505  23.902  1.00  0.00     0.016 A 
ATOM     12  C   UNL A   1      32.276  19.754  22.893  1.00  0.00     0.009 A 
ATOM     13  C   UNL A   1      33.679  19.836  24.887  1.00  0.00     0.045 A 
ATOM     14  C   UNL A   1      32.389  18.369  22.836  1.00  0.00     0.001 A 
ATOM     15  C   UNL A   1      33.771  18.433  24.807  1.00  0.00     0.026 A 
ATOM     16  C   UNL A   1      33.136  17.707  23.799  1.00  0.00     0.002 A 
BRANCH  13  17
ATOM     17  N   UNL A   1      34.397  20.538  25.886  1.00  0.00    -0.353 N 
ATOM     18  H   UNL A   1      34.079  20.406  26.809  1.00  0.00     0.167 HD
BRANCH  17  19
ATOM     19  C   UNL A   1      35.513  21.406  25.741  1.00  0.00     0.076 A 
ATOM     20  C   UNL A   1      35.417  22.766  26.112  1.00  0.00     0.066 A 
ATOM     21  C   UNL A   1      36.777  20.952  25.309  1.00  0.00     0.066 A 
ATOM     22  Cl  UNL A   1      33.938  23.439  26.701  1.00  0.00    -0.082 Cl
ATOM     23  C   UNL A   1      36.520  23.627  26.052  1.00  0.00     0.023 A 
ATOM     24  C   UNL A   1      37.883  21.816  25.259  1.00  0.00     0.023 A 
ATOM     25  Cl  UNL A   1      37.030  19.332  24.752  1.00  0.00    -0.082 Cl
ATOM     26  C   UNL A   1      37.756  23.151  25.632  1.00  0.00     0.003 A 
ENDBRANCH  17  19
ENDBRANCH  13  17
ENDBRANCH  10  11
ENDBRANCH   9  10
ENDBRANCH   8   9
ENDBRANCH   3   6
ENDBRANCH   1   2
BRANCH   1  27
ATOM     27  C   UNL A   1      31.798  28.029  27.114  1.00  0.00     0.023 C 
BRANCH  27  28
ATOM     28  C   UNL A   1      31.759  29.229  26.174  1.00  0.00     0.023 C 
BRANCH  28  29
ATOM     29  C   UNL A   1      33.015  30.087  26.226  1.00  0.00     0.116 C 
BRANCH  29  30
ATOM     30  N   UNL A   1      32.764  31.477  26.575  1.00  0.00    -0.352 N 
ATOM     31  C   UNL A   1      33.496  32.285  27.414  1.00  0.00     0.251 C 
ATOM     32  H   UNL A   1      31.973  31.889  26.160  1.00  0.00     0.163 HD
ATOM     33  O   UNL A   1      33.117  33.414  27.683  1.00  0.00    -0.269 OA
BRANCH  31  34
ATOM     34  C   UNL A   1      34.725  31.746  28.031  1.00  0.00     0.039 A 
ATOM     35  C   UNL A   1      35.830  32.590  28.165  1.00  0.00     0.014 A 
ATOM     36  C   UNL A   1      34.775  30.433  28.507  1.00  0.00     0.014 A 
ATOM     37  C   UNL A   1      36.970  32.128  28.819  1.00  0.00     0.010 A 
ATOM     38  C   UNL A   1      35.876  30.005  29.237  1.00  0.00     0.010 A 
ATOM     39  C   UNL A   1      36.994  30.839  29.380  1.00  0.00    -0.014 A 
BRANCH  39  40
ATOM     40  C   UNL A   1      38.207  30.335  30.069  1.00  0.00     0.031 A 
ATOM     41  C   UNL A   1      38.496  30.765  31.481  1.00  0.00     0.074 A 
ATOM     42  C   UNL A   1      39.059  29.520  29.418  1.00  0.00     0.049 A 
ATOM     43  N   UNL A   1      39.495  30.436  32.260  1.00  0.00    -0.248 NA
ATOM     44  C   UNL A   1      37.551  31.715  32.092  1.00  0.00     0.031 C 
ATOM     45  C   UNL A   1      38.920  29.085  28.027  1.00  0.00     0.029 A 
ATOM     46  N   UNL A   1      40.210  28.909  29.844  1.00  0.00    -0.354 N 
ATOM     47  C   UNL A   1      39.304  31.146  33.438  1.00  0.00     0.074 A 
ATOM     48  C   UNL A   1      38.136  31.976  33.250  1.00  0.00     0.031 C 
ATOM     49  C   UNL A   1      39.927  28.250  27.725  1.00  0.00     0.029 A 
ATOM     50  C   UNL A   1      40.794  28.110  28.892  1.00  0.00     0.049 A 
ATOM     51  H   UNL A   1      40.582  29.030  30.747  1.00  0.00     0.167 HD
ATOM     52  C   UNL A   1      40.018  31.085  34.587  1.00  0.00     0.037 A 
ATOM     53  C   UNL A   1      41.898  27.342  28.961  1.00  0.00     0.037 A 
ATOM     54  C   UNL A   1      41.159  30.233  34.781  1.00  0.00     0.049 A 
ATOM     55  C   UNL A   1      42.656  27.270  30.260  1.00  0.00     0.074 A 
ATOM     56  C   UNL A   1      41.921  30.054  35.921  1.00  0.00     0.029 A 
ATOM     57  N   UNL A   1      41.701  29.411  33.804  1.00  0.00    -0.354 N 
ATOM     58  N   UNL A   1      42.421  27.885  31.394  1.00  0.00    -0.248 NA
ATOM     59  C   UNL A   1      43.824  26.380  30.292  1.00  0.00     0.031 C 
ATOM     60  C   UNL A   1      42.950  29.154  35.623  1.00  0.00     0.029 A 
ATOM     61  C   UNL A   1      42.797  28.731  34.312  1.00  0.00     0.049 A 
ATOM     62  H   UNL A   1      41.358  29.323  32.884  1.00  0.00     0.167 HD
ATOM     63  C   UNL A   1      43.387  27.431  32.282  1.00  0.00     0.074 A 
ATOM     64  C   UNL A   1      44.200  26.475  31.559  1.00  0.00     0.031 C 
ATOM     65  C   UNL A   1      43.585  27.774  33.579  1.00  0.00     0.037 A 
BRANCH  52  66
ATOM     66  C   UNL A   1      39.571  31.956  35.726  1.00  0.00     0.064 A 
ATOM     67  C   UNL A   1      40.117  33.233  35.934  1.00  0.00     0.173 A 
ATOM     68  C   UNL A   1      38.572  31.521  36.608  1.00  0.00     0.173 A 
ATOM     69  F   UNL A   1      41.088  33.691  35.130  1.00  0.00    -0.203 F 
ATOM     70  C   UNL A   1      39.702  34.026  37.000  1.00  0.00     0.198 A 
ATOM     71  C   UNL A   1      38.135  32.330  37.654  1.00  0.00     0.198 A 
ATOM     72  F   UNL A   1      38.014  30.310  36.455  1.00  0.00    -0.203 F 
ATOM     73  F   UNL A   1      40.280  35.216  37.212  1.00  0.00    -0.200 F 
ATOM     74  C   UNL A   1      38.707  33.578  37.854  1.00  0.00     0.200 A 
ATOM     75  F   UNL A   1      37.165  31.899  38.473  1.00  0.00    -0.200 F 
ATOM     76  F   UNL A   1      38.305  34.344  38.878  1.00  0.00    -0.200 F 
ENDBRANCH  52  66
BRANCH  53  77
ATOM     77  C   UNL A   1      42.327  26.542  27.783  1.00  0.00     0.064 A 
ATOM     78  C   UNL A   1      43.300  27.027  26.899  1.00  0.00     0.173 A 
ATOM     79  C   UNL A   1      41.761  25.289  27.507  1.00  0.00     0.173 A 
ATOM     80  F   UNL A   1      43.858  28.229  27.110  1.00  0.00    -0.203 F 
ATOM     81  C   UNL A   1      43.670  26.303  25.767  1.00  0.00     0.198 A 
ATOM     82  C   UNL A   1      42.153  24.553  26.391  1.00  0.00     0.198 A 
ATOM     83  F   UNL A   1      40.831  24.776  28.327  1.00  0.00    -0.203 F 
ATOM     84  F   UNL A   1      44.563  26.816  24.909  1.00  0.00    -0.200 F 
ATOM     85  C   UNL A   1      43.099  25.065  25.516  1.00  0.00     0.200 A 
ATOM     86  F   UNL A   1      41.609  23.350  26.160  1.00  0.00    -0.200 F 
ATOM     87  F   UNL A   1      43.453  24.370  24.426  1.00  0.00    -0.200 F 
ENDBRANCH  53  77
BRANCH  65  88
ATOM     88  C   UNL A   1      44.696  27.075  34.310  1.00  0.00     0.064 A 
ATOM     89  C   UNL A   1      45.989  27.613  34.379  1.00  0.00     0.173 A 
ATOM     90  C   UNL A   1      44.453  25.858  34.965  1.00  0.00     0.173 A 
ATOM     91  F   UNL A   1      46.274  28.768  33.758  1.00  0.00    -0.203 F 
ATOM     92  C   UNL A   1      47.009  26.937  35.042  1.00  0.00     0.198 A 
ATOM     93  C   UNL A   1      45.468  25.202  35.657  1.00  0.00     0.198 A 
ATOM     94  F   UNL A   1      43.232  25.306  34.939  1.00  0.00    -0.203 F 
ATOM     95  F   UNL A   1      48.252  27.439  35.043  1.00  0.00    -0.200 F 
ATOM     96  C   UNL A   1      46.747  25.737  35.685  1.00  0.00     0.200 A 
ATOM     97  F   UNL A   1      45.208  24.051  36.291  1.00  0.00    -0.200 F 
ATOM     98  F   UNL A   1      47.731  25.089  36.325  1.00  0.00    -0.200 F 
ENDBRANCH  65  88
ENDBRANCH  39  40
ENDBRANCH  31  34
ENDBRANCH  29  30
ENDBRANCH  28  29
ENDBRANCH  27  28
ENDBRANCH   1  27
TORSDOF 16
ENDMDL
MODEL 3
REMARK VINA RESULT:     -11.9      4.103      9.056
REMARK SMILES C/C(=N/OCc1ccccc1Nc1c(Cl)cccc1Cl)C(=O)NCCCCNC(=O)c1ccc(-c2c3nc(c(-c4c(F)c(F)c(F)c(F)c4F)c4ccc([nH]4)c(-c4c(F)c(F)c(F)c(F)c4F)c4nc(c(-c5c(F)c(F)c(F)c(F)c5F)c5ccc2[nH]5)C=C4)C=C3)cc1
REMARK SMILES IDX 24 1 23 2 21 3 22 4 2 6 1 7 3 8 4 9 5 10 6 11 7 12 11 13
REMARK SMILES IDX 8 14 10 15 9 16 12 17 13 19 14 20 19 21 15 22 16 23 18 24
REMARK SMILES IDX 20 25 17 26 25 27 26 28 27 29 28 30 29 31 30 33 31 34 32 35
REMARK SMILES IDX 93 36 33 37 92 38 34 39 35 40 36 41 86 42 37 43 91 44 85 45
REMARK SMILES IDX 87 46 38 47 90 48 84 49 83 50 39 52 71 53 51 54 70 55 52 56
REMARK SMILES IDX 55 57 69 58 88 59 53 60 54 61 68 63 89 64 56 65 40 66 41 67
REMARK SMILES IDX 49 68 42 69 43 70 47 71 50 72 44 73 45 74 48 75 46 76 72 77
REMARK SMILES IDX 73 78 81 79 74 80 75 81 79 82 82 83 76 84 77 85 80 86 78 87
REMARK SMILES IDX 57 88 58 89 66 90 59 91 60 92 64 93 67 94 61 95 62 96 65 97
REMARK SMILES IDX 63 98
REMARK H PARENT 23 5 12 18 28 32 87 51 55 62
REMARK Flexibility Score: inf
ROOT
ATOM      1  C   UNL A   1      35.523  19.965  24.798  1.00  0.00     0.116 C 
ENDROOT
BRANCH   1   2
ATOM      2  N   UNL A   1      34.406  19.229  25.324  1.00  0.00    -0.351 N 
ATOM      3  C   UNL A   1      33.113  19.105  24.889  1.00  0.00     0.268 C 
ATOM      4  O   UNL A   1      32.338  18.507  25.638  1.00  0.00    -0.268 OA
ATOM      5  H   UNL A   1      34.606  18.722  26.144  1.00  0.00     0.163 HD
BRANCH   3   6
ATOM      6  C   UNL A   1      32.556  19.530  23.531  1.00  0.00     0.141 C 
ATOM      7  C   UNL A   1      32.441  18.375  22.554  1.00  0.00     0.077 C 
ATOM      8  N   UNL A   1      32.132  20.676  23.084  1.00  0.00    -0.086 NA
BRANCH   8   9
ATOM      9  O   UNL A   1      32.227  21.748  23.955  1.00  0.00    -0.390 OA
BRANCH   9  10
ATOM     10  C   UNL A   1      32.959  22.841  23.370  1.00  0.00     0.302 C 
BRANCH  10  11
ATOM     11  C   UNL A   1      34.321  23.125  23.977  1.00  0.00     0.016 A 
ATOM     12  C   UNL A   1      35.428  22.982  23.111  1.00  0.00     0.009 A 
ATOM     13  C   UNL A   1      34.537  23.505  25.322  1.00  0.00     0.045 A 
ATOM     14  C   UNL A   1      36.726  23.222  23.547  1.00  0.00     0.001 A 
ATOM     15  C   UNL A   1      35.862  23.735  25.736  1.00  0.00     0.026 A 
ATOM     16  C   UNL A   1      36.944  23.596  24.865  1.00  0.00     0.002 A 
BRANCH  13  17
ATOM     17  N   UNL A   1      33.464  23.727  26.219  1.00  0.00    -0.353 N 
ATOM     18  H   UNL A   1      33.457  23.155  27.021  1.00  0.00     0.167 HD
BRANCH  17  19
ATOM     19  C   UNL A   1      32.397  24.660  26.125  1.00  0.00     0.076 A 
ATOM     20  C   UNL A   1      32.658  26.023  25.858  1.00  0.00     0.066 A 
ATOM     21  C   UNL A   1      31.042  24.276  26.206  1.00  0.00     0.066 A 
ATOM     22  Cl  UNL A   1      34.271  26.618  25.690  1.00  0.00    -0.082 Cl
ATOM     23  C   UNL A   1      31.624  26.953  25.685  1.00  0.00     0.023 A 
ATOM     24  C   UNL A   1      30.008  25.208  26.023  1.00  0.00     0.023 A 
ATOM     25  Cl  UNL A   1      30.568  22.658  26.601  1.00  0.00    -0.082 Cl
ATOM     26  C   UNL A   1      30.298  26.544  25.761  1.00  0.00     0.003 A 
ENDBRANCH  17  19
ENDBRANCH  13  17
ENDBRANCH  10  11
ENDBRANCH   9  10
ENDBRANCH   8   9
ENDBRANCH   3   6
ENDBRANCH   1   2
BRANCH   1  27
ATOM     27  C   UNL A   1      36.829  19.188  25.004  1.00  0.00     0.023 C 
BRANCH  27  28
ATOM     28  C   UNL A   1      38.086  19.984  24.671  1.00  0.00     0.023 C 
BRANCH  28  29
ATOM     29  C   UNL A   1      39.045  20.129  25.844  1.00  0.00     0.116 C 
BRANCH  29  30
ATOM     30  N   UNL A   1      40.107  19.134  25.863  1.00  0.00    -0.352 N 
ATOM     31  C   UNL A   1      41.445  19.328  26.115  1.00  0.00     0.251 C 
ATOM     32  H   UNL A   1      39.833  18.209  25.671  1.00  0.00     0.163 HD
ATOM     33  O   UNL A   1      42.240  18.407  26.012  1.00  0.00    -0.269 OA
BRANCH  31  34
ATOM     34  C   UNL A   1      41.916  20.685  26.461  1.00  0.00     0.039 A 
ATOM     35  C   UNL A   1      42.046  21.627  25.440  1.00  0.00     0.014 A 
ATOM     36  C   UNL A   1      42.189  21.035  27.786  1.00  0.00     0.014 A 
ATOM     37  C   UNL A   1      42.408  22.935  25.755  1.00  0.00     0.010 A 
ATOM     38  C   UNL A   1      42.459  22.359  28.109  1.00  0.00     0.010 A 
ATOM     39  C   UNL A   1      42.595  23.317  27.094  1.00  0.00    -0.014 A 
BRANCH  39  40
ATOM     40  C   UNL A   1      42.990  24.704  27.438  1.00  0.00     0.031 A 
ATOM     41  C   UNL A   1      44.396  25.168  27.173  1.00  0.00     0.074 A 
ATOM     42  C   UNL A   1      42.098  25.533  28.012  1.00  0.00     0.049 A 
ATOM     43  N   UNL A   1      44.939  26.338  27.395  1.00  0.00    -0.248 NA
ATOM     44  C   UNL A   1      45.327  24.176  26.610  1.00  0.00     0.031 C 
ATOM     45  C   UNL A   1      40.724  25.179  28.377  1.00  0.00     0.029 A 
ATOM     46  N   UNL A   1      42.212  26.848  28.387  1.00  0.00    -0.354 N 
ATOM     47  C   UNL A   1      46.269  26.215  27.012  1.00  0.00     0.074 A 
ATOM     48  C   UNL A   1      46.471  24.841  26.611  1.00  0.00     0.031 C 
ATOM     49  C   UNL A   1      40.114  26.259  28.890  1.00  0.00     0.029 A 
ATOM     50  C   UNL A   1      41.058  27.372  28.914  1.00  0.00     0.049 A 
ATOM     51  H   UNL A   1      43.044  27.366  28.288  1.00  0.00     0.167 HD
ATOM     52  C   UNL A   1      47.227  27.171  26.966  1.00  0.00     0.037 A 
ATOM     53  C   UNL A   1      40.792  28.618  29.353  1.00  0.00     0.037 A 
ATOM     54  C   UNL A   1      47.013  28.543  27.334  1.00  0.00     0.049 A 
ATOM     55  C   UNL A   1      41.868  29.668  29.262  1.00  0.00     0.074 A 
ATOM     56  C   UNL A   1      47.899  29.604  27.274  1.00  0.00     0.029 A 
ATOM     57  N   UNL A   1      45.819  29.047  27.831  1.00  0.00    -0.354 N 
ATOM     58  N   UNL A   1      43.098  29.560  28.825  1.00  0.00    -0.248 NA
ATOM     59  C   UNL A   1      41.507  31.020  29.711  1.00  0.00     0.031 C 
ATOM     60  C   UNL A   1      47.255  30.741  27.772  1.00  0.00     0.029 A 
ATOM     61  C   UNL A   1      45.950  30.402  28.094  1.00  0.00     0.049 A 
ATOM     62  H   UNL A   1      44.999  28.520  27.976  1.00  0.00     0.167 HD
ATOM     63  C   UNL A   1      43.647  30.833  28.912  1.00  0.00     0.074 A 
ATOM     64  C   UNL A   1      42.608  31.700  29.427  1.00  0.00     0.031 C 
ATOM     65  C   UNL A   1      44.899  31.248  28.595  1.00  0.00     0.037 A 
BRANCH  52  66
ATOM     66  C   UNL A   1      48.589  26.761  26.486  1.00  0.00     0.064 A 
ATOM     67  C   UNL A   1      48.987  26.946  25.152  1.00  0.00     0.173 A 
ATOM     68  C   UNL A   1      49.517  26.194  27.372  1.00  0.00     0.173 A 
ATOM     69  F   UNL A   1      48.132  27.468  24.259  1.00  0.00    -0.203 F 
ATOM     70  C   UNL A   1      50.249  26.551  24.717  1.00  0.00     0.198 A 
ATOM     71  C   UNL A   1      50.791  25.830  26.942  1.00  0.00     0.198 A 
ATOM     72  F   UNL A   1      49.191  25.995  28.658  1.00  0.00    -0.203 F 
ATOM     73  F   UNL A   1      50.584  26.685  23.427  1.00  0.00    -0.200 F 
ATOM     74  C   UNL A   1      51.152  26.001  25.613  1.00  0.00     0.200 A 
ATOM     75  F   UNL A   1      51.667  25.309  27.812  1.00  0.00    -0.200 F 
ATOM     76  F   UNL A   1      52.369  25.625  25.195  1.00  0.00    -0.200 F 
ENDBRANCH  52  66
BRANCH  53  77
ATOM     77  C   UNL A   1      39.440  28.954  29.871  1.00  0.00     0.064 A 
ATOM     78  C   UNL A   1      38.456  29.487  29.025  1.00  0.00     0.173 A 
ATOM     79  C   UNL A   1      39.108  28.770  31.221  1.00  0.00     0.173 A 
ATOM     80  F   UNL A   1      38.731  29.698  27.730  1.00  0.00    -0.203 F 
ATOM     81  C   UNL A   1      37.204  29.849  29.516  1.00  0.00     0.198 A 
ATOM     82  C   UNL A   1      37.846  29.106  31.704  1.00  0.00     0.198 A 
ATOM     83  F   UNL A   1      40.011  28.257  32.071  1.00  0.00    -0.203 F 
ATOM     84  F   UNL A   1      36.302  30.407  28.696  1.00  0.00    -0.200 F 
ATOM     85  C   UNL A   1      36.898  29.655  30.854  1.00  0.00     0.200 A 
ATOM     86  F   UNL A   1      37.549  28.903  32.995  1.00  0.00    -0.200 F 
ATOM     87  F   UNL A   1      35.694  30.007  31.327  1.00  0.00    -0.200 F 
ENDBRANCH  53  77
BRANCH  65  88
ATOM     88  C   UNL A   1      45.194  32.713  28.752  1.00  0.00     0.064 A 
ATOM     89  C   UNL A   1      45.770  33.230  29.922  1.00  0.00     0.173 A 
ATOM     90  C   UNL A   1      44.913  33.606  27.708  1.00  0.00     0.173 A 
ATOM     91  F   UNL A   1      46.046  32.417  30.955  1.00  0.00    -0.203 F 
ATOM     92  C   UNL A   1      46.014  34.593  30.056  1.00  0.00     0.198 A 
ATOM     93  C   UNL A   1      45.191  34.964  27.832  1.00  0.00     0.198 A 
ATOM     94  F   UNL A   1      44.372  33.163  26.563  1.00  0.00    -0.203 F 
ATOM     95  F   UNL A   1      46.507  35.073  31.207  1.00  0.00    -0.200 F 
ATOM     96  C   UNL A   1      45.731  35.458  29.010  1.00  0.00     0.200 A 
ATOM     97  F   UNL A   1      44.931  35.796  26.814  1.00  0.00    -0.200 F 
ATOM     98  F   UNL A   1      45.969  36.771  29.141  1.00  0.00    -0.200 F 
ENDBRANCH  65  88
ENDBRANCH  39  40
ENDBRANCH  31  34
ENDBRANCH  29  30
ENDBRANCH  28  29
ENDBRANCH  27  28
ENDBRANCH   1  27
TORSDOF 16
ENDMDL
