MODEL 1
REMARK VINA RESULT:     -14.4      0.000      0.000
REMARK SMILES Cc1ccc(-c2nn(-c3ccccc3)cc2[C@@H]2[NH2+][C@H](C(=O)NCCCCNC(=O)c3ccc(-c4c5nc(c(-c6c(F)c(F)c(F)c(F)c6F)c6ccc([nH]6)c(-c6c(F)c(F)c(F)c(F)c6F)c6nc(c(-c7c(F)c(F)c(F)c(F)c7F)c7ccc4[nH]7)C=C6)C=C5)cc3)CS2)cc1
REMARK SMILES IDX 24 1 23 2 22 3 20 4 21 5 19 7 17 8 18 9 94 10 93 13 16 14
REMARK SMILES IDX 6 15 7 16 8 17 15 18 5 19 1 20 2 21 3 22 96 23 4 24 95 25
REMARK SMILES IDX 9 26 10 27 14 28 11 29 13 30 12 31 25 32 26 33 27 34 28 35
REMARK SMILES IDX 29 37 30 38 31 39 92 40 32 41 91 42 33 43 34 44 35 45 85 46
REMARK SMILES IDX 36 47 90 48 84 49 86 50 37 51 89 52 83 53 82 54 38 56 70 57
REMARK SMILES IDX 50 58 69 59 51 60 54 61 68 62 87 63 52 64 53 65 67 67 88 68
REMARK SMILES IDX 55 69 39 70 40 71 48 72 41 73 42 74 46 75 49 76 43 77 44 78
REMARK SMILES IDX 47 79 45 80 71 81 72 82 80 83 73 84 74 85 78 86 81 87 75 88
REMARK SMILES IDX 76 89 79 90 77 91 56 92 57 93 65 94 58 95 59 96 63 97 66 98
REMARK SMILES IDX 60 99 61 100 64 101 62 102
REMARK H PARENT 22 6 18 11 18 12 27 36 86 55 54 66
REMARK Flexibility Score: inf
ROOT
ATOM      1  C   UNL A   1      35.953  23.322  24.606  1.00  0.00     0.023 C 
ENDROOT
BRANCH   1   2
ATOM      2  C   UNL A   1      35.065  24.498  25.041  1.00  0.00     0.116 C 
BRANCH   2   3
ATOM      3  N   UNL A   1      34.260  25.137  24.003  1.00  0.00    -0.351 N 
ATOM      4  C   UNL A   1      34.096  26.483  23.770  1.00  0.00     0.279 C 
ATOM      5  O   UNL A   1      34.161  26.822  22.577  1.00  0.00    -0.268 OA
ATOM      6  H   UNL A   1      33.777  24.531  23.396  1.00  0.00     0.163 HD
BRANCH   4   7
ATOM      7  C   UNL A   1      33.663  27.558  24.808  1.00  0.00     0.283 C 
ATOM      8  C   UNL A   1      31.429  28.235  25.510  1.00  0.00     0.278 C 
ATOM      9  N   UNL A   1      32.476  28.389  24.482  1.00  0.00    -0.320 N 
ATOM     10  S   UNL A   1      32.328  27.990  27.055  1.00  0.00    -0.087 SA
ATOM     11  H   UNL A   1      32.757  29.368  24.436  1.00  0.00     0.348 HD
ATOM     12  H   UNL A   1      32.100  28.083  23.585  1.00  0.00     0.348 HD
ATOM     13  C   UNL A   1      33.591  26.985  26.232  1.00  0.00     0.151 C 
BRANCH   8  14
ATOM     14  C   UNL A   1      30.591  27.072  25.094  1.00  0.00     0.067 A 
ATOM     15  C   UNL A   1      29.727  26.974  23.954  1.00  0.00     0.103 A 
ATOM     16  N   UNL A   1      29.547  25.660  23.656  1.00  0.00    -0.167 NA
ATOM     17  N   UNL A   1      30.280  24.979  24.594  1.00  0.00    -0.240 N 
ATOM     18  C   UNL A   1      30.545  25.806  25.655  1.00  0.00     0.126 A 
BRANCH  15  19
ATOM     19  C   UNL A   1      29.235  28.109  23.115  1.00  0.00     0.003 A 
ATOM     20  C   UNL A   1      27.965  31.781  21.122  1.00  0.00     0.044 C 
ATOM     21  C   UNL A   1      28.374  30.499  21.788  1.00  0.00    -0.051 A 
ATOM     22  C   UNL A   1      29.682  30.047  21.653  1.00  0.00     0.004 A 
ATOM     23  C   UNL A   1      27.485  29.725  22.544  1.00  0.00     0.004 A 
ATOM     24  C   UNL A   1      30.098  28.883  22.312  1.00  0.00     0.011 A 
ATOM     25  C   UNL A   1      27.909  28.542  23.190  1.00  0.00     0.011 A 
ENDBRANCH  15  19
BRANCH  17  26
ATOM     26  C   UNL A   1      30.876  23.676  24.437  1.00  0.00     0.065 A 
ATOM     27  C   UNL A   1      31.373  23.222  23.215  1.00  0.00     0.028 A 
ATOM     28  C   UNL A   1      31.110  22.861  25.549  1.00  0.00     0.028 A 
ATOM     29  C   UNL A   1      32.106  22.031  23.097  1.00  0.00     0.002 A 
ATOM     30  C   UNL A   1      31.764  21.625  25.424  1.00  0.00     0.002 A 
ATOM     31  C   UNL A   1      32.266  21.209  24.198  1.00  0.00     0.000 A 
ENDBRANCH  17  26
ENDBRANCH   8  14
ENDBRANCH   4   7
ENDBRANCH   2   3
ENDBRANCH   1   2
BRANCH   1  32
ATOM     32  C   UNL A   1      37.490  23.252  24.954  1.00  0.00     0.023 C 
BRANCH  32  33
ATOM     33  C   UNL A   1      38.090  22.144  25.840  1.00  0.00     0.116 C 
BRANCH  33  34
ATOM     34  N   UNL A   1      39.555  22.128  25.955  1.00  0.00    -0.352 N 
ATOM     35  C   UNL A   1      40.460  23.036  26.508  1.00  0.00     0.251 C 
ATOM     36  H   UNL A   1      39.976  21.326  25.570  1.00  0.00     0.163 HD
ATOM     37  O   UNL A   1      41.602  22.658  26.714  1.00  0.00    -0.269 OA
BRANCH  35  38
ATOM     38  C   UNL A   1      40.097  24.435  26.908  1.00  0.00     0.039 A 
ATOM     39  C   UNL A   1      40.638  25.532  26.200  1.00  0.00     0.014 A 
ATOM     40  C   UNL A   1      39.217  24.709  27.942  1.00  0.00     0.014 A 
ATOM     41  C   UNL A   1      40.477  26.851  26.669  1.00  0.00     0.010 A 
ATOM     42  C   UNL A   1      39.083  26.007  28.425  1.00  0.00     0.010 A 
ATOM     43  C   UNL A   1      39.780  27.074  27.854  1.00  0.00    -0.014 A 
BRANCH  43  44
ATOM     44  C   UNL A   1      39.928  28.263  28.708  1.00  0.00     0.031 A 
ATOM     45  C   UNL A   1      38.940  29.365  28.792  1.00  0.00     0.074 A 
ATOM     46  C   UNL A   1      40.852  28.179  29.693  1.00  0.00     0.049 A 
ATOM     47  N   UNL A   1      39.171  30.520  29.334  1.00  0.00    -0.248 NA
ATOM     48  C   UNL A   1      37.582  29.243  28.289  1.00  0.00     0.031 C 
ATOM     49  C   UNL A   1      40.908  28.950  30.934  1.00  0.00     0.029 A 
ATOM     50  N   UNL A   1      41.991  27.371  29.745  1.00  0.00    -0.354 N 
ATOM     51  C   UNL A   1      37.959  31.149  29.542  1.00  0.00     0.074 A 
ATOM     52  C   UNL A   1      37.015  30.346  28.796  1.00  0.00     0.031 C 
ATOM     53  C   UNL A   1      42.086  28.735  31.539  1.00  0.00     0.029 A 
ATOM     54  C   UNL A   1      42.910  27.987  30.611  1.00  0.00     0.049 A 
ATOM     55  H   UNL A   1      42.125  26.524  29.261  1.00  0.00     0.167 HD
ATOM     56  C   UNL A   1      37.876  32.190  30.433  1.00  0.00     0.037 A 
ATOM     57  C   UNL A   1      44.099  28.449  30.122  1.00  0.00     0.037 A 
ATOM     58  C   UNL A   1      39.183  32.466  31.054  1.00  0.00     0.049 A 
ATOM     59  C   UNL A   1      44.221  29.955  30.176  1.00  0.00     0.074 A 
ATOM     60  C   UNL A   1      39.692  32.201  32.317  1.00  0.00     0.029 A 
ATOM     61  N   UNL A   1      40.269  32.867  30.276  1.00  0.00    -0.354 N 
ATOM     62  N   UNL A   1      43.213  30.754  30.389  1.00  0.00    -0.248 NA
ATOM     63  C   UNL A   1      45.471  30.681  29.978  1.00  0.00     0.031 C 
ATOM     64  C   UNL A   1      41.097  32.385  32.277  1.00  0.00     0.029 A 
ATOM     65  C   UNL A   1      41.449  32.775  30.996  1.00  0.00     0.049 A 
ATOM     66  H   UNL A   1      40.207  33.174  29.343  1.00  0.00     0.167 HD
ATOM     67  C   UNL A   1      43.624  32.050  30.305  1.00  0.00     0.074 A 
ATOM     68  C   UNL A   1      45.054  31.955  30.075  1.00  0.00     0.031 C 
ATOM     69  C   UNL A   1      42.743  33.088  30.399  1.00  0.00     0.037 A 
BRANCH  56  70
ATOM     70  C   UNL A   1      36.579  32.803  30.974  1.00  0.00     0.064 A 
ATOM     71  C   UNL A   1      35.829  33.733  30.211  1.00  0.00     0.173 A 
ATOM     72  C   UNL A   1      36.023  32.536  32.240  1.00  0.00     0.173 A 
ATOM     73  F   UNL A   1      36.130  34.001  28.934  1.00  0.00    -0.203 F 
ATOM     74  C   UNL A   1      34.714  34.417  30.718  1.00  0.00     0.198 A 
ATOM     75  C   UNL A   1      34.939  33.254  32.768  1.00  0.00     0.198 A 
ATOM     76  F   UNL A   1      36.446  31.516  32.991  1.00  0.00    -0.203 F 
ATOM     77  F   UNL A   1      34.055  35.287  29.939  1.00  0.00    -0.200 F 
ATOM     78  C   UNL A   1      34.291  34.204  32.010  1.00  0.00     0.200 A 
ATOM     79  F   UNL A   1      34.520  32.999  34.015  1.00  0.00    -0.200 F 
ATOM     80  F   UNL A   1      33.245  34.877  32.509  1.00  0.00    -0.200 F 
ENDBRANCH  56  70
BRANCH  57  81
ATOM     81  C   UNL A   1      44.627  27.571  29.044  1.00  0.00     0.064 A 
ATOM     82  C   UNL A   1      45.149  26.322  29.430  1.00  0.00     0.173 A 
ATOM     83  C   UNL A   1      44.207  27.719  27.716  1.00  0.00     0.173 A 
ATOM     84  F   UNL A   1      45.554  26.130  30.696  1.00  0.00    -0.203 F 
ATOM     85  C   UNL A   1      45.133  25.235  28.562  1.00  0.00     0.198 A 
ATOM     86  C   UNL A   1      44.193  26.624  26.850  1.00  0.00     0.198 A 
ATOM     87  F   UNL A   1      43.681  28.879  27.296  1.00  0.00    -0.203 F 
ATOM     88  F   UNL A   1      45.557  24.038  28.988  1.00  0.00    -0.200 F 
ATOM     89  C   UNL A   1      44.618  25.376  27.286  1.00  0.00     0.200 A 
ATOM     90  F   UNL A   1      43.678  26.754  25.618  1.00  0.00    -0.200 F 
ATOM     91  F   UNL A   1      44.500  24.306  26.486  1.00  0.00    -0.200 F 
ENDBRANCH  57  81
BRANCH  69  92
ATOM     92  C   UNL A   1      43.087  34.503  30.031  1.00  0.00     0.064 A 
ATOM     93  C   UNL A   1      43.319  35.506  30.988  1.00  0.00     0.173 A 
ATOM     94  C   UNL A   1      43.317  34.866  28.688  1.00  0.00     0.173 A 
ATOM     95  F   UNL A   1      43.267  35.240  32.301  1.00  0.00    -0.203 F 
ATOM     96  C   UNL A   1      43.660  36.808  30.623  1.00  0.00     0.198 A 
ATOM     97  C   UNL A   1      43.712  36.155  28.330  1.00  0.00     0.198 A 
ATOM     98  F   UNL A   1      43.184  33.978  27.692  1.00  0.00    -0.203 F 
ATOM     99  F   UNL A   1      43.812  37.744  31.571  1.00  0.00    -0.200 F 
ATOM    100  C   UNL A   1      43.861  37.131  29.295  1.00  0.00     0.200 A 
ATOM    101  F   UNL A   1      43.960  36.443  27.044  1.00  0.00    -0.200 F 
ATOM    102  F   UNL A   1      44.216  38.375  28.950  1.00  0.00    -0.200 F 
ENDBRANCH  69  92
ENDBRANCH  43  44
ENDBRANCH  35  38
ENDBRANCH  33  34
ENDBRANCH  32  33
ENDBRANCH   1  32
TORSDOF 14
ENDMDL
MODEL 2
REMARK VINA RESULT:     -14.3      3.160      9.566
REMARK SMILES Cc1ccc(-c2nn(-c3ccccc3)cc2[C@@H]2[NH2+][C@H](C(=O)NCCCCNC(=O)c3ccc(-c4c5nc(c(-c6c(F)c(F)c(F)c(F)c6F)c6ccc([nH]6)c(-c6c(F)c(F)c(F)c(F)c6F)c6nc(c(-c7c(F)c(F)c(F)c(F)c7F)c7ccc4[nH]7)C=C6)C=C5)cc3)CS2)cc1
REMARK SMILES IDX 24 1 23 2 22 3 20 4 21 5 19 7 17 8 18 9 94 10 93 13 16 14
REMARK SMILES IDX 6 15 7 16 8 17 15 18 5 19 1 20 2 21 3 22 96 23 4 24 95 25
REMARK SMILES IDX 9 26 10 27 14 28 11 29 13 30 12 31 25 32 26 33 27 34 28 35
REMARK SMILES IDX 29 37 30 38 31 39 92 40 32 41 91 42 33 43 34 44 35 45 85 46
REMARK SMILES IDX 36 47 90 48 84 49 86 50 37 51 89 52 83 53 82 54 38 56 70 57
REMARK SMILES IDX 50 58 69 59 51 60 54 61 68 62 87 63 52 64 53 65 67 67 88 68
REMARK SMILES IDX 55 69 39 70 40 71 48 72 41 73 42 74 46 75 49 76 43 77 44 78
REMARK SMILES IDX 47 79 45 80 71 81 72 82 80 83 73 84 74 85 78 86 81 87 75 88
REMARK SMILES IDX 76 89 79 90 77 91 56 92 57 93 65 94 58 95 59 96 63 97 66 98
REMARK SMILES IDX 60 99 61 100 64 101 62 102
REMARK H PARENT 22 6 18 11 18 12 27 36 86 55 54 66
REMARK Flexibility Score: inf
ROOT
ATOM      1  C   UNL A   1      32.710  27.772  26.840  1.00  0.00     0.023 C 
ENDROOT
BRANCH   1   2
ATOM      2  C   UNL A   1      33.407  26.545  26.233  1.00  0.00     0.116 C 
BRANCH   2   3
ATOM      3  N   UNL A   1      32.638  25.303  26.190  1.00  0.00    -0.351 N 
ATOM      4  C   UNL A   1      32.921  24.113  26.818  1.00  0.00     0.279 C 
ATOM      5  O   UNL A   1      31.952  23.564  27.367  1.00  0.00    -0.268 OA
ATOM      6  H   UNL A   1      31.819  25.322  25.645  1.00  0.00     0.163 HD
BRANCH   4   7
ATOM      7  C   UNL A   1      34.259  23.321  26.747  1.00  0.00     0.283 C 
ATOM      8  C   UNL A   1      34.952  21.568  25.202  1.00  0.00     0.278 C 
ATOM      9  N   UNL A   1      34.185  21.874  26.424  1.00  0.00    -0.320 N 
ATOM     10  S   UNL A   1      36.343  22.716  25.228  1.00  0.00    -0.087 SA
ATOM     11  H   UNL A   1      34.569  21.338  27.202  1.00  0.00     0.348 HD
ATOM     12  H   UNL A   1      33.209  21.624  26.268  1.00  0.00     0.348 HD
ATOM     13  C   UNL A   1      35.312  24.048  25.896  1.00  0.00     0.151 C 
BRANCH   8  14
ATOM     14  C   UNL A   1      34.018  21.759  24.054  1.00  0.00     0.067 A 
ATOM     15  C   UNL A   1      32.981  20.876  23.608  1.00  0.00     0.103 A 
ATOM     16  N   UNL A   1      32.073  21.595  22.896  1.00  0.00    -0.167 NA
ATOM     17  N   UNL A   1      32.551  22.880  22.906  1.00  0.00    -0.240 N 
ATOM     18  C   UNL A   1      33.881  22.870  23.238  1.00  0.00     0.126 A 
BRANCH  15  19
ATOM     19  C   UNL A   1      32.812  19.441  23.992  1.00  0.00     0.003 A 
ATOM     20  C   UNL A   1      32.903  15.270  25.281  1.00  0.00     0.044 C 
ATOM     21  C   UNL A   1      32.844  16.695  24.811  1.00  0.00    -0.051 A 
ATOM     22  C   UNL A   1      32.543  17.701  25.722  1.00  0.00     0.004 A 
ATOM     23  C   UNL A   1      33.076  17.061  23.480  1.00  0.00     0.004 A 
ATOM     24  C   UNL A   1      32.540  19.042  25.317  1.00  0.00     0.011 A 
ATOM     25  C   UNL A   1      33.051  18.414  23.076  1.00  0.00     0.011 A 
ENDBRANCH  15  19
BRANCH  17  26
ATOM     26  C   UNL A   1      31.769  24.088  22.801  1.00  0.00     0.065 A 
ATOM     27  C   UNL A   1      30.596  24.285  23.530  1.00  0.00     0.028 A 
ATOM     28  C   UNL A   1      32.239  25.177  22.061  1.00  0.00     0.028 A 
ATOM     29  C   UNL A   1      29.930  25.521  23.561  1.00  0.00     0.002 A 
ATOM     30  C   UNL A   1      31.530  26.389  22.016  1.00  0.00     0.002 A 
ATOM     31  C   UNL A   1      30.376  26.564  22.768  1.00  0.00     0.000 A 
ENDBRANCH  17  26
ENDBRANCH   8  14
ENDBRANCH   4   7
ENDBRANCH   2   3
ENDBRANCH   1   2
BRANCH   1  32
ATOM     32  C   UNL A   1      33.511  28.931  27.551  1.00  0.00     0.023 C 
BRANCH  32  33
ATOM     33  C   UNL A   1      33.388  30.406  27.124  1.00  0.00     0.116 C 
BRANCH  33  34
ATOM     34  N   UNL A   1      33.947  31.398  28.052  1.00  0.00    -0.352 N 
ATOM     35  C   UNL A   1      35.202  31.515  28.653  1.00  0.00     0.251 C 
ATOM     36  H   UNL A   1      33.319  32.115  28.297  1.00  0.00     0.163 HD
ATOM     37  O   UNL A   1      35.496  32.579  29.172  1.00  0.00    -0.269 OA
BRANCH  35  38
ATOM     38  C   UNL A   1      36.229  30.422  28.655  1.00  0.00     0.039 A 
ATOM     39  C   UNL A   1      36.445  29.661  29.825  1.00  0.00     0.014 A 
ATOM     40  C   UNL A   1      36.973  30.098  27.531  1.00  0.00     0.014 A 
ATOM     41  C   UNL A   1      37.530  28.766  29.922  1.00  0.00     0.010 A 
ATOM     42  C   UNL A   1      38.064  29.240  27.635  1.00  0.00     0.010 A 
ATOM     43  C   UNL A   1      38.407  28.639  28.848  1.00  0.00    -0.014 A 
BRANCH  43  44
ATOM     44  C   UNL A   1      39.794  28.157  28.945  1.00  0.00     0.031 A 
ATOM     45  C   UNL A   1      40.248  26.812  28.516  1.00  0.00     0.074 A 
ATOM     46  C   UNL A   1      40.743  29.102  29.137  1.00  0.00     0.049 A 
ATOM     47  N   UNL A   1      41.392  26.288  28.826  1.00  0.00    -0.248 NA
ATOM     48  C   UNL A   1      39.447  25.946  27.667  1.00  0.00     0.031 C 
ATOM     49  C   UNL A   1      42.167  29.017  28.816  1.00  0.00     0.029 A 
ATOM     50  N   UNL A   1      40.602  30.364  29.718  1.00  0.00    -0.354 N 
ATOM     51  C   UNL A   1      41.615  25.211  27.992  1.00  0.00     0.074 A 
ATOM     52  C   UNL A   1      40.335  24.995  27.351  1.00  0.00     0.031 C 
ATOM     53  C   UNL A   1      42.808  30.065  29.354  1.00  0.00     0.029 A 
ATOM     54  C   UNL A   1      41.861  30.748  30.212  1.00  0.00     0.049 A 
ATOM     55  H   UNL A   1      39.771  30.890  29.772  1.00  0.00     0.167 HD
ATOM     56  C   UNL A   1      42.887  24.720  27.837  1.00  0.00     0.037 A 
ATOM     57  C   UNL A   1      42.043  30.905  31.557  1.00  0.00     0.037 A 
ATOM     58  C   UNL A   1      43.855  25.485  28.640  1.00  0.00     0.049 A 
ATOM     59  C   UNL A   1      42.983  29.884  32.155  1.00  0.00     0.074 A 
ATOM     60  C   UNL A   1      44.813  26.429  28.300  1.00  0.00     0.029 A 
ATOM     61  N   UNL A   1      43.752  25.524  30.031  1.00  0.00    -0.354 N 
ATOM     62  N   UNL A   1      43.357  28.799  31.537  1.00  0.00    -0.248 NA
ATOM     63  C   UNL A   1      43.559  29.988  33.491  1.00  0.00     0.031 C 
ATOM     64  C   UNL A   1      45.238  27.079  29.486  1.00  0.00     0.029 A 
ATOM     65  C   UNL A   1      44.554  26.525  30.555  1.00  0.00     0.049 A 
ATOM     66  H   UNL A   1      43.187  24.923  30.568  1.00  0.00     0.167 HD
ATOM     67  C   UNL A   1      44.141  28.046  32.357  1.00  0.00     0.074 A 
ATOM     68  C   UNL A   1      44.265  28.845  33.563  1.00  0.00     0.031 C 
ATOM     69  C   UNL A   1      44.592  26.813  31.984  1.00  0.00     0.037 A 
BRANCH  56  70
ATOM     70  C   UNL A   1      43.337  23.727  26.760  1.00  0.00     0.064 A 
ATOM     71  C   UNL A   1      43.029  22.346  26.854  1.00  0.00     0.173 A 
ATOM     72  C   UNL A   1      44.090  24.058  25.616  1.00  0.00     0.173 A 
ATOM     73  F   UNL A   1      42.207  21.871  27.797  1.00  0.00    -0.203 F 
ATOM     74  C   UNL A   1      43.533  21.386  25.964  1.00  0.00     0.198 A 
ATOM     75  C   UNL A   1      44.637  23.095  24.754  1.00  0.00     0.198 A 
ATOM     76  F   UNL A   1      44.262  25.325  25.232  1.00  0.00    -0.203 F 
ATOM     77  F   UNL A   1      43.203  20.096  26.118  1.00  0.00    -0.200 F 
ATOM     78  C   UNL A   1      44.369  21.757  24.935  1.00  0.00     0.200 A 
ATOM     79  F   UNL A   1      45.414  23.485  23.733  1.00  0.00    -0.200 F 
ATOM     80  F   UNL A   1      44.877  20.840  24.100  1.00  0.00    -0.200 F 
ENDBRANCH  56  70
BRANCH  57  81
ATOM     81  C   UNL A   1      40.829  31.462  32.212  1.00  0.00     0.064 A 
ATOM     82  C   UNL A   1      40.546  32.823  31.993  1.00  0.00     0.173 A 
ATOM     83  C   UNL A   1      39.772  30.632  32.607  1.00  0.00     0.173 A 
ATOM     84  F   UNL A   1      41.526  33.655  31.603  1.00  0.00    -0.203 F 
ATOM     85  C   UNL A   1      39.242  33.305  32.042  1.00  0.00     0.198 A 
ATOM     86  C   UNL A   1      38.465  31.121  32.653  1.00  0.00     0.198 A 
ATOM     87  F   UNL A   1      39.977  29.322  32.810  1.00  0.00    -0.203 F 
ATOM     88  F   UNL A   1      38.995  34.587  31.742  1.00  0.00    -0.200 F 
ATOM     89  C   UNL A   1      38.197  32.445  32.332  1.00  0.00     0.200 A 
ATOM     90  F   UNL A   1      37.449  30.286  32.917  1.00  0.00    -0.200 F 
ATOM     91  F   UNL A   1      36.931  32.881  32.271  1.00  0.00    -0.200 F 
ENDBRANCH  57  81
BRANCH  69  92
ATOM     92  C   UNL A   1      45.207  25.831  32.940  1.00  0.00     0.064 A 
ATOM     93  C   UNL A   1      46.583  25.546  32.963  1.00  0.00     0.173 A 
ATOM     94  C   UNL A   1      44.436  25.231  33.958  1.00  0.00     0.173 A 
ATOM     95  F   UNL A   1      47.435  26.166  32.134  1.00  0.00    -0.203 F 
ATOM     96  C   UNL A   1      47.135  24.648  33.876  1.00  0.00     0.198 A 
ATOM     97  C   UNL A   1      45.000  24.376  34.903  1.00  0.00     0.198 A 
ATOM     98  F   UNL A   1      43.122  25.474  34.072  1.00  0.00    -0.203 F 
ATOM     99  F   UNL A   1      48.444  24.365  33.818  1.00  0.00    -0.200 F 
ATOM    100  C   UNL A   1      46.345  24.066  34.848  1.00  0.00     0.200 A 
ATOM    101  F   UNL A   1      44.235  23.862  35.878  1.00  0.00    -0.200 F 
ATOM    102  F   UNL A   1      46.883  23.226  35.741  1.00  0.00    -0.200 F 
ENDBRANCH  69  92
ENDBRANCH  43  44
ENDBRANCH  35  38
ENDBRANCH  33  34
ENDBRANCH  32  33
ENDBRANCH   1  32
TORSDOF 14
ENDMDL
MODEL 3
REMARK VINA RESULT:     -14.0      3.174      9.287
REMARK SMILES Cc1ccc(-c2nn(-c3ccccc3)cc2[C@@H]2[NH2+][C@H](C(=O)NCCCCNC(=O)c3ccc(-c4c5nc(c(-c6c(F)c(F)c(F)c(F)c6F)c6ccc([nH]6)c(-c6c(F)c(F)c(F)c(F)c6F)c6nc(c(-c7c(F)c(F)c(F)c(F)c7F)c7ccc4[nH]7)C=C6)C=C5)cc3)CS2)cc1
REMARK SMILES IDX 24 1 23 2 22 3 20 4 21 5 19 7 17 8 18 9 94 10 93 13 16 14
REMARK SMILES IDX 6 15 7 16 8 17 15 18 5 19 1 20 2 21 3 22 96 23 4 24 95 25
REMARK SMILES IDX 9 26 10 27 14 28 11 29 13 30 12 31 25 32 26 33 27 34 28 35
REMARK SMILES IDX 29 37 30 38 31 39 92 40 32 41 91 42 33 43 34 44 35 45 85 46
REMARK SMILES IDX 36 47 90 48 84 49 86 50 37 51 89 52 83 53 82 54 38 56 70 57
REMARK SMILES IDX 50 58 69 59 51 60 54 61 68 62 87 63 52 64 53 65 67 67 88 68
REMARK SMILES IDX 55 69 39 70 40 71 48 72 41 73 42 74 46 75 49 76 43 77 44 78
REMARK SMILES IDX 47 79 45 80 71 81 72 82 80 83 73 84 74 85 78 86 81 87 75 88
REMARK SMILES IDX 76 89 79 90 77 91 56 92 57 93 65 94 58 95 59 96 63 97 66 98
REMARK SMILES IDX 60 99 61 100 64 101 62 102
REMARK H PARENT 22 6 18 11 18 12 27 36 86 55 54 66
REMARK Flexibility Score: inf
ROOT
ATOM      1  C   UNL A   1      31.780  29.587  26.287  1.00  0.00     0.023 C 
ENDROOT
BRANCH   1   2
ATOM      2  C   UNL A   1      31.364  28.338  27.078  1.00  0.00     0.116 C 
BRANCH   2   3
ATOM      3  N   UNL A   1      32.382  27.307  27.269  1.00  0.00    -0.351 N 
ATOM      4  C   UNL A   1      32.545  26.139  26.561  1.00  0.00     0.279 C 
ATOM      5  O   UNL A   1      33.715  25.876  26.243  1.00  0.00    -0.268 OA
ATOM      6  H   UNL A   1      33.029  27.469  27.992  1.00  0.00     0.163 HD
BRANCH   4   7
ATOM      7  C   UNL A   1      31.458  25.058  26.294  1.00  0.00     0.283 C 
ATOM      8  C   UNL A   1      31.162  23.588  24.372  1.00  0.00     0.278 C 
ATOM      9  N   UNL A   1      30.930  24.942  24.911  1.00  0.00    -0.320 N 
ATOM     10  S   UNL A   1      31.028  22.492  25.797  1.00  0.00    -0.087 SA
ATOM     11  H   UNL A   1      29.927  25.130  24.919  1.00  0.00     0.348 HD
ATOM     12  H   UNL A   1      31.413  25.617  24.319  1.00  0.00     0.348 HD
ATOM     13  C   UNL A   1      31.852  23.692  26.876  1.00  0.00     0.151 C 
BRANCH   8  14
ATOM     14  C   UNL A   1      32.512  23.609  23.736  1.00  0.00     0.067 A 
ATOM     15  C   UNL A   1      33.192  24.729  23.153  1.00  0.00     0.103 A 
ATOM     16  N   UNL A   1      34.527  24.470  23.142  1.00  0.00    -0.167 NA
ATOM     17  N   UNL A   1      34.651  23.223  23.700  1.00  0.00    -0.240 N 
ATOM     18  C   UNL A   1      33.440  22.583  23.663  1.00  0.00     0.126 A 
BRANCH  15  19
ATOM     19  C   UNL A   1      32.580  26.038  22.773  1.00  0.00     0.003 A 
ATOM     20  C   UNL A   1      30.561  29.871  22.225  1.00  0.00     0.044 C 
ATOM     21  C   UNL A   1      31.252  28.546  22.375  1.00  0.00    -0.051 A 
ATOM     22  C   UNL A   1      32.538  28.503  22.900  1.00  0.00     0.004 A 
ATOM     23  C   UNL A   1      30.653  27.337  22.001  1.00  0.00     0.004 A 
ATOM     24  C   UNL A   1      33.177  27.273  23.101  1.00  0.00     0.011 A 
ATOM     25  C   UNL A   1      31.313  26.102  22.189  1.00  0.00     0.011 A 
ENDBRANCH  15  19
BRANCH  17  26
ATOM     26  C   UNL A   1      35.796  22.712  24.413  1.00  0.00     0.065 A 
ATOM     27  C   UNL A   1      36.136  21.359  24.411  1.00  0.00     0.028 A 
ATOM     28  C   UNL A   1      36.700  23.585  25.026  1.00  0.00     0.028 A 
ATOM     29  C   UNL A   1      37.340  20.886  24.957  1.00  0.00     0.002 A 
ATOM     30  C   UNL A   1      37.863  23.109  25.654  1.00  0.00     0.002 A 
ATOM     31  C   UNL A   1      38.186  21.759  25.618  1.00  0.00     0.000 A 
ENDBRANCH  17  26
ENDBRANCH   8  14
ENDBRANCH   4   7
ENDBRANCH   2   3
ENDBRANCH   1   2
BRANCH   1  32
ATOM     32  C   UNL A   1      32.706  30.706  26.902  1.00  0.00     0.023 C 
BRANCH  32  33
ATOM     33  C   UNL A   1      34.167  30.440  27.312  1.00  0.00     0.116 C 
BRANCH  33  34
ATOM     34  N   UNL A   1      34.702  31.285  28.389  1.00  0.00    -0.352 N 
ATOM     35  C   UNL A   1      35.906  31.248  29.096  1.00  0.00     0.251 C 
ATOM     36  H   UNL A   1      34.099  32.012  28.663  1.00  0.00     0.163 HD
ATOM     37  O   UNL A   1      36.216  32.227  29.755  1.00  0.00    -0.269 OA
BRANCH  35  38
ATOM     38  C   UNL A   1      36.861  30.093  29.055  1.00  0.00     0.039 A 
ATOM     39  C   UNL A   1      36.978  29.236  30.171  1.00  0.00     0.014 A 
ATOM     40  C   UNL A   1      37.632  29.804  27.940  1.00  0.00     0.014 A 
ATOM     41  C   UNL A   1      38.000  28.267  30.241  1.00  0.00     0.010 A 
ATOM     42  C   UNL A   1      38.661  28.872  28.020  1.00  0.00     0.010 A 
ATOM     43  C   UNL A   1      38.913  28.162  29.196  1.00  0.00    -0.014 A 
BRANCH  43  44
ATOM     44  C   UNL A   1      40.262  27.584  29.310  1.00  0.00     0.031 A 
ATOM     45  C   UNL A   1      40.667  26.277  28.738  1.00  0.00     0.074 A 
ATOM     46  C   UNL A   1      41.248  28.436  29.675  1.00  0.00     0.049 A 
ATOM     47  N   UNL A   1      41.757  25.647  29.043  1.00  0.00    -0.248 NA
ATOM     48  C   UNL A   1      39.875  25.577  27.740  1.00  0.00     0.031 C 
ATOM     49  C   UNL A   1      42.682  28.301  29.428  1.00  0.00     0.029 A 
ATOM     50  N   UNL A   1      41.140  29.623  30.404  1.00  0.00    -0.354 N 
ATOM     51  C   UNL A   1      41.973  24.670  28.092  1.00  0.00     0.074 A 
ATOM     52  C   UNL A   1      40.728  24.618  27.357  1.00  0.00     0.031 C 
ATOM     53  C   UNL A   1      43.345  29.231  30.132  1.00  0.00     0.029 A 
ATOM     54  C   UNL A   1      42.384  29.861  31.014  1.00  0.00     0.049 A 
ATOM     55  H   UNL A   1      40.338  30.189  30.478  1.00  0.00     0.167 HD
ATOM     56  C   UNL A   1      43.223  24.123  27.949  1.00  0.00     0.037 A 
ATOM     57  C   UNL A   1      42.486  29.837  32.376  1.00  0.00     0.037 A 
ATOM     58  C   UNL A   1      44.179  24.719  28.897  1.00  0.00     0.049 A 
ATOM     59  C   UNL A   1      43.327  28.692  32.891  1.00  0.00     0.074 A 
ATOM     60  C   UNL A   1      45.208  25.635  28.736  1.00  0.00     0.029 A 
ATOM     61  N   UNL A   1      43.988  24.591  30.273  1.00  0.00    -0.354 N 
ATOM     62  N   UNL A   1      43.679  27.670  32.161  1.00  0.00    -0.248 NA
ATOM     63  C   UNL A   1      43.820  28.591  34.260  1.00  0.00     0.031 C 
ATOM     64  C   UNL A   1      45.591  26.103  30.018  1.00  0.00     0.029 A 
ATOM     65  C   UNL A   1      44.809  25.466  30.966  1.00  0.00     0.049 A 
ATOM     66  H   UNL A   1      43.357  23.964  30.695  1.00  0.00     0.167 HD
ATOM     67  C   UNL A   1      44.366  26.773  32.922  1.00  0.00     0.074 A 
ATOM     68  C   UNL A   1      44.455  27.406  34.225  1.00  0.00     0.031 C 
ATOM     69  C   UNL A   1      44.771  25.570  32.421  1.00  0.00     0.037 A 
BRANCH  56  70
ATOM     70  C   UNL A   1      43.686  23.245  26.780  1.00  0.00     0.064 A 
ATOM     71  C   UNL A   1      43.238  21.907  26.640  1.00  0.00     0.173 A 
ATOM     72  C   UNL A   1      44.583  23.646  25.771  1.00  0.00     0.173 A 
ATOM     73  F   UNL A   1      42.280  21.400  27.425  1.00  0.00    -0.203 F 
ATOM     74  C   UNL A   1      43.738  21.030  25.666  1.00  0.00     0.198 A 
ATOM     75  C   UNL A   1      45.122  22.758  24.827  1.00  0.00     0.198 A 
ATOM     76  F   UNL A   1      44.916  24.927  25.597  1.00  0.00    -0.203 F 
ATOM     77  F   UNL A   1      43.271  19.775  25.596  1.00  0.00    -0.200 F 
ATOM     78  C   UNL A   1      44.709  21.446  24.782  1.00  0.00     0.200 A 
ATOM     79  F   UNL A   1      46.036  23.197  23.950  1.00  0.00    -0.200 F 
ATOM     80  F   UNL A   1      45.211  20.602  23.870  1.00  0.00    -0.200 F 
ENDBRANCH  56  70
BRANCH  57  81
ATOM     81  C   UNL A   1      41.266  30.384  33.027  1.00  0.00     0.064 A 
ATOM     82  C   UNL A   1      41.074  31.777  32.968  1.00  0.00     0.173 A 
ATOM     83  C   UNL A   1      40.141  29.580  33.252  1.00  0.00     0.173 A 
ATOM     84  F   UNL A   1      42.121  32.587  32.743  1.00  0.00    -0.203 F 
ATOM     85  C   UNL A   1      39.798  32.330  33.003  1.00  0.00     0.198 A 
ATOM     86  C   UNL A   1      38.863  30.141  33.286  1.00  0.00     0.198 A 
ATOM     87  F   UNL A   1      40.260  28.245  33.299  1.00  0.00    -0.203 F 
ATOM     88  F   UNL A   1      39.642  33.652  32.855  1.00  0.00    -0.200 F 
ATOM     89  C   UNL A   1      38.690  31.509  33.121  1.00  0.00     0.200 A 
ATOM     90  F   UNL A   1      37.788  29.346  33.384  1.00  0.00    -0.200 F 
ATOM     91  F   UNL A   1      37.457  32.028  33.045  1.00  0.00    -0.200 F 
ENDBRANCH  57  81
BRANCH  69  92
ATOM     92  C   UNL A   1      45.266  24.440  33.276  1.00  0.00     0.064 A 
ATOM     93  C   UNL A   1      44.476  23.324  33.602  1.00  0.00     0.173 A 
ATOM     94  C   UNL A   1      46.612  24.387  33.698  1.00  0.00     0.173 A 
ATOM     95  F   UNL A   1      43.225  23.200  33.137  1.00  0.00    -0.203 F 
ATOM     96  C   UNL A   1      44.966  22.275  34.379  1.00  0.00     0.198 A 
ATOM     97  C   UNL A   1      47.114  23.310  34.428  1.00  0.00     0.198 A 
ATOM     98  F   UNL A   1      47.476  25.367  33.397  1.00  0.00    -0.203 F 
ATOM     99  F   UNL A   1      44.153  21.262  34.713  1.00  0.00    -0.200 F 
ATOM    100  C   UNL A   1      46.285  22.266  34.789  1.00  0.00     0.200 A 
ATOM    101  F   UNL A   1      48.410  23.283  34.771  1.00  0.00    -0.200 F 
ATOM    102  F   UNL A   1      46.760  21.243  35.511  1.00  0.00    -0.200 F 
ENDBRANCH  69  92
ENDBRANCH  43  44
ENDBRANCH  35  38
ENDBRANCH  33  34
ENDBRANCH  32  33
ENDBRANCH   1  32
TORSDOF 14
ENDMDL
