MODEL 1
REMARK VINA RESULT:     -13.4      0.000      0.000
REMARK SMILES O=C(NCCCCNC(=O)[C@@H]1CCCC[C@@H]1NS(=O)(=O)c1ccc2ccccc2c1)c1ccc(-c2c3nc(c(-c4c(F)c(F)c(F)c(F)c4F)c4ccc([nH]4)c(-c4c(F)c(F)c(F)c(F)c4F)c4nc(c(-c5c(F)c(F)c(F)c(F)c5F)c5ccc2[nH]5)C=C4)C=C3)cc1
REMARK SMILES IDX 6 1 5 2 4 3 3 4 1 5 2 6 31 8 32 9 93 10 33 11 92 12 34 13
REMARK SMILES IDX 35 14 36 15 86 16 37 17 91 18 85 19 87 20 38 21 90 22 84 23
REMARK SMILES IDX 83 24 39 26 71 27 51 28 70 29 52 30 55 31 69 32 88 33 53 34
REMARK SMILES IDX 54 35 68 37 89 38 56 39 40 40 41 41 49 42 42 43 43 44 47 45
REMARK SMILES IDX 50 46 44 47 45 48 48 49 46 50 72 51 73 52 81 53 74 54 75 55
REMARK SMILES IDX 79 56 82 57 76 58 77 59 80 60 78 61 57 62 58 63 66 64 59 65
REMARK SMILES IDX 60 66 64 67 67 68 61 69 62 70 65 71 63 72 7 73 8 74 9 75
REMARK SMILES IDX 10 77 11 78 12 79 16 80 13 81 15 82 14 83 17 84 18 86 19 87
REMARK SMILES IDX 20 88 21 89 22 90 30 91 23 92 29 93 24 94 28 95 25 96 27 97
REMARK SMILES IDX 26 98
REMARK H PARENT 3 7 87 25 55 36 8 76 17 85
REMARK Flexibility Score: inf
ROOT
ATOM      1  C   UNL A   1      32.002  27.223  26.571  1.00  0.00     0.023 C 
ENDROOT
BRANCH   1   2
ATOM      2  C   UNL A   1      31.774  28.699  26.860  1.00  0.00     0.023 C 
BRANCH   2   3
ATOM      3  C   UNL A   1      32.795  29.639  26.241  1.00  0.00     0.116 C 
BRANCH   3   4
ATOM      4  N   UNL A   1      32.550  31.042  26.550  1.00  0.00    -0.352 N 
ATOM      5  O   UNL A   1      32.871  33.038  27.559  1.00  0.00    -0.269 OA
ATOM      6  C   UNL A   1      33.295  31.916  27.308  1.00  0.00     0.251 C 
ATOM      7  H   UNL A   1      31.730  31.421  26.160  1.00  0.00     0.163 HD
BRANCH   6   8
ATOM      8  C   UNL A   1      34.598  31.478  27.848  1.00  0.00     0.039 A 
ATOM      9  C   UNL A   1      34.774  30.166  28.287  1.00  0.00     0.014 A 
ATOM     10  C   UNL A   1      35.641  32.404  27.955  1.00  0.00     0.014 A 
ATOM     11  C   UNL A   1      35.912  29.833  29.006  1.00  0.00     0.010 A 
ATOM     12  C   UNL A   1      36.832  32.033  28.583  1.00  0.00     0.010 A 
ATOM     13  C   UNL A   1      36.959  30.759  29.156  1.00  0.00    -0.014 A 
BRANCH  13  14
ATOM     14  C   UNL A   1      38.183  30.342  29.885  1.00  0.00     0.031 A 
ATOM     15  C   UNL A   1      38.431  30.770  31.305  1.00  0.00     0.074 A 
ATOM     16  C   UNL A   1      39.047  29.515  29.266  1.00  0.00     0.049 A 
ATOM     17  N   UNL A   1      39.425  30.455  32.097  1.00  0.00    -0.248 NA
ATOM     18  C   UNL A   1      37.445  31.675  31.915  1.00  0.00     0.031 C 
ATOM     19  C   UNL A   1      38.910  29.041  27.886  1.00  0.00     0.029 A 
ATOM     20  N   UNL A   1      40.184  28.899  29.717  1.00  0.00    -0.354 N 
ATOM     21  C   UNL A   1      39.201  31.143  33.283  1.00  0.00     0.074 A 
ATOM     22  C   UNL A   1      37.985  31.906  33.104  1.00  0.00     0.031 C 
ATOM     23  C   UNL A   1      39.881  28.154  27.628  1.00  0.00     0.029 A 
ATOM     24  C   UNL A   1      40.747  28.050  28.796  1.00  0.00     0.049 A 
ATOM     25  H   UNL A   1      40.561  29.050  30.614  1.00  0.00     0.167 HD
ATOM     26  C   UNL A   1      39.942  31.131  34.418  1.00  0.00     0.037 A 
ATOM     27  C   UNL A   1      41.845  27.277  28.880  1.00  0.00     0.037 A 
ATOM     28  C   UNL A   1      41.134  30.341  34.601  1.00  0.00     0.049 A 
ATOM     29  C   UNL A   1      42.644  27.286  30.149  1.00  0.00     0.074 A 
ATOM     30  C   UNL A   1      41.934  30.231  35.726  1.00  0.00     0.029 A 
ATOM     31  N   UNL A   1      41.698  29.525  33.631  1.00  0.00    -0.354 N 
ATOM     32  N   UNL A   1      42.410  27.927  31.267  1.00  0.00    -0.248 NA
ATOM     33  C   UNL A   1      43.865  26.471  30.160  1.00  0.00     0.031 C 
ATOM     34  C   UNL A   1      43.001  29.378  35.424  1.00  0.00     0.029 A 
ATOM     35  C   UNL A   1      42.845  28.924  34.125  1.00  0.00     0.049 A 
ATOM     36  H   UNL A   1      41.336  29.392  32.725  1.00  0.00     0.167 HD
ATOM     37  C   UNL A   1      43.448  27.588  32.121  1.00  0.00     0.074 A 
ATOM     38  C   UNL A   1      44.300  26.665  31.399  1.00  0.00     0.031 C 
ATOM     39  C   UNL A   1      43.680  28.010  33.388  1.00  0.00     0.037 A 
BRANCH  26  40
ATOM     40  C   UNL A   1      39.500  32.013  35.549  1.00  0.00     0.064 A 
ATOM     41  C   UNL A   1      39.947  33.336  35.672  1.00  0.00     0.173 A 
ATOM     42  C   UNL A   1      38.581  31.540  36.498  1.00  0.00     0.173 A 
ATOM     43  F   UNL A   1      40.834  33.834  34.797  1.00  0.00    -0.203 F 
ATOM     44  C   UNL A   1      39.505  34.147  36.716  1.00  0.00     0.198 A 
ATOM     45  C   UNL A   1      38.123  32.360  37.526  1.00  0.00     0.198 A 
ATOM     46  F   UNL A   1      38.118  30.284  36.423  1.00  0.00    -0.203 F 
ATOM     47  F   UNL A   1      39.973  35.398  36.836  1.00  0.00    -0.200 F 
ATOM     48  C   UNL A   1      38.589  33.661  37.637  1.00  0.00     0.200 A 
ATOM     49  F   UNL A   1      37.229  31.893  38.408  1.00  0.00    -0.200 F 
ATOM     50  F   UNL A   1      38.160  34.445  38.637  1.00  0.00    -0.200 F 
ENDBRANCH  26  40
BRANCH  27  51
ATOM     51  C   UNL A   1      42.235  26.432  27.724  1.00  0.00     0.064 A 
ATOM     52  C   UNL A   1      43.203  26.867  26.810  1.00  0.00     0.173 A 
ATOM     53  C   UNL A   1      41.672  25.162  27.528  1.00  0.00     0.173 A 
ATOM     54  F   UNL A   1      43.756  28.081  26.948  1.00  0.00    -0.203 F 
ATOM     55  C   UNL A   1      43.589  26.065  25.738  1.00  0.00     0.198 A 
ATOM     56  C   UNL A   1      42.080  24.351  26.473  1.00  0.00     0.198 A 
ATOM     57  F   UNL A   1      40.746  24.699  28.382  1.00  0.00    -0.203 F 
ATOM     58  F   UNL A   1      44.495  26.516  24.860  1.00  0.00    -0.200 F 
ATOM     59  C   UNL A   1      43.033  24.805  25.576  1.00  0.00     0.200 A 
ATOM     60  F   UNL A   1      41.553  23.127  26.331  1.00  0.00    -0.200 F 
ATOM     61  F   UNL A   1      43.416  24.030  24.552  1.00  0.00    -0.200 F 
ENDBRANCH  27  51
BRANCH  39  62
ATOM     62  C   UNL A   1      44.894  27.458  34.072  1.00  0.00     0.064 A 
ATOM     63  C   UNL A   1      44.845  26.254  34.789  1.00  0.00     0.173 A 
ATOM     64  C   UNL A   1      46.120  28.134  33.999  1.00  0.00     0.173 A 
ATOM     65  F   UNL A   1      43.690  25.582  34.901  1.00  0.00    -0.203 F 
ATOM     66  C   UNL A   1      45.976  25.760  35.433  1.00  0.00     0.198 A 
ATOM     67  C   UNL A   1      47.255  27.625  34.623  1.00  0.00     0.198 A 
ATOM     68  F   UNL A   1      46.217  29.289  33.323  1.00  0.00    -0.203 F 
ATOM     69  F   UNL A   1      45.896  24.634  36.154  1.00  0.00    -0.200 F 
ATOM     70  C   UNL A   1      47.181  26.443  35.346  1.00  0.00     0.200 A 
ATOM     71  F   UNL A   1      48.419  28.282  34.533  1.00  0.00    -0.200 F 
ATOM     72  F   UNL A   1      48.267  25.968  35.968  1.00  0.00    -0.200 F 
ENDBRANCH  39  62
ENDBRANCH  13  14
ENDBRANCH   6   8
ENDBRANCH   3   4
ENDBRANCH   2   3
ENDBRANCH   1   2
BRANCH   1  73
ATOM     73  C   UNL A   1      30.772  26.330  26.701  1.00  0.00     0.116 C 
BRANCH  73  74
ATOM     74  N   UNL A   1      30.488  25.566  25.500  1.00  0.00    -0.356 N 
ATOM     75  C   UNL A   1      30.170  25.956  24.235  1.00  0.00     0.224 C 
ATOM     76  H   UNL A   1      30.533  24.590  25.622  1.00  0.00     0.163 HD
ATOM     77  O   UNL A   1      29.975  25.058  23.409  1.00  0.00    -0.275 OA
BRANCH  75  78
ATOM     78  C   UNL A   1      30.020  27.418  23.820  1.00  0.00     0.096 C 
ATOM     79  C   UNL A   1      28.580  27.770  23.405  1.00  0.00     0.015 C 
ATOM     80  C   UNL A   1      31.195  27.957  22.955  1.00  0.00     0.082 C 
ATOM     81  C   UNL A   1      28.430  29.166  22.823  1.00  0.00     0.001 C 
ATOM     82  C   UNL A   1      30.882  29.352  22.398  1.00  0.00     0.021 C 
ATOM     83  C   UNL A   1      29.494  29.446  21.776  1.00  0.00     0.002 C 
BRANCH  80  84
ATOM     84  N   UNL A   1      31.568  27.038  21.862  1.00  0.00    -0.207 NA
ATOM     85  H   UNL A   1      31.324  27.513  20.993  1.00  0.00     0.141 HD
BRANCH  84  86
ATOM     86  S   UNL A   1      33.151  26.477  21.665  1.00  0.00     0.240 S 
ATOM     87  O   UNL A   1      33.104  25.611  20.512  1.00  0.00    -0.207 OA
ATOM     88  O   UNL A   1      34.027  27.625  21.703  1.00  0.00    -0.207 OA
BRANCH  86  89
ATOM     89  C   UNL A   1      33.541  25.460  23.061  1.00  0.00     0.083 A 
ATOM     90  C   UNL A   1      34.100  25.974  24.227  1.00  0.00     0.022 A 
ATOM     91  C   UNL A   1      33.330  24.082  22.928  1.00  0.00     0.030 A 
ATOM     92  C   UNL A   1      34.502  25.100  25.243  1.00  0.00     0.010 A 
ATOM     93  C   UNL A   1      33.707  23.200  23.948  1.00  0.00    -0.017 A 
ATOM     94  C   UNL A   1      34.321  23.711  25.115  1.00  0.00    -0.018 A 
ATOM     95  C   UNL A   1      33.500  21.816  23.826  1.00  0.00     0.009 A 
ATOM     96  C   UNL A   1      34.737  22.817  26.115  1.00  0.00     0.009 A 
ATOM     97  C   UNL A   1      33.911  20.944  24.834  1.00  0.00     0.001 A 
ATOM     98  C   UNL A   1      34.535  21.442  25.973  1.00  0.00     0.001 A 
ENDBRANCH  86  89
ENDBRANCH  84  86
ENDBRANCH  80  84
ENDBRANCH  75  78
ENDBRANCH  73  74
ENDBRANCH   1  73
TORSDOF 14
ENDMDL
MODEL 2
REMARK VINA RESULT:     -13.3      2.255      3.298
REMARK SMILES O=C(NCCCCNC(=O)[C@@H]1CCCC[C@@H]1NS(=O)(=O)c1ccc2ccccc2c1)c1ccc(-c2c3nc(c(-c4c(F)c(F)c(F)c(F)c4F)c4ccc([nH]4)c(-c4c(F)c(F)c(F)c(F)c4F)c4nc(c(-c5c(F)c(F)c(F)c(F)c5F)c5ccc2[nH]5)C=C4)C=C3)cc1
REMARK SMILES IDX 6 1 5 2 4 3 3 4 1 5 2 6 31 8 32 9 93 10 33 11 92 12 34 13
REMARK SMILES IDX 35 14 36 15 86 16 37 17 91 18 85 19 87 20 38 21 90 22 84 23
REMARK SMILES IDX 83 24 39 26 71 27 51 28 70 29 52 30 55 31 69 32 88 33 53 34
REMARK SMILES IDX 54 35 68 37 89 38 56 39 40 40 41 41 49 42 42 43 43 44 47 45
REMARK SMILES IDX 50 46 44 47 45 48 48 49 46 50 72 51 73 52 81 53 74 54 75 55
REMARK SMILES IDX 79 56 82 57 76 58 77 59 80 60 78 61 57 62 58 63 66 64 59 65
REMARK SMILES IDX 60 66 64 67 67 68 61 69 62 70 65 71 63 72 7 73 8 74 9 75
REMARK SMILES IDX 10 77 11 78 12 79 16 80 13 81 15 82 14 83 17 84 18 86 19 87
REMARK SMILES IDX 20 88 21 89 22 90 30 91 23 92 29 93 24 94 28 95 25 96 27 97
REMARK SMILES IDX 26 98
REMARK H PARENT 3 7 87 25 55 36 8 76 17 85
REMARK Flexibility Score: inf
ROOT
ATOM      1  C   UNL A   1      31.743  30.695  26.126  1.00  0.00     0.023 C 
ENDROOT
BRANCH   1   2
ATOM      2  C   UNL A   1      31.442  32.082  26.673  1.00  0.00     0.023 C 
BRANCH   2   3
ATOM      3  C   UNL A   1      32.626  32.791  27.311  1.00  0.00     0.116 C 
BRANCH   3   4
ATOM      4  N   UNL A   1      32.343  34.172  27.679  1.00  0.00    -0.352 N 
ATOM      5  O   UNL A   1      32.498  36.082  28.876  1.00  0.00    -0.269 OA
ATOM      6  C   UNL A   1      32.951  34.972  28.618  1.00  0.00     0.251 C 
ATOM      7  H   UNL A   1      31.606  34.595  27.182  1.00  0.00     0.163 HD
BRANCH   6   8
ATOM      8  C   UNL A   1      34.136  34.468  29.341  1.00  0.00     0.039 A 
ATOM      9  C   UNL A   1      35.411  34.625  28.799  1.00  0.00     0.014 A 
ATOM     10  C   UNL A   1      33.963  33.796  30.555  1.00  0.00     0.014 A 
ATOM     11  C   UNL A   1      36.481  33.947  29.363  1.00  0.00     0.010 A 
ATOM     12  C   UNL A   1      35.063  33.205  31.180  1.00  0.00     0.010 A 
ATOM     13  C   UNL A   1      36.323  33.235  30.564  1.00  0.00    -0.014 A 
BRANCH  13  14
ATOM     14  C   UNL A   1      37.508  32.569  31.162  1.00  0.00     0.031 A 
ATOM     15  C   UNL A   1      37.967  32.895  32.556  1.00  0.00     0.074 A 
ATOM     16  C   UNL A   1      38.134  31.615  30.448  1.00  0.00     0.049 A 
ATOM     17  N   UNL A   1      38.953  32.371  33.241  1.00  0.00    -0.248 NA
ATOM     18  C   UNL A   1      37.235  33.949  33.274  1.00  0.00     0.031 C 
ATOM     19  C   UNL A   1      37.779  31.221  29.082  1.00  0.00     0.029 A 
ATOM     20  N   UNL A   1      39.170  30.779  30.775  1.00  0.00    -0.354 N 
ATOM     21  C   UNL A   1      38.978  33.049  34.453  1.00  0.00     0.074 A 
ATOM     22  C   UNL A   1      37.920  34.034  34.407  1.00  0.00     0.031 C 
ATOM     23  C   UNL A   1      38.533  30.176  28.716  1.00  0.00     0.029 A 
ATOM     24  C   UNL A   1      39.469  29.871  29.790  1.00  0.00     0.049 A 
ATOM     25  H   UNL A   1      39.652  30.827  31.632  1.00  0.00     0.167 HD
ATOM     26  C   UNL A   1      39.808  32.858  35.509  1.00  0.00     0.037 A 
ATOM     27  C   UNL A   1      40.401  28.901  29.753  1.00  0.00     0.037 A 
ATOM     28  C   UNL A   1      40.838  31.852  35.560  1.00  0.00     0.049 A 
ATOM     29  C   UNL A   1      41.304  28.716  30.936  1.00  0.00     0.074 A 
ATOM     30  C   UNL A   1      41.705  31.555  36.599  1.00  0.00     0.029 A 
ATOM     31  N   UNL A   1      41.140  30.976  34.527  1.00  0.00    -0.354 N 
ATOM     32  N   UNL A   1      41.305  29.352  32.081  1.00  0.00    -0.248 NA
ATOM     33  C   UNL A   1      42.342  27.684  30.814  1.00  0.00     0.031 C 
ATOM     34  C   UNL A   1      42.555  30.525  36.180  1.00  0.00     0.029 A 
ATOM     35  C   UNL A   1      42.192  30.152  34.896  1.00  0.00     0.049 A 
ATOM     36  H   UNL A   1      40.675  30.945  33.660  1.00  0.00     0.167 HD
ATOM     37  C   UNL A   1      42.335  28.794  32.823  1.00  0.00     0.074 A 
ATOM     38  C   UNL A   1      42.921  27.751  32.006  1.00  0.00     0.031 C 
ATOM     39  C   UNL A   1      42.762  29.122  34.066  1.00  0.00     0.037 A 
BRANCH  26  40
ATOM     40  C   UNL A   1      39.653  33.770  36.691  1.00  0.00     0.064 A 
ATOM     41  C   UNL A   1      40.253  35.037  36.731  1.00  0.00     0.173 A 
ATOM     42  C   UNL A   1      38.855  33.387  37.780  1.00  0.00     0.173 A 
ATOM     43  F   UNL A   1      41.034  35.447  35.720  1.00  0.00    -0.203 F 
ATOM     44  C   UNL A   1      40.076  35.879  37.828  1.00  0.00     0.198 A 
ATOM     45  C   UNL A   1      38.660  34.241  38.863  1.00  0.00     0.198 A 
ATOM     46  F   UNL A   1      38.253  32.189  37.789  1.00  0.00    -0.203 F 
ATOM     47  F   UNL A   1      40.689  37.071  37.861  1.00  0.00    -0.200 F 
ATOM     48  C   UNL A   1      39.275  35.483  38.888  1.00  0.00     0.200 A 
ATOM     49  F   UNL A   1      37.877  33.862  39.882  1.00  0.00    -0.200 F 
ATOM     50  F   UNL A   1      39.100  36.297  39.939  1.00  0.00    -0.200 F 
ENDBRANCH  26  40
BRANCH  27  51
ATOM     51  C   UNL A   1      40.511  28.036  28.552  1.00  0.00     0.064 A 
ATOM     52  C   UNL A   1      41.293  28.423  27.456  1.00  0.00     0.173 A 
ATOM     53  C   UNL A   1      39.861  26.795  28.487  1.00  0.00     0.173 A 
ATOM     54  F   UNL A   1      41.919  29.609  27.466  1.00  0.00    -0.203 F 
ATOM     55  C   UNL A   1      41.418  27.602  26.338  1.00  0.00     0.198 A 
ATOM     56  C   UNL A   1      40.010  25.963  27.381  1.00  0.00     0.198 A 
ATOM     57  F   UNL A   1      39.106  26.378  29.515  1.00  0.00    -0.203 F 
ATOM     58  F   UNL A   1      42.148  28.007  25.290  1.00  0.00    -0.200 F 
ATOM     59  C   UNL A   1      40.782  26.369  26.305  1.00  0.00     0.200 A 
ATOM     60  F   UNL A   1      39.408  24.765  27.362  1.00  0.00    -0.200 F 
ATOM     61  F   UNL A   1      40.914  25.575  25.234  1.00  0.00    -0.200 F 
ENDBRANCH  27  51
BRANCH  39  62
ATOM     62  C   UNL A   1      43.907  28.327  34.618  1.00  0.00     0.064 A 
ATOM     63  C   UNL A   1      43.697  27.130  35.315  1.00  0.00     0.173 A 
ATOM     64  C   UNL A   1      45.228  28.763  34.436  1.00  0.00     0.173 A 
ATOM     65  F   UNL A   1      42.450  26.683  35.529  1.00  0.00    -0.203 F 
ATOM     66  C   UNL A   1      44.768  26.409  35.836  1.00  0.00     0.198 A 
ATOM     67  C   UNL A   1      46.298  28.027  34.937  1.00  0.00     0.198 A 
ATOM     68  F   UNL A   1      45.480  29.902  33.774  1.00  0.00    -0.203 F 
ATOM     69  F   UNL A   1      44.541  25.294  36.543  1.00  0.00    -0.200 F 
ATOM     70  C   UNL A   1      46.067  26.856  35.643  1.00  0.00     0.200 A 
ATOM     71  F   UNL A   1      47.552  28.456  34.744  1.00  0.00    -0.200 F 
ATOM     72  F   UNL A   1      47.096  26.162  36.147  1.00  0.00    -0.200 F 
ENDBRANCH  39  62
ENDBRANCH  13  14
ENDBRANCH   6   8
ENDBRANCH   3   4
ENDBRANCH   2   3
ENDBRANCH   1   2
BRANCH   1  73
ATOM     73  C   UNL A   1      32.303  29.698  27.136  1.00  0.00     0.116 C 
BRANCH  73  74
ATOM     74  N   UNL A   1      31.515  28.483  27.240  1.00  0.00    -0.356 N 
ATOM     75  C   UNL A   1      31.644  27.268  26.641  1.00  0.00     0.224 C 
ATOM     76  H   UNL A   1      30.749  28.551  27.855  1.00  0.00     0.163 HD
ATOM     77  O   UNL A   1      30.799  26.414  26.930  1.00  0.00    -0.275 OA
BRANCH  75  78
ATOM     78  C   UNL A   1      32.743  26.942  25.632  1.00  0.00     0.096 C 
ATOM     79  C   UNL A   1      32.357  27.330  24.193  1.00  0.00     0.015 C 
ATOM     80  C   UNL A   1      33.439  25.572  25.871  1.00  0.00     0.082 C 
ATOM     81  C   UNL A   1      33.351  26.863  23.142  1.00  0.00     0.001 C 
ATOM     82  C   UNL A   1      34.374  25.213  24.709  1.00  0.00     0.021 C 
ATOM     83  C   UNL A   1      33.725  25.406  23.342  1.00  0.00     0.002 C 
BRANCH  80  84
ATOM     84  N   UNL A   1      32.479  24.478  26.116  1.00  0.00    -0.207 NA
ATOM     85  H   UNL A   1      32.047  24.269  25.216  1.00  0.00     0.141 HD
BRANCH  84  86
ATOM     86  S   UNL A   1      32.960  22.993  26.766  1.00  0.00     0.240 S 
ATOM     87  O   UNL A   1      34.355  23.158  27.095  1.00  0.00    -0.207 OA
ATOM     88  O   UNL A   1      31.992  22.625  27.774  1.00  0.00    -0.207 OA
BRANCH  86  89
ATOM     89  C   UNL A   1      32.872  21.786  25.473  1.00  0.00     0.083 A 
ATOM     90  C   UNL A   1      32.315  22.063  24.229  1.00  0.00     0.022 A 
ATOM     91  C   UNL A   1      33.324  20.494  25.773  1.00  0.00     0.030 A 
ATOM     92  C   UNL A   1      32.160  21.030  23.297  1.00  0.00     0.010 A 
ATOM     93  C   UNL A   1      33.195  19.458  24.839  1.00  0.00    -0.017 A 
ATOM     94  C   UNL A   1      32.586  19.722  23.591  1.00  0.00    -0.018 A 
ATOM     95  C   UNL A   1      33.646  18.160  25.127  1.00  0.00     0.009 A 
ATOM     96  C   UNL A   1      32.419  18.669  22.677  1.00  0.00     0.009 A 
ATOM     97  C   UNL A   1      33.482  17.128  24.204  1.00  0.00     0.001 A 
ATOM     98  C   UNL A   1      32.862  17.380  22.983  1.00  0.00     0.001 A 
ENDBRANCH  86  89
ENDBRANCH  84  86
ENDBRANCH  80  84
ENDBRANCH  75  78
ENDBRANCH  73  74
ENDBRANCH   1  73
TORSDOF 14
ENDMDL
MODEL 3
REMARK VINA RESULT:     -13.2      4.289      9.491
REMARK SMILES O=C(NCCCCNC(=O)[C@@H]1CCCC[C@@H]1NS(=O)(=O)c1ccc2ccccc2c1)c1ccc(-c2c3nc(c(-c4c(F)c(F)c(F)c(F)c4F)c4ccc([nH]4)c(-c4c(F)c(F)c(F)c(F)c4F)c4nc(c(-c5c(F)c(F)c(F)c(F)c5F)c5ccc2[nH]5)C=C4)C=C3)cc1
REMARK SMILES IDX 6 1 5 2 4 3 3 4 1 5 2 6 31 8 32 9 93 10 33 11 92 12 34 13
REMARK SMILES IDX 35 14 36 15 86 16 37 17 91 18 85 19 87 20 38 21 90 22 84 23
REMARK SMILES IDX 83 24 39 26 71 27 51 28 70 29 52 30 55 31 69 32 88 33 53 34
REMARK SMILES IDX 54 35 68 37 89 38 56 39 40 40 41 41 49 42 42 43 43 44 47 45
REMARK SMILES IDX 50 46 44 47 45 48 48 49 46 50 72 51 73 52 81 53 74 54 75 55
REMARK SMILES IDX 79 56 82 57 76 58 77 59 80 60 78 61 57 62 58 63 66 64 59 65
REMARK SMILES IDX 60 66 64 67 67 68 61 69 62 70 65 71 63 72 7 73 8 74 9 75
REMARK SMILES IDX 10 77 11 78 12 79 16 80 13 81 15 82 14 83 17 84 18 86 19 87
REMARK SMILES IDX 20 88 21 89 22 90 30 91 23 92 29 93 24 94 28 95 25 96 27 97
REMARK SMILES IDX 26 98
REMARK H PARENT 3 7 87 25 55 36 8 76 17 85
REMARK Flexibility Score: inf
ROOT
ATOM      1  C   UNL A   1      34.918  24.019  24.374  1.00  0.00     0.023 C 
ENDROOT
BRANCH   1   2
ATOM      2  C   UNL A   1      36.021  22.971  24.394  1.00  0.00     0.023 C 
BRANCH   2   3
ATOM      3  C   UNL A   1      36.497  22.568  25.780  1.00  0.00     0.116 C 
BRANCH   3   4
ATOM      4  N   UNL A   1      37.484  21.495  25.762  1.00  0.00    -0.352 N 
ATOM      5  O   UNL A   1      39.529  20.546  25.898  1.00  0.00    -0.269 OA
ATOM      6  C   UNL A   1      38.820  21.528  26.088  1.00  0.00     0.251 C 
ATOM      7  H   UNL A   1      37.145  20.618  25.473  1.00  0.00     0.163 HD
BRANCH   6   8
ATOM      8  C   UNL A   1      39.403  22.769  26.636  1.00  0.00     0.039 A 
ATOM      9  C   UNL A   1      38.989  24.012  26.159  1.00  0.00     0.014 A 
ATOM     10  C   UNL A   1      40.405  22.684  27.607  1.00  0.00     0.014 A 
ATOM     11  C   UNL A   1      39.704  25.149  26.504  1.00  0.00     0.010 A 
ATOM     12  C   UNL A   1      41.052  23.845  28.035  1.00  0.00     0.010 A 
ATOM     13  C   UNL A   1      40.739  25.082  27.452  1.00  0.00    -0.014 A 
BRANCH  13  14
ATOM     14  C   UNL A   1      41.442  26.333  27.833  1.00  0.00     0.031 A 
ATOM     15  C   UNL A   1      42.836  26.624  27.350  1.00  0.00     0.074 A 
ATOM     16  C   UNL A   1      40.779  27.239  28.576  1.00  0.00     0.049 A 
ATOM     17  N   UNL A   1      43.571  27.689  27.553  1.00  0.00    -0.248 NA
ATOM     18  C   UNL A   1      43.498  25.587  26.544  1.00  0.00     0.031 C 
ATOM     19  C   UNL A   1      39.425  27.059  29.105  1.00  0.00     0.029 A 
ATOM     20  N   UNL A   1      41.131  28.498  28.985  1.00  0.00    -0.354 N 
ATOM     21  C   UNL A   1      44.786  27.439  26.929  1.00  0.00     0.074 A 
ATOM     22  C   UNL A   1      44.698  26.115  26.352  1.00  0.00     0.031 C 
ATOM     23  C   UNL A   1      39.034  28.191  29.706  1.00  0.00     0.029 A 
ATOM     24  C   UNL A   1      40.131  29.149  29.665  1.00  0.00     0.049 A 
ATOM     25  H   UNL A   1      42.013  28.896  28.810  1.00  0.00     0.167 HD
ATOM     26  C   UNL A   1      45.872  28.247  26.842  1.00  0.00     0.037 A 
ATOM     27  C   UNL A   1      40.103  30.382  30.204  1.00  0.00     0.037 A 
ATOM     28  C   UNL A   1      45.939  29.577  27.391  1.00  0.00     0.049 A 
ATOM     29  C   UNL A   1      41.320  31.251  30.092  1.00  0.00     0.074 A 
ATOM     30  C   UNL A   1      46.980  30.489  27.322  1.00  0.00     0.029 A 
ATOM     31  N   UNL A   1      44.922  30.189  28.110  1.00  0.00    -0.354 N 
ATOM     32  N   UNL A   1      42.454  31.008  29.483  1.00  0.00    -0.248 NA
ATOM     33  C   UNL A   1      41.253  32.561  30.751  1.00  0.00     0.031 C 
ATOM     34  C   UNL A   1      46.606  31.636  28.031  1.00  0.00     0.029 A 
ATOM     35  C   UNL A   1      45.317  31.456  28.506  1.00  0.00     0.049 A 
ATOM     36  H   UNL A   1      44.048  29.781  28.307  1.00  0.00     0.167 HD
ATOM     37  C   UNL A   1      43.236  32.137  29.677  1.00  0.00     0.074 A 
ATOM     38  C   UNL A   1      42.436  33.074  30.439  1.00  0.00     0.031 C 
ATOM     39  C   UNL A   1      44.506  32.372  29.268  1.00  0.00     0.037 A 
BRANCH  26  40
ATOM     40  C   UNL A   1      47.088  27.708  26.146  1.00  0.00     0.064 A 
ATOM     41  C   UNL A   1      47.223  27.755  24.751  1.00  0.00     0.173 A 
ATOM     42  C   UNL A   1      48.153  27.178  26.890  1.00  0.00     0.173 A 
ATOM     43  F   UNL A   1      46.229  28.243  23.992  1.00  0.00    -0.203 F 
ATOM     44  C   UNL A   1      48.371  27.272  24.126  1.00  0.00     0.198 A 
ATOM     45  C   UNL A   1      49.309  26.719  26.264  1.00  0.00     0.198 A 
ATOM     46  F   UNL A   1      48.078  27.116  28.228  1.00  0.00    -0.203 F 
ATOM     47  F   UNL A   1      48.463  27.294  22.788  1.00  0.00    -0.200 F 
ATOM     48  C   UNL A   1      49.414  26.762  24.882  1.00  0.00     0.200 A 
ATOM     49  F   UNL A   1      50.321  26.236  26.997  1.00  0.00    -0.200 F 
ATOM     50  F   UNL A   1      50.521  26.304  24.279  1.00  0.00    -0.200 F 
ENDBRANCH  26  40
BRANCH  27  51
ATOM     51  C   UNL A   1      38.873  30.855  30.887  1.00  0.00     0.064 A 
ATOM     52  C   UNL A   1      38.732  30.738  32.276  1.00  0.00     0.173 A 
ATOM     53  C   UNL A   1      37.830  31.460  30.171  1.00  0.00     0.173 A 
ATOM     54  F   UNL A   1      39.697  30.151  33.000  1.00  0.00    -0.203 F 
ATOM     55  C   UNL A   1      37.590  31.203  32.923  1.00  0.00     0.198 A 
ATOM     56  C   UNL A   1      36.701  31.950  30.823  1.00  0.00     0.198 A 
ATOM     57  F   UNL A   1      37.922  31.601  28.840  1.00  0.00    -0.203 F 
ATOM     58  F   UNL A   1      37.465  31.052  34.248  1.00  0.00    -0.200 F 
ATOM     59  C   UNL A   1      36.579  31.816  32.197  1.00  0.00     0.200 A 
ATOM     60  F   UNL A   1      35.736  32.557  30.119  1.00  0.00    -0.200 F 
ATOM     61  F   UNL A   1      35.487  32.275  32.822  1.00  0.00    -0.200 F 
ENDBRANCH  27  51
BRANCH  39  62
ATOM     62  C   UNL A   1      45.094  33.705  29.623  1.00  0.00     0.064 A 
ATOM     63  C   UNL A   1      45.817  33.891  30.809  1.00  0.00     0.173 A 
ATOM     64  C   UNL A   1      44.940  34.801  28.763  1.00  0.00     0.173 A 
ATOM     65  F   UNL A   1      45.974  32.876  31.671  1.00  0.00    -0.203 F 
ATOM     66  C   UNL A   1      46.345  35.138  31.135  1.00  0.00     0.198 A 
ATOM     67  C   UNL A   1      45.490  36.040  29.080  1.00  0.00     0.198 A 
ATOM     68  F   UNL A   1      44.258  34.671  27.616  1.00  0.00    -0.203 F 
ATOM     69  F   UNL A   1      46.989  35.307  32.298  1.00  0.00    -0.200 F 
ATOM     70  C   UNL A   1      46.184  36.210  30.269  1.00  0.00     0.200 A 
ATOM     71  F   UNL A   1      45.341  37.073  28.240  1.00  0.00    -0.200 F 
ATOM     72  F   UNL A   1      46.690  37.409  30.586  1.00  0.00    -0.200 F 
ENDBRANCH  39  62
ENDBRANCH  13  14
ENDBRANCH   6   8
ENDBRANCH   3   4
ENDBRANCH   2   3
ENDBRANCH   1   2
BRANCH   1  73
ATOM     73  C   UNL A   1      34.298  24.295  23.007  1.00  0.00     0.116 C 
BRANCH  73  74
ATOM     74  N   UNL A   1      32.859  24.105  22.981  1.00  0.00    -0.356 N 
ATOM     75  C   UNL A   1      32.084  23.033  23.304  1.00  0.00     0.224 C 
ATOM     76  H   UNL A   1      32.353  24.891  22.675  1.00  0.00     0.163 HD
ATOM     77  O   UNL A   1      30.863  23.172  23.172  1.00  0.00    -0.275 OA
BRANCH  75  78
ATOM     78  C   UNL A   1      32.652  21.698  23.779  1.00  0.00     0.096 C 
ATOM     79  C   UNL A   1      32.242  20.525  22.871  1.00  0.00     0.015 C 
ATOM     80  C   UNL A   1      32.600  21.499  25.321  1.00  0.00     0.082 C 
ATOM     81  C   UNL A   1      32.643  19.161  23.408  1.00  0.00     0.001 C 
ATOM     82  C   UNL A   1      32.984  20.065  25.709  1.00  0.00     0.021 C 
ATOM     83  C   UNL A   1      32.269  19.010  24.872  1.00  0.00     0.002 C 
BRANCH  80  84
ATOM     84  N   UNL A   1      31.290  21.855  25.900  1.00  0.00    -0.207 NA
ATOM     85  H   UNL A   1      30.891  20.989  26.260  1.00  0.00     0.141 HD
BRANCH  84  86
ATOM     86  S   UNL A   1      31.140  22.995  27.139  1.00  0.00     0.240 S 
ATOM     87  O   UNL A   1      29.813  22.802  27.671  1.00  0.00    -0.207 OA
ATOM     88  O   UNL A   1      32.309  22.879  27.981  1.00  0.00    -0.207 OA
BRANCH  86  89
ATOM     89  C   UNL A   1      31.172  24.604  26.399  1.00  0.00     0.083 A 
ATOM     90  C   UNL A   1      30.074  25.144  25.737  1.00  0.00     0.022 A 
ATOM     91  C   UNL A   1      32.386  25.301  26.438  1.00  0.00     0.030 A 
ATOM     92  C   UNL A   1      30.206  26.364  25.064  1.00  0.00     0.010 A 
ATOM     93  C   UNL A   1      32.523  26.535  25.788  1.00  0.00    -0.017 A 
ATOM     94  C   UNL A   1      31.425  27.066  25.072  1.00  0.00    -0.018 A 
ATOM     95  C   UNL A   1      33.734  27.243  25.821  1.00  0.00     0.009 A 
ATOM     96  C   UNL A   1      31.582  28.281  24.386  1.00  0.00     0.009 A 
ATOM     97  C   UNL A   1      33.869  28.454  25.141  1.00  0.00     0.001 A 
ATOM     98  C   UNL A   1      32.797  28.968  24.417  1.00  0.00     0.001 A 
ENDBRANCH  86  89
ENDBRANCH  84  86
ENDBRANCH  80  84
ENDBRANCH  75  78
ENDBRANCH  73  74
ENDBRANCH   1  73
TORSDOF 14
ENDMDL
