MODEL 1
REMARK VINA RESULT:     -12.0      0.000      0.000
REMARK SMILES CC(C)CN(CC(N)=O)C(=O)N1CC[C@H](C(=O)NCCCCNC(=O)c2ccc(-c3c4nc(c(-c5c(F)c(F)c(F)c(F)c5F)c5ccc([nH]5)c(-c5c(F)c(F)c(F)c(F)c5F)c5nc(c(-c6c(F)c(F)c(F)c(F)c6F)c6ccc3[nH]6)C=C5)C=C4)cc2)[C@@H]1C
REMARK SMILES IDX 19 1 18 2 16 3 17 4 15 6 12 7 13 8 89 9 14 10 90 11 10 12
REMARK SMILES IDX 11 13 5 14 4 15 2 16 1 17 3 18 6 19 7 20 8 21 9 22 20 25
REMARK SMILES IDX 21 26 22 27 23 28 24 29 25 31 26 32 27 33 88 34 28 35 87 36
REMARK SMILES IDX 29 37 30 38 31 39 81 40 32 41 86 42 80 43 82 44 33 45 85 46
REMARK SMILES IDX 79 47 78 48 34 50 66 51 46 52 65 53 47 54 50 55 64 56 83 57
REMARK SMILES IDX 48 58 49 59 63 61 84 62 51 63 35 64 36 65 44 66 37 67 38 68
REMARK SMILES IDX 42 69 45 70 39 71 40 72 43 73 41 74 67 75 68 76 76 77 69 78
REMARK SMILES IDX 70 79 74 80 77 81 71 82 72 83 75 84 73 85 52 86 53 87 61 88
REMARK SMILES IDX 54 89 55 90 59 91 62 92 56 93 57 94 60 95 58 96
REMARK H PARENT 18 5 8 23 8 24 23 30 82 49 50 60
REMARK Flexibility Score: inf
ROOT
ATOM      1  C   UNL A   1      31.753  29.703  25.196  1.00  0.00     0.116 C 
ENDROOT
BRANCH   1   2
ATOM      2  N   UNL A   1      32.987  29.631  24.436  1.00  0.00    -0.356 N 
ATOM      3  C   UNL A   1      33.449  28.643  23.615  1.00  0.00     0.225 C 
ATOM      4  O   UNL A   1      34.472  28.856  22.966  1.00  0.00    -0.275 OA
ATOM      5  H   UNL A   1      33.580  30.412  24.526  1.00  0.00     0.163 HD
BRANCH   3   6
ATOM      6  C   UNL A   1      32.715  27.318  23.571  1.00  0.00     0.102 C 
ATOM      7  N   UNL A   1      33.084  25.112  24.322  1.00  0.00    -0.321 N 
ATOM      8  C   UNL A   1      33.773  25.202  23.054  1.00  0.00     0.122 C 
ATOM      9  C   UNL A   1      32.897  26.464  24.845  1.00  0.00     0.096 C 
ATOM     10  C   UNL A   1      33.156  26.418  22.401  1.00  0.00     0.037 C 
ATOM     11  C   UNL A   1      34.049  26.871  25.771  1.00  0.00     0.032 C 
BRANCH   7  12
ATOM     12  C   UNL A   1      33.337  24.020  25.120  1.00  0.00     0.320 C 
ATOM     13  O   UNL A   1      34.474  23.810  25.542  1.00  0.00    -0.248 OA
BRANCH  12  14
ATOM     14  N   UNL A   1      32.298  23.122  25.286  1.00  0.00    -0.315 N 
BRANCH  14  15
ATOM     15  C   UNL A   1      31.681  22.552  24.084  1.00  0.00     0.125 C 
BRANCH  15  16
ATOM     16  C   UNL A   1      32.608  21.551  23.351  1.00  0.00     0.002 C 
ATOM     17  C   UNL A   1      33.021  20.365  24.229  1.00  0.00     0.009 C 
ATOM     18  C   UNL A   1      31.919  21.018  22.093  1.00  0.00     0.009 C 
ENDBRANCH  15  16
ENDBRANCH  14  15
BRANCH  14  19
ATOM     19  C   UNL A   1      31.714  22.746  26.573  1.00  0.00     0.221 C 
BRANCH  19  20
ATOM     20  C   UNL A   1      30.319  23.359  26.775  1.00  0.00     0.237 C 
ATOM     21  N   UNL A   1      29.340  22.479  27.154  1.00  0.00    -0.368 N 
ATOM     22  O   UNL A   1      30.050  24.549  26.648  1.00  0.00    -0.273 OA
ATOM     23  H   UNL A   1      29.550  21.524  27.258  1.00  0.00     0.159 HD
ATOM     24  H   UNL A   1      28.425  22.803  27.322  1.00  0.00     0.159 HD
ENDBRANCH  19  20
ENDBRANCH  14  19
ENDBRANCH  12  14
ENDBRANCH   7  12
ENDBRANCH   3   6
ENDBRANCH   1   2
BRANCH   1  25
ATOM     25  C   UNL A   1      31.950  30.262  26.602  1.00  0.00     0.023 C 
BRANCH  25  26
ATOM     26  C   UNL A   1      31.674  31.758  26.762  1.00  0.00     0.023 C 
BRANCH  26  27
ATOM     27  C   UNL A   1      32.809  32.581  27.365  1.00  0.00     0.116 C 
BRANCH  27  28
ATOM     28  N   UNL A   1      32.439  33.963  27.628  1.00  0.00    -0.352 N 
ATOM     29  C   UNL A   1      32.986  34.869  28.510  1.00  0.00     0.251 C 
ATOM     30  H   UNL A   1      31.685  34.303  27.094  1.00  0.00     0.163 HD
ATOM     31  O   UNL A   1      32.458  35.958  28.674  1.00  0.00    -0.269 OA
BRANCH  29  32
ATOM     32  C   UNL A   1      34.187  34.505  29.296  1.00  0.00     0.039 A 
ATOM     33  C   UNL A   1      34.014  34.019  30.595  1.00  0.00     0.014 A 
ATOM     34  C   UNL A   1      35.470  34.611  28.754  1.00  0.00     0.014 A 
ATOM     35  C   UNL A   1      35.117  33.544  31.311  1.00  0.00     0.010 A 
ATOM     36  C   UNL A   1      36.559  34.076  29.440  1.00  0.00     0.010 A 
ATOM     37  C   UNL A   1      36.388  33.513  30.715  1.00  0.00    -0.014 A 
BRANCH  37  38
ATOM     38  C   UNL A   1      37.531  32.830  31.375  1.00  0.00     0.031 A 
ATOM     39  C   UNL A   1      38.193  31.645  30.735  1.00  0.00     0.074 A 
ATOM     40  C   UNL A   1      37.914  33.233  32.604  1.00  0.00     0.049 A 
ATOM     41  N   UNL A   1      39.141  30.873  31.206  1.00  0.00    -0.248 NA
ATOM     42  C   UNL A   1      37.715  31.263  29.399  1.00  0.00     0.031 C 
ATOM     43  C   UNL A   1      37.320  34.341  33.353  1.00  0.00     0.029 A 
ATOM     44  N   UNL A   1      38.881  32.745  33.448  1.00  0.00    -0.354 N 
ATOM     45  C   UNL A   1      39.365  29.911  30.230  1.00  0.00     0.074 A 
ATOM     46  C   UNL A   1      38.424  30.169  29.160  1.00  0.00     0.031 C 
ATOM     47  C   UNL A   1      37.942  34.459  34.536  1.00  0.00     0.029 A 
ATOM     48  C   UNL A   1      38.947  33.407  34.650  1.00  0.00     0.049 A 
ATOM     49  H   UNL A   1      39.471  31.992  33.214  1.00  0.00     0.167 HD
ATOM     50  C   UNL A   1      40.286  28.917  30.222  1.00  0.00     0.037 A 
ATOM     51  C   UNL A   1      39.716  33.182  35.733  1.00  0.00     0.037 A 
ATOM     52  C   UNL A   1      41.228  28.671  31.283  1.00  0.00     0.049 A 
ATOM     53  C   UNL A   1      40.704  32.049  35.709  1.00  0.00     0.074 A 
ATOM     54  C   UNL A   1      42.244  27.732  31.334  1.00  0.00     0.029 A 
ATOM     55  N   UNL A   1      41.262  29.360  32.487  1.00  0.00    -0.354 N 
ATOM     56  N   UNL A   1      40.961  31.195  34.750  1.00  0.00    -0.248 NA
ATOM     57  C   UNL A   1      41.509  31.847  36.924  1.00  0.00     0.031 C 
ATOM     58  C   UNL A   1      42.856  27.815  32.590  1.00  0.00     0.029 A 
ATOM     59  C   UNL A   1      42.258  28.842  33.301  1.00  0.00     0.049 A 
ATOM     60  H   UNL A   1      40.667  30.107  32.727  1.00  0.00     0.167 HD
ATOM     61  C   UNL A   1      41.965  30.367  35.234  1.00  0.00     0.074 A 
ATOM     62  C   UNL A   1      42.288  30.836  36.565  1.00  0.00     0.031 C 
ATOM     63  C   UNL A   1      42.563  29.311  34.629  1.00  0.00     0.037 A 
BRANCH  50  64
ATOM     64  C   UNL A   1      40.321  28.011  29.025  1.00  0.00     0.064 A 
ATOM     65  C   UNL A   1      39.578  26.820  28.981  1.00  0.00     0.173 A 
ATOM     66  C   UNL A   1      41.065  28.360  27.889  1.00  0.00     0.173 A 
ATOM     67  F   UNL A   1      38.856  26.436  30.045  1.00  0.00    -0.203 F 
ATOM     68  C   UNL A   1      39.600  26.003  27.854  1.00  0.00     0.198 A 
ATOM     69  C   UNL A   1      41.060  27.555  26.752  1.00  0.00     0.198 A 
ATOM     70  F   UNL A   1      41.787  29.491  27.874  1.00  0.00    -0.203 F 
ATOM     71  F   UNL A   1      38.918  24.849  27.852  1.00  0.00    -0.200 F 
ATOM     72  C   UNL A   1      40.334  26.375  26.738  1.00  0.00     0.200 A 
ATOM     73  F   UNL A   1      41.760  27.924  25.669  1.00  0.00    -0.200 F 
ATOM     74  F   UNL A   1      40.346  25.591  25.651  1.00  0.00    -0.200 F 
ENDBRANCH  50  64
BRANCH  51  75
ATOM     75  C   UNL A   1      39.582  34.050  36.931  1.00  0.00     0.064 A 
ATOM     76  C   UNL A   1      38.793  33.657  38.021  1.00  0.00     0.173 A 
ATOM     77  C   UNL A   1      40.236  35.290  37.014  1.00  0.00     0.173 A 
ATOM     78  F   UNL A   1      38.131  32.492  37.980  1.00  0.00    -0.203 F 
ATOM     79  C   UNL A   1      38.646  34.477  39.138  1.00  0.00     0.198 A 
ATOM     80  C   UNL A   1      40.112  36.095  38.143  1.00  0.00     0.198 A 
ATOM     81  F   UNL A   1      41.006  35.710  36.000  1.00  0.00    -0.203 F 
ATOM     82  F   UNL A   1      37.849  34.096  40.145  1.00  0.00    -0.200 F 
ATOM     83  C   UNL A   1      39.312  35.691  39.201  1.00  0.00     0.200 A 
ATOM     84  F   UNL A   1      40.770  37.261  38.207  1.00  0.00    -0.200 F 
ATOM     85  F   UNL A   1      39.175  36.477  40.278  1.00  0.00    -0.200 F 
ENDBRANCH  51  75
BRANCH  63  86
ATOM     86  C   UNL A   1      43.636  28.597  35.399  1.00  0.00     0.064 A 
ATOM     87  C   UNL A   1      44.989  28.935  35.258  1.00  0.00     0.173 A 
ATOM     88  C   UNL A   1      43.303  27.588  36.316  1.00  0.00     0.173 A 
ATOM     89  F   UNL A   1      45.360  29.881  34.382  1.00  0.00    -0.203 F 
ATOM     90  C   UNL A   1      45.973  28.275  35.989  1.00  0.00     0.198 A 
ATOM     91  C   UNL A   1      44.288  26.951  37.068  1.00  0.00     0.198 A 
ATOM     92  F   UNL A   1      42.024  27.228  36.493  1.00  0.00    -0.203 F 
ATOM     93  F   UNL A   1      47.264  28.584  35.803  1.00  0.00    -0.200 F 
ATOM     94  C   UNL A   1      45.620  27.289  36.899  1.00  0.00     0.200 A 
ATOM     95  F   UNL A   1      43.944  26.007  37.956  1.00  0.00    -0.200 F 
ATOM     96  F   UNL A   1      46.569  26.660  37.608  1.00  0.00    -0.200 F 
ENDBRANCH  63  86
ENDBRANCH  37  38
ENDBRANCH  29  32
ENDBRANCH  27  28
ENDBRANCH  26  27
ENDBRANCH  25  26
ENDBRANCH   1  25
TORSDOF 17
ENDMDL
MODEL 2
REMARK VINA RESULT:     -11.6      1.320      2.246
REMARK SMILES CC(C)CN(CC(N)=O)C(=O)N1CC[C@H](C(=O)NCCCCNC(=O)c2ccc(-c3c4nc(c(-c5c(F)c(F)c(F)c(F)c5F)c5ccc([nH]5)c(-c5c(F)c(F)c(F)c(F)c5F)c5nc(c(-c6c(F)c(F)c(F)c(F)c6F)c6ccc3[nH]6)C=C5)C=C4)cc2)[C@@H]1C
REMARK SMILES IDX 19 1 18 2 16 3 17 4 15 6 12 7 13 8 89 9 14 10 90 11 10 12
REMARK SMILES IDX 11 13 5 14 4 15 2 16 1 17 3 18 6 19 7 20 8 21 9 22 20 25
REMARK SMILES IDX 21 26 22 27 23 28 24 29 25 31 26 32 27 33 88 34 28 35 87 36
REMARK SMILES IDX 29 37 30 38 31 39 81 40 32 41 86 42 80 43 82 44 33 45 85 46
REMARK SMILES IDX 79 47 78 48 34 50 66 51 46 52 65 53 47 54 50 55 64 56 83 57
REMARK SMILES IDX 48 58 49 59 63 61 84 62 51 63 35 64 36 65 44 66 37 67 38 68
REMARK SMILES IDX 42 69 45 70 39 71 40 72 43 73 41 74 67 75 68 76 76 77 69 78
REMARK SMILES IDX 70 79 74 80 77 81 71 82 72 83 75 84 73 85 52 86 53 87 61 88
REMARK SMILES IDX 54 89 55 90 59 91 62 92 56 93 57 94 60 95 58 96
REMARK H PARENT 18 5 8 23 8 24 23 30 82 49 50 60
REMARK Flexibility Score: inf
ROOT
ATOM      1  C   UNL A   1      31.406  29.773  25.352  1.00  0.00     0.116 C 
ENDROOT
BRANCH   1   2
ATOM      2  N   UNL A   1      31.073  29.530  23.961  1.00  0.00    -0.356 N 
ATOM      3  C   UNL A   1      30.886  28.349  23.303  1.00  0.00     0.225 C 
ATOM      4  O   UNL A   1      30.478  28.386  22.143  1.00  0.00    -0.275 OA
ATOM      5  H   UNL A   1      30.966  30.338  23.409  1.00  0.00     0.163 HD
BRANCH   3   6
ATOM      6  C   UNL A   1      31.228  27.051  24.007  1.00  0.00     0.102 C 
ATOM      7  N   UNL A   1      32.701  25.238  23.668  1.00  0.00    -0.321 N 
ATOM      8  C   UNL A   1      31.535  24.936  22.868  1.00  0.00     0.122 C 
ATOM      9  C   UNL A   1      32.725  26.677  23.926  1.00  0.00     0.096 C 
ATOM     10  C   UNL A   1      30.466  25.836  23.445  1.00  0.00     0.037 C 
ATOM     11  C   UNL A   1      33.551  27.422  22.872  1.00  0.00     0.032 C 
BRANCH   7  12
ATOM     12  C   UNL A   1      33.835  24.486  23.470  1.00  0.00     0.320 C 
ATOM     13  O   UNL A   1      34.253  24.281  22.331  1.00  0.00    -0.248 OA
BRANCH  12  14
ATOM     14  N   UNL A   1      34.370  23.869  24.587  1.00  0.00    -0.315 N 
BRANCH  14  15
ATOM     15  C   UNL A   1      33.530  22.911  25.315  1.00  0.00     0.125 C 
BRANCH  15  16
ATOM     16  C   UNL A   1      33.148  23.405  26.732  1.00  0.00     0.002 C 
ATOM     17  C   UNL A   1      31.683  23.846  26.837  1.00  0.00     0.009 C 
ATOM     18  C   UNL A   1      33.407  22.304  27.762  1.00  0.00     0.009 C 
ENDBRANCH  15  16
ENDBRANCH  14  15
BRANCH  14  19
ATOM     19  C   UNL A   1      35.692  24.149  25.145  1.00  0.00     0.221 C 
BRANCH  19  20
ATOM     20  C   UNL A   1      36.669  22.983  24.930  1.00  0.00     0.237 C 
ATOM     21  N   UNL A   1      37.423  22.638  26.021  1.00  0.00    -0.368 N 
ATOM     22  O   UNL A   1      36.787  22.350  23.886  1.00  0.00    -0.273 OA
ATOM     23  H   UNL A   1      37.332  23.142  26.861  1.00  0.00     0.159 HD
ATOM     24  H   UNL A   1      38.056  21.886  25.964  1.00  0.00     0.159 HD
ENDBRANCH  19  20
ENDBRANCH  14  19
ENDBRANCH  12  14
ENDBRANCH   7  12
ENDBRANCH   3   6
ENDBRANCH   1   2
BRANCH   1  25
ATOM     25  C   UNL A   1      31.283  31.242  25.747  1.00  0.00     0.023 C 
BRANCH  25  26
ATOM     26  C   UNL A   1      31.761  31.589  27.158  1.00  0.00     0.023 C 
BRANCH  26  27
ATOM     27  C   UNL A   1      32.918  32.581  27.242  1.00  0.00     0.116 C 
BRANCH  27  28
ATOM     28  N   UNL A   1      32.492  33.934  27.560  1.00  0.00    -0.352 N 
ATOM     29  C   UNL A   1      32.984  34.815  28.498  1.00  0.00     0.251 C 
ATOM     30  H   UNL A   1      31.738  34.272  27.024  1.00  0.00     0.163 HD
ATOM     31  O   UNL A   1      32.413  35.876  28.699  1.00  0.00    -0.269 OA
BRANCH  29  32
ATOM     32  C   UNL A   1      34.180  34.457  29.296  1.00  0.00     0.039 A 
ATOM     33  C   UNL A   1      33.995  33.912  30.569  1.00  0.00     0.014 A 
ATOM     34  C   UNL A   1      35.469  34.626  28.788  1.00  0.00     0.014 A 
ATOM     35  C   UNL A   1      35.096  33.442  31.290  1.00  0.00     0.010 A 
ATOM     36  C   UNL A   1      36.560  34.097  29.476  1.00  0.00     0.010 A 
ATOM     37  C   UNL A   1      36.380  33.477  30.723  1.00  0.00    -0.014 A 
BRANCH  37  38
ATOM     38  C   UNL A   1      37.530  32.803  31.381  1.00  0.00     0.031 A 
ATOM     39  C   UNL A   1      38.199  31.622  30.741  1.00  0.00     0.074 A 
ATOM     40  C   UNL A   1      37.914  33.210  32.608  1.00  0.00     0.049 A 
ATOM     41  N   UNL A   1      39.154  30.857  31.210  1.00  0.00    -0.248 NA
ATOM     42  C   UNL A   1      37.720  31.234  29.406  1.00  0.00     0.031 C 
ATOM     43  C   UNL A   1      37.313  34.315  33.357  1.00  0.00     0.029 A 
ATOM     44  N   UNL A   1      38.887  32.730  33.450  1.00  0.00    -0.354 N 
ATOM     45  C   UNL A   1      39.383  29.896  30.234  1.00  0.00     0.074 A 
ATOM     46  C   UNL A   1      38.436  30.146  29.167  1.00  0.00     0.031 C 
ATOM     47  C   UNL A   1      37.938  34.439  34.538  1.00  0.00     0.029 A 
ATOM     48  C   UNL A   1      38.951  33.395  34.650  1.00  0.00     0.049 A 
ATOM     49  H   UNL A   1      39.482  31.982  33.215  1.00  0.00     0.167 HD
ATOM     50  C   UNL A   1      40.310  28.908  30.225  1.00  0.00     0.037 A 
ATOM     51  C   UNL A   1      39.725  33.177  35.731  1.00  0.00     0.037 A 
ATOM     52  C   UNL A   1      41.257  28.671  31.284  1.00  0.00     0.049 A 
ATOM     53  C   UNL A   1      40.721  32.051  35.707  1.00  0.00     0.074 A 
ATOM     54  C   UNL A   1      42.281  27.740  31.332  1.00  0.00     0.029 A 
ATOM     55  N   UNL A   1      41.290  29.362  32.486  1.00  0.00    -0.354 N 
ATOM     56  N   UNL A   1      40.982  31.198  34.747  1.00  0.00    -0.248 NA
ATOM     57  C   UNL A   1      41.531  31.857  36.919  1.00  0.00     0.031 C 
ATOM     58  C   UNL A   1      42.896  27.829  32.586  1.00  0.00     0.029 A 
ATOM     59  C   UNL A   1      42.292  28.853  33.298  1.00  0.00     0.049 A 
ATOM     60  H   UNL A   1      40.690  30.105  32.727  1.00  0.00     0.167 HD
ATOM     61  C   UNL A   1      41.994  30.378  35.229  1.00  0.00     0.074 A 
ATOM     62  C   UNL A   1      42.317  30.851  36.560  1.00  0.00     0.031 C 
ATOM     63  C   UNL A   1      42.598  29.326  34.624  1.00  0.00     0.037 A 
BRANCH  50  64
ATOM     64  C   UNL A   1      40.348  28.001  29.029  1.00  0.00     0.064 A 
ATOM     65  C   UNL A   1      39.597  26.816  28.980  1.00  0.00     0.173 A 
ATOM     66  C   UNL A   1      41.104  28.344  27.898  1.00  0.00     0.173 A 
ATOM     67  F   UNL A   1      38.864  26.438  30.038  1.00  0.00    -0.203 F 
ATOM     68  C   UNL A   1      39.623  25.997  27.854  1.00  0.00     0.198 A 
ATOM     69  C   UNL A   1      41.103  27.538  26.763  1.00  0.00     0.198 A 
ATOM     70  F   UNL A   1      41.835  29.469  27.889  1.00  0.00    -0.203 F 
ATOM     71  F   UNL A   1      38.932  24.849  27.848  1.00  0.00    -0.200 F 
ATOM     72  C   UNL A   1      40.368  26.363  26.744  1.00  0.00     0.200 A 
ATOM     73  F   UNL A   1      41.815  27.900  25.685  1.00  0.00    -0.200 F 
ATOM     74  F   UNL A   1      40.384  25.578  25.657  1.00  0.00    -0.200 F 
ENDBRANCH  50  64
BRANCH  51  75
ATOM     75  C   UNL A   1      39.588  34.046  36.929  1.00  0.00     0.064 A 
ATOM     76  C   UNL A   1      40.247  35.281  37.002  1.00  0.00     0.173 A 
ATOM     77  C   UNL A   1      38.801  33.662  38.026  1.00  0.00     0.173 A 
ATOM     78  F   UNL A   1      41.029  35.682  35.989  1.00  0.00    -0.203 F 
ATOM     79  C   UNL A   1      40.139  36.090  38.132  1.00  0.00     0.198 A 
ATOM     80  C   UNL A   1      38.670  34.484  39.141  1.00  0.00     0.198 A 
ATOM     81  F   UNL A   1      38.147  32.491  38.004  1.00  0.00    -0.203 F 
ATOM     82  F   UNL A   1      40.816  37.244  38.193  1.00  0.00    -0.200 F 
ATOM     83  C   UNL A   1      39.345  35.694  39.197  1.00  0.00     0.200 A 
ATOM     84  F   UNL A   1      37.889  34.105  40.163  1.00  0.00    -0.200 F 
ATOM     85  F   UNL A   1      39.237  36.475  40.281  1.00  0.00    -0.200 F 
ENDBRANCH  51  75
BRANCH  63  86
ATOM     86  C   UNL A   1      43.678  28.620  35.393  1.00  0.00     0.064 A 
ATOM     87  C   UNL A   1      45.028  28.975  35.253  1.00  0.00     0.173 A 
ATOM     88  C   UNL A   1      43.356  27.604  36.305  1.00  0.00     0.173 A 
ATOM     89  F   UNL A   1      45.388  29.929  34.382  1.00  0.00    -0.203 F 
ATOM     90  C   UNL A   1      46.018  28.323  35.983  1.00  0.00     0.198 A 
ATOM     91  C   UNL A   1      44.347  26.975  37.055  1.00  0.00     0.198 A 
ATOM     92  F   UNL A   1      42.081  27.229  36.479  1.00  0.00    -0.203 F 
ATOM     93  F   UNL A   1      47.305  28.647  35.799  1.00  0.00    -0.200 F 
ATOM     94  C   UNL A   1      45.676  27.329  36.889  1.00  0.00     0.200 A 
ATOM     95  F   UNL A   1      44.013  26.024  37.939  1.00  0.00    -0.200 F 
ATOM     96  F   UNL A   1      46.631  26.708  37.595  1.00  0.00    -0.200 F 
ENDBRANCH  63  86
ENDBRANCH  37  38
ENDBRANCH  29  32
ENDBRANCH  27  28
ENDBRANCH  26  27
ENDBRANCH  25  26
ENDBRANCH   1  25
TORSDOF 17
ENDMDL
MODEL 3
REMARK VINA RESULT:     -11.5      5.598     11.170
REMARK SMILES CC(C)CN(CC(N)=O)C(=O)N1CC[C@H](C(=O)NCCCCNC(=O)c2ccc(-c3c4nc(c(-c5c(F)c(F)c(F)c(F)c5F)c5ccc([nH]5)c(-c5c(F)c(F)c(F)c(F)c5F)c5nc(c(-c6c(F)c(F)c(F)c(F)c6F)c6ccc3[nH]6)C=C5)C=C4)cc2)[C@@H]1C
REMARK SMILES IDX 19 1 18 2 16 3 17 4 15 6 12 7 13 8 89 9 14 10 90 11 10 12
REMARK SMILES IDX 11 13 5 14 4 15 2 16 1 17 3 18 6 19 7 20 8 21 9 22 20 25
REMARK SMILES IDX 21 26 22 27 23 28 24 29 25 31 26 32 27 33 88 34 28 35 87 36
REMARK SMILES IDX 29 37 30 38 31 39 81 40 32 41 86 42 80 43 82 44 33 45 85 46
REMARK SMILES IDX 79 47 78 48 34 50 66 51 46 52 65 53 47 54 50 55 64 56 83 57
REMARK SMILES IDX 48 58 49 59 63 61 84 62 51 63 35 64 36 65 44 66 37 67 38 68
REMARK SMILES IDX 42 69 45 70 39 71 40 72 43 73 41 74 67 75 68 76 76 77 69 78
REMARK SMILES IDX 70 79 74 80 77 81 71 82 72 83 75 84 73 85 52 86 53 87 61 88
REMARK SMILES IDX 54 89 55 90 59 91 62 92 56 93 57 94 60 95 58 96
REMARK H PARENT 18 5 8 23 8 24 23 30 82 49 50 60
REMARK Flexibility Score: inf
ROOT
ATOM      1  C   UNL A   1      35.578  21.393  24.396  1.00  0.00     0.116 C 
ENDROOT
BRANCH   1   2
ATOM      2  N   UNL A   1      34.310  20.934  24.932  1.00  0.00    -0.356 N 
ATOM      3  C   UNL A   1      33.042  21.356  24.655  1.00  0.00     0.225 C 
ATOM      4  O   UNL A   1      32.101  20.727  25.137  1.00  0.00    -0.275 OA
ATOM      5  H   UNL A   1      34.375  20.210  25.596  1.00  0.00     0.163 HD
BRANCH   3   6
ATOM      6  C   UNL A   1      32.847  22.597  23.809  1.00  0.00     0.102 C 
ATOM      7  N   UNL A   1      31.692  24.647  23.989  1.00  0.00    -0.321 N 
ATOM      8  C   UNL A   1      30.714  23.702  23.500  1.00  0.00     0.122 C 
ATOM      9  C   UNL A   1      32.775  23.903  24.630  1.00  0.00     0.096 C 
ATOM     10  C   UNL A   1      31.556  22.563  22.969  1.00  0.00     0.037 C 
ATOM     11  C   UNL A   1      32.530  23.743  26.135  1.00  0.00     0.032 C 
BRANCH   7  12
ATOM     12  C   UNL A   1      31.244  25.869  24.437  1.00  0.00     0.320 C 
ATOM     13  O   UNL A   1      30.138  25.969  24.965  1.00  0.00    -0.248 OA
BRANCH  12  14
ATOM     14  N   UNL A   1      32.028  26.965  24.126  1.00  0.00    -0.315 N 
BRANCH  14  15
ATOM     15  C   UNL A   1      32.686  27.677  25.228  1.00  0.00     0.125 C 
BRANCH  15  16
ATOM     16  C   UNL A   1      31.705  28.551  26.047  1.00  0.00     0.002 C 
ATOM     17  C   UNL A   1      31.773  28.277  27.554  1.00  0.00     0.009 C 
ATOM     18  C   UNL A   1      31.989  30.035  25.802  1.00  0.00     0.009 C 
ENDBRANCH  15  16
ENDBRANCH  14  15
BRANCH  14  19
ATOM     19  C   UNL A   1      32.199  27.519  22.783  1.00  0.00     0.221 C 
BRANCH  19  20
ATOM     20  C   UNL A   1      31.033  28.436  22.384  1.00  0.00     0.237 C 
ATOM     21  N   UNL A   1      31.387  29.703  22.002  1.00  0.00    -0.368 N 
ATOM     22  O   UNL A   1      29.853  28.102  22.363  1.00  0.00    -0.273 OA
ATOM     23  H   UNL A   1      32.332  29.976  22.017  1.00  0.00     0.159 HD
ATOM     24  H   UNL A   1      30.694  30.341  21.712  1.00  0.00     0.159 HD
ENDBRANCH  19  20
ENDBRANCH  14  19
ENDBRANCH  12  14
ENDBRANCH   7  12
ENDBRANCH   3   6
ENDBRANCH   1   2
BRANCH   1  25
ATOM     25  C   UNL A   1      36.698  21.395  25.432  1.00  0.00     0.023 C 
BRANCH  25  26
ATOM     26  C   UNL A   1      37.869  20.455  25.139  1.00  0.00     0.023 C 
BRANCH  26  27
ATOM     27  C   UNL A   1      39.073  20.586  26.067  1.00  0.00     0.116 C 
BRANCH  27  28
ATOM     28  N   UNL A   1      39.995  19.465  25.974  1.00  0.00    -0.352 N 
ATOM     29  C   UNL A   1      41.369  19.443  26.075  1.00  0.00     0.251 C 
ATOM     30  H   UNL A   1      39.573  18.589  25.815  1.00  0.00     0.163 HD
ATOM     31  O   UNL A   1      41.982  18.411  25.850  1.00  0.00    -0.269 OA
BRANCH  29  32
ATOM     32  C   UNL A   1      42.107  20.683  26.412  1.00  0.00     0.039 A 
ATOM     33  C   UNL A   1      42.573  21.487  25.368  1.00  0.00     0.014 A 
ATOM     34  C   UNL A   1      42.314  21.067  27.738  1.00  0.00     0.014 A 
ATOM     35  C   UNL A   1      43.155  22.725  25.653  1.00  0.00     0.010 A 
ATOM     36  C   UNL A   1      42.831  22.330  28.020  1.00  0.00     0.010 A 
ATOM     37  C   UNL A   1      43.233  23.182  26.979  1.00  0.00    -0.014 A 
BRANCH  37  38
ATOM     38  C   UNL A   1      43.659  24.572  27.290  1.00  0.00     0.031 A 
ATOM     39  C   UNL A   1      42.665  25.594  27.760  1.00  0.00     0.074 A 
ATOM     40  C   UNL A   1      44.937  24.933  27.059  1.00  0.00     0.049 A 
ATOM     41  N   UNL A   1      42.839  26.872  27.992  1.00  0.00    -0.248 NA
ATOM     42  C   UNL A   1      41.289  25.125  27.981  1.00  0.00     0.031 C 
ATOM     43  C   UNL A   1      45.987  24.046  26.557  1.00  0.00     0.029 A 
ATOM     44  N   UNL A   1      45.567  26.146  27.198  1.00  0.00    -0.354 N 
ATOM     45  C   UNL A   1      41.597  27.359  28.376  1.00  0.00     0.074 A 
ATOM     46  C   UNL A   1      40.668  26.251  28.304  1.00  0.00     0.031 C 
ATOM     47  C   UNL A   1      47.132  24.737  26.444  1.00  0.00     0.029 A 
ATOM     48  C   UNL A   1      46.887  26.126  26.820  1.00  0.00     0.049 A 
ATOM     49  H   UNL A   1      45.115  26.953  27.536  1.00  0.00     0.167 HD
ATOM     50  C   UNL A   1      41.269  28.613  28.771  1.00  0.00     0.037 A 
ATOM     51  C   UNL A   1      47.797  27.118  26.763  1.00  0.00     0.037 A 
ATOM     52  C   UNL A   1      42.199  29.710  28.853  1.00  0.00     0.049 A 
ATOM     53  C   UNL A   1      47.395  28.507  27.173  1.00  0.00     0.074 A 
ATOM     54  C   UNL A   1      41.975  30.998  29.309  1.00  0.00     0.029 A 
ATOM     55  N   UNL A   1      43.527  29.653  28.458  1.00  0.00    -0.354 N 
ATOM     56  N   UNL A   1      46.238  28.939  27.609  1.00  0.00    -0.248 NA
ATOM     57  C   UNL A   1      48.428  29.550  27.080  1.00  0.00     0.031 C 
ATOM     58  C   UNL A   1      43.152  31.735  29.137  1.00  0.00     0.029 A 
ATOM     59  C   UNL A   1      44.125  30.893  28.626  1.00  0.00     0.049 A 
ATOM     60  H   UNL A   1      43.979  28.850  28.111  1.00  0.00     0.167 HD
ATOM     61  C   UNL A   1      46.405  30.294  27.859  1.00  0.00     0.074 A 
ATOM     62  C   UNL A   1      47.784  30.610  27.548  1.00  0.00     0.031 C 
ATOM     63  C   UNL A   1      45.496  31.197  28.304  1.00  0.00     0.037 A 
BRANCH  50  64
ATOM     64  C   UNL A   1      39.838  28.873  29.145  1.00  0.00     0.064 A 
ATOM     65  C   UNL A   1      39.386  28.733  30.466  1.00  0.00     0.173 A 
ATOM     66  C   UNL A   1      38.919  29.316  28.181  1.00  0.00     0.173 A 
ATOM     67  F   UNL A   1      40.222  28.304  31.423  1.00  0.00    -0.203 F 
ATOM     68  C   UNL A   1      38.061  29.002  30.803  1.00  0.00     0.198 A 
ATOM     69  C   UNL A   1      37.604  29.614  28.528  1.00  0.00     0.198 A 
ATOM     70  F   UNL A   1      39.300  29.475  26.906  1.00  0.00    -0.203 F 
ATOM     71  F   UNL A   1      37.642  28.819  32.062  1.00  0.00    -0.200 F 
ATOM     72  C   UNL A   1      37.174  29.450  29.836  1.00  0.00     0.200 A 
ATOM     73  F   UNL A   1      36.751  30.060  27.594  1.00  0.00    -0.200 F 
ATOM     74  F   UNL A   1      35.902  29.718  30.165  1.00  0.00    -0.200 F 
ENDBRANCH  50  64
BRANCH  51  75
ATOM     75  C   UNL A   1      49.179  26.831  26.299  1.00  0.00     0.064 A 
ATOM     76  C   UNL A   1      49.534  26.986  24.952  1.00  0.00     0.173 A 
ATOM     77  C   UNL A   1      50.174  26.394  27.188  1.00  0.00     0.173 A 
ATOM     78  F   UNL A   1      48.613  27.380  24.060  1.00  0.00    -0.203 F 
ATOM     79  C   UNL A   1      50.823  26.698  24.507  1.00  0.00     0.198 A 
ATOM     80  C   UNL A   1      51.469  26.135  26.748  1.00  0.00     0.198 A 
ATOM     81  F   UNL A   1      49.887  26.233  28.488  1.00  0.00    -0.203 F 
ATOM     82  F   UNL A   1      51.120  26.812  23.206  1.00  0.00    -0.200 F 
ATOM     83  C   UNL A   1      51.791  26.280  25.407  1.00  0.00     0.200 A 
ATOM     84  F   UNL A   1      52.407  25.745  27.623  1.00  0.00    -0.200 F 
ATOM     85  F   UNL A   1      53.032  26.008  24.980  1.00  0.00    -0.200 F 
ENDBRANCH  51  75
BRANCH  63  86
ATOM     86  C   UNL A   1      45.967  32.610  28.490  1.00  0.00     0.064 A 
ATOM     87  C   UNL A   1      45.878  33.555  27.457  1.00  0.00     0.173 A 
ATOM     88  C   UNL A   1      46.478  33.034  29.726  1.00  0.00     0.173 A 
ATOM     89  F   UNL A   1      45.412  33.195  26.252  1.00  0.00    -0.203 F 
ATOM     90  C   UNL A   1      46.304  34.867  27.648  1.00  0.00     0.198 A 
ATOM     91  C   UNL A   1      46.875  34.355  29.922  1.00  0.00     0.198 A 
ATOM     92  F   UNL A   1      46.581  32.173  30.748  1.00  0.00    -0.203 F 
ATOM     93  F   UNL A   1      46.253  35.739  26.632  1.00  0.00    -0.200 F 
ATOM     94  C   UNL A   1      46.795  35.267  28.882  1.00  0.00     0.200 A 
ATOM     95  F   UNL A   1      47.337  34.744  31.119  1.00  0.00    -0.200 F 
ATOM     96  F   UNL A   1      47.197  36.533  29.065  1.00  0.00    -0.200 F 
ENDBRANCH  63  86
ENDBRANCH  37  38
ENDBRANCH  29  32
ENDBRANCH  27  28
ENDBRANCH  26  27
ENDBRANCH  25  26
ENDBRANCH   1  25
TORSDOF 17
ENDMDL
