MODEL 1
REMARK VINA RESULT:     -12.0      0.000      0.000
REMARK SMILES CC[C@H](NC(=O)NC[C@@]1(C)CCCO1)C(=O)NCCCCNC(=O)c1ccc(-c2c3nc(c(-c4c(F)c(F)c(F)c(F)c4F)c4ccc([nH]4)c(-c4c(F)c(F)c(F)c(F)c4F)c4nc(c(-c5c(F)c(F)c(F)c(F)c5F)c5ccc2[nH]5)C=C4)C=C3)cc1
REMARK SMILES IDX 19 1 18 2 17 3 15 4 16 5 3 7 2 8 1 9 4 10 5 11 6 13 7 14
REMARK SMILES IDX 8 16 9 17 10 18 11 19 14 20 12 21 13 22 20 23 21 24 22 25
REMARK SMILES IDX 23 26 24 28 25 29 26 30 87 31 27 32 86 33 28 34 29 35 30 36
REMARK SMILES IDX 80 37 31 38 85 39 79 40 81 41 32 42 84 43 78 44 77 45 33 47
REMARK SMILES IDX 65 48 45 49 64 50 46 51 49 52 63 53 82 54 47 55 48 56 62 58
REMARK SMILES IDX 83 59 50 60 34 61 35 62 43 63 36 64 37 65 41 66 44 67 38 68
REMARK SMILES IDX 39 69 42 70 40 71 66 72 67 73 75 74 68 75 69 76 73 77 76 78
REMARK SMILES IDX 70 79 71 80 74 81 72 82 51 83 52 84 60 85 53 86 54 87 58 88
REMARK SMILES IDX 61 89 55 90 56 91 59 92 57 93
REMARK H PARENT 17 6 4 12 7 15 22 27 81 46 49 57
REMARK Flexibility Score: inf
ROOT
ATOM      1  C   UNL A   1      31.483  30.787  25.947  1.00  0.00     0.023 C 
ENDROOT
BRANCH   1   2
ATOM      2  C   UNL A   1      32.620  29.834  26.302  1.00  0.00     0.116 C 
BRANCH   2   3
ATOM      3  N   UNL A   1      33.604  29.413  25.320  1.00  0.00    -0.354 N 
ATOM      4  C   UNL A   1      33.630  28.469  24.340  1.00  0.00     0.242 C 
ATOM      5  O   UNL A   1      34.307  28.751  23.341  1.00  0.00    -0.273 OA
ATOM      6  H   UNL A   1      34.442  29.926  25.377  1.00  0.00     0.163 HD
BRANCH   4   7
ATOM      7  C   UNL A   1      32.831  27.169  24.318  1.00  0.00     0.172 C 
BRANCH   7   8
ATOM      8  C   UNL A   1      33.509  26.134  25.256  1.00  0.00     0.032 C 
ATOM      9  C   UNL A   1      34.400  25.088  24.598  1.00  0.00     0.006 C 
ENDBRANCH   7   8
BRANCH   7  10
ATOM     10  N   UNL A   1      32.497  26.645  23.012  1.00  0.00    -0.326 N 
ATOM     11  C   UNL A   1      31.505  26.894  22.151  1.00  0.00     0.315 C 
ATOM     12  H   UNL A   1      33.131  25.966  22.690  1.00  0.00     0.166 HD
ATOM     13  O   UNL A   1      31.437  26.162  21.159  1.00  0.00    -0.249 OA
ATOM     14  N   UNL A   1      30.660  27.934  22.195  1.00  0.00    -0.335 N 
ATOM     15  H   UNL A   1      30.417  28.233  21.290  1.00  0.00     0.165 HD
BRANCH  14  16
ATOM     16  C   UNL A   1      29.997  28.755  23.225  1.00  0.00     0.152 C 
BRANCH  16  17
ATOM     17  C   UNL A   1      28.858  29.724  22.733  1.00  0.00     0.083 C 
ATOM     18  C   UNL A   1      27.457  29.095  22.838  1.00  0.00     0.044 C 
ATOM     19  C   UNL A   1      28.913  31.108  23.365  1.00  0.00     0.039 C 
ATOM     20  O   UNL A   1      29.015  30.071  21.330  1.00  0.00    -0.373 OA
ATOM     21  C   UNL A   1      28.029  31.934  22.466  1.00  0.00     0.031 C 
ATOM     22  C   UNL A   1      28.299  31.313  21.105  1.00  0.00     0.161 C 
ENDBRANCH  16  17
ENDBRANCH  14  16
ENDBRANCH   7  10
ENDBRANCH   4   7
ENDBRANCH   2   3
ENDBRANCH   1   2
BRANCH   1  23
ATOM     23  C   UNL A   1      31.398  32.217  26.504  1.00  0.00     0.023 C 
BRANCH  23  24
ATOM     24  C   UNL A   1      32.642  32.887  27.083  1.00  0.00     0.116 C 
BRANCH  24  25
ATOM     25  N   UNL A   1      32.385  34.204  27.626  1.00  0.00    -0.352 N 
ATOM     26  C   UNL A   1      32.991  34.830  28.691  1.00  0.00     0.251 C 
ATOM     27  H   UNL A   1      31.682  34.722  27.171  1.00  0.00     0.163 HD
ATOM     28  O   UNL A   1      32.546  35.900  29.091  1.00  0.00    -0.269 OA
BRANCH  26  29
ATOM     29  C   UNL A   1      34.159  34.228  29.389  1.00  0.00     0.039 A 
ATOM     30  C   UNL A   1      35.429  34.430  28.838  1.00  0.00     0.014 A 
ATOM     31  C   UNL A   1      34.026  33.399  30.508  1.00  0.00     0.014 A 
ATOM     32  C   UNL A   1      36.554  33.814  29.401  1.00  0.00     0.010 A 
ATOM     33  C   UNL A   1      35.160  32.820  31.100  1.00  0.00     0.010 A 
ATOM     34  C   UNL A   1      36.437  33.002  30.542  1.00  0.00    -0.014 A 
BRANCH  34  35
ATOM     35  C   UNL A   1      37.648  32.328  31.101  1.00  0.00     0.031 A 
ATOM     36  C   UNL A   1      38.143  32.646  32.490  1.00  0.00     0.074 A 
ATOM     37  C   UNL A   1      38.296  31.391  30.378  1.00  0.00     0.049 A 
ATOM     38  N   UNL A   1      39.112  32.085  33.176  1.00  0.00    -0.248 NA
ATOM     39  C   UNL A   1      37.474  33.747  33.197  1.00  0.00     0.031 C 
ATOM     40  C   UNL A   1      37.956  31.000  29.011  1.00  0.00     0.029 A 
ATOM     41  N   UNL A   1      39.366  30.588  30.698  1.00  0.00    -0.354 N 
ATOM     42  C   UNL A   1      39.166  32.764  34.388  1.00  0.00     0.074 A 
ATOM     43  C   UNL A   1      38.173  33.814  34.321  1.00  0.00     0.031 C 
ATOM     44  C   UNL A   1      38.769  30.003  28.625  1.00  0.00     0.029 A 
ATOM     45  C   UNL A   1      39.707  29.701  29.704  1.00  0.00     0.049 A 
ATOM     46  H   UNL A   1      39.843  30.643  31.557  1.00  0.00     0.167 HD
ATOM     47  C   UNL A   1      39.952  32.522  35.468  1.00  0.00     0.037 A 
ATOM     48  C   UNL A   1      40.657  28.745  29.666  1.00  0.00     0.037 A 
ATOM     49  C   UNL A   1      40.933  31.470  35.551  1.00  0.00     0.049 A 
ATOM     50  C   UNL A   1      41.533  28.514  30.871  1.00  0.00     0.074 A 
ATOM     51  C   UNL A   1      41.728  31.113  36.627  1.00  0.00     0.029 A 
ATOM     52  N   UNL A   1      41.266  30.613  34.512  1.00  0.00    -0.354 N 
ATOM     53  N   UNL A   1      41.509  29.101  32.041  1.00  0.00    -0.248 NA
ATOM     54  C   UNL A   1      42.563  27.470  30.748  1.00  0.00     0.031 C 
ATOM     55  C   UNL A   1      42.585  30.085  36.222  1.00  0.00     0.029 A 
ATOM     56  C   UNL A   1      42.277  29.752  34.913  1.00  0.00     0.049 A 
ATOM     57  H   UNL A   1      40.845  30.615  33.621  1.00  0.00     0.167 HD
ATOM     58  C   UNL A   1      42.488  28.475  32.804  1.00  0.00     0.074 A 
ATOM     59  C   UNL A   1      43.079  27.452  31.968  1.00  0.00     0.031 C 
ATOM     60  C   UNL A   1      42.861  28.728  34.084  1.00  0.00     0.037 A 
BRANCH  47  61
ATOM     61  C   UNL A   1      39.789  33.425  36.661  1.00  0.00     0.064 A 
ATOM     62  C   UNL A   1      40.506  34.625  36.785  1.00  0.00     0.173 A 
ATOM     63  C   UNL A   1      38.872  33.104  37.675  1.00  0.00     0.173 A 
ATOM     64  F   UNL A   1      41.399  34.978  35.847  1.00  0.00    -0.203 F 
ATOM     65  C   UNL A   1      40.342  35.449  37.896  1.00  0.00     0.198 A 
ATOM     66  C   UNL A   1      38.684  33.949  38.768  1.00  0.00     0.198 A 
ATOM     67  F   UNL A   1      38.149  31.977  37.603  1.00  0.00    -0.203 F 
ATOM     68  F   UNL A   1      41.081  36.560  38.019  1.00  0.00    -0.200 F 
ATOM     69  C   UNL A   1      39.427  35.114  38.883  1.00  0.00     0.200 A 
ATOM     70  F   UNL A   1      37.787  33.632  39.711  1.00  0.00    -0.200 F 
ATOM     71  F   UNL A   1      39.266  35.911  39.948  1.00  0.00    -0.200 F 
ENDBRANCH  47  61
BRANCH  48  72
ATOM     72  C   UNL A   1      40.814  27.898  28.453  1.00  0.00     0.064 A 
ATOM     73  C   UNL A   1      41.626  28.311  27.386  1.00  0.00     0.173 A 
ATOM     74  C   UNL A   1      40.139  26.676  28.323  1.00  0.00     0.173 A 
ATOM     75  F   UNL A   1      42.273  29.484  27.450  1.00  0.00    -0.203 F 
ATOM     76  C   UNL A   1      41.735  27.546  26.225  1.00  0.00     0.198 A 
ATOM     77  C   UNL A   1      40.275  25.897  27.175  1.00  0.00     0.198 A 
ATOM     78  F   UNL A   1      39.351  26.236  29.314  1.00  0.00    -0.203 F 
ATOM     79  F   UNL A   1      42.472  27.991  25.199  1.00  0.00    -0.200 F 
ATOM     80  C   UNL A   1      41.063  26.337  26.124  1.00  0.00     0.200 A 
ATOM     81  F   UNL A   1      39.634  24.723  27.088  1.00  0.00    -0.200 F 
ATOM     82  F   UNL A   1      41.169  25.601  25.009  1.00  0.00    -0.200 F 
ENDBRANCH  48  72
BRANCH  60  83
ATOM     83  C   UNL A   1      43.928  27.851  34.682  1.00  0.00     0.064 A 
ATOM     84  C   UNL A   1      43.630  26.611  35.266  1.00  0.00     0.173 A 
ATOM     85  C   UNL A   1      45.274  28.249  34.647  1.00  0.00     0.173 A 
ATOM     86  F   UNL A   1      42.360  26.186  35.338  1.00  0.00    -0.203 F 
ATOM     87  C   UNL A   1      44.632  25.822  35.827  1.00  0.00     0.198 A 
ATOM     88  C   UNL A   1      46.278  27.442  35.176  1.00  0.00     0.198 A 
ATOM     89  F   UNL A   1      45.619  29.422  34.093  1.00  0.00    -0.203 F 
ATOM     90  F   UNL A   1      44.315  24.669  36.434  1.00  0.00    -0.200 F 
ATOM     91  C   UNL A   1      45.956  26.234  35.775  1.00  0.00     0.200 A 
ATOM     92  F   UNL A   1      47.558  27.835  35.110  1.00  0.00    -0.200 F 
ATOM     93  F   UNL A   1      46.919  25.472  36.310  1.00  0.00    -0.200 F 
ENDBRANCH  60  83
ENDBRANCH  34  35
ENDBRANCH  26  29
ENDBRANCH  24  25
ENDBRANCH  23  24
ENDBRANCH   1  23
TORSDOF 15
ENDMDL
MODEL 2
REMARK VINA RESULT:     -11.9      5.983     11.219
REMARK SMILES CC[C@H](NC(=O)NC[C@@]1(C)CCCO1)C(=O)NCCCCNC(=O)c1ccc(-c2c3nc(c(-c4c(F)c(F)c(F)c(F)c4F)c4ccc([nH]4)c(-c4c(F)c(F)c(F)c(F)c4F)c4nc(c(-c5c(F)c(F)c(F)c(F)c5F)c5ccc2[nH]5)C=C4)C=C3)cc1
REMARK SMILES IDX 19 1 18 2 17 3 15 4 16 5 3 7 2 8 1 9 4 10 5 11 6 13 7 14
REMARK SMILES IDX 8 16 9 17 10 18 11 19 14 20 12 21 13 22 20 23 21 24 22 25
REMARK SMILES IDX 23 26 24 28 25 29 26 30 87 31 27 32 86 33 28 34 29 35 30 36
REMARK SMILES IDX 80 37 31 38 85 39 79 40 81 41 32 42 84 43 78 44 77 45 33 47
REMARK SMILES IDX 65 48 45 49 64 50 46 51 49 52 63 53 82 54 47 55 48 56 62 58
REMARK SMILES IDX 83 59 50 60 34 61 35 62 43 63 36 64 37 65 41 66 44 67 38 68
REMARK SMILES IDX 39 69 42 70 40 71 66 72 67 73 75 74 68 75 69 76 73 77 76 78
REMARK SMILES IDX 70 79 71 80 74 81 72 82 51 83 52 84 60 85 53 86 54 87 58 88
REMARK SMILES IDX 61 89 55 90 56 91 59 92 57 93
REMARK H PARENT 17 6 4 12 7 15 22 27 81 46 49 57
REMARK Flexibility Score: inf
ROOT
ATOM      1  C   UNL A   1      37.050  20.890  24.738  1.00  0.00     0.023 C 
ENDROOT
BRANCH   1   2
ATOM      2  C   UNL A   1      37.170  22.296  25.318  1.00  0.00     0.116 C 
BRANCH   2   3
ATOM      3  N   UNL A   1      36.297  22.765  26.380  1.00  0.00    -0.354 N 
ATOM      4  C   UNL A   1      34.951  22.926  26.506  1.00  0.00     0.242 C 
ATOM      5  O   UNL A   1      34.496  22.756  27.647  1.00  0.00    -0.273 OA
ATOM      6  H   UNL A   1      36.790  23.027  27.190  1.00  0.00     0.163 HD
BRANCH   4   7
ATOM      7  C   UNL A   1      33.963  23.185  25.373  1.00  0.00     0.172 C 
BRANCH   7   8
ATOM      8  C   UNL A   1      34.220  24.597  24.782  1.00  0.00     0.032 C 
ATOM      9  C   UNL A   1      33.976  25.785  25.703  1.00  0.00     0.006 C 
ENDBRANCH   7   8
BRANCH   7  10
ATOM     10  N   UNL A   1      32.572  22.916  25.664  1.00  0.00    -0.326 N 
ATOM     11  C   UNL A   1      31.806  21.827  25.547  1.00  0.00     0.315 C 
ATOM     12  H   UNL A   1      32.090  23.696  26.022  1.00  0.00     0.166 HD
ATOM     13  O   UNL A   1      30.599  21.975  25.764  1.00  0.00    -0.249 OA
ATOM     14  N   UNL A   1      32.235  20.574  25.345  1.00  0.00    -0.335 N 
ATOM     15  H   UNL A   1      31.662  19.922  25.809  1.00  0.00     0.165 HD
BRANCH  14  16
ATOM     16  C   UNL A   1      33.331  19.902  24.622  1.00  0.00     0.152 C 
BRANCH  16  17
ATOM     17  C   UNL A   1      33.153  18.364  24.337  1.00  0.00     0.083 C 
ATOM     18  C   UNL A   1      32.506  18.084  22.969  1.00  0.00     0.044 C 
ATOM     19  C   UNL A   1      34.423  17.550  24.547  1.00  0.00     0.039 C 
ATOM     20  O   UNL A   1      32.276  17.735  25.310  1.00  0.00    -0.373 OA
ATOM     21  C   UNL A   1      33.916  16.132  24.621  1.00  0.00     0.031 C 
ATOM     22  C   UNL A   1      32.575  16.314  25.314  1.00  0.00     0.161 C 
ENDBRANCH  16  17
ENDBRANCH  14  16
ENDBRANCH   7  10
ENDBRANCH   4   7
ENDBRANCH   2   3
ENDBRANCH   1   2
BRANCH   1  23
ATOM     23  C   UNL A   1      38.121  19.809  24.960  1.00  0.00     0.023 C 
BRANCH  23  24
ATOM     24  C   UNL A   1      39.178  19.992  26.047  1.00  0.00     0.116 C 
BRANCH  24  25
ATOM     25  N   UNL A   1      40.290  19.074  25.926  1.00  0.00    -0.352 N 
ATOM     26  C   UNL A   1      41.638  19.336  26.016  1.00  0.00     0.251 C 
ATOM     27  H   UNL A   1      40.049  18.134  25.758  1.00  0.00     0.163 HD
ATOM     28  O   UNL A   1      42.441  18.449  25.752  1.00  0.00    -0.269 OA
BRANCH  26  29
ATOM     29  C   UNL A   1      42.147  20.681  26.400  1.00  0.00     0.039 A 
ATOM     30  C   UNL A   1      42.252  20.979  27.763  1.00  0.00     0.014 A 
ATOM     31  C   UNL A   1      42.431  21.678  25.460  1.00  0.00     0.014 A 
ATOM     32  C   UNL A   1      42.640  22.258  28.182  1.00  0.00     0.010 A 
ATOM     33  C   UNL A   1      42.866  22.945  25.882  1.00  0.00     0.010 A 
ATOM     34  C   UNL A   1      42.956  23.259  27.248  1.00  0.00    -0.014 A 
BRANCH  34  35
ATOM     35  C   UNL A   1      43.332  24.625  27.723  1.00  0.00     0.031 A 
ATOM     36  C   UNL A   1      44.773  25.072  27.742  1.00  0.00     0.074 A 
ATOM     37  C   UNL A   1      42.376  25.496  28.108  1.00  0.00     0.049 A 
ATOM     38  N   UNL A   1      45.274  26.253  28.022  1.00  0.00    -0.248 NA
ATOM     39  C   UNL A   1      45.786  24.058  27.418  1.00  0.00     0.031 C 
ATOM     40  C   UNL A   1      40.946  25.199  28.174  1.00  0.00     0.029 A 
ATOM     41  N   UNL A   1      42.462  26.811  28.502  1.00  0.00    -0.354 N 
ATOM     42  C   UNL A   1      46.653  26.121  27.910  1.00  0.00     0.074 A 
ATOM     43  C   UNL A   1      46.914  24.733  27.592  1.00  0.00     0.031 C 
ATOM     44  C   UNL A   1      40.285  26.310  28.539  1.00  0.00     0.029 A 
ATOM     45  C   UNL A   1      41.242  27.390  28.761  1.00  0.00     0.049 A 
ATOM     46  H   UNL A   1      43.316  27.292  28.589  1.00  0.00     0.167 HD
ATOM     47  C   UNL A   1      47.615  27.070  28.033  1.00  0.00     0.037 A 
ATOM     48  C   UNL A   1      40.926  28.650  29.124  1.00  0.00     0.037 A 
ATOM     49  C   UNL A   1      47.366  28.457  28.333  1.00  0.00     0.049 A 
ATOM     50  C   UNL A   1      42.017  29.679  29.278  1.00  0.00     0.074 A 
ATOM     51  C   UNL A   1      48.274  29.500  28.414  1.00  0.00     0.029 A 
ATOM     52  N   UNL A   1      46.119  28.996  28.616  1.00  0.00    -0.354 N 
ATOM     53  N   UNL A   1      43.305  29.562  29.077  1.00  0.00    -0.248 NA
ATOM     54  C   UNL A   1      41.599  31.025  29.700  1.00  0.00     0.031 C 
ATOM     55  C   UNL A   1      47.587  30.653  28.809  1.00  0.00     0.029 A 
ATOM     56  C   UNL A   1      46.240  30.347  28.906  1.00  0.00     0.049 A 
ATOM     57  H   UNL A   1      45.272  28.493  28.612  1.00  0.00     0.167 HD
ATOM     58  C   UNL A   1      43.846  30.821  29.308  1.00  0.00     0.074 A 
ATOM     59  C   UNL A   1      42.742  31.693  29.651  1.00  0.00     0.031 C 
ATOM     60  C   UNL A   1      45.141  31.217  29.240  1.00  0.00     0.037 A 
BRANCH  47  61
ATOM     61  C   UNL A   1      49.045  26.638  27.850  1.00  0.00     0.064 A 
ATOM     62  C   UNL A   1      49.619  26.497  26.577  1.00  0.00     0.173 A 
ATOM     63  C   UNL A   1      49.863  26.400  28.966  1.00  0.00     0.173 A 
ATOM     64  F   UNL A   1      48.882  26.708  25.476  1.00  0.00    -0.203 F 
ATOM     65  C   UNL A   1      50.946  26.097  26.427  1.00  0.00     0.198 A 
ATOM     66  C   UNL A   1      51.200  26.034  28.812  1.00  0.00     0.198 A 
ATOM     67  F   UNL A   1      49.372  26.532  30.207  1.00  0.00    -0.203 F 
ATOM     68  F   UNL A   1      51.453  25.914  25.201  1.00  0.00    -0.200 F 
ATOM     69  C   UNL A   1      51.736  25.872  27.545  1.00  0.00     0.200 A 
ATOM     70  F   UNL A   1      51.966  25.836  29.893  1.00  0.00    -0.200 F 
ATOM     71  F   UNL A   1      53.012  25.493  27.398  1.00  0.00    -0.200 F 
ENDBRANCH  47  61
BRANCH  48  72
ATOM     72  C   UNL A   1      39.503  29.030  29.335  1.00  0.00     0.064 A 
ATOM     73  C   UNL A   1      38.712  29.481  28.268  1.00  0.00     0.173 A 
ATOM     74  C   UNL A   1      38.913  28.977  30.606  1.00  0.00     0.173 A 
ATOM     75  F   UNL A   1      39.237  29.576  27.037  1.00  0.00    -0.203 F 
ATOM     76  C   UNL A   1      37.394  29.889  28.469  1.00  0.00     0.198 A 
ATOM     77  C   UNL A   1      37.585  29.353  30.799  1.00  0.00     0.198 A 
ATOM     78  F   UNL A   1      39.626  28.553  31.659  1.00  0.00    -0.203 F 
ATOM     79  F   UNL A   1      36.679  30.368  27.442  1.00  0.00    -0.200 F 
ATOM     80  C   UNL A   1      36.830  29.818  29.734  1.00  0.00     0.200 A 
ATOM     81  F   UNL A   1      37.041  29.271  32.021  1.00  0.00    -0.200 F 
ATOM     82  F   UNL A   1      35.563  30.208  29.927  1.00  0.00    -0.200 F 
ENDBRANCH  48  72
BRANCH  60  83
ATOM     83  C   UNL A   1      45.437  32.671  29.493  1.00  0.00     0.064 A 
ATOM     84  C   UNL A   1      45.795  33.147  30.763  1.00  0.00     0.173 A 
ATOM     85  C   UNL A   1      45.385  33.599  28.440  1.00  0.00     0.173 A 
ATOM     86  F   UNL A   1      45.849  32.308  31.809  1.00  0.00    -0.203 F 
ATOM     87  C   UNL A   1      46.051  34.500  30.978  1.00  0.00     0.198 A 
ATOM     88  C   UNL A   1      45.677  34.944  28.651  1.00  0.00     0.198 A 
ATOM     89  F   UNL A   1      45.057  33.199  27.202  1.00  0.00    -0.203 F 
ATOM     90  F   UNL A   1      46.331  34.939  32.213  1.00  0.00    -0.200 F 
ATOM     91  C   UNL A   1      45.999  35.396  29.921  1.00  0.00     0.200 A 
ATOM     92  F   UNL A   1      45.642  35.805  27.624  1.00  0.00    -0.200 F 
ATOM     93  F   UNL A   1      46.250  36.695  30.128  1.00  0.00    -0.200 F 
ENDBRANCH  60  83
ENDBRANCH  34  35
ENDBRANCH  26  29
ENDBRANCH  24  25
ENDBRANCH  23  24
ENDBRANCH   1  23
TORSDOF 15
ENDMDL
MODEL 3
REMARK VINA RESULT:     -11.9      5.966     11.252
REMARK SMILES CC[C@H](NC(=O)NC[C@@]1(C)CCCO1)C(=O)NCCCCNC(=O)c1ccc(-c2c3nc(c(-c4c(F)c(F)c(F)c(F)c4F)c4ccc([nH]4)c(-c4c(F)c(F)c(F)c(F)c4F)c4nc(c(-c5c(F)c(F)c(F)c(F)c5F)c5ccc2[nH]5)C=C4)C=C3)cc1
REMARK SMILES IDX 19 1 18 2 17 3 15 4 16 5 3 7 2 8 1 9 4 10 5 11 6 13 7 14
REMARK SMILES IDX 8 16 9 17 10 18 11 19 14 20 12 21 13 22 20 23 21 24 22 25
REMARK SMILES IDX 23 26 24 28 25 29 26 30 87 31 27 32 86 33 28 34 29 35 30 36
REMARK SMILES IDX 80 37 31 38 85 39 79 40 81 41 32 42 84 43 78 44 77 45 33 47
REMARK SMILES IDX 65 48 45 49 64 50 46 51 49 52 63 53 82 54 47 55 48 56 62 58
REMARK SMILES IDX 83 59 50 60 34 61 35 62 43 63 36 64 37 65 41 66 44 67 38 68
REMARK SMILES IDX 39 69 42 70 40 71 66 72 67 73 75 74 68 75 69 76 73 77 76 78
REMARK SMILES IDX 70 79 71 80 74 81 72 82 51 83 52 84 60 85 53 86 54 87 58 88
REMARK SMILES IDX 61 89 55 90 56 91 59 92 57 93
REMARK H PARENT 17 6 4 12 7 15 22 27 81 46 49 57
REMARK Flexibility Score: inf
ROOT
ATOM      1  C   UNL A   1      37.007  20.762  24.833  1.00  0.00     0.023 C 
ENDROOT
BRANCH   1   2
ATOM      2  C   UNL A   1      37.121  22.207  25.311  1.00  0.00     0.116 C 
BRANCH   2   3
ATOM      3  N   UNL A   1      36.276  22.735  26.367  1.00  0.00    -0.354 N 
ATOM      4  C   UNL A   1      34.942  22.973  26.492  1.00  0.00     0.242 C 
ATOM      5  O   UNL A   1      34.477  22.840  27.634  1.00  0.00    -0.273 OA
ATOM      6  H   UNL A   1      36.783  22.976  27.176  1.00  0.00     0.163 HD
BRANCH   4   7
ATOM      7  C   UNL A   1      33.969  23.278  25.356  1.00  0.00     0.172 C 
BRANCH   7   8
ATOM      8  C   UNL A   1      34.211  24.726  24.848  1.00  0.00     0.032 C 
ATOM      9  C   UNL A   1      33.675  25.858  25.714  1.00  0.00     0.006 C 
ENDBRANCH   7   8
BRANCH   7  10
ATOM     10  N   UNL A   1      32.578  22.969  25.604  1.00  0.00    -0.326 N 
ATOM     11  C   UNL A   1      31.885  21.827  25.632  1.00  0.00     0.315 C 
ATOM     12  H   UNL A   1      32.029  23.764  25.791  1.00  0.00     0.166 HD
ATOM     13  O   UNL A   1      30.660  21.927  25.746  1.00  0.00    -0.249 OA
ATOM     14  N   UNL A   1      32.397  20.590  25.678  1.00  0.00    -0.335 N 
ATOM     15  H   UNL A   1      31.830  19.989  26.213  1.00  0.00     0.165 HD
BRANCH  14  16
ATOM     16  C   UNL A   1      33.578  19.880  25.150  1.00  0.00     0.152 C 
BRANCH  16  17
ATOM     17  C   UNL A   1      33.320  18.485  24.468  1.00  0.00     0.083 C 
ATOM     18  C   UNL A   1      32.379  18.584  23.254  1.00  0.00     0.044 C 
ATOM     19  C   UNL A   1      34.592  17.714  24.145  1.00  0.00     0.039 C 
ATOM     20  O   UNL A   1      32.673  17.553  25.377  1.00  0.00    -0.373 OA
ATOM     21  C   UNL A   1      34.095  16.312  23.903  1.00  0.00     0.031 C 
ATOM     22  C   UNL A   1      32.947  16.212  24.893  1.00  0.00     0.161 C 
ENDBRANCH  16  17
ENDBRANCH  14  16
ENDBRANCH   7  10
ENDBRANCH   4   7
ENDBRANCH   2   3
ENDBRANCH   1   2
BRANCH   1  23
ATOM     23  C   UNL A   1      38.158  19.753  24.968  1.00  0.00     0.023 C 
BRANCH  23  24
ATOM     24  C   UNL A   1      39.220  19.944  26.048  1.00  0.00     0.116 C 
BRANCH  24  25
ATOM     25  N   UNL A   1      40.344  19.042  25.915  1.00  0.00    -0.352 N 
ATOM     26  C   UNL A   1      41.689  19.323  25.991  1.00  0.00     0.251 C 
ATOM     27  H   UNL A   1      40.114  18.099  25.749  1.00  0.00     0.163 HD
ATOM     28  O   UNL A   1      42.502  18.448  25.718  1.00  0.00    -0.269 OA
BRANCH  26  29
ATOM     29  C   UNL A   1      42.183  20.675  26.370  1.00  0.00     0.039 A 
ATOM     30  C   UNL A   1      42.314  20.968  27.732  1.00  0.00     0.014 A 
ATOM     31  C   UNL A   1      42.428  21.681  25.430  1.00  0.00     0.014 A 
ATOM     32  C   UNL A   1      42.689  22.251  28.150  1.00  0.00     0.010 A 
ATOM     33  C   UNL A   1      42.850  22.954  25.849  1.00  0.00     0.010 A 
ATOM     34  C   UNL A   1      42.965  23.262  27.214  1.00  0.00    -0.014 A 
BRANCH  34  35
ATOM     35  C   UNL A   1      43.329  24.633  27.688  1.00  0.00     0.031 A 
ATOM     36  C   UNL A   1      44.766  25.089  27.719  1.00  0.00     0.074 A 
ATOM     37  C   UNL A   1      42.364  25.499  28.061  1.00  0.00     0.049 A 
ATOM     38  N   UNL A   1      45.258  26.273  28.000  1.00  0.00    -0.248 NA
ATOM     39  C   UNL A   1      45.789  24.080  27.409  1.00  0.00     0.031 C 
ATOM     40  C   UNL A   1      40.935  25.193  28.114  1.00  0.00     0.029 A 
ATOM     41  N   UNL A   1      42.437  26.816  28.450  1.00  0.00    -0.354 N 
ATOM     42  C   UNL A   1      46.638  26.150  27.902  1.00  0.00     0.074 A 
ATOM     43  C   UNL A   1      46.911  24.763  27.592  1.00  0.00     0.031 C 
ATOM     44  C   UNL A   1      40.263  26.301  28.468  1.00  0.00     0.029 A 
ATOM     45  C   UNL A   1      41.211  27.388  28.695  1.00  0.00     0.049 A 
ATOM     46  H   UNL A   1      43.287  27.303  28.544  1.00  0.00     0.167 HD
ATOM     47  C   UNL A   1      47.593  27.106  28.031  1.00  0.00     0.037 A 
ATOM     48  C   UNL A   1      40.884  28.647  29.051  1.00  0.00     0.037 A 
ATOM     49  C   UNL A   1      47.332  28.492  28.324  1.00  0.00     0.049 A 
ATOM     50  C   UNL A   1      41.966  29.684  29.212  1.00  0.00     0.074 A 
ATOM     51  C   UNL A   1      48.233  29.541  28.410  1.00  0.00     0.029 A 
ATOM     52  N   UNL A   1      46.079  29.024  28.593  1.00  0.00    -0.354 N 
ATOM     53  N   UNL A   1      43.258  29.574  29.024  1.00  0.00    -0.248 NA
ATOM     54  C   UNL A   1      41.536  31.029  29.625  1.00  0.00     0.031 C 
ATOM     55  C   UNL A   1      47.535  30.691  28.794  1.00  0.00     0.029 A 
ATOM     56  C   UNL A   1      46.189  30.377  28.879  1.00  0.00     0.049 A 
ATOM     57  H   UNL A   1      45.236  28.515  28.582  1.00  0.00     0.167 HD
ATOM     58  C   UNL A   1      43.788  30.838  29.256  1.00  0.00     0.074 A 
ATOM     59  C   UNL A   1      42.676  31.704  29.585  1.00  0.00     0.031 C 
ATOM     60  C   UNL A   1      45.082  31.242  29.199  1.00  0.00     0.037 A 
BRANCH  47  61
ATOM     61  C   UNL A   1      49.027  26.682  27.864  1.00  0.00     0.064 A 
ATOM     62  C   UNL A   1      49.851  26.404  28.966  1.00  0.00     0.173 A 
ATOM     63  C   UNL A   1      49.573  26.512  26.582  1.00  0.00     0.173 A 
ATOM     64  F   UNL A   1      49.382  26.554  30.214  1.00  0.00    -0.203 F 
ATOM     65  C   UNL A   1      51.176  26.011  28.792  1.00  0.00     0.198 A 
ATOM     66  C   UNL A   1      50.889  26.085  26.411  1.00  0.00     0.198 A 
ATOM     67  F   UNL A   1      48.829  26.750  25.491  1.00  0.00    -0.203 F 
ATOM     68  F   UNL A   1      51.959  25.809  29.861  1.00  0.00    -0.200 F 
ATOM     69  C   UNL A   1      51.692  25.846  27.515  1.00  0.00     0.200 A 
ATOM     70  F   UNL A   1      51.379  25.908  25.177  1.00  0.00    -0.200 F 
ATOM     71  F   UNL A   1      52.965  25.463  27.350  1.00  0.00    -0.200 F 
ENDBRANCH  47  61
BRANCH  48  72
ATOM     72  C   UNL A   1      39.457  29.019  29.246  1.00  0.00     0.064 A 
ATOM     73  C   UNL A   1      38.674  29.465  28.171  1.00  0.00     0.173 A 
ATOM     74  C   UNL A   1      38.853  28.963  30.511  1.00  0.00     0.173 A 
ATOM     75  F   UNL A   1      39.212  29.561  26.946  1.00  0.00    -0.203 F 
ATOM     76  C   UNL A   1      37.352  29.865  28.358  1.00  0.00     0.198 A 
ATOM     77  C   UNL A   1      37.522  29.332  30.690  1.00  0.00     0.198 A 
ATOM     78  F   UNL A   1      39.558  28.545  31.572  1.00  0.00    -0.203 F 
ATOM     79  F   UNL A   1      36.645  30.339  27.323  1.00  0.00    -0.200 F 
ATOM     80  C   UNL A   1      36.775  29.792  29.617  1.00  0.00     0.200 A 
ATOM     81  F   UNL A   1      36.965  29.248  31.906  1.00  0.00    -0.200 F 
ATOM     82  F   UNL A   1      35.503  30.174  29.796  1.00  0.00    -0.200 F 
ENDBRANCH  48  72
BRANCH  60  83
ATOM     83  C   UNL A   1      45.366  32.698  29.450  1.00  0.00     0.064 A 
ATOM     84  C   UNL A   1      45.323  33.652  28.422  1.00  0.00     0.173 A 
ATOM     85  C   UNL A   1      45.662  33.149  30.746  1.00  0.00     0.173 A 
ATOM     86  F   UNL A   1      45.057  33.276  27.162  1.00  0.00    -0.203 F 
ATOM     87  C   UNL A   1      45.603  34.993  28.675  1.00  0.00     0.198 A 
ATOM     88  C   UNL A   1      45.907  34.496  31.002  1.00  0.00     0.198 A 
ATOM     89  F   UNL A   1      45.709  32.283  31.770  1.00  0.00    -0.203 F 
ATOM     90  F   UNL A   1      45.616  35.875  27.665  1.00  0.00    -0.200 F 
ATOM     91  C   UNL A   1      45.888  35.416  29.964  1.00  0.00     0.200 A 
ATOM     92  F   UNL A   1      46.165  34.904  32.252  1.00  0.00    -0.200 F 
ATOM     93  F   UNL A   1      46.153  36.706  30.207  1.00  0.00    -0.200 F 
ENDBRANCH  60  83
ENDBRANCH  34  35
ENDBRANCH  26  29
ENDBRANCH  24  25
ENDBRANCH  23  24
ENDBRANCH   1  23
TORSDOF 15
ENDMDL
