MODEL 1
REMARK VINA RESULT:     -13.0      0.000      0.000
REMARK SMILES CC(C)[N@@H+](C)Cc1cc2c(cc1Cl)C=C(C(=O)NCCCCNC(=O)c1ccc(-c3c4nc(c(-c5c(F)c(F)c(F)c(F)c5F)c5ccc([nH]5)c(-c5c(F)c(F)c(F)c(F)c5F)c5nc(c(-c6c(F)c(F)c(F)c(F)c6F)c6ccc3[nH]6)C=C5)C=C4)cc1)[C@@H](C(F)(F)F)O2
REMARK SMILES IDX 20 1 19 2 18 3 16 4 17 5 15 7 7 8 8 9 12 10 9 11 11 12 13 13
REMARK SMILES IDX 10 14 94 15 14 16 89 17 6 18 4 19 5 20 2 22 1 23 3 24 90 25
REMARK SMILES IDX 91 26 92 27 93 28 21 29 22 30 23 31 24 32 25 34 26 35 27 36
REMARK SMILES IDX 88 37 28 38 87 39 29 40 30 41 31 42 81 43 32 44 86 45 80 46
REMARK SMILES IDX 82 47 33 48 85 49 79 50 78 51 34 53 66 54 46 55 65 56 47 57
REMARK SMILES IDX 50 58 64 59 83 60 48 61 49 62 63 64 84 65 51 66 35 67 36 68
REMARK SMILES IDX 44 69 37 70 38 71 42 72 45 73 39 74 40 75 43 76 41 77 67 78
REMARK SMILES IDX 68 79 76 80 69 81 70 82 74 83 77 84 71 85 72 86 75 87 73 88
REMARK SMILES IDX 52 89 53 90 61 91 54 92 55 93 59 94 62 95 56 96 57 97 60 98
REMARK SMILES IDX 58 99
REMARK H PARENT 18 6 4 21 23 33 82 52 50 63
REMARK Flexibility Score: inf
ROOT
ATOM      1  C   UNL A   1      32.579  30.273  26.846  1.00  0.00     0.023 C 
ENDROOT
BRANCH   1   2
ATOM      2  C   UNL A   1      32.842  29.868  25.398  1.00  0.00     0.116 C 
BRANCH   2   3
ATOM      3  N   UNL A   1      31.614  29.786  24.630  1.00  0.00    -0.352 N 
ATOM      4  C   UNL A   1      30.892  28.805  24.043  1.00  0.00     0.251 C 
ATOM      5  O   UNL A   1      29.852  29.176  23.490  1.00  0.00    -0.270 OA
ATOM      6  H   UNL A   1      31.200  30.671  24.506  1.00  0.00     0.163 HD
BRANCH   4   7
ATOM      7  C   UNL A   1      31.271  27.364  24.011  1.00  0.00     0.067 C 
ATOM      8  C   UNL A   1      31.841  22.483  25.181  1.00  0.00     0.029 A 
ATOM      9  C   UNL A   1      31.602  23.198  23.992  1.00  0.00     0.058 A 
ATOM     10  C   UNL A   1      32.044  23.226  26.358  1.00  0.00     0.050 A 
ATOM     11  C   UNL A   1      31.473  24.582  24.007  1.00  0.00     0.128 A 
ATOM     12  C   UNL A   1      31.854  24.615  26.377  1.00  0.00     0.033 A 
ATOM     13  Cl  UNL A   1      32.551  22.509  27.844  1.00  0.00    -0.084 Cl
ATOM     14  C   UNL A   1      31.540  25.293  25.203  1.00  0.00     0.019 A 
ATOM     15  O   UNL A   1      31.250  25.202  22.808  1.00  0.00    -0.475 OA
ATOM     16  C   UNL A   1      31.239  26.720  25.192  1.00  0.00     0.025 C 
ATOM     17  C   UNL A   1      31.663  26.599  22.777  1.00  0.00     0.314 C 
BRANCH   8  18
ATOM     18  C   UNL A   1      31.867  20.968  25.120  1.00  0.00     0.300 C 
BRANCH  18  19
ATOM     19  N   UNL A   1      32.951  20.334  24.349  1.00  0.00    -0.332 N 
ATOM     20  C   UNL A   1      32.528  19.248  23.474  1.00  0.00     0.333 C 
ATOM     21  H   UNL A   1      33.190  21.130  23.757  1.00  0.00     0.348 HD
BRANCH  19  22
ATOM     22  C   UNL A   1      34.245  20.075  25.001  1.00  0.00     0.177 C 
ATOM     23  C   UNL A   1      34.839  18.713  24.626  1.00  0.00     0.075 C 
ATOM     24  C   UNL A   1      35.291  21.189  24.891  1.00  0.00     0.075 C 
ENDBRANCH  19  22
ENDBRANCH  18  19
ENDBRANCH   8  18
BRANCH  17  25
ATOM     25  C   UNL A   1      33.176  26.707  22.484  1.00  0.00     0.429 C 
ATOM     26  F   UNL A   1      33.563  25.729  21.627  1.00  0.00    -0.167 F 
ATOM     27  F   UNL A   1      33.500  27.885  21.894  1.00  0.00    -0.167 F 
ATOM     28  F   UNL A   1      33.944  26.605  23.589  1.00  0.00    -0.167 F 
ENDBRANCH  17  25
ENDBRANCH   4   7
ENDBRANCH   2   3
ENDBRANCH   1   2
BRANCH   1  29
ATOM     29  C   UNL A   1      32.053  31.699  27.012  1.00  0.00     0.023 C 
BRANCH  29  30
ATOM     30  C   UNL A   1      33.090  32.724  27.464  1.00  0.00     0.116 C 
BRANCH  30  31
ATOM     31  N   UNL A   1      32.553  34.057  27.702  1.00  0.00    -0.352 N 
ATOM     32  C   UNL A   1      33.014  35.000  28.596  1.00  0.00     0.251 C 
ATOM     33  H   UNL A   1      31.771  34.315  27.162  1.00  0.00     0.163 HD
ATOM     34  O   UNL A   1      32.441  36.067  28.751  1.00  0.00    -0.269 OA
BRANCH  32  35
ATOM     35  C   UNL A   1      34.193  34.651  29.412  1.00  0.00     0.039 A 
ATOM     36  C   UNL A   1      35.474  34.792  28.876  1.00  0.00     0.014 A 
ATOM     37  C   UNL A   1      33.997  34.045  30.655  1.00  0.00     0.014 A 
ATOM     38  C   UNL A   1      36.542  34.164  29.501  1.00  0.00     0.010 A 
ATOM     39  C   UNL A   1      35.087  33.480  31.318  1.00  0.00     0.010 A 
ATOM     40  C   UNL A   1      36.354  33.481  30.714  1.00  0.00    -0.014 A 
BRANCH  40  41
ATOM     41  C   UNL A   1      37.492  32.736  31.310  1.00  0.00     0.031 A 
ATOM     42  C   UNL A   1      37.950  33.035  32.712  1.00  0.00     0.074 A 
ATOM     43  C   UNL A   1      38.061  31.738  30.608  1.00  0.00     0.049 A 
ATOM     44  N   UNL A   1      38.923  32.485  33.396  1.00  0.00    -0.248 NA
ATOM     45  C   UNL A   1      37.227  34.086  33.445  1.00  0.00     0.031 C 
ATOM     46  C   UNL A   1      37.681  31.341  29.253  1.00  0.00     0.029 A 
ATOM     47  N   UNL A   1      39.056  30.860  30.948  1.00  0.00    -0.354 N 
ATOM     48  C   UNL A   1      38.943  33.137  34.622  1.00  0.00     0.074 A 
ATOM     49  C   UNL A   1      37.898  34.136  34.589  1.00  0.00     0.031 C 
ATOM     50  C   UNL A   1      38.393  30.264  28.896  1.00  0.00     0.029 A 
ATOM     51  C   UNL A   1      39.323  29.933  29.970  1.00  0.00     0.049 A 
ATOM     52  H   UNL A   1      39.533  30.889  31.808  1.00  0.00     0.167 HD
ATOM     53  C   UNL A   1      39.755  32.913  35.683  1.00  0.00     0.037 A 
ATOM     54  C   UNL A   1      40.226  28.936  29.939  1.00  0.00     0.037 A 
ATOM     55  C   UNL A   1      40.770  31.893  35.727  1.00  0.00     0.049 A 
ATOM     56  C   UNL A   1      41.134  28.732  31.117  1.00  0.00     0.074 A 
ATOM     57  C   UNL A   1      41.632  31.579  36.764  1.00  0.00     0.029 A 
ATOM     58  N   UNL A   1      41.051  31.014  34.692  1.00  0.00    -0.354 N 
ATOM     59  N   UNL A   1      41.156  29.371  32.261  1.00  0.00    -0.248 NA
ATOM     60  C   UNL A   1      42.153  27.682  30.992  1.00  0.00     0.031 C 
ATOM     61  C   UNL A   1      42.455  30.530  36.346  1.00  0.00     0.029 A 
ATOM     62  C   UNL A   1      42.083  30.167  35.061  1.00  0.00     0.049 A 
ATOM     63  H   UNL A   1      40.587  30.995  33.824  1.00  0.00     0.167 HD
ATOM     64  C   UNL A   1      42.188  28.801  32.993  1.00  0.00     0.074 A 
ATOM     65  C   UNL A   1      42.751  27.748  32.175  1.00  0.00     0.031 C 
ATOM     66  C   UNL A   1      42.633  29.129  34.230  1.00  0.00     0.037 A 
BRANCH  53  67
ATOM     67  C   UNL A   1      39.594  33.785  36.891  1.00  0.00     0.064 A 
ATOM     68  C   UNL A   1      40.181  35.056  36.960  1.00  0.00     0.173 A 
ATOM     69  C   UNL A   1      38.773  33.381  37.954  1.00  0.00     0.173 A 
ATOM     70  F   UNL A   1      40.985  35.484  35.975  1.00  0.00    -0.203 F 
ATOM     71  C   UNL A   1      39.954  35.890  38.053  1.00  0.00     0.198 A 
ATOM     72  C   UNL A   1      38.531  34.224  39.035  1.00  0.00     0.198 A 
ATOM     73  F   UNL A   1      38.184  32.175  37.932  1.00  0.00    -0.203 F 
ATOM     74  F   UNL A   1      40.541  37.094  38.110  1.00  0.00    -0.200 F 
ATOM     75  C   UNL A   1      39.123  35.477  39.085  1.00  0.00     0.200 A 
ATOM     76  F   UNL A   1      37.720  33.827  40.026  1.00  0.00    -0.200 F 
ATOM     77  F   UNL A   1      38.892  36.287  40.127  1.00  0.00    -0.200 F 
ENDBRANCH  53  67
BRANCH  54  78
ATOM     78  C   UNL A   1      40.311  28.063  28.742  1.00  0.00     0.064 A 
ATOM     79  C   UNL A   1      41.079  28.439  27.633  1.00  0.00     0.173 A 
ATOM     80  C   UNL A   1      39.652  26.825  28.696  1.00  0.00     0.173 A 
ATOM     81  F   UNL A   1      41.710  29.622  27.625  1.00  0.00    -0.203 F 
ATOM     82  C   UNL A   1      41.182  27.610  26.518  1.00  0.00     0.198 A 
ATOM     83  C   UNL A   1      39.777  25.986  27.592  1.00  0.00     0.198 A 
ATOM     84  F   UNL A   1      38.909  26.422  29.736  1.00  0.00    -0.203 F 
ATOM     85  F   UNL A   1      41.901  28.003  25.458  1.00  0.00    -0.200 F 
ATOM     86  C   UNL A   1      40.539  26.381  26.502  1.00  0.00     0.200 A 
ATOM     87  F   UNL A   1      39.167  24.794  27.588  1.00  0.00    -0.200 F 
ATOM     88  F   UNL A   1      40.650  25.578  25.436  1.00  0.00    -0.200 F 
ENDBRANCH  54  78
BRANCH  66  89
ATOM     89  C   UNL A   1      43.786  28.342  34.773  1.00  0.00     0.064 A 
ATOM     90  C   UNL A   1      43.582  27.137  35.461  1.00  0.00     0.173 A 
ATOM     91  C   UNL A   1      45.105  28.764  34.554  1.00  0.00     0.173 A 
ATOM     92  F   UNL A   1      42.336  26.703  35.706  1.00  0.00    -0.203 F 
ATOM     93  C   UNL A   1      44.660  26.389  35.924  1.00  0.00     0.198 A 
ATOM     94  C   UNL A   1      46.181  28.002  34.998  1.00  0.00     0.198 A 
ATOM     95  F   UNL A   1      45.349  29.907  33.895  1.00  0.00    -0.203 F 
ATOM     96  F   UNL A   1      44.444  25.256  36.606  1.00  0.00    -0.200 F 
ATOM     97  C   UNL A   1      45.958  26.818  35.686  1.00  0.00     0.200 A 
ATOM     98  F   UNL A   1      47.435  28.411  34.759  1.00  0.00    -0.200 F 
ATOM     99  F   UNL A   1      46.995  26.091  36.122  1.00  0.00    -0.200 F 
ENDBRANCH  66  89
ENDBRANCH  40  41
ENDBRANCH  32  35
ENDBRANCH  30  31
ENDBRANCH  29  30
ENDBRANCH   1  29
TORSDOF 15
ENDMDL
MODEL 2
REMARK VINA RESULT:     -13.0      0.208      1.909
REMARK SMILES CC(C)[N@@H+](C)Cc1cc2c(cc1Cl)C=C(C(=O)NCCCCNC(=O)c1ccc(-c3c4nc(c(-c5c(F)c(F)c(F)c(F)c5F)c5ccc([nH]5)c(-c5c(F)c(F)c(F)c(F)c5F)c5nc(c(-c6c(F)c(F)c(F)c(F)c6F)c6ccc3[nH]6)C=C5)C=C4)cc1)[C@@H](C(F)(F)F)O2
REMARK SMILES IDX 20 1 19 2 18 3 16 4 17 5 15 7 7 8 8 9 12 10 9 11 11 12 13 13
REMARK SMILES IDX 10 14 94 15 14 16 89 17 6 18 4 19 5 20 2 22 1 23 3 24 90 25
REMARK SMILES IDX 91 26 92 27 93 28 21 29 22 30 23 31 24 32 25 34 26 35 27 36
REMARK SMILES IDX 88 37 28 38 87 39 29 40 30 41 31 42 81 43 32 44 86 45 80 46
REMARK SMILES IDX 82 47 33 48 85 49 79 50 78 51 34 53 66 54 46 55 65 56 47 57
REMARK SMILES IDX 50 58 64 59 83 60 48 61 49 62 63 64 84 65 51 66 35 67 36 68
REMARK SMILES IDX 44 69 37 70 38 71 42 72 45 73 39 74 40 75 43 76 41 77 67 78
REMARK SMILES IDX 68 79 76 80 69 81 70 82 74 83 77 84 71 85 72 86 75 87 73 88
REMARK SMILES IDX 52 89 53 90 61 91 54 92 55 93 59 94 62 95 56 96 57 97 60 98
REMARK SMILES IDX 58 99
REMARK H PARENT 18 6 4 21 23 33 82 52 50 63
REMARK Flexibility Score: inf
ROOT
ATOM      1  C   UNL A   1      32.613  30.236  26.869  1.00  0.00     0.023 C 
ENDROOT
BRANCH   1   2
ATOM      2  C   UNL A   1      32.907  29.857  25.420  1.00  0.00     0.116 C 
BRANCH   2   3
ATOM      3  N   UNL A   1      31.696  29.777  24.627  1.00  0.00    -0.352 N 
ATOM      4  C   UNL A   1      30.982  28.797  24.028  1.00  0.00     0.251 C 
ATOM      5  O   UNL A   1      29.955  29.171  23.453  1.00  0.00    -0.270 OA
ATOM      6  H   UNL A   1      31.288  30.663  24.492  1.00  0.00     0.163 HD
BRANCH   4   7
ATOM      7  C   UNL A   1      31.355  27.355  24.008  1.00  0.00     0.067 C 
ATOM      8  C   UNL A   1      31.884  22.476  25.205  1.00  0.00     0.029 A 
ATOM      9  C   UNL A   1      31.672  23.187  24.009  1.00  0.00     0.058 A 
ATOM     10  C   UNL A   1      32.067  23.221  26.383  1.00  0.00     0.050 A 
ATOM     11  C   UNL A   1      31.547  24.572  24.017  1.00  0.00     0.128 A 
ATOM     12  C   UNL A   1      31.882  24.611  26.394  1.00  0.00     0.033 A 
ATOM     13  Cl  UNL A   1      32.542  22.507  27.882  1.00  0.00    -0.084 Cl
ATOM     14  C   UNL A   1      31.594  25.286  25.212  1.00  0.00     0.019 A 
ATOM     15  O   UNL A   1      31.350  25.188  22.812  1.00  0.00    -0.475 OA
ATOM     16  C   UNL A   1      31.299  26.714  25.191  1.00  0.00     0.025 C 
ATOM     17  C   UNL A   1      31.769  26.584  22.785  1.00  0.00     0.314 C 
BRANCH   8  18
ATOM     18  C   UNL A   1      31.905  20.960  25.149  1.00  0.00     0.300 C 
BRANCH  18  19
ATOM     19  N   UNL A   1      32.977  20.320  24.364  1.00  0.00    -0.332 N 
ATOM     20  C   UNL A   1      32.528  19.279  23.448  1.00  0.00     0.333 C 
ATOM     21  H   UNL A   1      33.244  21.129  23.803  1.00  0.00     0.348 HD
BRANCH  19  22
ATOM     22  C   UNL A   1      34.257  19.999  25.016  1.00  0.00     0.177 C 
ATOM     23  C   UNL A   1      34.793  18.619  24.626  1.00  0.00     0.075 C 
ATOM     24  C   UNL A   1      35.348  21.070  24.923  1.00  0.00     0.075 C 
ENDBRANCH  19  22
ENDBRANCH  18  19
ENDBRANCH   8  18
BRANCH  17  25
ATOM     25  C   UNL A   1      33.288  26.686  22.521  1.00  0.00     0.429 C 
ATOM     26  F   UNL A   1      33.755  25.527  21.992  1.00  0.00    -0.167 F 
ATOM     27  F   UNL A   1      33.588  27.663  21.630  1.00  0.00    -0.167 F 
ATOM     28  F   UNL A   1      34.009  26.942  23.633  1.00  0.00    -0.167 F 
ENDBRANCH  17  25
ENDBRANCH   4   7
ENDBRANCH   2   3
ENDBRANCH   1   2
BRANCH   1  29
ATOM     29  C   UNL A   1      32.061  31.651  27.047  1.00  0.00     0.023 C 
BRANCH  29  30
ATOM     30  C   UNL A   1      33.085  32.698  27.476  1.00  0.00     0.116 C 
BRANCH  30  31
ATOM     31  N   UNL A   1      32.528  34.024  27.709  1.00  0.00    -0.352 N 
ATOM     32  C   UNL A   1      32.974  34.976  28.600  1.00  0.00     0.251 C 
ATOM     33  H   UNL A   1      31.743  34.268  27.167  1.00  0.00     0.163 HD
ATOM     34  O   UNL A   1      32.385  36.035  28.751  1.00  0.00    -0.269 OA
BRANCH  32  35
ATOM     35  C   UNL A   1      34.158  34.647  29.419  1.00  0.00     0.039 A 
ATOM     36  C   UNL A   1      35.433  34.733  28.858  1.00  0.00     0.014 A 
ATOM     37  C   UNL A   1      33.968  34.113  30.694  1.00  0.00     0.014 A 
ATOM     38  C   UNL A   1      36.497  34.118  29.502  1.00  0.00     0.010 A 
ATOM     39  C   UNL A   1      35.056  33.562  31.373  1.00  0.00     0.010 A 
ATOM     40  C   UNL A   1      36.314  33.505  30.753  1.00  0.00    -0.014 A 
BRANCH  40  41
ATOM     41  C   UNL A   1      37.445  32.770  31.373  1.00  0.00     0.031 A 
ATOM     42  C   UNL A   1      37.881  33.084  32.779  1.00  0.00     0.074 A 
ATOM     43  C   UNL A   1      38.028  31.768  30.690  1.00  0.00     0.049 A 
ATOM     44  N   UNL A   1      38.845  32.545  33.483  1.00  0.00    -0.248 NA
ATOM     45  C   UNL A   1      37.143  34.140  33.491  1.00  0.00     0.031 C 
ATOM     46  C   UNL A   1      37.670  31.357  29.333  1.00  0.00     0.029 A 
ATOM     47  N   UNL A   1      39.022  30.896  31.053  1.00  0.00    -0.354 N 
ATOM     48  C   UNL A   1      38.844  33.208  34.703  1.00  0.00     0.074 A 
ATOM     49  C   UNL A   1      37.796  34.203  34.644  1.00  0.00     0.031 C 
ATOM     50  C   UNL A   1      38.392  30.279  28.997  1.00  0.00     0.029 A 
ATOM     51  C   UNL A   1      39.306  29.961  30.088  1.00  0.00     0.049 A 
ATOM     52  H   UNL A   1      39.485  30.935  31.920  1.00  0.00     0.167 HD
ATOM     53  C   UNL A   1      39.641  32.998  35.777  1.00  0.00     0.037 A 
ATOM     54  C   UNL A   1      40.213  28.967  30.080  1.00  0.00     0.037 A 
ATOM     55  C   UNL A   1      40.659  31.982  35.847  1.00  0.00     0.049 A 
ATOM     56  C   UNL A   1      41.104  28.778  31.274  1.00  0.00     0.074 A 
ATOM     57  C   UNL A   1      41.506  31.681  36.900  1.00  0.00     0.029 A 
ATOM     58  N   UNL A   1      40.959  31.094  34.825  1.00  0.00    -0.354 N 
ATOM     59  N   UNL A   1      41.107  29.428  32.412  1.00  0.00    -0.248 NA
ATOM     60  C   UNL A   1      42.129  27.731  31.175  1.00  0.00     0.031 C 
ATOM     61  C   UNL A   1      42.340  30.631  36.504  1.00  0.00     0.029 A 
ATOM     62  C   UNL A   1      41.988  30.255  35.218  1.00  0.00     0.049 A 
ATOM     63  H   UNL A   1      40.508  31.065  33.950  1.00  0.00     0.167 HD
ATOM     64  C   UNL A   1      42.129  28.869  33.165  1.00  0.00     0.074 A 
ATOM     65  C   UNL A   1      42.708  27.810  32.366  1.00  0.00     0.031 C 
ATOM     66  C   UNL A   1      42.554  29.210  34.405  1.00  0.00     0.037 A 
BRANCH  53  67
ATOM     67  C   UNL A   1      39.458  33.881  36.975  1.00  0.00     0.064 A 
ATOM     68  C   UNL A   1      38.706  33.465  38.083  1.00  0.00     0.173 A 
ATOM     69  C   UNL A   1      40.114  35.119  37.050  1.00  0.00     0.173 A 
ATOM     70  F   UNL A   1      38.051  32.296  38.054  1.00  0.00    -0.203 F 
ATOM     71  C   UNL A   1      38.615  34.261  39.223  1.00  0.00     0.198 A 
ATOM     72  C   UNL A   1      40.037  35.902  38.199  1.00  0.00     0.198 A 
ATOM     73  F   UNL A   1      40.849  35.558  36.018  1.00  0.00    -0.203 F 
ATOM     74  F   UNL A   1      37.874  33.855  40.264  1.00  0.00    -0.200 F 
ATOM     75  C   UNL A   1      39.287  35.474  39.284  1.00  0.00     0.200 A 
ATOM     76  F   UNL A   1      40.694  37.068  38.259  1.00  0.00    -0.200 F 
ATOM     77  F   UNL A   1      39.211  36.229  40.388  1.00  0.00    -0.200 F 
ENDBRANCH  53  67
BRANCH  54  78
ATOM     78  C   UNL A   1      40.320  28.083  28.893  1.00  0.00     0.064 A 
ATOM     79  C   UNL A   1      39.633  26.865  28.842  1.00  0.00     0.173 A 
ATOM     80  C   UNL A   1      41.085  28.453  27.777  1.00  0.00     0.173 A 
ATOM     81  F   UNL A   1      38.906  26.461  29.894  1.00  0.00    -0.203 F 
ATOM     82  C   UNL A   1      39.710  26.044  27.719  1.00  0.00     0.198 A 
ATOM     83  C   UNL A   1      41.139  27.645  26.644  1.00  0.00     0.198 A 
ATOM     84  F   UNL A   1      41.757  29.613  27.778  1.00  0.00    -0.203 F 
ATOM     85  F   UNL A   1      39.065  24.869  27.704  1.00  0.00    -0.200 F 
ATOM     86  C   UNL A   1      40.455  26.440  26.618  1.00  0.00     0.200 A 
ATOM     87  F   UNL A   1      41.848  28.039  25.578  1.00  0.00    -0.200 F 
ATOM     88  F   UNL A   1      40.517  25.657  25.532  1.00  0.00    -0.200 F 
ENDBRANCH  54  78
BRANCH  66  89
ATOM     89  C   UNL A   1      43.702  28.434  34.973  1.00  0.00     0.064 A 
ATOM     90  C   UNL A   1      45.024  28.877  34.823  1.00  0.00     0.173 A 
ATOM     91  C   UNL A   1      43.476  27.270  35.722  1.00  0.00     0.173 A 
ATOM     92  F   UNL A   1      45.288  29.978  34.102  1.00  0.00    -0.203 F 
ATOM     93  C   UNL A   1      46.081  28.175  35.393  1.00  0.00     0.198 A 
ATOM     94  C   UNL A   1      44.533  26.583  36.309  1.00  0.00     0.198 A 
ATOM     95  F   UNL A   1      42.227  26.811  35.898  1.00  0.00    -0.203 F 
ATOM     96  F   UNL A   1      47.339  28.598  35.212  1.00  0.00    -0.200 F 
ATOM     97  C   UNL A   1      45.834  27.032  36.141  1.00  0.00     0.200 A 
ATOM     98  F   UNL A   1      44.294  25.485  37.041  1.00  0.00    -0.200 F 
ATOM     99  F   UNL A   1      46.853  26.363  36.697  1.00  0.00    -0.200 F 
ENDBRANCH  66  89
ENDBRANCH  40  41
ENDBRANCH  32  35
ENDBRANCH  30  31
ENDBRANCH  29  30
ENDBRANCH   1  29
TORSDOF 15
ENDMDL
MODEL 3
REMARK VINA RESULT:     -13.0      0.367      7.118
REMARK SMILES CC(C)[N@@H+](C)Cc1cc2c(cc1Cl)C=C(C(=O)NCCCCNC(=O)c1ccc(-c3c4nc(c(-c5c(F)c(F)c(F)c(F)c5F)c5ccc([nH]5)c(-c5c(F)c(F)c(F)c(F)c5F)c5nc(c(-c6c(F)c(F)c(F)c(F)c6F)c6ccc3[nH]6)C=C5)C=C4)cc1)[C@@H](C(F)(F)F)O2
REMARK SMILES IDX 20 1 19 2 18 3 16 4 17 5 15 7 7 8 8 9 12 10 9 11 11 12 13 13
REMARK SMILES IDX 10 14 94 15 14 16 89 17 6 18 4 19 5 20 2 22 1 23 3 24 90 25
REMARK SMILES IDX 91 26 92 27 93 28 21 29 22 30 23 31 24 32 25 34 26 35 27 36
REMARK SMILES IDX 88 37 28 38 87 39 29 40 30 41 31 42 81 43 32 44 86 45 80 46
REMARK SMILES IDX 82 47 33 48 85 49 79 50 78 51 34 53 66 54 46 55 65 56 47 57
REMARK SMILES IDX 50 58 64 59 83 60 48 61 49 62 63 64 84 65 51 66 35 67 36 68
REMARK SMILES IDX 44 69 37 70 38 71 42 72 45 73 39 74 40 75 43 76 41 77 67 78
REMARK SMILES IDX 68 79 76 80 69 81 70 82 74 83 77 84 71 85 72 86 75 87 73 88
REMARK SMILES IDX 52 89 53 90 61 91 54 92 55 93 59 94 62 95 56 96 57 97 60 98
REMARK SMILES IDX 58 99
REMARK H PARENT 18 6 4 21 23 33 82 52 50 63
REMARK Flexibility Score: inf
ROOT
ATOM      1  C   UNL A   1      32.510  30.321  26.869  1.00  0.00     0.023 C 
ENDROOT
BRANCH   1   2
ATOM      2  C   UNL A   1      32.802  29.813  25.460  1.00  0.00     0.116 C 
BRANCH   2   3
ATOM      3  N   UNL A   1      31.597  29.731  24.657  1.00  0.00    -0.352 N 
ATOM      4  C   UNL A   1      30.894  28.749  24.047  1.00  0.00     0.251 C 
ATOM      5  O   UNL A   1      29.869  29.120  23.466  1.00  0.00    -0.270 OA
ATOM      6  H   UNL A   1      31.184  30.615  24.523  1.00  0.00     0.163 HD
BRANCH   4   7
ATOM      7  C   UNL A   1      31.277  27.310  24.022  1.00  0.00     0.067 C 
ATOM      8  C   UNL A   1      31.897  22.445  25.234  1.00  0.00     0.029 A 
ATOM      9  C   UNL A   1      31.623  23.145  24.044  1.00  0.00     0.058 A 
ATOM     10  C   UNL A   1      32.129  23.203  26.396  1.00  0.00     0.050 A 
ATOM     11  C   UNL A   1      31.489  24.528  24.046  1.00  0.00     0.128 A 
ATOM     12  C   UNL A   1      31.934  24.591  26.404  1.00  0.00     0.033 A 
ATOM     13  Cl  UNL A   1      32.678  22.505  27.877  1.00  0.00    -0.084 Cl
ATOM     14  C   UNL A   1      31.586  25.254  25.231  1.00  0.00     0.019 A 
ATOM     15  O   UNL A   1      31.231  25.133  22.846  1.00  0.00    -0.475 OA
ATOM     16  C   UNL A   1      31.280  26.680  25.211  1.00  0.00     0.025 C 
ATOM     17  C   UNL A   1      31.638  26.531  22.787  1.00  0.00     0.314 C 
BRANCH   8  18
ATOM     18  C   UNL A   1      31.926  20.930  25.190  1.00  0.00     0.300 C 
BRANCH  18  19
ATOM     19  N   UNL A   1      32.944  20.290  24.336  1.00  0.00    -0.332 N 
ATOM     20  C   UNL A   1      32.414  19.392  23.319  1.00  0.00     0.333 C 
ATOM     21  H   UNL A   1      33.278  21.130  23.861  1.00  0.00     0.348 HD
BRANCH  19  22
ATOM     22  C   UNL A   1      34.191  19.800  24.943  1.00  0.00     0.177 C 
ATOM     23  C   UNL A   1      34.596  18.413  24.433  1.00  0.00     0.075 C 
ATOM     24  C   UNL A   1      35.377  20.769  24.925  1.00  0.00     0.075 C 
ENDBRANCH  19  22
ENDBRANCH  18  19
ENDBRANCH   8  18
BRANCH  17  25
ATOM     25  C   UNL A   1      33.142  26.641  22.451  1.00  0.00     0.429 C 
ATOM     26  F   UNL A   1      33.535  25.589  21.690  1.00  0.00    -0.167 F 
ATOM     27  F   UNL A   1      33.427  27.759  21.738  1.00  0.00    -0.167 F 
ATOM     28  F   UNL A   1      33.934  26.668  23.544  1.00  0.00    -0.167 F 
ENDBRANCH  17  25
ENDBRANCH   4   7
ENDBRANCH   2   3
ENDBRANCH   1   2
BRANCH   1  29
ATOM     29  C   UNL A   1      32.060  31.781  26.929  1.00  0.00     0.023 C 
BRANCH  29  30
ATOM     30  C   UNL A   1      33.055  32.741  27.574  1.00  0.00     0.116 C 
BRANCH  30  31
ATOM     31  N   UNL A   1      32.546  34.092  27.771  1.00  0.00    -0.352 N 
ATOM     32  C   UNL A   1      33.018  35.047  28.646  1.00  0.00     0.251 C 
ATOM     33  H   UNL A   1      31.777  34.354  27.214  1.00  0.00     0.163 HD
ATOM     34  O   UNL A   1      32.468  36.131  28.766  1.00  0.00    -0.269 OA
BRANCH  32  35
ATOM     35  C   UNL A   1      34.179  34.692  29.486  1.00  0.00     0.039 A 
ATOM     36  C   UNL A   1      35.460  34.689  28.932  1.00  0.00     0.014 A 
ATOM     37  C   UNL A   1      33.955  34.222  30.781  1.00  0.00     0.014 A 
ATOM     38  C   UNL A   1      36.488  34.047  29.608  1.00  0.00     0.010 A 
ATOM     39  C   UNL A   1      35.010  33.645  31.490  1.00  0.00     0.010 A 
ATOM     40  C   UNL A   1      36.266  33.497  30.883  1.00  0.00    -0.014 A 
BRANCH  40  41
ATOM     41  C   UNL A   1      37.355  32.732  31.541  1.00  0.00     0.031 A 
ATOM     42  C   UNL A   1      38.064  31.627  30.806  1.00  0.00     0.074 A 
ATOM     43  C   UNL A   1      37.749  33.086  32.778  1.00  0.00     0.049 A 
ATOM     44  N   UNL A   1      39.037  30.854  31.220  1.00  0.00    -0.248 NA
ATOM     45  C   UNL A   1      37.629  31.350  29.427  1.00  0.00     0.031 C 
ATOM     46  C   UNL A   1      37.153  34.158  33.575  1.00  0.00     0.029 A 
ATOM     47  N   UNL A   1      38.761  32.605  33.568  1.00  0.00    -0.354 N 
ATOM     48  C   UNL A   1      39.312  29.989  30.168  1.00  0.00     0.074 A 
ATOM     49  C   UNL A   1      38.394  30.317  29.099  1.00  0.00     0.031 C 
ATOM     50  C   UNL A   1      37.843  34.292  34.716  1.00  0.00     0.029 A 
ATOM     51  C   UNL A   1      38.889  33.276  34.759  1.00  0.00     0.049 A 
ATOM     52  H   UNL A   1      39.339  31.853  33.306  1.00  0.00     0.167 HD
ATOM     53  C   UNL A   1      40.252  29.017  30.099  1.00  0.00     0.037 A 
ATOM     54  C   UNL A   1      39.747  33.083  35.778  1.00  0.00     0.037 A 
ATOM     55  C   UNL A   1      41.189  28.718  31.151  1.00  0.00     0.049 A 
ATOM     56  C   UNL A   1      40.758  31.977  35.686  1.00  0.00     0.074 A 
ATOM     57  C   UNL A   1      42.190  27.762  31.167  1.00  0.00     0.029 A 
ATOM     58  N   UNL A   1      41.247  29.380  32.368  1.00  0.00    -0.354 N 
ATOM     59  N   UNL A   1      40.991  31.153  34.694  1.00  0.00    -0.248 NA
ATOM     60  C   UNL A   1      41.612  31.763  36.861  1.00  0.00     0.031 C 
ATOM     61  C   UNL A   1      42.834  27.824  32.406  1.00  0.00     0.029 A 
ATOM     62  C   UNL A   1      42.257  28.842  33.148  1.00  0.00     0.049 A 
ATOM     63  H   UNL A   1      40.657  30.121  32.638  1.00  0.00     0.167 HD
ATOM     64  C   UNL A   1      42.017  30.324  35.123  1.00  0.00     0.074 A 
ATOM     65  C   UNL A   1      42.380  30.761  36.455  1.00  0.00     0.031 C 
ATOM     66  C   UNL A   1      42.599  29.288  34.474  1.00  0.00     0.037 A 
BRANCH  53  67
ATOM     67  C   UNL A   1      40.323  28.192  28.850  1.00  0.00     0.064 A 
ATOM     68  C   UNL A   1      41.127  28.573  27.766  1.00  0.00     0.173 A 
ATOM     69  C   UNL A   1      39.649  26.964  28.771  1.00  0.00     0.173 A 
ATOM     70  F   UNL A   1      41.781  29.744  27.788  1.00  0.00    -0.203 F 
ATOM     71  C   UNL A   1      41.250  27.754  26.645  1.00  0.00     0.198 A 
ATOM     72  C   UNL A   1      39.791  26.140  27.658  1.00  0.00     0.198 A 
ATOM     73  F   UNL A   1      38.872  26.554  29.784  1.00  0.00    -0.203 F 
ATOM     74  F   UNL A   1      42.007  28.146  25.611  1.00  0.00    -0.200 F 
ATOM     75  C   UNL A   1      40.589  26.535  26.596  1.00  0.00     0.200 A 
ATOM     76  F   UNL A   1      39.159  24.958  27.617  1.00  0.00    -0.200 F 
ATOM     77  F   UNL A   1      40.722  25.742  25.525  1.00  0.00    -0.200 F 
ENDBRANCH  53  67
BRANCH  54  78
ATOM     78  C   UNL A   1      39.674  33.962  36.971  1.00  0.00     0.064 A 
ATOM     79  C   UNL A   1      40.371  35.175  37.013  1.00  0.00     0.173 A 
ATOM     80  C   UNL A   1      38.883  33.620  38.079  1.00  0.00     0.173 A 
ATOM     81  F   UNL A   1      41.155  35.532  35.986  1.00  0.00    -0.203 F 
ATOM     82  C   UNL A   1      40.284  36.014  38.121  1.00  0.00     0.198 A 
ATOM     83  C   UNL A   1      38.776  34.472  39.175  1.00  0.00     0.198 A 
ATOM     84  F   UNL A   1      38.195  32.470  38.082  1.00  0.00    -0.203 F 
ATOM     85  F   UNL A   1      40.983  37.158  38.150  1.00  0.00    -0.200 F 
ATOM     86  C   UNL A   1      39.480  35.667  39.197  1.00  0.00     0.200 A 
ATOM     87  F   UNL A   1      37.986  34.139  40.204  1.00  0.00    -0.200 F 
ATOM     88  F   UNL A   1      39.385  36.481  40.256  1.00  0.00    -0.200 F 
ENDBRANCH  54  78
BRANCH  66  89
ATOM     89  C   UNL A   1      43.688  28.553  35.193  1.00  0.00     0.064 A 
ATOM     90  C   UNL A   1      45.033  28.922  35.044  1.00  0.00     0.173 A 
ATOM     91  C   UNL A   1      43.382  27.514  36.083  1.00  0.00     0.173 A 
ATOM     92  F   UNL A   1      45.373  29.902  34.192  1.00  0.00    -0.203 F 
ATOM     93  C   UNL A   1      46.035  28.264  35.750  1.00  0.00     0.198 A 
ATOM     94  C   UNL A   1      44.384  26.874  36.805  1.00  0.00     0.198 A 
ATOM     95  F   UNL A   1      42.108  27.132  36.263  1.00  0.00    -0.203 F 
ATOM     96  F   UNL A   1      47.317  28.611  35.570  1.00  0.00    -0.200 F 
ATOM     97  C   UNL A   1      45.709  27.246  36.635  1.00  0.00     0.200 A 
ATOM     98  F   UNL A   1      44.068  25.898  37.668  1.00  0.00    -0.200 F 
ATOM     99  F   UNL A   1      46.675  26.622  37.323  1.00  0.00    -0.200 F 
ENDBRANCH  66  89
ENDBRANCH  40  41
ENDBRANCH  32  35
ENDBRANCH  30  31
ENDBRANCH  29  30
ENDBRANCH   1  29
TORSDOF 15
ENDMDL
