MODEL 1
REMARK VINA RESULT:     -12.4      0.000      0.000
REMARK SMILES O=C(NCCCCNC(=O)[C@H](c1ccc(Cl)cc1)[NH+]1CCCCC1)c1ccc(-c2c3nc(c(-c4c(F)c(F)c(F)c(F)c4F)c4ccc([nH]4)c(-c4c(F)c(F)c(F)c(F)c4F)c4nc(c(-c5c(F)c(F)c(F)c(F)c5F)c5ccc2[nH]5)C=C4)C=C3)cc1
REMARK SMILES IDX 5 1 4 2 3 3 1 4 2 5 25 7 26 8 87 9 27 10 86 11 28 12 29 13
REMARK SMILES IDX 30 14 80 15 31 16 85 17 79 18 81 19 32 20 84 21 78 22 77 23
REMARK SMILES IDX 33 25 65 26 45 27 64 28 46 29 49 30 63 31 82 32 47 33 48 34
REMARK SMILES IDX 62 36 83 37 50 38 34 39 35 40 43 41 36 42 37 43 41 44 44 45
REMARK SMILES IDX 38 46 39 47 42 48 40 49 66 50 67 51 75 52 68 53 69 54 73 55
REMARK SMILES IDX 76 56 70 57 71 58 74 59 72 60 51 61 52 62 60 63 53 64 54 65
REMARK SMILES IDX 58 66 61 67 55 68 56 69 59 70 57 71 6 72 7 73 8 74 9 75
REMARK SMILES IDX 10 77 11 78 19 79 20 80 24 81 21 83 23 84 22 85 12 86 13 87
REMARK SMILES IDX 18 88 14 89 17 90 15 91 16 92
REMARK H PARENT 3 6 81 24 49 35 8 76 19 82
REMARK Flexibility Score: inf
ROOT
ATOM      1  C   UNL A   1      31.385  32.245  26.501  1.00  0.00     0.023 C 
ENDROOT
BRANCH   1   2
ATOM      2  C   UNL A   1      32.619  32.839  27.167  1.00  0.00     0.116 C 
BRANCH   2   3
ATOM      3  N   UNL A   1      32.417  34.203  27.626  1.00  0.00    -0.352 N 
ATOM      4  O   UNL A   1      32.694  35.981  28.994  1.00  0.00    -0.269 OA
ATOM      5  C   UNL A   1      33.070  34.870  28.634  1.00  0.00     0.251 C 
ATOM      6  H   UNL A   1      31.722  34.716  27.153  1.00  0.00     0.163 HD
BRANCH   5   7
ATOM      7  C   UNL A   1      34.221  34.226  29.301  1.00  0.00     0.039 A 
ATOM      8  C   UNL A   1      34.028  33.437  30.438  1.00  0.00     0.014 A 
ATOM      9  C   UNL A   1      35.506  34.414  28.782  1.00  0.00     0.014 A 
ATOM     10  C   UNL A   1      35.127  32.935  31.124  1.00  0.00     0.010 A 
ATOM     11  C   UNL A   1      36.604  33.841  29.428  1.00  0.00     0.010 A 
ATOM     12  C   UNL A   1      36.423  33.110  30.612  1.00  0.00    -0.014 A 
BRANCH  12  13
ATOM     13  C   UNL A   1      37.558  32.421  31.274  1.00  0.00     0.031 A 
ATOM     14  C   UNL A   1      38.308  31.312  30.596  1.00  0.00     0.074 A 
ATOM     15  C   UNL A   1      37.910  32.829  32.509  1.00  0.00     0.049 A 
ATOM     16  N   UNL A   1      39.323  30.615  31.043  1.00  0.00    -0.248 NA
ATOM     17  C   UNL A   1      37.865  30.927  29.248  1.00  0.00     0.031 C 
ATOM     18  C   UNL A   1      37.233  33.884  33.269  1.00  0.00     0.029 A 
ATOM     19  N   UNL A   1      38.920  32.419  33.339  1.00  0.00    -0.354 N 
ATOM     20  C   UNL A   1      39.628  29.701  30.044  1.00  0.00     0.074 A 
ATOM     21  C   UNL A   1      38.681  29.918  28.970  1.00  0.00     0.031 C 
ATOM     22  C   UNL A   1      37.866  34.061  34.437  1.00  0.00     0.029 A 
ATOM     23  C   UNL A   1      38.951  33.093  34.536  1.00  0.00     0.049 A 
ATOM     24  H   UNL A   1      39.561  31.711  33.103  1.00  0.00     0.167 HD
ATOM     25  C   UNL A   1      40.612  28.771  30.031  1.00  0.00     0.037 A 
ATOM     26  C   UNL A   1      39.746  32.931  35.609  1.00  0.00     0.037 A 
ATOM     27  C   UNL A   1      41.564  28.579  31.096  1.00  0.00     0.049 A 
ATOM     28  C   UNL A   1      40.815  31.878  35.565  1.00  0.00     0.074 A 
ATOM     29  C   UNL A   1      42.639  27.709  31.146  1.00  0.00     0.029 A 
ATOM     30  N   UNL A   1      41.550  29.263  32.303  1.00  0.00    -0.354 N 
ATOM     31  N   UNL A   1      41.129  31.059  34.591  1.00  0.00    -0.248 NA
ATOM     32  C   UNL A   1      41.637  31.721  36.772  1.00  0.00     0.031 C 
ATOM     33  C   UNL A   1      43.245  27.828  32.400  1.00  0.00     0.029 A 
ATOM     34  C   UNL A   1      42.576  28.808  33.117  1.00  0.00     0.049 A 
ATOM     35  H   UNL A   1      40.906  29.967  32.546  1.00  0.00     0.167 HD
ATOM     36  C   UNL A   1      42.187  30.297  35.061  1.00  0.00     0.074 A 
ATOM     37  C   UNL A   1      42.483  30.772  36.397  1.00  0.00     0.031 C 
ATOM     38  C   UNL A   1      42.849  29.288  34.446  1.00  0.00     0.037 A 
BRANCH  25  39
ATOM     39  C   UNL A   1      40.721  27.867  28.837  1.00  0.00     0.064 A 
ATOM     40  C   UNL A   1      39.969  26.689  28.734  1.00  0.00     0.173 A 
ATOM     41  C   UNL A   1      41.512  28.240  27.739  1.00  0.00     0.173 A 
ATOM     42  F   UNL A   1      39.203  26.285  29.759  1.00  0.00    -0.203 F 
ATOM     43  C   UNL A   1      40.008  25.913  27.577  1.00  0.00     0.198 A 
ATOM     44  C   UNL A   1      41.532  27.475  26.576  1.00  0.00     0.198 A 
ATOM     45  F   UNL A   1      42.245  29.363  27.785  1.00  0.00    -0.203 F 
ATOM     46  F   UNL A   1      39.295  24.781  27.506  1.00  0.00    -0.200 F 
ATOM     47  C   UNL A   1      40.781  26.313  26.496  1.00  0.00     0.200 A 
ATOM     48  F   UNL A   1      42.268  27.870  25.528  1.00  0.00    -0.200 F 
ATOM     49  F   UNL A   1      40.800  25.577  25.376  1.00  0.00    -0.200 F 
ENDBRANCH  25  39
BRANCH  26  50
ATOM     50  C   UNL A   1      39.541  33.768  36.817  1.00  0.00     0.064 A 
ATOM     51  C   UNL A   1      38.749  33.320  37.883  1.00  0.00     0.173 A 
ATOM     52  C   UNL A   1      40.128  35.038  36.928  1.00  0.00     0.173 A 
ATOM     53  F   UNL A   1      38.152  32.122  37.817  1.00  0.00    -0.203 F 
ATOM     54  C   UNL A   1      38.534  34.121  39.004  1.00  0.00     0.198 A 
ATOM     55  C   UNL A   1      39.939  35.823  38.063  1.00  0.00     0.198 A 
ATOM     56  F   UNL A   1      40.899  35.511  35.937  1.00  0.00    -0.203 F 
ATOM     57  F   UNL A   1      37.732  33.689  39.987  1.00  0.00    -0.200 F 
ATOM     58  C   UNL A   1      39.134  35.368  39.095  1.00  0.00     0.200 A 
ATOM     59  F   UNL A   1      40.536  37.019  38.153  1.00  0.00    -0.200 F 
ATOM     60  F   UNL A   1      38.929  36.135  40.174  1.00  0.00    -0.200 F 
ENDBRANCH  26  50
BRANCH  38  61
ATOM     61  C   UNL A   1      43.963  28.642  35.215  1.00  0.00     0.064 A 
ATOM     62  C   UNL A   1      43.737  27.515  36.019  1.00  0.00     0.173 A 
ATOM     63  C   UNL A   1      45.271  29.142  35.133  1.00  0.00     0.173 A 
ATOM     64  F   UNL A   1      42.499  27.013  36.145  1.00  0.00    -0.203 F 
ATOM     65  C   UNL A   1      44.775  26.929  36.736  1.00  0.00     0.198 A 
ATOM     66  C   UNL A   1      46.313  28.535  35.828  1.00  0.00     0.198 A 
ATOM     67  F   UNL A   1      45.539  30.215  34.373  1.00  0.00    -0.203 F 
ATOM     68  F   UNL A   1      44.528  25.886  37.540  1.00  0.00    -0.200 F 
ATOM     69  C   UNL A   1      46.064  27.436  36.635  1.00  0.00     0.200 A 
ATOM     70  F   UNL A   1      47.558  29.019  35.720  1.00  0.00    -0.200 F 
ATOM     71  F   UNL A   1      47.063  26.869  37.324  1.00  0.00    -0.200 F 
ENDBRANCH  38  61
ENDBRANCH  12  13
ENDBRANCH   5   7
ENDBRANCH   2   3
ENDBRANCH   1   2
BRANCH   1  72
ATOM     72  C   UNL A   1      31.405  30.725  26.336  1.00  0.00     0.023 C 
BRANCH  72  73
ATOM     73  C   UNL A   1      32.803  30.112  26.268  1.00  0.00     0.116 C 
BRANCH  73  74
ATOM     74  N   UNL A   1      33.262  29.973  24.896  1.00  0.00    -0.351 N 
ATOM     75  C   UNL A   1      33.197  28.889  24.055  1.00  0.00     0.283 C 
ATOM     76  H   UNL A   1      33.685  30.775  24.512  1.00  0.00     0.163 HD
ATOM     77  O   UNL A   1      33.814  28.964  22.988  1.00  0.00    -0.268 OA
BRANCH  75  78
ATOM     78  C   UNL A   1      32.363  27.645  24.478  1.00  0.00     0.305 C 
BRANCH  78  79
ATOM     79  N   UNL A   1      30.993  27.573  23.875  1.00  0.00    -0.321 N 
ATOM     80  C   UNL A   1      30.085  26.689  24.628  1.00  0.00     0.263 C 
ATOM     81  C   UNL A   1      30.356  28.850  23.553  1.00  0.00     0.263 C 
ATOM     82  H   UNL A   1      31.175  27.151  22.964  1.00  0.00     0.349 HD
ATOM     83  C   UNL A   1      28.780  26.429  23.876  1.00  0.00     0.062 C 
ATOM     84  C   UNL A   1      29.069  28.634  22.751  1.00  0.00     0.062 C 
ATOM     85  C   UNL A   1      28.095  27.734  23.495  1.00  0.00     0.012 C 
ENDBRANCH  78  79
BRANCH  78  86
ATOM     86  C   UNL A   1      33.221  26.382  24.385  1.00  0.00     0.019 A 
ATOM     87  C   UNL A   1      34.000  25.947  25.475  1.00  0.00     0.012 A 
ATOM     88  C   UNL A   1      33.240  25.621  23.206  1.00  0.00     0.012 A 
ATOM     89  C   UNL A   1      34.804  24.810  25.376  1.00  0.00     0.021 A 
ATOM     90  C   UNL A   1      34.026  24.470  23.114  1.00  0.00     0.021 A 
ATOM     91  C   UNL A   1      34.814  24.077  24.194  1.00  0.00     0.041 A 
ATOM     92  Cl  UNL A   1      35.809  22.680  24.065  1.00  0.00    -0.084 Cl
ENDBRANCH  78  86
ENDBRANCH  75  78
ENDBRANCH  73  74
ENDBRANCH  72  73
ENDBRANCH   1  72
TORSDOF 13
ENDMDL
MODEL 2
REMARK VINA RESULT:     -12.4      0.519      7.583
REMARK SMILES O=C(NCCCCNC(=O)[C@H](c1ccc(Cl)cc1)[NH+]1CCCCC1)c1ccc(-c2c3nc(c(-c4c(F)c(F)c(F)c(F)c4F)c4ccc([nH]4)c(-c4c(F)c(F)c(F)c(F)c4F)c4nc(c(-c5c(F)c(F)c(F)c(F)c5F)c5ccc2[nH]5)C=C4)C=C3)cc1
REMARK SMILES IDX 5 1 4 2 3 3 1 4 2 5 25 7 26 8 87 9 27 10 86 11 28 12 29 13
REMARK SMILES IDX 30 14 80 15 31 16 85 17 79 18 81 19 32 20 84 21 78 22 77 23
REMARK SMILES IDX 33 25 65 26 45 27 64 28 46 29 49 30 63 31 82 32 47 33 48 34
REMARK SMILES IDX 62 36 83 37 50 38 34 39 35 40 43 41 36 42 37 43 41 44 44 45
REMARK SMILES IDX 38 46 39 47 42 48 40 49 66 50 67 51 75 52 68 53 69 54 73 55
REMARK SMILES IDX 76 56 70 57 71 58 74 59 72 60 51 61 52 62 60 63 53 64 54 65
REMARK SMILES IDX 58 66 61 67 55 68 56 69 59 70 57 71 6 72 7 73 8 74 9 75
REMARK SMILES IDX 10 77 11 78 19 79 20 80 24 81 21 83 23 84 22 85 12 86 13 87
REMARK SMILES IDX 18 88 14 89 17 90 15 91 16 92
REMARK H PARENT 3 6 81 24 49 35 8 76 19 82
REMARK Flexibility Score: inf
ROOT
ATOM      1  C   UNL A   1      31.402  32.241  26.501  1.00  0.00     0.023 C 
ENDROOT
BRANCH   1   2
ATOM      2  C   UNL A   1      32.656  32.817  27.145  1.00  0.00     0.116 C 
BRANCH   2   3
ATOM      3  N   UNL A   1      32.471  34.171  27.639  1.00  0.00    -0.352 N 
ATOM      4  O   UNL A   1      32.777  35.913  29.048  1.00  0.00    -0.269 OA
ATOM      5  C   UNL A   1      33.140  34.807  28.657  1.00  0.00     0.251 C 
ATOM      6  H   UNL A   1      31.777  34.702  27.186  1.00  0.00     0.163 HD
BRANCH   5   7
ATOM      7  C   UNL A   1      34.291  34.136  29.297  1.00  0.00     0.039 A 
ATOM      8  C   UNL A   1      34.089  33.221  30.334  1.00  0.00     0.014 A 
ATOM      9  C   UNL A   1      35.585  34.428  28.854  1.00  0.00     0.014 A 
ATOM     10  C   UNL A   1      35.181  32.688  31.005  1.00  0.00     0.010 A 
ATOM     11  C   UNL A   1      36.681  33.828  29.479  1.00  0.00     0.010 A 
ATOM     12  C   UNL A   1      36.487  32.965  30.568  1.00  0.00    -0.014 A 
BRANCH  12  13
ATOM     13  C   UNL A   1      37.624  32.250  31.198  1.00  0.00     0.031 A 
ATOM     14  C   UNL A   1      38.094  32.585  32.583  1.00  0.00     0.074 A 
ATOM     15  C   UNL A   1      38.224  31.272  30.491  1.00  0.00     0.049 A 
ATOM     16  N   UNL A   1      39.072  32.049  33.270  1.00  0.00    -0.248 NA
ATOM     17  C   UNL A   1      37.385  33.662  33.291  1.00  0.00     0.031 C 
ATOM     18  C   UNL A   1      37.861  30.881  29.126  1.00  0.00     0.029 A 
ATOM     19  N   UNL A   1      39.254  30.428  30.815  1.00  0.00    -0.354 N 
ATOM     20  C   UNL A   1      39.108  32.731  34.479  1.00  0.00     0.074 A 
ATOM     21  C   UNL A   1      38.065  33.733  34.429  1.00  0.00     0.031 C 
ATOM     22  C   UNL A   1      38.631  29.853  28.743  1.00  0.00     0.029 A 
ATOM     23  C   UNL A   1      39.581  29.554  29.806  1.00  0.00     0.049 A 
ATOM     24  H   UNL A   1      39.714  30.445  31.684  1.00  0.00     0.167 HD
ATOM     25  C   UNL A   1      39.938  32.530  35.530  1.00  0.00     0.037 A 
ATOM     26  C   UNL A   1      40.558  28.632  29.734  1.00  0.00     0.037 A 
ATOM     27  C   UNL A   1      40.959  31.513  35.578  1.00  0.00     0.049 A 
ATOM     28  C   UNL A   1      41.470  28.450  30.912  1.00  0.00     0.074 A 
ATOM     29  C   UNL A   1      41.804  31.187  36.624  1.00  0.00     0.029 A 
ATOM     30  N   UNL A   1      41.278  30.662  34.529  1.00  0.00    -0.354 N 
ATOM     31  N   UNL A   1      41.457  29.062  32.070  1.00  0.00    -0.248 NA
ATOM     32  C   UNL A   1      42.539  27.452  30.771  1.00  0.00     0.031 C 
ATOM     33  C   UNL A   1      42.668  30.176  36.194  1.00  0.00     0.029 A 
ATOM     34  C   UNL A   1      42.332  29.837  34.894  1.00  0.00     0.049 A 
ATOM     35  H   UNL A   1      40.825  30.647  33.655  1.00  0.00     0.167 HD
ATOM     36  C   UNL A   1      42.504  28.521  32.799  1.00  0.00     0.074 A 
ATOM     37  C   UNL A   1      43.115  27.508  31.963  1.00  0.00     0.031 C 
ATOM     38  C   UNL A   1      42.930  28.840  34.045  1.00  0.00     0.037 A 
BRANCH  25  39
ATOM     39  C   UNL A   1      39.802  33.427  36.726  1.00  0.00     0.064 A 
ATOM     40  C   UNL A   1      40.484  34.648  36.812  1.00  0.00     0.173 A 
ATOM     41  C   UNL A   1      38.897  33.106  37.750  1.00  0.00     0.173 A 
ATOM     42  F   UNL A   1      41.366  34.998  35.863  1.00  0.00    -0.203 F 
ATOM     43  C   UNL A   1      40.270  35.514  37.883  1.00  0.00     0.198 A 
ATOM     44  C   UNL A   1      38.668  33.983  38.807  1.00  0.00     0.198 A 
ATOM     45  F   UNL A   1      38.213  31.952  37.710  1.00  0.00    -0.203 F 
ATOM     46  F   UNL A   1      40.947  36.669  37.956  1.00  0.00    -0.200 F 
ATOM     47  C   UNL A   1      39.356  35.185  38.873  1.00  0.00     0.200 A 
ATOM     48  F   UNL A   1      37.774  33.670  39.755  1.00  0.00    -0.200 F 
ATOM     49  F   UNL A   1      39.135  36.030  39.891  1.00  0.00    -0.200 F 
ENDBRANCH  25  39
BRANCH  26  50
ATOM     50  C   UNL A   1      40.736  27.837  28.493  1.00  0.00     0.064 A 
ATOM     51  C   UNL A   1      41.546  28.297  27.446  1.00  0.00     0.173 A 
ATOM     52  C   UNL A   1      40.092  26.600  28.327  1.00  0.00     0.173 A 
ATOM     53  F   UNL A   1      42.167  29.480  27.551  1.00  0.00    -0.203 F 
ATOM     54  C   UNL A   1      41.687  27.561  26.271  1.00  0.00     0.198 A 
ATOM     55  C   UNL A   1      40.261  25.851  27.166  1.00  0.00     0.198 A 
ATOM     56  F   UNL A   1      39.311  26.113  29.302  1.00  0.00    -0.203 F 
ATOM     57  F   UNL A   1      42.427  28.047  25.265  1.00  0.00    -0.200 F 
ATOM     58  C   UNL A   1      41.049  26.336  26.135  1.00  0.00     0.200 A 
ATOM     59  F   UNL A   1      39.658  24.661  27.047  1.00  0.00    -0.200 F 
ATOM     60  F   UNL A   1      41.189  25.629  25.006  1.00  0.00    -0.200 F 
ENDBRANCH  26  50
BRANCH  38  61
ATOM     61  C   UNL A   1      44.105  28.075  34.576  1.00  0.00     0.064 A 
ATOM     62  C   UNL A   1      45.414  28.555  34.430  1.00  0.00     0.173 A 
ATOM     63  C   UNL A   1      43.919  26.860  35.252  1.00  0.00     0.173 A 
ATOM     64  F   UNL A   1      45.644  29.701  33.773  1.00  0.00    -0.203 F 
ATOM     65  C   UNL A   1      46.499  27.831  34.917  1.00  0.00     0.198 A 
ATOM     66  C   UNL A   1      45.003  26.155  35.765  1.00  0.00     0.198 A 
ATOM     67  F   UNL A   1      42.684  26.361  35.422  1.00  0.00    -0.203 F 
ATOM     68  F   UNL A   1      47.746  28.282  34.721  1.00  0.00    -0.200 F 
ATOM     69  C   UNL A   1      46.292  26.635  35.590  1.00  0.00     0.200 A 
ATOM     70  F   UNL A   1      44.801  25.005  36.424  1.00  0.00    -0.200 F 
ATOM     71  F   UNL A   1      47.336  25.941  36.061  1.00  0.00    -0.200 F 
ENDBRANCH  38  61
ENDBRANCH  12  13
ENDBRANCH   5   7
ENDBRANCH   2   3
ENDBRANCH   1   2
BRANCH   1  72
ATOM     72  C   UNL A   1      31.404  30.722  26.325  1.00  0.00     0.023 C 
BRANCH  72  73
ATOM     73  C   UNL A   1      32.793  30.093  26.242  1.00  0.00     0.116 C 
BRANCH  73  74
ATOM     74  N   UNL A   1      33.238  29.951  24.865  1.00  0.00    -0.351 N 
ATOM     75  C   UNL A   1      33.167  28.865  24.028  1.00  0.00     0.283 C 
ATOM     76  H   UNL A   1      33.653  30.754  24.474  1.00  0.00     0.163 HD
ATOM     77  O   UNL A   1      33.772  28.939  22.954  1.00  0.00    -0.268 OA
BRANCH  75  78
ATOM     78  C   UNL A   1      32.343  27.619  24.463  1.00  0.00     0.305 C 
BRANCH  78  79
ATOM     79  N   UNL A   1      30.971  27.535  23.868  1.00  0.00    -0.321 N 
ATOM     80  C   UNL A   1      30.074  26.645  24.626  1.00  0.00     0.263 C 
ATOM     81  C   UNL A   1      30.321  28.806  23.547  1.00  0.00     0.263 C 
ATOM     82  H   UNL A   1      31.151  27.113  22.956  1.00  0.00     0.349 HD
ATOM     83  C   UNL A   1      28.767  26.372  23.881  1.00  0.00     0.062 C 
ATOM     84  C   UNL A   1      29.032  28.578  22.751  1.00  0.00     0.062 C 
ATOM     85  C   UNL A   1      28.069  27.672  23.501  1.00  0.00     0.012 C 
ENDBRANCH  78  79
BRANCH  78  86
ATOM     86  C   UNL A   1      33.208  26.361  24.376  1.00  0.00     0.019 A 
ATOM     87  C   UNL A   1      33.984  25.932  25.470  1.00  0.00     0.012 A 
ATOM     88  C   UNL A   1      33.235  25.598  23.198  1.00  0.00     0.012 A 
ATOM     89  C   UNL A   1      34.795  24.799  25.376  1.00  0.00     0.021 A 
ATOM     90  C   UNL A   1      34.027  24.451  23.111  1.00  0.00     0.021 A 
ATOM     91  C   UNL A   1      34.813  24.064  24.195  1.00  0.00     0.041 A 
ATOM     92  Cl  UNL A   1      35.816  22.672  24.073  1.00  0.00    -0.084 Cl
ENDBRANCH  78  86
ENDBRANCH  75  78
ENDBRANCH  73  74
ENDBRANCH  72  73
ENDBRANCH   1  72
TORSDOF 13
ENDMDL
MODEL 3
REMARK VINA RESULT:     -12.4      0.537      7.516
REMARK SMILES O=C(NCCCCNC(=O)[C@H](c1ccc(Cl)cc1)[NH+]1CCCCC1)c1ccc(-c2c3nc(c(-c4c(F)c(F)c(F)c(F)c4F)c4ccc([nH]4)c(-c4c(F)c(F)c(F)c(F)c4F)c4nc(c(-c5c(F)c(F)c(F)c(F)c5F)c5ccc2[nH]5)C=C4)C=C3)cc1
REMARK SMILES IDX 5 1 4 2 3 3 1 4 2 5 25 7 26 8 87 9 27 10 86 11 28 12 29 13
REMARK SMILES IDX 30 14 80 15 31 16 85 17 79 18 81 19 32 20 84 21 78 22 77 23
REMARK SMILES IDX 33 25 65 26 45 27 64 28 46 29 49 30 63 31 82 32 47 33 48 34
REMARK SMILES IDX 62 36 83 37 50 38 34 39 35 40 43 41 36 42 37 43 41 44 44 45
REMARK SMILES IDX 38 46 39 47 42 48 40 49 66 50 67 51 75 52 68 53 69 54 73 55
REMARK SMILES IDX 76 56 70 57 71 58 74 59 72 60 51 61 52 62 60 63 53 64 54 65
REMARK SMILES IDX 58 66 61 67 55 68 56 69 59 70 57 71 6 72 7 73 8 74 9 75
REMARK SMILES IDX 10 77 11 78 19 79 20 80 24 81 21 83 23 84 22 85 12 86 13 87
REMARK SMILES IDX 18 88 14 89 17 90 15 91 16 92
REMARK H PARENT 3 6 81 24 49 35 8 76 19 82
REMARK Flexibility Score: inf
ROOT
ATOM      1  C   UNL A   1      31.365  32.068  26.722  1.00  0.00     0.023 C 
ENDROOT
BRANCH   1   2
ATOM      2  C   UNL A   1      32.667  32.736  27.142  1.00  0.00     0.116 C 
BRANCH   2   3
ATOM      3  N   UNL A   1      32.480  34.093  27.626  1.00  0.00    -0.352 N 
ATOM      4  O   UNL A   1      32.786  35.848  29.019  1.00  0.00    -0.269 OA
ATOM      5  C   UNL A   1      33.150  34.739  28.637  1.00  0.00     0.251 C 
ATOM      6  H   UNL A   1      31.784  34.619  27.169  1.00  0.00     0.163 HD
BRANCH   5   7
ATOM      7  C   UNL A   1      34.303  34.076  29.280  1.00  0.00     0.039 A 
ATOM      8  C   UNL A   1      34.102  33.113  30.272  1.00  0.00     0.014 A 
ATOM      9  C   UNL A   1      35.599  34.424  28.885  1.00  0.00     0.014 A 
ATOM     10  C   UNL A   1      35.192  32.584  30.951  1.00  0.00     0.010 A 
ATOM     11  C   UNL A   1      36.696  33.831  29.515  1.00  0.00     0.010 A 
ATOM     12  C   UNL A   1      36.500  32.918  30.563  1.00  0.00    -0.014 A 
BRANCH  12  13
ATOM     13  C   UNL A   1      37.641  32.211  31.193  1.00  0.00     0.031 A 
ATOM     14  C   UNL A   1      38.106  32.548  32.579  1.00  0.00     0.074 A 
ATOM     15  C   UNL A   1      38.250  31.238  30.486  1.00  0.00     0.049 A 
ATOM     16  N   UNL A   1      39.087  32.019  33.268  1.00  0.00    -0.248 NA
ATOM     17  C   UNL A   1      37.388  33.619  33.287  1.00  0.00     0.031 C 
ATOM     18  C   UNL A   1      37.892  30.845  29.120  1.00  0.00     0.029 A 
ATOM     19  N   UNL A   1      39.285  30.401  30.811  1.00  0.00    -0.354 N 
ATOM     20  C   UNL A   1      39.116  32.699  34.477  1.00  0.00     0.074 A 
ATOM     21  C   UNL A   1      38.065  33.694  34.427  1.00  0.00     0.031 C 
ATOM     22  C   UNL A   1      38.670  29.823  28.738  1.00  0.00     0.029 A 
ATOM     23  C   UNL A   1      39.620  29.530  29.802  1.00  0.00     0.049 A 
ATOM     24  H   UNL A   1      39.743  30.421  31.682  1.00  0.00     0.167 HD
ATOM     25  C   UNL A   1      39.946  32.504  35.530  1.00  0.00     0.037 A 
ATOM     26  C   UNL A   1      40.604  28.616  29.731  1.00  0.00     0.037 A 
ATOM     27  C   UNL A   1      40.974  31.494  35.578  1.00  0.00     0.049 A 
ATOM     28  C   UNL A   1      41.516  28.440  30.911  1.00  0.00     0.074 A 
ATOM     29  C   UNL A   1      41.819  31.174  36.626  1.00  0.00     0.029 A 
ATOM     30  N   UNL A   1      41.301  30.647  34.529  1.00  0.00    -0.354 N 
ATOM     31  N   UNL A   1      41.496  29.051  32.069  1.00  0.00    -0.248 NA
ATOM     32  C   UNL A   1      42.592  27.450  30.770  1.00  0.00     0.031 C 
ATOM     33  C   UNL A   1      42.692  30.170  36.196  1.00  0.00     0.029 A 
ATOM     34  C   UNL A   1      42.360  29.830  34.895  1.00  0.00     0.049 A 
ATOM     35  H   UNL A   1      40.849  30.630  33.655  1.00  0.00     0.167 HD
ATOM     36  C   UNL A   1      42.546  28.517  32.799  1.00  0.00     0.074 A 
ATOM     37  C   UNL A   1      43.165  27.509  31.964  1.00  0.00     0.031 C 
ATOM     38  C   UNL A   1      42.967  28.838  34.046  1.00  0.00     0.037 A 
BRANCH  25  39
ATOM     39  C   UNL A   1      39.800  33.398  36.726  1.00  0.00     0.064 A 
ATOM     40  C   UNL A   1      40.487  34.617  36.822  1.00  0.00     0.173 A 
ATOM     41  C   UNL A   1      38.883  33.079  37.739  1.00  0.00     0.173 A 
ATOM     42  F   UNL A   1      41.381  34.964  35.883  1.00  0.00    -0.203 F 
ATOM     43  C   UNL A   1      40.266  35.481  37.893  1.00  0.00     0.198 A 
ATOM     44  C   UNL A   1      38.647  33.955  38.796  1.00  0.00     0.198 A 
ATOM     45  F   UNL A   1      38.194  31.929  37.690  1.00  0.00    -0.203 F 
ATOM     46  F   UNL A   1      40.947  36.632  37.976  1.00  0.00    -0.200 F 
ATOM     47  C   UNL A   1      39.339  35.154  38.873  1.00  0.00     0.200 A 
ATOM     48  F   UNL A   1      37.742  33.644  39.734  1.00  0.00    -0.200 F 
ATOM     49  F   UNL A   1      39.112  35.997  39.890  1.00  0.00    -0.200 F 
ENDBRANCH  25  39
BRANCH  26  50
ATOM     50  C   UNL A   1      40.790  27.823  28.490  1.00  0.00     0.064 A 
ATOM     51  C   UNL A   1      41.593  28.293  27.442  1.00  0.00     0.173 A 
ATOM     52  C   UNL A   1      40.160  26.579  28.324  1.00  0.00     0.173 A 
ATOM     53  F   UNL A   1      42.201  29.483  27.546  1.00  0.00    -0.203 F 
ATOM     54  C   UNL A   1      41.742  27.559  26.267  1.00  0.00     0.198 A 
ATOM     55  C   UNL A   1      40.337  25.832  27.162  1.00  0.00     0.198 A 
ATOM     56  F   UNL A   1      39.385  26.083  29.299  1.00  0.00    -0.203 F 
ATOM     57  F   UNL A   1      42.475  28.054  25.260  1.00  0.00    -0.200 F 
ATOM     58  C   UNL A   1      41.118  26.327  26.130  1.00  0.00     0.200 A 
ATOM     59  F   UNL A   1      39.747  24.635  27.044  1.00  0.00    -0.200 F 
ATOM     60  F   UNL A   1      41.265  25.622  25.001  1.00  0.00    -0.200 F 
ENDBRANCH  26  50
BRANCH  38  61
ATOM     61  C   UNL A   1      44.147  28.081  34.578  1.00  0.00     0.064 A 
ATOM     62  C   UNL A   1      43.992  26.842  35.216  1.00  0.00     0.173 A 
ATOM     63  C   UNL A   1      45.446  28.590  34.433  1.00  0.00     0.173 A 
ATOM     64  F   UNL A   1      42.768  26.323  35.397  1.00  0.00    -0.203 F 
ATOM     65  C   UNL A   1      45.093  26.152  35.715  1.00  0.00     0.198 A 
ATOM     66  C   UNL A   1      46.547  27.883  34.905  1.00  0.00     0.198 A 
ATOM     67  F   UNL A   1      45.647  29.769  33.825  1.00  0.00    -0.203 F 
ATOM     68  F   UNL A   1      44.918  24.995  36.368  1.00  0.00    -0.200 F 
ATOM     69  C   UNL A   1      46.371  26.670  35.553  1.00  0.00     0.200 A 
ATOM     70  F   UNL A   1      47.782  28.380  34.739  1.00  0.00    -0.200 F 
ATOM     71  F   UNL A   1      47.429  26.004  36.032  1.00  0.00    -0.200 F 
ENDBRANCH  38  61
ENDBRANCH  12  13
ENDBRANCH   5   7
ENDBRANCH   2   3
ENDBRANCH   1   2
BRANCH   1  72
ATOM     72  C   UNL A   1      31.477  30.579  26.392  1.00  0.00     0.023 C 
BRANCH  72  73
ATOM     73  C   UNL A   1      32.908  30.068  26.241  1.00  0.00     0.116 C 
BRANCH  73  74
ATOM     74  N   UNL A   1      33.292  29.947  24.844  1.00  0.00    -0.351 N 
ATOM     75  C   UNL A   1      33.173  28.878  23.991  1.00  0.00     0.283 C 
ATOM     76  H   UNL A   1      33.700  30.752  24.451  1.00  0.00     0.163 HD
ATOM     77  O   UNL A   1      33.732  28.966  22.894  1.00  0.00    -0.268 OA
BRANCH  75  78
ATOM     78  C   UNL A   1      32.352  27.633  24.438  1.00  0.00     0.305 C 
BRANCH  78  79
ATOM     79  N   UNL A   1      30.977  27.544  23.851  1.00  0.00    -0.321 N 
ATOM     80  C   UNL A   1      30.088  26.649  24.613  1.00  0.00     0.263 C 
ATOM     81  C   UNL A   1      30.321  28.812  23.535  1.00  0.00     0.263 C 
ATOM     82  H   UNL A   1      31.154  27.123  22.938  1.00  0.00     0.349 HD
ATOM     83  C   UNL A   1      28.778  26.372  23.876  1.00  0.00     0.062 C 
ATOM     84  C   UNL A   1      29.028  28.579  22.747  1.00  0.00     0.062 C 
ATOM     85  C   UNL A   1      28.073  27.668  23.501  1.00  0.00     0.012 C 
ENDBRANCH  78  79
BRANCH  78  86
ATOM     86  C   UNL A   1      33.219  26.376  24.354  1.00  0.00     0.019 A 
ATOM     87  C   UNL A   1      33.258  25.594  23.183  1.00  0.00     0.012 A 
ATOM     88  C   UNL A   1      34.005  25.981  25.447  1.00  0.00     0.012 A 
ATOM     89  C   UNL A   1      34.028  24.431  23.120  1.00  0.00     0.021 A 
ATOM     90  C   UNL A   1      34.794  24.830  25.377  1.00  0.00     0.021 A 
ATOM     91  C   UNL A   1      34.792  24.054  24.220  1.00  0.00     0.041 A 
ATOM     92  Cl  UNL A   1      35.736  22.617  24.149  1.00  0.00    -0.084 Cl
ENDBRANCH  78  86
ENDBRANCH  75  78
ENDBRANCH  73  74
ENDBRANCH  72  73
ENDBRANCH   1  72
TORSDOF 13
ENDMDL
