MODEL 1
REMARK VINA RESULT:     -13.7      0.000      0.000
REMARK SMILES O=C(NCCCCNC(=O)c1cccc(NC(=O)c2ccc(N3C(=O)CCC3=O)cc2)c1)c1ccc(-c2c3nc(c(-c4c(F)c(F)c(F)c(F)c4F)c4ccc([nH]4)c(-c4c(F)c(F)c(F)c(F)c4F)c4nc(c(-c5c(F)c(F)c(F)c(F)c5F)c5ccc2[nH]5)C=C4)C=C3)cc1
REMARK SMILES IDX 6 1 5 2 4 3 3 4 1 5 2 6 33 8 34 9 95 10 35 11 94 12 36 13
REMARK SMILES IDX 37 14 38 15 88 16 39 17 93 18 87 19 89 20 40 21 92 22 86 23
REMARK SMILES IDX 85 24 41 26 73 27 53 28 72 29 54 30 57 31 71 32 90 33 55 34
REMARK SMILES IDX 56 35 70 37 91 38 58 39 42 40 43 41 51 42 44 43 45 44 49 45
REMARK SMILES IDX 52 46 46 47 47 48 50 49 48 50 74 51 75 52 83 53 76 54 77 55
REMARK SMILES IDX 81 56 84 57 78 58 79 59 82 60 80 61 59 62 60 63 68 64 61 65
REMARK SMILES IDX 62 66 66 67 69 68 63 69 64 70 67 71 65 72 7 73 8 74 9 75
REMARK SMILES IDX 10 77 11 78 12 79 32 80 13 81 15 82 14 83 16 84 17 85 18 87
REMARK SMILES IDX 19 88 20 89 31 90 21 91 30 92 22 93 23 94 24 95 28 96 25 97
REMARK SMILES IDX 26 98 27 99 29 100
REMARK H PARENT 3 7 89 25 57 36 8 76 16 86
REMARK Flexibility Score: inf
ROOT
ATOM      1  C   UNL A   1      31.426  30.853  25.991  1.00  0.00     0.023 C 
ENDROOT
BRANCH   1   2
ATOM      2  C   UNL A   1      31.288  32.291  26.483  1.00  0.00     0.023 C 
BRANCH   2   3
ATOM      3  C   UNL A   1      32.487  32.835  27.247  1.00  0.00     0.116 C 
BRANCH   3   4
ATOM      4  N   UNL A   1      32.326  34.226  27.640  1.00  0.00    -0.352 N 
ATOM      5  O   UNL A   1      32.656  36.080  28.884  1.00  0.00    -0.269 OA
ATOM      6  C   UNL A   1      33.018  34.950  28.585  1.00  0.00     0.251 C 
ATOM      7  H   UNL A   1      31.622  34.721  27.162  1.00  0.00     0.163 HD
BRANCH   6   8
ATOM      8  C   UNL A   1      34.186  34.342  29.259  1.00  0.00     0.039 A 
ATOM      9  C   UNL A   1      35.479  34.564  28.783  1.00  0.00     0.014 A 
ATOM     10  C   UNL A   1      33.977  33.533  30.380  1.00  0.00     0.014 A 
ATOM     11  C   UNL A   1      36.545  33.859  29.329  1.00  0.00     0.010 A 
ATOM     12  C   UNL A   1      35.063  32.895  30.985  1.00  0.00     0.010 A 
ATOM     13  C   UNL A   1      36.352  33.027  30.444  1.00  0.00    -0.014 A 
BRANCH  13  14
ATOM     14  C   UNL A   1      37.524  32.357  31.062  1.00  0.00     0.031 A 
ATOM     15  C   UNL A   1      37.996  32.722  32.440  1.00  0.00     0.074 A 
ATOM     16  C   UNL A   1      38.150  31.387  30.366  1.00  0.00     0.049 A 
ATOM     17  N   UNL A   1      38.998  32.230  33.127  1.00  0.00    -0.248 NA
ATOM     18  C   UNL A   1      37.257  33.783  33.140  1.00  0.00     0.031 C 
ATOM     19  C   UNL A   1      37.785  30.955  29.016  1.00  0.00     0.029 A 
ATOM     20  N   UNL A   1      39.207  30.580  30.700  1.00  0.00    -0.354 N 
ATOM     21  C   UNL A   1      39.020  32.928  34.326  1.00  0.00     0.074 A 
ATOM     22  C   UNL A   1      37.947  33.899  34.266  1.00  0.00     0.031 C 
ATOM     23  C   UNL A   1      38.575  29.936  28.651  1.00  0.00     0.029 A 
ATOM     24  C   UNL A   1      39.542  29.686  29.714  1.00  0.00     0.049 A 
ATOM     25  H   UNL A   1      39.680  30.638  31.560  1.00  0.00     0.167 HD
ATOM     26  C   UNL A   1      39.855  32.767  35.381  1.00  0.00     0.037 A 
ATOM     27  C   UNL A   1      40.532  28.776  29.661  1.00  0.00     0.037 A 
ATOM     28  C   UNL A   1      40.911  31.787  35.438  1.00  0.00     0.049 A 
ATOM     29  C   UNL A   1      41.457  28.638  30.834  1.00  0.00     0.074 A 
ATOM     30  C   UNL A   1      41.786  31.519  36.477  1.00  0.00     0.029 A 
ATOM     31  N   UNL A   1      41.240  30.917  34.408  1.00  0.00    -0.354 N 
ATOM     32  N   UNL A   1      41.445  29.281  31.976  1.00  0.00    -0.248 NA
ATOM     33  C   UNL A   1      42.537  27.651  30.710  1.00  0.00     0.031 C 
ATOM     34  C   UNL A   1      42.674  30.523  36.059  1.00  0.00     0.029 A 
ATOM     35  C   UNL A   1      42.321  30.131  34.779  1.00  0.00     0.049 A 
ATOM     36  H   UNL A   1      40.774  30.865  33.542  1.00  0.00     0.167 HD
ATOM     37  C   UNL A   1      42.502  28.767  32.713  1.00  0.00     0.074 A 
ATOM     38  C   UNL A   1      43.120  27.742  31.896  1.00  0.00     0.031 C 
ATOM     39  C   UNL A   1      42.924  29.115  33.953  1.00  0.00     0.037 A 
BRANCH  26  40
ATOM     40  C   UNL A   1      39.677  33.679  36.561  1.00  0.00     0.064 A 
ATOM     41  C   UNL A   1      40.292  34.939  36.621  1.00  0.00     0.173 A 
ATOM     42  C   UNL A   1      38.835  33.311  37.623  1.00  0.00     0.173 A 
ATOM     43  F   UNL A   1      41.113  35.336  35.638  1.00  0.00    -0.203 F 
ATOM     44  C   UNL A   1      40.089  35.785  37.708  1.00  0.00     0.198 A 
ATOM     45  C   UNL A   1      38.613  34.172  38.695  1.00  0.00     0.198 A 
ATOM     46  F   UNL A   1      38.215  32.122  37.613  1.00  0.00    -0.203 F 
ATOM     47  F   UNL A   1      40.719  36.967  37.762  1.00  0.00    -0.200 F 
ATOM     48  C   UNL A   1      39.244  35.405  38.740  1.00  0.00     0.200 A 
ATOM     49  F   UNL A   1      37.785  33.808  39.684  1.00  0.00    -0.200 F 
ATOM     50  F   UNL A   1      39.042  36.225  39.781  1.00  0.00    -0.200 F 
ENDBRANCH  26  40
BRANCH  27  51
ATOM     51  C   UNL A   1      40.693  27.935  28.447  1.00  0.00     0.064 A 
ATOM     52  C   UNL A   1      41.467  28.369  27.365  1.00  0.00     0.173 A 
ATOM     53  C   UNL A   1      40.088  26.671  28.356  1.00  0.00     0.173 A 
ATOM     54  F   UNL A   1      42.049  29.577  27.400  1.00  0.00    -0.203 F 
ATOM     55  C   UNL A   1      41.619  27.578  26.228  1.00  0.00     0.198 A 
ATOM     56  C   UNL A   1      40.268  25.868  27.232  1.00  0.00     0.198 A 
ATOM     57  F   UNL A   1      39.342  26.208  29.369  1.00  0.00    -0.203 F 
ATOM     58  F   UNL A   1      42.332  28.033  25.189  1.00  0.00    -0.200 F 
ATOM     59  C   UNL A   1      41.027  26.325  26.166  1.00  0.00     0.200 A 
ATOM     60  F   UNL A   1      39.709  24.652  27.185  1.00  0.00    -0.200 F 
ATOM     61  F   UNL A   1      41.183  25.561  25.077  1.00  0.00    -0.200 F 
ENDBRANCH  27  51
BRANCH  39  62
ATOM     62  C   UNL A   1      44.097  28.362  34.508  1.00  0.00     0.064 A 
ATOM     63  C   UNL A   1      43.938  27.129  35.157  1.00  0.00     0.173 A 
ATOM     64  C   UNL A   1      45.398  28.871  34.368  1.00  0.00     0.173 A 
ATOM     65  F   UNL A   1      42.714  26.610  35.331  1.00  0.00    -0.203 F 
ATOM     66  C   UNL A   1      45.037  26.445  35.670  1.00  0.00     0.198 A 
ATOM     67  C   UNL A   1      46.496  28.169  34.856  1.00  0.00     0.198 A 
ATOM     68  F   UNL A   1      45.602  30.044  33.752  1.00  0.00    -0.203 F 
ATOM     69  F   UNL A   1      44.858  25.293  36.331  1.00  0.00    -0.200 F 
ATOM     70  C   UNL A   1      46.315  26.962  35.514  1.00  0.00     0.200 A 
ATOM     71  F   UNL A   1      47.731  28.665  34.695  1.00  0.00    -0.200 F 
ATOM     72  F   UNL A   1      47.372  26.301  36.006  1.00  0.00    -0.200 F 
ENDBRANCH  39  62
ENDBRANCH  13  14
ENDBRANCH   6   8
ENDBRANCH   3   4
ENDBRANCH   2   3
ENDBRANCH   1   2
BRANCH   1  73
ATOM     73  C   UNL A   1      31.944  29.856  27.025  1.00  0.00     0.116 C 
BRANCH  73  74
ATOM     74  N   UNL A   1      33.059  29.067  26.528  1.00  0.00    -0.352 N 
ATOM     75  C   UNL A   1      33.067  27.848  25.903  1.00  0.00     0.251 C 
ATOM     76  H   UNL A   1      33.947  29.472  26.661  1.00  0.00     0.163 HD
ATOM     77  O   UNL A   1      34.132  27.266  25.718  1.00  0.00    -0.269 OA
BRANCH  75  78
ATOM     78  C   UNL A   1      31.806  27.222  25.458  1.00  0.00     0.041 A 
ATOM     79  C   UNL A   1      31.251  27.636  24.248  1.00  0.00     0.014 A 
ATOM     80  C   UNL A   1      31.150  26.269  26.248  1.00  0.00     0.040 A 
ATOM     81  C   UNL A   1      30.049  27.081  23.826  1.00  0.00     0.003 A 
ATOM     82  C   UNL A   1      29.982  25.650  25.795  1.00  0.00     0.042 A 
ATOM     83  C   UNL A   1      29.416  26.101  24.600  1.00  0.00     0.026 A 
BRANCH  82  84
ATOM     84  N   UNL A   1      29.471  24.615  26.604  1.00  0.00    -0.322 N 
ATOM     85  C   UNL A   1      29.937  23.367  26.945  1.00  0.00     0.255 C 
ATOM     86  H   UNL A   1      28.601  24.831  27.010  1.00  0.00     0.170 HD
ATOM     87  O   UNL A   1      29.225  22.598  27.588  1.00  0.00    -0.269 OA
BRANCH  85  88
ATOM     88  C   UNL A   1      31.290  22.927  26.582  1.00  0.00     0.040 A 
ATOM     89  C   UNL A   1      31.539  22.576  25.259  1.00  0.00     0.016 A 
ATOM     90  C   UNL A   1      32.315  22.892  27.528  1.00  0.00     0.016 A 
ATOM     91  C   UNL A   1      32.846  22.296  24.858  1.00  0.00     0.027 A 
ATOM     92  C   UNL A   1      33.620  22.590  27.119  1.00  0.00     0.027 A 
ATOM     93  C   UNL A   1      33.917  22.329  25.769  1.00  0.00     0.052 A 
BRANCH  93  94
ATOM     94  N   UNL A   1      35.257  22.136  25.326  1.00  0.00    -0.251 N 
ATOM     95  C   UNL A   1      35.796  20.922  24.963  1.00  0.00     0.234 C 
ATOM     96  C   UNL A   1      36.196  23.144  25.263  1.00  0.00     0.234 C 
ATOM     97  O   UNL A   1      35.263  19.821  24.929  1.00  0.00    -0.274 OA
ATOM     98  C   UNL A   1      37.208  21.131  24.503  1.00  0.00     0.111 C 
ATOM     99  C   UNL A   1      37.514  22.566  24.848  1.00  0.00     0.111 C 
ATOM    100  O   UNL A   1      36.081  24.323  25.571  1.00  0.00    -0.274 OA
ENDBRANCH  93  94
ENDBRANCH  85  88
ENDBRANCH  82  84
ENDBRANCH  75  78
ENDBRANCH  73  74
ENDBRANCH   1  73
TORSDOF 14
ENDMDL
MODEL 2
REMARK VINA RESULT:     -13.7      0.291      7.000
REMARK SMILES O=C(NCCCCNC(=O)c1cccc(NC(=O)c2ccc(N3C(=O)CCC3=O)cc2)c1)c1ccc(-c2c3nc(c(-c4c(F)c(F)c(F)c(F)c4F)c4ccc([nH]4)c(-c4c(F)c(F)c(F)c(F)c4F)c4nc(c(-c5c(F)c(F)c(F)c(F)c5F)c5ccc2[nH]5)C=C4)C=C3)cc1
REMARK SMILES IDX 6 1 5 2 4 3 3 4 1 5 2 6 33 8 34 9 95 10 35 11 94 12 36 13
REMARK SMILES IDX 37 14 38 15 88 16 39 17 93 18 87 19 89 20 40 21 92 22 86 23
REMARK SMILES IDX 85 24 41 26 73 27 53 28 72 29 54 30 57 31 71 32 90 33 55 34
REMARK SMILES IDX 56 35 70 37 91 38 58 39 42 40 43 41 51 42 44 43 45 44 49 45
REMARK SMILES IDX 52 46 46 47 47 48 50 49 48 50 74 51 75 52 83 53 76 54 77 55
REMARK SMILES IDX 81 56 84 57 78 58 79 59 82 60 80 61 59 62 60 63 68 64 61 65
REMARK SMILES IDX 62 66 66 67 69 68 63 69 64 70 67 71 65 72 7 73 8 74 9 75
REMARK SMILES IDX 10 77 11 78 12 79 32 80 13 81 15 82 14 83 16 84 17 85 18 87
REMARK SMILES IDX 19 88 20 89 31 90 21 91 30 92 22 93 23 94 24 95 28 96 25 97
REMARK SMILES IDX 26 98 27 99 29 100
REMARK H PARENT 3 7 89 25 57 36 8 76 16 86
REMARK Flexibility Score: inf
ROOT
ATOM      1  C   UNL A   1      31.440  30.870  26.043  1.00  0.00     0.023 C 
ENDROOT
BRANCH   1   2
ATOM      2  C   UNL A   1      31.297  32.315  26.515  1.00  0.00     0.023 C 
BRANCH   2   3
ATOM      3  C   UNL A   1      32.528  32.904  27.189  1.00  0.00     0.116 C 
BRANCH   3   4
ATOM      4  N   UNL A   1      32.338  34.280  27.616  1.00  0.00    -0.352 N 
ATOM      5  O   UNL A   1      32.606  36.102  28.921  1.00  0.00    -0.269 OA
ATOM      6  C   UNL A   1      32.992  34.985  28.601  1.00  0.00     0.251 C 
ATOM      7  H   UNL A   1      31.642  34.780  27.131  1.00  0.00     0.163 HD
BRANCH   6   8
ATOM      8  C   UNL A   1      34.147  34.373  29.293  1.00  0.00     0.039 A 
ATOM      9  C   UNL A   1      35.443  34.541  28.802  1.00  0.00     0.014 A 
ATOM     10  C   UNL A   1      33.923  33.614  30.445  1.00  0.00     0.014 A 
ATOM     11  C   UNL A   1      36.492  33.828  29.370  1.00  0.00     0.010 A 
ATOM     12  C   UNL A   1      34.995  32.971  31.069  1.00  0.00     0.010 A 
ATOM     13  C   UNL A   1      36.284  33.046  30.518  1.00  0.00    -0.014 A 
BRANCH  13  14
ATOM     14  C   UNL A   1      37.441  32.370  31.155  1.00  0.00     0.031 A 
ATOM     15  C   UNL A   1      38.199  31.284  30.445  1.00  0.00     0.074 A 
ATOM     16  C   UNL A   1      37.819  32.767  32.386  1.00  0.00     0.049 A 
ATOM     17  N   UNL A   1      39.236  30.597  30.858  1.00  0.00    -0.248 NA
ATOM     18  C   UNL A   1      37.732  30.912  29.102  1.00  0.00     0.031 C 
ATOM     19  C   UNL A   1      37.152  33.804  33.174  1.00  0.00     0.029 A 
ATOM     20  N   UNL A   1      38.861  32.363  33.181  1.00  0.00    -0.354 N 
ATOM     21  C   UNL A   1      39.534  29.704  29.838  1.00  0.00     0.074 A 
ATOM     22  C   UNL A   1      38.552  29.917  28.794  1.00  0.00     0.031 C 
ATOM     23  C   UNL A   1      37.823  33.986  34.321  1.00  0.00     0.029 A 
ATOM     24  C   UNL A   1      38.927  33.035  34.376  1.00  0.00     0.049 A 
ATOM     25  H   UNL A   1      39.497  31.659  32.921  1.00  0.00     0.167 HD
ATOM     26  C   UNL A   1      40.539  28.797  29.777  1.00  0.00     0.037 A 
ATOM     27  C   UNL A   1      39.771  32.889  35.414  1.00  0.00     0.037 A 
ATOM     28  C   UNL A   1      41.521  28.603  30.814  1.00  0.00     0.049 A 
ATOM     29  C   UNL A   1      40.858  31.858  35.328  1.00  0.00     0.074 A 
ATOM     30  C   UNL A   1      42.600  27.737  30.831  1.00  0.00     0.029 A 
ATOM     31  N   UNL A   1      41.538  29.282  32.025  1.00  0.00    -0.354 N 
ATOM     32  N   UNL A   1      41.150  31.044  34.343  1.00  0.00    -0.248 NA
ATOM     33  C   UNL A   1      41.731  31.722  36.501  1.00  0.00     0.031 C 
ATOM     34  C   UNL A   1      43.242  27.856  32.068  1.00  0.00     0.029 A 
ATOM     35  C   UNL A   1      42.595  28.835  32.804  1.00  0.00     0.049 A 
ATOM     36  H   UNL A   1      40.896  29.979  32.291  1.00  0.00     0.167 HD
ATOM     37  C   UNL A   1      42.248  30.312  34.769  1.00  0.00     0.074 A 
ATOM     38  C   UNL A   1      42.584  30.793  36.092  1.00  0.00     0.031 C 
ATOM     39  C   UNL A   1      42.915  29.325  34.121  1.00  0.00     0.037 A 
BRANCH  26  40
ATOM     40  C   UNL A   1      40.625  27.928  28.555  1.00  0.00     0.064 A 
ATOM     41  C   UNL A   1      41.390  28.295  27.438  1.00  0.00     0.173 A 
ATOM     42  C   UNL A   1      39.978  26.682  28.523  1.00  0.00     0.173 A 
ATOM     43  F   UNL A   1      42.023  29.478  27.413  1.00  0.00    -0.203 F 
ATOM     44  C   UNL A   1      41.485  27.461  26.327  1.00  0.00     0.198 A 
ATOM     45  C   UNL A   1      40.097  25.838  27.422  1.00  0.00     0.198 A 
ATOM     46  F   UNL A   1      39.239  26.277  29.567  1.00  0.00    -0.203 F 
ATOM     47  F   UNL A   1      42.190  27.852  25.256  1.00  0.00    -0.200 F 
ATOM     48  C   UNL A   1      40.846  26.230  26.323  1.00  0.00     0.200 A 
ATOM     49  F   UNL A   1      39.489  24.644  27.425  1.00  0.00    -0.200 F 
ATOM     50  F   UNL A   1      40.946  25.424  25.257  1.00  0.00    -0.200 F 
ENDBRANCH  26  40
BRANCH  27  51
ATOM     51  C   UNL A   1      39.608  33.741  36.619  1.00  0.00     0.064 A 
ATOM     52  C   UNL A   1      40.216  35.000  36.700  1.00  0.00     0.173 A 
ATOM     53  C   UNL A   1      38.826  33.320  37.706  1.00  0.00     0.173 A 
ATOM     54  F   UNL A   1      40.986  35.438  35.694  1.00  0.00    -0.203 F 
ATOM     55  C   UNL A   1      40.060  35.801  37.830  1.00  0.00     0.198 A 
ATOM     56  C   UNL A   1      38.646  34.134  38.820  1.00  0.00     0.198 A 
ATOM     57  F   UNL A   1      38.219  32.125  37.673  1.00  0.00    -0.203 F 
ATOM     58  F   UNL A   1      40.684  36.984  37.901  1.00  0.00    -0.200 F 
ATOM     59  C   UNL A   1      39.269  35.371  38.885  1.00  0.00     0.200 A 
ATOM     60  F   UNL A   1      37.866  33.723  39.829  1.00  0.00    -0.200 F 
ATOM     61  F   UNL A   1      39.111  36.146  39.966  1.00  0.00    -0.200 F 
ENDBRANCH  27  51
BRANCH  39  62
ATOM     62  C   UNL A   1      44.091  28.721  34.830  1.00  0.00     0.064 A 
ATOM     63  C   UNL A   1      43.955  27.588  35.646  1.00  0.00     0.173 A 
ATOM     64  C   UNL A   1      45.373  29.269  34.672  1.00  0.00     0.173 A 
ATOM     65  F   UNL A   1      42.748  27.038  35.842  1.00  0.00    -0.203 F 
ATOM     66  C   UNL A   1      45.057  27.043  36.300  1.00  0.00     0.198 A 
ATOM     67  C   UNL A   1      46.477  28.703  35.304  1.00  0.00     0.198 A 
ATOM     68  F   UNL A   1      45.556  30.349  33.898  1.00  0.00    -0.203 F 
ATOM     69  F   UNL A   1      44.896  25.992  37.116  1.00  0.00    -0.200 F 
ATOM     70  C   UNL A   1      46.316  27.596  36.124  1.00  0.00     0.200 A 
ATOM     71  F   UNL A   1      47.695  29.231  35.123  1.00  0.00    -0.200 F 
ATOM     72  F   UNL A   1      47.376  27.067  36.752  1.00  0.00    -0.200 F 
ENDBRANCH  39  62
ENDBRANCH  13  14
ENDBRANCH   6   8
ENDBRANCH   3   4
ENDBRANCH   2   3
ENDBRANCH   1   2
BRANCH   1  73
ATOM     73  C   UNL A   1      31.943  29.886  27.096  1.00  0.00     0.116 C 
BRANCH  73  74
ATOM     74  N   UNL A   1      33.077  29.106  26.632  1.00  0.00    -0.352 N 
ATOM     75  C   UNL A   1      33.111  27.888  26.004  1.00  0.00     0.251 C 
ATOM     76  H   UNL A   1      33.959  29.516  26.792  1.00  0.00     0.163 HD
ATOM     77  O   UNL A   1      34.186  27.313  25.850  1.00  0.00    -0.269 OA
BRANCH  75  78
ATOM     78  C   UNL A   1      31.869  27.255  25.521  1.00  0.00     0.041 A 
ATOM     79  C   UNL A   1      31.351  27.664  24.292  1.00  0.00     0.014 A 
ATOM     80  C   UNL A   1      31.192  26.301  26.291  1.00  0.00     0.040 A 
ATOM     81  C   UNL A   1      30.165  27.102  23.833  1.00  0.00     0.003 A 
ATOM     82  C   UNL A   1      30.042  25.675  25.802  1.00  0.00     0.042 A 
ATOM     83  C   UNL A   1      29.512  26.121  24.588  1.00  0.00     0.026 A 
BRANCH  82  84
ATOM     84  N   UNL A   1      29.509  24.641  26.597  1.00  0.00    -0.322 N 
ATOM     85  C   UNL A   1      29.958  23.385  26.934  1.00  0.00     0.255 C 
ATOM     86  H   UNL A   1      28.636  24.863  26.993  1.00  0.00     0.170 HD
ATOM     87  O   UNL A   1      29.230  22.619  27.562  1.00  0.00    -0.269 OA
BRANCH  85  88
ATOM     88  C   UNL A   1      31.311  22.934  26.587  1.00  0.00     0.040 A 
ATOM     89  C   UNL A   1      31.582  22.618  25.259  1.00  0.00     0.016 A 
ATOM     90  C   UNL A   1      32.316  22.854  27.552  1.00  0.00     0.016 A 
ATOM     91  C   UNL A   1      32.893  22.328  24.876  1.00  0.00     0.027 A 
ATOM     92  C   UNL A   1      33.624  22.544  27.161  1.00  0.00     0.027 A 
ATOM     93  C   UNL A   1      33.944  22.317  25.810  1.00  0.00     0.052 A 
BRANCH  93  94
ATOM     94  N   UNL A   1      35.291  22.115  25.388  1.00  0.00    -0.251 N 
ATOM     95  C   UNL A   1      35.816  20.905  24.996  1.00  0.00     0.234 C 
ATOM     96  C   UNL A   1      36.247  23.108  25.379  1.00  0.00     0.234 C 
ATOM     97  O   UNL A   1      35.266  19.814  24.914  1.00  0.00    -0.274 OA
ATOM     98  C   UNL A   1      37.241  21.104  24.573  1.00  0.00     0.111 C 
ATOM     99  C   UNL A   1      37.564  22.520  24.972  1.00  0.00     0.111 C 
ATOM    100  O   UNL A   1      36.146  24.278  25.723  1.00  0.00    -0.274 OA
ENDBRANCH  93  94
ENDBRANCH  85  88
ENDBRANCH  82  84
ENDBRANCH  75  78
ENDBRANCH  73  74
ENDBRANCH   1  73
TORSDOF 14
ENDMDL
MODEL 3
REMARK VINA RESULT:     -13.4      4.068      9.252
REMARK SMILES O=C(NCCCCNC(=O)c1cccc(NC(=O)c2ccc(N3C(=O)CCC3=O)cc2)c1)c1ccc(-c2c3nc(c(-c4c(F)c(F)c(F)c(F)c4F)c4ccc([nH]4)c(-c4c(F)c(F)c(F)c(F)c4F)c4nc(c(-c5c(F)c(F)c(F)c(F)c5F)c5ccc2[nH]5)C=C4)C=C3)cc1
REMARK SMILES IDX 6 1 5 2 4 3 3 4 1 5 2 6 33 8 34 9 95 10 35 11 94 12 36 13
REMARK SMILES IDX 37 14 38 15 88 16 39 17 93 18 87 19 89 20 40 21 92 22 86 23
REMARK SMILES IDX 85 24 41 26 73 27 53 28 72 29 54 30 57 31 71 32 90 33 55 34
REMARK SMILES IDX 56 35 70 37 91 38 58 39 42 40 43 41 51 42 44 43 45 44 49 45
REMARK SMILES IDX 52 46 46 47 47 48 50 49 48 50 74 51 75 52 83 53 76 54 77 55
REMARK SMILES IDX 81 56 84 57 78 58 79 59 82 60 80 61 59 62 60 63 68 64 61 65
REMARK SMILES IDX 62 66 66 67 69 68 63 69 64 70 67 71 65 72 7 73 8 74 9 75
REMARK SMILES IDX 10 77 11 78 12 79 32 80 13 81 15 82 14 83 16 84 17 85 18 87
REMARK SMILES IDX 19 88 20 89 31 90 21 91 30 92 22 93 23 94 24 95 28 96 25 97
REMARK SMILES IDX 26 98 27 99 29 100
REMARK H PARENT 3 7 89 25 57 36 8 76 16 86
REMARK Flexibility Score: inf
ROOT
ATOM      1  C   UNL A   1      34.790  22.626  27.001  1.00  0.00     0.023 C 
ENDROOT
BRANCH   1   2
ATOM      2  C   UNL A   1      35.033  23.841  26.110  1.00  0.00     0.023 C 
BRANCH   2   3
ATOM      3  C   UNL A   1      36.482  24.073  25.709  1.00  0.00     0.116 C 
BRANCH   3   4
ATOM      4  N   UNL A   1      37.334  22.923  25.965  1.00  0.00    -0.352 N 
ATOM      5  O   UNL A   1      39.235  21.829  26.497  1.00  0.00    -0.269 OA
ATOM      6  C   UNL A   1      38.611  22.881  26.476  1.00  0.00     0.251 C 
ATOM      7  H   UNL A   1      36.941  22.049  25.741  1.00  0.00     0.163 HD
BRANCH   6   8
ATOM      8  C   UNL A   1      39.240  24.125  26.975  1.00  0.00     0.039 A 
ATOM      9  C   UNL A   1      39.174  24.464  28.327  1.00  0.00     0.014 A 
ATOM     10  C   UNL A   1      39.895  24.964  26.069  1.00  0.00     0.014 A 
ATOM     11  C   UNL A   1      39.627  25.708  28.748  1.00  0.00     0.010 A 
ATOM     12  C   UNL A   1      40.432  26.175  26.513  1.00  0.00     0.010 A 
ATOM     13  C   UNL A   1      40.273  26.573  27.850  1.00  0.00    -0.014 A 
BRANCH  13  14
ATOM     14  C   UNL A   1      40.827  27.856  28.348  1.00  0.00     0.031 A 
ATOM     15  C   UNL A   1      42.308  28.102  28.396  1.00  0.00     0.074 A 
ATOM     16  C   UNL A   1      39.968  28.818  28.738  1.00  0.00     0.049 A 
ATOM     17  N   UNL A   1      42.955  29.169  28.797  1.00  0.00    -0.248 NA
ATOM     18  C   UNL A   1      43.181  27.009  27.945  1.00  0.00     0.031 C 
ATOM     19  C   UNL A   1      38.510  28.688  28.745  1.00  0.00     0.029 A 
ATOM     20  N   UNL A   1      40.190  30.095  29.187  1.00  0.00    -0.354 N 
ATOM     21  C   UNL A   1      44.304  28.872  28.663  1.00  0.00     0.074 A 
ATOM     22  C   UNL A   1      44.387  27.513  28.168  1.00  0.00     0.031 C 
ATOM     23  C   UNL A   1      37.966  29.849  29.135  1.00  0.00     0.029 A 
ATOM     24  C   UNL A   1      39.036  30.783  29.467  1.00  0.00     0.049 A 
ATOM     25  H   UNL A   1      41.088  30.479  29.299  1.00  0.00     0.167 HD
ATOM     26  C   UNL A   1      45.373  29.664  28.923  1.00  0.00     0.037 A 
ATOM     27  C   UNL A   1      38.856  32.023  29.958  1.00  0.00     0.037 A 
ATOM     28  C   UNL A   1      45.280  31.020  29.401  1.00  0.00     0.049 A 
ATOM     29  C   UNL A   1      40.059  32.867  30.261  1.00  0.00     0.074 A 
ATOM     30  C   UNL A   1      46.302  31.918  29.658  1.00  0.00     0.029 A 
ATOM     31  N   UNL A   1      44.093  31.675  29.702  1.00  0.00    -0.354 N 
ATOM     32  N   UNL A   1      41.328  32.586  30.097  1.00  0.00    -0.248 NA
ATOM     33  C   UNL A   1      39.804  34.200  30.821  1.00  0.00     0.031 C 
ATOM     34  C   UNL A   1      45.739  33.096  30.159  1.00  0.00     0.029 A 
ATOM     35  C   UNL A   1      44.361  32.954  30.166  1.00  0.00     0.049 A 
ATOM     36  H   UNL A   1      43.194  31.288  29.600  1.00  0.00     0.167 HD
ATOM     37  C   UNL A   1      42.023  33.710  30.517  1.00  0.00     0.074 A 
ATOM     38  C   UNL A   1      41.033  34.686  30.923  1.00  0.00     0.031 C 
ATOM     39  C   UNL A   1      43.363  33.913  30.566  1.00  0.00     0.037 A 
BRANCH  26  40
ATOM     40  C   UNL A   1      46.742  29.084  28.713  1.00  0.00     0.064 A 
ATOM     41  C   UNL A   1      47.418  29.208  27.490  1.00  0.00     0.173 A 
ATOM     42  C   UNL A   1      47.412  28.444  29.768  1.00  0.00     0.173 A 
ATOM     43  F   UNL A   1      46.822  29.803  26.446  1.00  0.00    -0.203 F 
ATOM     44  C   UNL A   1      48.702  28.693  27.324  1.00  0.00     0.198 A 
ATOM     45  C   UNL A   1      48.705  27.954  29.607  1.00  0.00     0.198 A 
ATOM     46  F   UNL A   1      46.815  28.305  30.962  1.00  0.00    -0.203 F 
ATOM     47  F   UNL A   1      49.311  28.788  26.134  1.00  0.00    -0.200 F 
ATOM     48  C   UNL A   1      49.347  28.074  28.384  1.00  0.00     0.200 A 
ATOM     49  F   UNL A   1      49.332  27.368  30.637  1.00  0.00    -0.200 F 
ATOM     50  F   UNL A   1      50.586  27.587  28.226  1.00  0.00    -0.200 F 
ENDBRANCH  26  40
BRANCH  27  51
ATOM     51  C   UNL A   1      37.479  32.527  30.194  1.00  0.00     0.064 A 
ATOM     52  C   UNL A   1      36.772  32.182  31.352  1.00  0.00     0.173 A 
ATOM     53  C   UNL A   1      36.850  33.379  29.272  1.00  0.00     0.173 A 
ATOM     54  F   UNL A   1      37.324  31.356  32.253  1.00  0.00    -0.203 F 
ATOM     55  C   UNL A   1      35.481  32.658  31.574  1.00  0.00     0.198 A 
ATOM     56  C   UNL A   1      35.573  33.880  29.511  1.00  0.00     0.198 A 
ATOM     57  F   UNL A   1      37.489  33.744  28.151  1.00  0.00    -0.203 F 
ATOM     58  F   UNL A   1      34.810  32.281  32.671  1.00  0.00    -0.200 F 
ATOM     59  C   UNL A   1      34.887  33.513  30.658  1.00  0.00     0.200 A 
ATOM     60  F   UNL A   1      35.010  34.720  28.632  1.00  0.00    -0.200 F 
ATOM     61  F   UNL A   1      33.650  33.979  30.877  1.00  0.00    -0.200 F 
ENDBRANCH  27  51
BRANCH  39  62
ATOM     62  C   UNL A   1      43.830  35.253  31.054  1.00  0.00     0.064 A 
ATOM     63  C   UNL A   1      44.187  35.463  32.394  1.00  0.00     0.173 A 
ATOM     64  C   UNL A   1      43.943  36.332  30.165  1.00  0.00     0.173 A 
ATOM     65  F   UNL A   1      44.080  34.467  33.286  1.00  0.00    -0.203 F 
ATOM     66  C   UNL A   1      44.615  36.714  32.831  1.00  0.00     0.198 A 
ATOM     67  C   UNL A   1      44.399  37.573  30.599  1.00  0.00     0.198 A 
ATOM     68  F   UNL A   1      43.617  36.181  28.873  1.00  0.00    -0.203 F 
ATOM     69  F   UNL A   1      44.902  36.907  34.126  1.00  0.00    -0.200 F 
ATOM     70  C   UNL A   1      44.726  37.766  31.933  1.00  0.00     0.200 A 
ATOM     71  F   UNL A   1      44.517  38.585  29.729  1.00  0.00    -0.200 F 
ATOM     72  F   UNL A   1      45.141  38.968  32.356  1.00  0.00    -0.200 F 
ENDBRANCH  39  62
ENDBRANCH  13  14
ENDBRANCH   6   8
ENDBRANCH   3   4
ENDBRANCH   2   3
ENDBRANCH   1   2
BRANCH   1  73
ATOM     73  C   UNL A   1      33.323  22.274  27.240  1.00  0.00     0.116 C 
BRANCH  73  74
ATOM     74  N   UNL A   1      32.913  21.081  26.520  1.00  0.00    -0.352 N 
ATOM     75  C   UNL A   1      32.364  20.951  25.271  1.00  0.00     0.251 C 
ATOM     76  H   UNL A   1      33.051  20.234  27.003  1.00  0.00     0.163 HD
ATOM     77  O   UNL A   1      31.922  19.863  24.911  1.00  0.00    -0.269 OA
BRANCH  75  78
ATOM     78  C   UNL A   1      32.289  22.108  24.358  1.00  0.00     0.041 A 
ATOM     79  C   UNL A   1      33.367  22.354  23.508  1.00  0.00     0.014 A 
ATOM     80  C   UNL A   1      31.186  22.973  24.370  1.00  0.00     0.040 A 
ATOM     81  C   UNL A   1      33.329  23.456  22.662  1.00  0.00     0.003 A 
ATOM     82  C   UNL A   1      31.106  24.038  23.468  1.00  0.00     0.042 A 
ATOM     83  C   UNL A   1      32.209  24.295  22.649  1.00  0.00     0.026 A 
BRANCH  82  84
ATOM     84  N   UNL A   1      29.902  24.770  23.474  1.00  0.00    -0.322 N 
ATOM     85  C   UNL A   1      29.525  25.960  24.051  1.00  0.00     0.255 C 
ATOM     86  H   UNL A   1      29.182  24.342  22.957  1.00  0.00     0.170 HD
ATOM     87  O   UNL A   1      28.353  26.327  23.998  1.00  0.00    -0.269 OA
BRANCH  85  88
ATOM     88  C   UNL A   1      30.500  26.833  24.717  1.00  0.00     0.040 A 
ATOM     89  C   UNL A   1      31.108  27.836  23.967  1.00  0.00     0.016 A 
ATOM     90  C   UNL A   1      30.789  26.691  26.074  1.00  0.00     0.016 A 
ATOM     91  C   UNL A   1      31.926  28.770  24.607  1.00  0.00     0.027 A 
ATOM     92  C   UNL A   1      31.626  27.622  26.703  1.00  0.00     0.027 A 
ATOM     93  C   UNL A   1      32.175  28.702  25.989  1.00  0.00     0.052 A 
BRANCH  93  94
ATOM     94  N   UNL A   1      32.932  29.718  26.643  1.00  0.00    -0.251 N 
ATOM     95  C   UNL A   1      32.488  31.000  26.872  1.00  0.00     0.234 C 
ATOM     96  C   UNL A   1      34.230  29.548  27.074  1.00  0.00     0.234 C 
ATOM     97  O   UNL A   1      31.408  31.504  26.596  1.00  0.00    -0.274 OA
ATOM     98  C   UNL A   1      33.540  31.754  27.630  1.00  0.00     0.111 C 
ATOM     99  C   UNL A   1      34.741  30.844  27.625  1.00  0.00     0.111 C 
ATOM    100  O   UNL A   1      34.952  28.564  26.975  1.00  0.00    -0.274 OA
ENDBRANCH  93  94
ENDBRANCH  85  88
ENDBRANCH  82  84
ENDBRANCH  75  78
ENDBRANCH  73  74
ENDBRANCH   1  73
TORSDOF 14
ENDMDL
