MODEL 1
REMARK VINA RESULT:     -13.8      0.000      0.000
REMARK SMILES Cc1cccc(-c2cccnc2C(=O)NCCCCNC(=O)c2ccc(-c3c4nc(c(-c5c(F)c(F)c(F)c(F)c5F)c5ccc([nH]5)c(-c5c(F)c(F)c(F)c(F)c5F)c5nc(c(-c6c(F)c(F)c(F)c(F)c6F)c6ccc3[nH]6)C=C5)C=C4)cc2)c1
REMARK SMILES IDX 18 1 17 2 16 3 15 4 13 5 14 6 12 8 7 9 8 10 9 11 11 12 10 13
REMARK SMILES IDX 6 14 1 15 2 16 3 17 86 18 4 19 5 20 19 21 20 22 21 23 22 25
REMARK SMILES IDX 23 26 24 27 85 28 25 29 84 30 26 31 27 32 28 33 78 34 29 35
REMARK SMILES IDX 83 36 77 37 79 38 30 39 82 40 76 41 75 42 31 44 63 45 43 46
REMARK SMILES IDX 62 47 44 48 47 49 61 50 80 51 45 52 46 53 60 55 81 56 48 57
REMARK SMILES IDX 32 58 33 59 41 60 34 61 35 62 39 63 42 64 36 65 37 66 40 67
REMARK SMILES IDX 38 68 64 69 65 70 73 71 66 72 67 73 71 74 74 75 68 76 69 77
REMARK SMILES IDX 72 78 70 79 49 80 50 81 58 82 51 83 52 84 56 85 59 86 53 87
REMARK SMILES IDX 54 88 57 89 55 90
REMARK H PARENT 15 7 20 24 79 43 47 54
REMARK Flexibility Score: inf
ROOT
ATOM      1  C   UNL A   1      32.953  30.014  26.293  1.00  0.00     0.023 C 
ENDROOT
BRANCH   1   2
ATOM      2  C   UNL A   1      31.778  29.510  27.123  1.00  0.00     0.023 C 
BRANCH   2   3
ATOM      3  C   UNL A   1      31.778  28.045  27.545  1.00  0.00     0.116 C 
BRANCH   3   4
ATOM      4  N   UNL A   1      30.826  27.145  26.942  1.00  0.00    -0.351 N 
ATOM      5  C   UNL A   1      30.870  26.578  25.673  1.00  0.00     0.270 C 
ATOM      6  O   UNL A   1      30.106  25.631  25.462  1.00  0.00    -0.267 OA
ATOM      7  H   UNL A   1      30.050  26.902  27.497  1.00  0.00     0.163 HD
BRANCH   5   8
ATOM      8  C   UNL A   1      31.726  27.098  24.531  1.00  0.00     0.135 A 
ATOM      9  C   UNL A   1      31.355  28.084  23.594  1.00  0.00     0.013 A 
ATOM     10  C   UNL A   1      32.324  28.451  22.640  1.00  0.00     0.013 A 
ATOM     11  C   UNL A   1      33.594  27.886  22.655  1.00  0.00     0.021 A 
ATOM     12  N   UNL A   1      32.978  26.543  24.550  1.00  0.00    -0.250 NA
ATOM     13  C   UNL A   1      33.874  26.952  23.630  1.00  0.00     0.112 A 
BRANCH   9  14
ATOM     14  C   UNL A   1      30.045  28.738  23.540  1.00  0.00    -0.016 A 
ATOM     15  C   UNL A   1      28.738  32.327  23.499  1.00  0.00     0.044 C 
ATOM     16  C   UNL A   1      28.762  30.826  23.474  1.00  0.00    -0.051 A 
ATOM     17  C   UNL A   1      27.653  30.111  23.011  1.00  0.00     0.003 A 
ATOM     18  C   UNL A   1      29.938  30.126  23.777  1.00  0.00     0.012 A 
ATOM     19  C   UNL A   1      27.728  28.725  22.855  1.00  0.00     0.001 A 
ATOM     20  C   UNL A   1      28.909  28.039  23.126  1.00  0.00     0.009 A 
ENDBRANCH   9  14
ENDBRANCH   5   8
ENDBRANCH   3   4
ENDBRANCH   2   3
ENDBRANCH   1   2
BRANCH   1  21
ATOM     21  C   UNL A   1      34.351  29.866  26.878  1.00  0.00     0.116 C 
BRANCH  21  22
ATOM     22  N   UNL A   1      35.017  31.057  27.373  1.00  0.00    -0.352 N 
ATOM     23  C   UNL A   1      36.208  31.183  28.085  1.00  0.00     0.251 C 
ATOM     24  H   UNL A   1      34.558  31.906  27.173  1.00  0.00     0.163 HD
ATOM     25  O   UNL A   1      36.540  32.288  28.481  1.00  0.00    -0.269 OA
BRANCH  23  26
ATOM     26  C   UNL A   1      37.144  30.029  28.289  1.00  0.00     0.039 A 
ATOM     27  C   UNL A   1      37.103  29.318  29.507  1.00  0.00     0.014 A 
ATOM     28  C   UNL A   1      38.135  29.703  27.376  1.00  0.00     0.014 A 
ATOM     29  C   UNL A   1      38.146  28.453  29.864  1.00  0.00     0.010 A 
ATOM     30  C   UNL A   1      39.217  28.955  27.761  1.00  0.00     0.010 A 
ATOM     31  C   UNL A   1      39.242  28.356  29.017  1.00  0.00    -0.014 A 
BRANCH  31  32
ATOM     32  C   UNL A   1      40.535  27.773  29.326  1.00  0.00     0.031 A 
ATOM     33  C   UNL A   1      40.949  26.492  28.729  1.00  0.00     0.074 A 
ATOM     34  C   UNL A   1      41.459  28.629  29.809  1.00  0.00     0.049 A 
ATOM     35  N   UNL A   1      42.019  25.862  29.067  1.00  0.00    -0.248 NA
ATOM     36  C   UNL A   1      40.184  25.809  27.693  1.00  0.00     0.031 C 
ATOM     37  C   UNL A   1      42.910  28.581  29.664  1.00  0.00     0.029 A 
ATOM     38  N   UNL A   1      41.237  29.707  30.652  1.00  0.00    -0.354 N 
ATOM     39  C   UNL A   1      42.249  24.891  28.120  1.00  0.00     0.074 A 
ATOM     40  C   UNL A   1      41.040  24.848  27.330  1.00  0.00     0.031 C 
ATOM     41  C   UNL A   1      43.466  29.435  30.541  1.00  0.00     0.029 A 
ATOM     42  C   UNL A   1      42.400  29.923  31.400  1.00  0.00     0.049 A 
ATOM     43  H   UNL A   1      40.405  30.230  30.715  1.00  0.00     0.167 HD
ATOM     44  C   UNL A   1      43.496  24.340  28.039  1.00  0.00     0.037 A 
ATOM     45  C   UNL A   1      42.355  29.737  32.752  1.00  0.00     0.037 A 
ATOM     46  C   UNL A   1      44.388  24.933  29.039  1.00  0.00     0.049 A 
ATOM     47  C   UNL A   1      43.193  28.569  33.219  1.00  0.00     0.074 A 
ATOM     48  C   UNL A   1      45.372  25.905  28.960  1.00  0.00     0.029 A 
ATOM     49  N   UNL A   1      44.107  24.773  30.392  1.00  0.00    -0.354 N 
ATOM     50  N   UNL A   1      43.590  27.588  32.454  1.00  0.00    -0.248 NA
ATOM     51  C   UNL A   1      43.656  28.426  34.592  1.00  0.00     0.031 C 
ATOM     52  C   UNL A   1      45.688  26.323  30.278  1.00  0.00     0.029 A 
ATOM     53  C   UNL A   1      44.903  25.600  31.160  1.00  0.00     0.049 A 
ATOM     54  H   UNL A   1      43.432  24.153  30.754  1.00  0.00     0.167 HD
ATOM     55  C   UNL A   1      44.335  26.696  33.187  1.00  0.00     0.074 A 
ATOM     56  C   UNL A   1      44.363  27.285  34.513  1.00  0.00     0.031 C 
ATOM     57  C   UNL A   1      44.845  25.559  32.618  1.00  0.00     0.037 A 
BRANCH  44  58
ATOM     58  C   UNL A   1      43.990  23.472  26.899  1.00  0.00     0.064 A 
ATOM     59  C   UNL A   1      43.485  22.164  26.709  1.00  0.00     0.173 A 
ATOM     60  C   UNL A   1      44.972  23.855  25.966  1.00  0.00     0.173 A 
ATOM     61  F   UNL A   1      42.467  21.691  27.438  1.00  0.00    -0.203 F 
ATOM     62  C   UNL A   1      44.001  21.286  25.751  1.00  0.00     0.198 A 
ATOM     63  C   UNL A   1      45.524  22.961  25.041  1.00  0.00     0.198 A 
ATOM     64  F   UNL A   1      45.385  25.123  25.869  1.00  0.00    -0.203 F 
ATOM     65  F   UNL A   1      43.478  20.057  25.626  1.00  0.00    -0.200 F 
ATOM     66  C   UNL A   1      45.045  21.672  24.940  1.00  0.00     0.200 A 
ATOM     67  F   UNL A   1      46.521  23.366  24.239  1.00  0.00    -0.200 F 
ATOM     68  F   UNL A   1      45.563  20.820  24.046  1.00  0.00    -0.200 F 
ENDBRANCH  44  58
BRANCH  45  69
ATOM     69  C   UNL A   1      41.030  30.131  33.320  1.00  0.00     0.064 A 
ATOM     70  C   UNL A   1      40.744  31.509  33.407  1.00  0.00     0.173 A 
ATOM     71  C   UNL A   1      39.942  29.244  33.294  1.00  0.00     0.173 A 
ATOM     72  F   UNL A   1      41.748  32.400  33.419  1.00  0.00    -0.203 F 
ATOM     73  C   UNL A   1      39.436  31.984  33.326  1.00  0.00     0.198 A 
ATOM     74  C   UNL A   1      38.633  29.726  33.224  1.00  0.00     0.198 A 
ATOM     75  F   UNL A   1      40.147  27.924  33.185  1.00  0.00    -0.203 F 
ATOM     76  F   UNL A   1      39.203  33.302  33.271  1.00  0.00    -0.200 F 
ATOM     77  C   UNL A   1      38.384  31.092  33.198  1.00  0.00     0.200 A 
ATOM     78  F   UNL A   1      37.614  28.868  33.069  1.00  0.00    -0.200 F 
ATOM     79  F   UNL A   1      37.139  31.546  32.997  1.00  0.00    -0.200 F 
ENDBRANCH  45  69
BRANCH  57  80
ATOM     80  C   UNL A   1      45.423  24.332  33.319  1.00  0.00     0.064 A 
ATOM     81  C   UNL A   1      46.733  24.223  33.815  1.00  0.00     0.173 A 
ATOM     82  C   UNL A   1      44.589  23.220  33.631  1.00  0.00     0.173 A 
ATOM     83  F   UNL A   1      47.615  25.220  33.715  1.00  0.00    -0.203 F 
ATOM     84  C   UNL A   1      47.184  23.089  34.505  1.00  0.00     0.198 A 
ATOM     85  C   UNL A   1      45.022  22.126  34.380  1.00  0.00     0.198 A 
ATOM     86  F   UNL A   1      43.305  23.161  33.251  1.00  0.00    -0.203 F 
ATOM     87  F   UNL A   1      48.461  23.032  34.910  1.00  0.00    -0.200 F 
ATOM     88  C   UNL A   1      46.327  22.051  34.802  1.00  0.00     0.200 A 
ATOM     89  F   UNL A   1      44.153  21.156  34.703  1.00  0.00    -0.200 F 
ATOM     90  F   UNL A   1      46.752  20.996  35.510  1.00  0.00    -0.200 F 
ENDBRANCH  57  80
ENDBRANCH  31  32
ENDBRANCH  23  26
ENDBRANCH  21  22
ENDBRANCH   1  21
TORSDOF 12
ENDMDL
MODEL 2
REMARK VINA RESULT:     -13.4      0.900      1.539
REMARK SMILES Cc1cccc(-c2cccnc2C(=O)NCCCCNC(=O)c2ccc(-c3c4nc(c(-c5c(F)c(F)c(F)c(F)c5F)c5ccc([nH]5)c(-c5c(F)c(F)c(F)c(F)c5F)c5nc(c(-c6c(F)c(F)c(F)c(F)c6F)c6ccc3[nH]6)C=C5)C=C4)cc2)c1
REMARK SMILES IDX 18 1 17 2 16 3 15 4 13 5 14 6 12 8 7 9 8 10 9 11 11 12 10 13
REMARK SMILES IDX 6 14 1 15 2 16 3 17 86 18 4 19 5 20 19 21 20 22 21 23 22 25
REMARK SMILES IDX 23 26 24 27 85 28 25 29 84 30 26 31 27 32 28 33 78 34 29 35
REMARK SMILES IDX 83 36 77 37 79 38 30 39 82 40 76 41 75 42 31 44 63 45 43 46
REMARK SMILES IDX 62 47 44 48 47 49 61 50 80 51 45 52 46 53 60 55 81 56 48 57
REMARK SMILES IDX 32 58 33 59 41 60 34 61 35 62 39 63 42 64 36 65 37 66 40 67
REMARK SMILES IDX 38 68 64 69 65 70 73 71 66 72 67 73 71 74 74 75 68 76 69 77
REMARK SMILES IDX 72 78 70 79 49 80 50 81 58 82 51 83 52 84 56 85 59 86 53 87
REMARK SMILES IDX 54 88 57 89 55 90
REMARK H PARENT 15 7 20 24 79 43 47 54
REMARK Flexibility Score: inf
ROOT
ATOM      1  C   UNL A   1      32.496  30.067  26.806  1.00  0.00     0.023 C 
ENDROOT
BRANCH   1   2
ATOM      2  C   UNL A   1      31.725  28.856  27.317  1.00  0.00     0.023 C 
BRANCH   2   3
ATOM      3  C   UNL A   1      32.027  27.500  26.690  1.00  0.00     0.116 C 
BRANCH   3   4
ATOM      4  N   UNL A   1      31.088  26.421  26.876  1.00  0.00    -0.351 N 
ATOM      5  C   UNL A   1      30.950  25.266  26.114  1.00  0.00     0.270 C 
ATOM      6  O   UNL A   1      30.277  24.354  26.604  1.00  0.00    -0.267 OA
ATOM      7  H   UNL A   1      30.470  26.512  27.636  1.00  0.00     0.163 HD
BRANCH   5   8
ATOM      8  C   UNL A   1      31.500  25.096  24.707  1.00  0.00     0.135 A 
ATOM      9  C   UNL A   1      31.098  25.817  23.564  1.00  0.00     0.013 A 
ATOM     10  C   UNL A   1      31.774  25.531  22.362  1.00  0.00     0.013 A 
ATOM     11  C   UNL A   1      32.811  24.605  22.326  1.00  0.00     0.021 A 
ATOM     12  N   UNL A   1      32.524  24.187  24.675  1.00  0.00    -0.250 NA
ATOM     13  C   UNL A   1      33.153  23.972  23.502  1.00  0.00     0.112 A 
BRANCH   9  14
ATOM     14  C   UNL A   1      30.035  26.824  23.538  1.00  0.00    -0.016 A 
ATOM     15  C   UNL A   1      29.528  30.284  22.001  1.00  0.00     0.044 C 
ATOM     16  C   UNL A   1      29.258  29.013  22.753  1.00  0.00    -0.051 A 
ATOM     17  C   UNL A   1      27.945  28.635  23.051  1.00  0.00     0.003 A 
ATOM     18  C   UNL A   1      30.298  28.119  23.040  1.00  0.00     0.012 A 
ATOM     19  C   UNL A   1      27.686  27.388  23.623  1.00  0.00     0.001 A 
ATOM     20  C   UNL A   1      28.721  26.491  23.876  1.00  0.00     0.009 A 
ENDBRANCH   9  14
ENDBRANCH   5   8
ENDBRANCH   3   4
ENDBRANCH   2   3
ENDBRANCH   1   2
BRANCH   1  21
ATOM     21  C   UNL A   1      34.017  30.021  26.876  1.00  0.00     0.116 C 
BRANCH  21  22
ATOM     22  N   UNL A   1      34.719  31.209  27.324  1.00  0.00    -0.352 N 
ATOM     23  C   UNL A   1      35.926  31.327  28.011  1.00  0.00     0.251 C 
ATOM     24  H   UNL A   1      34.276  32.063  27.109  1.00  0.00     0.163 HD
ATOM     25  O   UNL A   1      36.290  32.435  28.369  1.00  0.00    -0.269 OA
BRANCH  23  26
ATOM     26  C   UNL A   1      36.839  30.158  28.230  1.00  0.00     0.039 A 
ATOM     27  C   UNL A   1      36.779  29.459  29.455  1.00  0.00     0.014 A 
ATOM     28  C   UNL A   1      37.828  29.805  27.325  1.00  0.00     0.014 A 
ATOM     29  C   UNL A   1      37.803  28.578  29.825  1.00  0.00     0.010 A 
ATOM     30  C   UNL A   1      38.894  29.040  27.722  1.00  0.00     0.010 A 
ATOM     31  C   UNL A   1      38.902  28.453  28.984  1.00  0.00    -0.014 A 
BRANCH  31  32
ATOM     32  C   UNL A   1      40.182  27.848  29.305  1.00  0.00     0.031 A 
ATOM     33  C   UNL A   1      40.555  26.532  28.760  1.00  0.00     0.074 A 
ATOM     34  C   UNL A   1      41.134  28.699  29.741  1.00  0.00     0.049 A 
ATOM     35  N   UNL A   1      41.611  25.889  29.114  1.00  0.00    -0.248 NA
ATOM     36  C   UNL A   1      39.760  25.826  27.763  1.00  0.00     0.031 C 
ATOM     37  C   UNL A   1      42.581  28.605  29.583  1.00  0.00     0.029 A 
ATOM     38  N   UNL A   1      40.951  29.818  30.539  1.00  0.00    -0.354 N 
ATOM     39  C   UNL A   1      41.805  24.872  28.208  1.00  0.00     0.074 A 
ATOM     40  C   UNL A   1      40.586  24.828  27.433  1.00  0.00     0.031 C 
ATOM     41  C   UNL A   1      43.170  29.481  30.417  1.00  0.00     0.029 A 
ATOM     42  C   UNL A   1      42.128  30.035  31.264  1.00  0.00     0.049 A 
ATOM     43  H   UNL A   1      40.134  30.366  30.587  1.00  0.00     0.167 HD
ATOM     44  C   UNL A   1      43.035  24.284  28.139  1.00  0.00     0.037 A 
ATOM     45  C   UNL A   1      42.093  29.909  32.624  1.00  0.00     0.037 A 
ATOM     46  C   UNL A   1      43.954  24.895  29.102  1.00  0.00     0.049 A 
ATOM     47  C   UNL A   1      42.905  28.739  33.132  1.00  0.00     0.074 A 
ATOM     48  C   UNL A   1      44.963  25.835  28.971  1.00  0.00     0.029 A 
ATOM     49  N   UNL A   1      43.685  24.801  30.464  1.00  0.00    -0.354 N 
ATOM     50  N   UNL A   1      43.266  27.716  32.407  1.00  0.00    -0.248 NA
ATOM     51  C   UNL A   1      43.379  28.643  34.505  1.00  0.00     0.031 C 
ATOM     52  C   UNL A   1      45.304  26.301  30.267  1.00  0.00     0.029 A 
ATOM     53  C   UNL A   1      44.511  25.639  31.187  1.00  0.00     0.049 A 
ATOM     54  H   UNL A   1      42.997  24.216  30.859  1.00  0.00     0.167 HD
ATOM     55  C   UNL A   1      43.996  26.837  33.170  1.00  0.00     0.074 A 
ATOM     56  C   UNL A   1      44.054  27.481  34.469  1.00  0.00     0.031 C 
ATOM     57  C   UNL A   1      44.468  25.662  32.646  1.00  0.00     0.037 A 
BRANCH  44  58
ATOM     58  C   UNL A   1      43.493  23.354  27.032  1.00  0.00     0.064 A 
ATOM     59  C   UNL A   1      43.028  22.020  26.965  1.00  0.00     0.173 A 
ATOM     60  C   UNL A   1      44.401  23.703  26.015  1.00  0.00     0.173 A 
ATOM     61  F   UNL A   1      42.075  21.565  27.788  1.00  0.00    -0.203 F 
ATOM     62  C   UNL A   1      43.519  21.094  26.040  1.00  0.00     0.198 A 
ATOM     63  C   UNL A   1      44.931  22.765  25.120  1.00  0.00     0.198 A 
ATOM     64  F   UNL A   1      44.757  24.975  25.804  1.00  0.00    -0.203 F 
ATOM     65  F   UNL A   1      43.037  19.842  26.033  1.00  0.00    -0.200 F 
ATOM     66  C   UNL A   1      44.496  21.457  25.139  1.00  0.00     0.200 A 
ATOM     67  F   UNL A   1      45.860  23.146  24.231  1.00  0.00    -0.200 F 
ATOM     68  F   UNL A   1      44.993  20.561  24.276  1.00  0.00    -0.200 F 
ENDBRANCH  44  58
BRANCH  45  69
ATOM     69  C   UNL A   1      40.786  30.362  33.187  1.00  0.00     0.064 A 
ATOM     70  C   UNL A   1      40.522  31.748  33.183  1.00  0.00     0.173 A 
ATOM     71  C   UNL A   1      39.685  29.494  33.244  1.00  0.00     0.173 A 
ATOM     72  F   UNL A   1      41.540  32.621  33.114  1.00  0.00    -0.203 F 
ATOM     73  C   UNL A   1      39.220  32.237  33.093  1.00  0.00     0.198 A 
ATOM     74  C   UNL A   1      38.382  29.991  33.165  1.00  0.00     0.198 A 
ATOM     75  F   UNL A   1      39.868  28.167  33.224  1.00  0.00    -0.203 F 
ATOM     76  F   UNL A   1      39.006  33.552  32.950  1.00  0.00    -0.200 F 
ATOM     77  C   UNL A   1      38.152  31.355  33.048  1.00  0.00     0.200 A 
ATOM     78  F   UNL A   1      37.347  29.141  33.090  1.00  0.00    -0.200 F 
ATOM     79  F   UNL A   1      36.911  31.815  32.839  1.00  0.00    -0.200 F 
ENDBRANCH  45  69
BRANCH  57  80
ATOM     80  C   UNL A   1      45.021  24.451  33.394  1.00  0.00     0.064 A 
ATOM     81  C   UNL A   1      44.314  23.265  33.654  1.00  0.00     0.173 A 
ATOM     82  C   UNL A   1      46.391  24.407  33.781  1.00  0.00     0.173 A 
ATOM     83  F   UNL A   1      43.052  23.089  33.253  1.00  0.00    -0.203 F 
ATOM     84  C   UNL A   1      44.900  22.164  34.292  1.00  0.00     0.198 A 
ATOM     85  C   UNL A   1      46.988  23.283  34.352  1.00  0.00     0.198 A 
ATOM     86  F   UNL A   1      47.221  25.443  33.594  1.00  0.00    -0.203 F 
ATOM     87  F   UNL A   1      44.153  21.081  34.552  1.00  0.00    -0.200 F 
ATOM     88  C   UNL A   1      46.237  22.166  34.625  1.00  0.00     0.200 A 
ATOM     89  F   UNL A   1      48.304  23.291  34.613  1.00  0.00    -0.200 F 
ATOM     90  F   UNL A   1      46.804  21.089  35.185  1.00  0.00    -0.200 F 
ENDBRANCH  57  80
ENDBRANCH  31  32
ENDBRANCH  23  26
ENDBRANCH  21  22
ENDBRANCH   1  21
TORSDOF 12
ENDMDL
MODEL 3
REMARK VINA RESULT:     -13.3      2.070      3.269
REMARK SMILES Cc1cccc(-c2cccnc2C(=O)NCCCCNC(=O)c2ccc(-c3c4nc(c(-c5c(F)c(F)c(F)c(F)c5F)c5ccc([nH]5)c(-c5c(F)c(F)c(F)c(F)c5F)c5nc(c(-c6c(F)c(F)c(F)c(F)c6F)c6ccc3[nH]6)C=C5)C=C4)cc2)c1
REMARK SMILES IDX 18 1 17 2 16 3 15 4 13 5 14 6 12 8 7 9 8 10 9 11 11 12 10 13
REMARK SMILES IDX 6 14 1 15 2 16 3 17 86 18 4 19 5 20 19 21 20 22 21 23 22 25
REMARK SMILES IDX 23 26 24 27 85 28 25 29 84 30 26 31 27 32 28 33 78 34 29 35
REMARK SMILES IDX 83 36 77 37 79 38 30 39 82 40 76 41 75 42 31 44 63 45 43 46
REMARK SMILES IDX 62 47 44 48 47 49 61 50 80 51 45 52 46 53 60 55 81 56 48 57
REMARK SMILES IDX 32 58 33 59 41 60 34 61 35 62 39 63 42 64 36 65 37 66 40 67
REMARK SMILES IDX 38 68 64 69 65 70 73 71 66 72 67 73 71 74 74 75 68 76 69 77
REMARK SMILES IDX 72 78 70 79 49 80 50 81 58 82 51 83 52 84 56 85 59 86 53 87
REMARK SMILES IDX 54 88 57 89 55 90
REMARK H PARENT 15 7 20 24 79 43 47 54
REMARK Flexibility Score: inf
ROOT
ATOM      1  C   UNL A   1      33.163  29.950  26.496  1.00  0.00     0.023 C 
ENDROOT
BRANCH   1   2
ATOM      2  C   UNL A   1      31.821  29.480  27.043  1.00  0.00     0.023 C 
BRANCH   2   3
ATOM      3  C   UNL A   1      31.739  28.073  27.624  1.00  0.00     0.116 C 
BRANCH   3   4
ATOM      4  N   UNL A   1      30.798  27.139  27.057  1.00  0.00    -0.351 N 
ATOM      5  C   UNL A   1      30.849  26.522  25.811  1.00  0.00     0.270 C 
ATOM      6  O   UNL A   1      30.097  25.558  25.638  1.00  0.00    -0.267 OA
ATOM      7  H   UNL A   1      30.025  26.908  27.621  1.00  0.00     0.163 HD
BRANCH   5   8
ATOM      8  C   UNL A   1      31.698  27.007  24.649  1.00  0.00     0.135 A 
ATOM      9  C   UNL A   1      31.323  27.967  23.687  1.00  0.00     0.013 A 
ATOM     10  C   UNL A   1      32.286  28.304  22.716  1.00  0.00     0.013 A 
ATOM     11  C   UNL A   1      33.556  27.738  22.739  1.00  0.00     0.021 A 
ATOM     12  N   UNL A   1      32.950  26.451  24.676  1.00  0.00    -0.250 NA
ATOM     13  C   UNL A   1      33.841  26.832  23.739  1.00  0.00     0.112 A 
BRANCH   9  14
ATOM     14  C   UNL A   1      30.014  28.622  23.622  1.00  0.00    -0.016 A 
ATOM     15  C   UNL A   1      28.716  32.206  23.390  1.00  0.00     0.044 C 
ATOM     16  C   UNL A   1      28.735  30.706  23.457  1.00  0.00    -0.051 A 
ATOM     17  C   UNL A   1      27.614  29.969  23.064  1.00  0.00     0.003 A 
ATOM     18  C   UNL A   1      29.915  30.022  23.776  1.00  0.00     0.012 A 
ATOM     19  C   UNL A   1      27.682  28.576  22.991  1.00  0.00     0.001 A 
ATOM     20  C   UNL A   1      28.867  27.903  23.277  1.00  0.00     0.009 A 
ENDBRANCH   9  14
ENDBRANCH   5   8
ENDBRANCH   3   4
ENDBRANCH   2   3
ENDBRANCH   1   2
BRANCH   1  21
ATOM     21  C   UNL A   1      34.066  30.753  27.423  1.00  0.00     0.116 C 
BRANCH  21  22
ATOM     22  N   UNL A   1      33.630  32.078  27.827  1.00  0.00    -0.352 N 
ATOM     23  C   UNL A   1      34.207  32.971  28.727  1.00  0.00     0.251 C 
ATOM     24  H   UNL A   1      32.801  32.394  27.398  1.00  0.00     0.163 HD
ATOM     25  O   UNL A   1      33.616  34.007  28.984  1.00  0.00    -0.269 OA
BRANCH  23  26
ATOM     26  C   UNL A   1      35.573  32.753  29.306  1.00  0.00     0.039 A 
ATOM     27  C   UNL A   1      36.699  33.246  28.613  1.00  0.00     0.014 A 
ATOM     28  C   UNL A   1      35.789  31.980  30.437  1.00  0.00     0.014 A 
ATOM     29  C   UNL A   1      37.988  32.806  28.941  1.00  0.00     0.010 A 
ATOM     30  C   UNL A   1      37.027  31.450  30.691  1.00  0.00     0.010 A 
ATOM     31  C   UNL A   1      38.123  31.834  29.924  1.00  0.00    -0.014 A 
BRANCH  31  32
ATOM     32  C   UNL A   1      39.301  31.033  30.204  1.00  0.00     0.031 A 
ATOM     33  C   UNL A   1      39.490  29.718  29.571  1.00  0.00     0.074 A 
ATOM     34  C   UNL A   1      40.360  31.709  30.700  1.00  0.00     0.049 A 
ATOM     35  N   UNL A   1      40.440  28.908  29.882  1.00  0.00    -0.248 NA
ATOM     36  C   UNL A   1      38.614  29.201  28.527  1.00  0.00     0.031 C 
ATOM     37  C   UNL A   1      41.780  31.421  30.538  1.00  0.00     0.029 A 
ATOM     38  N   UNL A   1      40.328  32.786  31.572  1.00  0.00    -0.354 N 
ATOM     39  C   UNL A   1      40.498  27.938  28.908  1.00  0.00     0.074 A 
ATOM     40  C   UNL A   1      39.294  28.120  28.131  1.00  0.00     0.031 C 
ATOM     41  C   UNL A   1      42.478  32.146  31.430  1.00  0.00     0.029 A 
ATOM     42  C   UNL A   1      41.516  32.783  32.312  1.00  0.00     0.049 A 
ATOM     43  H   UNL A   1      39.596  33.440  31.656  1.00  0.00     0.167 HD
ATOM     44  C   UNL A   1      41.633  27.187  28.801  1.00  0.00     0.037 A 
ATOM     45  C   UNL A   1      41.448  32.572  33.660  1.00  0.00     0.037 A 
ATOM     46  C   UNL A   1      42.618  27.594  29.805  1.00  0.00     0.049 A 
ATOM     47  C   UNL A   1      42.080  31.267  34.088  1.00  0.00     0.074 A 
ATOM     48  C   UNL A   1      43.752  28.388  29.741  1.00  0.00     0.029 A 
ATOM     49  N   UNL A   1      42.323  27.448  31.156  1.00  0.00    -0.354 N 
ATOM     50  N   UNL A   1      42.301  30.254  33.295  1.00  0.00    -0.248 NA
ATOM     51  C   UNL A   1      42.521  31.012  35.452  1.00  0.00     0.031 C 
ATOM     52  C   UNL A   1      44.142  28.712  31.065  1.00  0.00     0.029 A 
ATOM     53  C   UNL A   1      43.252  28.109  31.937  1.00  0.00     0.049 A 
ATOM     54  H   UNL A   1      41.556  26.941  31.510  1.00  0.00     0.167 HD
ATOM     55  C   UNL A   1      42.890  29.230  33.997  1.00  0.00     0.074 A 
ATOM     56  C   UNL A   1      43.024  29.771  35.337  1.00  0.00     0.031 C 
ATOM     57  C   UNL A   1      43.197  28.038  33.394  1.00  0.00     0.037 A 
BRANCH  44  58
ATOM     58  C   UNL A   1      41.967  26.279  27.633  1.00  0.00     0.064 A 
ATOM     59  C   UNL A   1      41.333  25.023  27.485  1.00  0.00     0.173 A 
ATOM     60  C   UNL A   1      42.913  26.571  26.634  1.00  0.00     0.173 A 
ATOM     61  F   UNL A   1      40.328  24.644  28.285  1.00  0.00    -0.203 F 
ATOM     62  C   UNL A   1      41.699  24.102  26.499  1.00  0.00     0.198 A 
ATOM     63  C   UNL A   1      43.317  25.632  25.677  1.00  0.00     0.198 A 
ATOM     64  F   UNL A   1      43.432  27.797  26.502  1.00  0.00    -0.203 F 
ATOM     65  F   UNL A   1      41.059  22.927  26.416  1.00  0.00    -0.200 F 
ATOM     66  C   UNL A   1      42.716  24.393  25.616  1.00  0.00     0.200 A 
ATOM     67  F   UNL A   1      44.288  25.945  24.807  1.00  0.00    -0.200 F 
ATOM     68  F   UNL A   1      43.092  23.497  24.693  1.00  0.00    -0.200 F 
ENDBRANCH  44  58
BRANCH  45  69
ATOM     69  C   UNL A   1      40.212  33.167  34.251  1.00  0.00     0.064 A 
ATOM     70  C   UNL A   1      39.201  32.279  34.676  1.00  0.00     0.173 A 
ATOM     71  C   UNL A   1      40.232  34.447  34.827  1.00  0.00     0.173 A 
ATOM     72  F   UNL A   1      39.148  31.038  34.167  1.00  0.00    -0.203 F 
ATOM     73  C   UNL A   1      38.345  32.605  35.727  1.00  0.00     0.198 A 
ATOM     74  C   UNL A   1      39.364  34.771  35.872  1.00  0.00     0.198 A 
ATOM     75  F   UNL A   1      41.183  35.328  34.486  1.00  0.00    -0.203 F 
ATOM     76  F   UNL A   1      37.488  31.690  36.201  1.00  0.00    -0.200 F 
ATOM     77  C   UNL A   1      38.452  33.838  36.347  1.00  0.00     0.200 A 
ATOM     78  F   UNL A   1      39.484  35.952  36.497  1.00  0.00    -0.200 F 
ATOM     79  F   UNL A   1      37.716  34.108  37.435  1.00  0.00    -0.200 F 
ENDBRANCH  45  69
BRANCH  57  80
ATOM     80  C   UNL A   1      43.564  26.714  34.057  1.00  0.00     0.064 A 
ATOM     81  C   UNL A   1      44.865  26.194  34.166  1.00  0.00     0.173 A 
ATOM     82  C   UNL A   1      42.575  25.952  34.743  1.00  0.00     0.173 A 
ATOM     83  F   UNL A   1      45.930  26.839  33.684  1.00  0.00    -0.203 F 
ATOM     84  C   UNL A   1      45.143  24.999  34.844  1.00  0.00     0.198 A 
ATOM     85  C   UNL A   1      42.867  24.801  35.475  1.00  0.00     0.198 A 
ATOM     86  F   UNL A   1      41.283  26.308  34.759  1.00  0.00    -0.203 F 
ATOM     87  F   UNL A   1      46.401  24.535  34.868  1.00  0.00    -0.200 F 
ATOM     88  C   UNL A   1      44.151  24.313  35.510  1.00  0.00     0.200 A 
ATOM     89  F   UNL A   1      41.893  24.186  36.162  1.00  0.00    -0.200 F 
ATOM     90  F   UNL A   1      44.434  23.201  36.202  1.00  0.00    -0.200 F 
ENDBRANCH  57  80
ENDBRANCH  31  32
ENDBRANCH  23  26
ENDBRANCH  21  22
ENDBRANCH   1  21
TORSDOF 12
ENDMDL
