MODEL 1
REMARK VINA RESULT:     -12.5      0.000      0.000
REMARK SMILES Cc1nc(-c2ccco2)nc(S)c1C(=O)NCCCCNC(=O)c1ccc(-c2c3nc(c(-c4c(F)c(F)c(F)c(F)c4F)c4ccc([nH]4)c(-c4c(F)c(F)c(F)c(F)c4F)c4nc(c(-c5c(F)c(F)c(F)c(F)c5F)c5ccc2[nH]5)C=C4)C=C3)cc1
REMARK SMILES IDX 19 1 18 2 17 3 16 4 14 5 15 6 13 8 1 9 2 10 3 11 4 12 11 13
REMARK SMILES IDX 10 14 5 15 6 16 9 17 7 18 8 19 12 20 20 22 21 23 22 24 23 26
REMARK SMILES IDX 24 27 25 28 86 29 26 30 85 31 27 32 28 33 29 34 79 35 30 36
REMARK SMILES IDX 84 37 78 38 80 39 31 40 83 41 77 42 76 43 32 45 64 46 44 47
REMARK SMILES IDX 63 48 45 49 48 50 62 51 81 52 46 53 47 54 61 56 82 57 49 58
REMARK SMILES IDX 33 59 34 60 42 61 35 62 36 63 40 64 43 65 37 66 38 67 41 68
REMARK SMILES IDX 39 69 65 70 66 71 74 72 67 73 68 74 72 75 75 76 69 77 70 78
REMARK SMILES IDX 73 79 71 80 50 81 51 82 59 83 52 84 53 85 57 86 60 87 54 88
REMARK SMILES IDX 55 89 58 90 56 91
REMARK H PARENT 16 7 12 21 21 25 80 44 48 55
REMARK Flexibility Score: inf
ROOT
ATOM      1  C   UNL A   1      31.783  29.076  27.193  1.00  0.00     0.023 C 
ENDROOT
BRANCH   1   2
ATOM      2  C   UNL A   1      32.400  27.677  27.243  1.00  0.00     0.023 C 
BRANCH   2   3
ATOM      3  C   UNL A   1      33.642  27.449  26.387  1.00  0.00     0.116 C 
BRANCH   3   4
ATOM      4  N   UNL A   1      33.546  26.337  25.460  1.00  0.00    -0.352 N 
ATOM      5  C   UNL A   1      32.924  26.266  24.236  1.00  0.00     0.255 C 
ATOM      6  O   UNL A   1      33.079  25.262  23.544  1.00  0.00    -0.269 OA
ATOM      7  H   UNL A   1      33.996  25.510  25.750  1.00  0.00     0.163 HD
BRANCH   5   8
ATOM      8  C   UNL A   1      32.034  27.333  23.748  1.00  0.00     0.093 A 
ATOM      9  C   UNL A   1      33.861  28.585  22.479  1.00  0.00     0.068 C 
ATOM     10  C   UNL A   1      32.453  28.376  22.937  1.00  0.00     0.055 A 
ATOM     11  N   UNL A   1      31.597  29.325  22.493  1.00  0.00    -0.230 NA
ATOM     12  C   UNL A   1      30.303  29.204  22.826  1.00  0.00     0.196 A 
ATOM     13  C   UNL A   1      30.662  27.273  23.993  1.00  0.00     0.110 A 
ATOM     14  N   UNL A   1      29.791  28.218  23.570  1.00  0.00    -0.218 NA
BRANCH  12  15
ATOM     15  C   UNL A   1      29.396  30.244  22.371  1.00  0.00     0.171 A 
ATOM     16  C   UNL A   1      28.908  31.408  22.932  1.00  0.00     0.054 A 
ATOM     17  O   UNL A   1      28.874  30.094  21.113  1.00  0.00    -0.461 OA
ATOM     18  C   UNL A   1      28.064  32.006  21.963  1.00  0.00     0.043 A 
ATOM     19  C   UNL A   1      28.066  31.159  20.880  1.00  0.00     0.196 A 
ENDBRANCH  12  15
BRANCH  13  20
ATOM     20  S   UNL A   1      29.874  25.963  24.923  1.00  0.00    -0.123 SA
ATOM     21  H   UNL A   1      30.588  24.814  24.782  1.00  0.00     0.110 HD
ENDBRANCH  13  20
ENDBRANCH   5   8
ENDBRANCH   3   4
ENDBRANCH   2   3
ENDBRANCH   1   2
BRANCH   1  22
ATOM     22  C   UNL A   1      32.482  30.110  26.315  1.00  0.00     0.116 C 
BRANCH  22  23
ATOM     23  N   UNL A   1      32.389  31.479  26.803  1.00  0.00    -0.352 N 
ATOM     24  C   UNL A   1      33.301  32.258  27.480  1.00  0.00     0.251 C 
ATOM     25  H   UNL A   1      31.530  31.921  26.618  1.00  0.00     0.163 HD
ATOM     26  O   UNL A   1      32.985  33.388  27.844  1.00  0.00    -0.269 OA
BRANCH  24  27
ATOM     27  C   UNL A   1      34.635  31.725  27.831  1.00  0.00     0.039 A 
ATOM     28  C   UNL A   1      34.824  30.372  28.108  1.00  0.00     0.014 A 
ATOM     29  C   UNL A   1      35.712  32.611  27.931  1.00  0.00     0.014 A 
ATOM     30  C   UNL A   1      36.004  29.956  28.718  1.00  0.00     0.010 A 
ATOM     31  C   UNL A   1      36.934  32.169  28.446  1.00  0.00     0.010 A 
ATOM     32  C   UNL A   1      37.064  30.855  28.922  1.00  0.00    -0.014 A 
BRANCH  32  33
ATOM     33  C   UNL A   1      38.263  30.415  29.686  1.00  0.00     0.031 A 
ATOM     34  C   UNL A   1      38.452  30.837  31.122  1.00  0.00     0.074 A 
ATOM     35  C   UNL A   1      39.140  29.563  29.121  1.00  0.00     0.049 A 
ATOM     36  N   UNL A   1      39.421  30.533  31.953  1.00  0.00    -0.248 NA
ATOM     37  C   UNL A   1      37.424  31.714  31.706  1.00  0.00     0.031 C 
ATOM     38  C   UNL A   1      39.057  29.059  27.750  1.00  0.00     0.029 A 
ATOM     39  N   UNL A   1      40.248  28.940  29.639  1.00  0.00    -0.354 N 
ATOM     40  C   UNL A   1      39.132  31.200  33.138  1.00  0.00     0.074 A 
ATOM     41  C   UNL A   1      37.912  31.944  32.917  1.00  0.00     0.031 C 
ATOM     42  C   UNL A   1      40.028  28.156  27.556  1.00  0.00     0.029 A 
ATOM     43  C   UNL A   1      40.843  28.065  28.764  1.00  0.00     0.049 A 
ATOM     44  H   UNL A   1      40.584  29.105  30.549  1.00  0.00     0.167 HD
ATOM     45  C   UNL A   1      39.814  31.183  34.309  1.00  0.00     0.037 A 
ATOM     46  C   UNL A   1      41.928  27.282  28.910  1.00  0.00     0.037 A 
ATOM     47  C   UNL A   1      41.007  30.411  34.545  1.00  0.00     0.049 A 
ATOM     48  C   UNL A   1      42.685  27.306  30.207  1.00  0.00     0.074 A 
ATOM     49  C   UNL A   1      41.758  30.319  35.705  1.00  0.00     0.029 A 
ATOM     50  N   UNL A   1      41.616  29.591  33.608  1.00  0.00    -0.354 N 
ATOM     51  N   UNL A   1      42.413  27.961  31.309  1.00  0.00    -0.248 NA
ATOM     52  C   UNL A   1      43.909  26.498  30.275  1.00  0.00     0.031 C 
ATOM     53  C   UNL A   1      42.840  29.469  35.458  1.00  0.00     0.029 A 
ATOM     54  C   UNL A   1      42.741  29.001  34.159  1.00  0.00     0.049 A 
ATOM     55  H   UNL A   1      41.295  29.449  32.688  1.00  0.00     0.167 HD
ATOM     56  C   UNL A   1      43.426  27.643  32.201  1.00  0.00     0.074 A 
ATOM     57  C   UNL A   1      44.307  26.717  31.521  1.00  0.00     0.031 C 
ATOM     58  C   UNL A   1      43.613  28.086  33.468  1.00  0.00     0.037 A 
BRANCH  45  59
ATOM     59  C   UNL A   1      39.297  32.027  35.436  1.00  0.00     0.064 A 
ATOM     60  C   UNL A   1      38.446  31.500  36.418  1.00  0.00     0.173 A 
ATOM     61  C   UNL A   1      39.715  33.359  35.575  1.00  0.00     0.173 A 
ATOM     62  F   UNL A   1      38.007  30.236  36.323  1.00  0.00    -0.203 F 
ATOM     63  C   UNL A   1      38.025  32.280  37.494  1.00  0.00     0.198 A 
ATOM     64  C   UNL A   1      39.312  34.129  36.663  1.00  0.00     0.198 A 
ATOM     65  F   UNL A   1      40.534  33.909  34.665  1.00  0.00    -0.203 F 
ATOM     66  F   UNL A   1      37.189  31.764  38.405  1.00  0.00    -0.200 F 
ATOM     67  C   UNL A   1      38.465  33.589  37.620  1.00  0.00     0.200 A 
ATOM     68  F   UNL A   1      39.747  35.390  36.790  1.00  0.00    -0.200 F 
ATOM     69  F   UNL A   1      38.070  34.332  38.663  1.00  0.00    -0.200 F 
ENDBRANCH  45  59
BRANCH  46  70
ATOM     70  C   UNL A   1      42.356  26.409  27.789  1.00  0.00     0.064 A 
ATOM     71  C   UNL A   1      41.778  25.147  27.600  1.00  0.00     0.173 A 
ATOM     72  C   UNL A   1      43.323  26.832  26.864  1.00  0.00     0.173 A 
ATOM     73  F   UNL A   1      40.866  24.691  28.470  1.00  0.00    -0.203 F 
ATOM     74  C   UNL A   1      42.150  24.340  26.527  1.00  0.00     0.198 A 
ATOM     75  C   UNL A   1      43.674  26.037  25.777  1.00  0.00     0.198 A 
ATOM     76  F   UNL A   1      43.903  28.033  27.003  1.00  0.00    -0.203 F 
ATOM     77  F   UNL A   1      41.600  23.127  26.380  1.00  0.00    -0.200 F 
ATOM     78  C   UNL A   1      43.090  24.790  25.610  1.00  0.00     0.200 A 
ATOM     79  F   UNL A   1      44.570  26.482  24.886  1.00  0.00    -0.200 F 
ATOM     80  F   UNL A   1      43.434  24.022  24.568  1.00  0.00    -0.200 F 
ENDBRANCH  46  70
BRANCH  58  81
ATOM     81  C   UNL A   1      44.813  27.578  34.206  1.00  0.00     0.064 A 
ATOM     82  C   UNL A   1      44.769  26.374  34.925  1.00  0.00     0.173 A 
ATOM     83  C   UNL A   1      46.033  28.268  34.149  1.00  0.00     0.173 A 
ATOM     84  F   UNL A   1      43.621  25.687  35.020  1.00  0.00    -0.203 F 
ATOM     85  C   UNL A   1      45.901  25.887  35.571  1.00  0.00     0.198 A 
ATOM     86  C   UNL A   1      47.169  27.766  34.776  1.00  0.00     0.198 A 
ATOM     87  F   UNL A   1      46.125  29.420  33.467  1.00  0.00    -0.203 F 
ATOM     88  F   UNL A   1      45.829  24.752  36.280  1.00  0.00    -0.200 F 
ATOM     89  C   UNL A   1      47.101  26.578  35.490  1.00  0.00     0.200 A 
ATOM     90  F   UNL A   1      48.330  28.429  34.688  1.00  0.00    -0.200 F 
ATOM     91  F   UNL A   1      48.192  26.102  36.104  1.00  0.00    -0.200 F 
ENDBRANCH  58  81
ENDBRANCH  32  33
ENDBRANCH  24  27
ENDBRANCH  22  23
ENDBRANCH   1  22
TORSDOF 13
ENDMDL
MODEL 2
REMARK VINA RESULT:     -12.4      0.664      2.222
REMARK SMILES Cc1nc(-c2ccco2)nc(S)c1C(=O)NCCCCNC(=O)c1ccc(-c2c3nc(c(-c4c(F)c(F)c(F)c(F)c4F)c4ccc([nH]4)c(-c4c(F)c(F)c(F)c(F)c4F)c4nc(c(-c5c(F)c(F)c(F)c(F)c5F)c5ccc2[nH]5)C=C4)C=C3)cc1
REMARK SMILES IDX 19 1 18 2 17 3 16 4 14 5 15 6 13 8 1 9 2 10 3 11 4 12 11 13
REMARK SMILES IDX 10 14 5 15 6 16 9 17 7 18 8 19 12 20 20 22 21 23 22 24 23 26
REMARK SMILES IDX 24 27 25 28 86 29 26 30 85 31 27 32 28 33 29 34 79 35 30 36
REMARK SMILES IDX 84 37 78 38 80 39 31 40 83 41 77 42 76 43 32 45 64 46 44 47
REMARK SMILES IDX 63 48 45 49 48 50 62 51 81 52 46 53 47 54 61 56 82 57 49 58
REMARK SMILES IDX 33 59 34 60 42 61 35 62 36 63 40 64 43 65 37 66 38 67 41 68
REMARK SMILES IDX 39 69 65 70 66 71 74 72 67 73 68 74 72 75 75 76 69 77 70 78
REMARK SMILES IDX 73 79 71 80 50 81 51 82 59 83 52 84 53 85 57 86 60 87 54 88
REMARK SMILES IDX 55 89 58 90 56 91
REMARK H PARENT 16 7 12 21 21 25 80 44 48 55
REMARK Flexibility Score: inf
ROOT
ATOM      1  C   UNL A   1      31.778  29.127  27.120  1.00  0.00     0.023 C 
ENDROOT
BRANCH   1   2
ATOM      2  C   UNL A   1      32.401  27.735  27.248  1.00  0.00     0.023 C 
BRANCH   2   3
ATOM      3  C   UNL A   1      33.652  27.469  26.418  1.00  0.00     0.116 C 
BRANCH   3   4
ATOM      4  N   UNL A   1      33.572  26.310  25.549  1.00  0.00    -0.352 N 
ATOM      5  C   UNL A   1      32.868  26.137  24.381  1.00  0.00     0.255 C 
ATOM      6  O   UNL A   1      33.046  25.115  23.723  1.00  0.00    -0.269 OA
ATOM      7  H   UNL A   1      34.101  25.532  25.839  1.00  0.00     0.163 HD
BRANCH   5   8
ATOM      8  C   UNL A   1      31.868  27.114  23.918  1.00  0.00     0.093 A 
ATOM      9  C   UNL A   1      29.898  25.993  25.095  1.00  0.00     0.068 C 
ATOM     10  C   UNL A   1      30.524  27.061  24.254  1.00  0.00     0.055 A 
ATOM     11  N   UNL A   1      29.642  27.991  23.823  1.00  0.00    -0.230 NA
ATOM     12  C   UNL A   1      30.116  29.008  23.089  1.00  0.00     0.196 A 
ATOM     13  C   UNL A   1      32.264  28.238  23.193  1.00  0.00     0.110 A 
ATOM     14  N   UNL A   1      31.397  29.172  22.741  1.00  0.00    -0.218 NA
BRANCH  12  15
ATOM     15  C   UNL A   1      29.157  29.986  22.604  1.00  0.00     0.171 A 
ATOM     16  C   UNL A   1      28.367  30.943  23.212  1.00  0.00     0.054 A 
ATOM     17  O   UNL A   1      28.943  30.015  21.251  1.00  0.00    -0.461 OA
ATOM     18  C   UNL A   1      27.653  31.600  22.178  1.00  0.00     0.043 A 
ATOM     19  C   UNL A   1      28.028  30.987  21.006  1.00  0.00     0.196 A 
ENDBRANCH  12  15
BRANCH  13  20
ATOM     20  S   UNL A   1      33.960  28.578  22.734  1.00  0.00    -0.123 SA
ATOM     21  H   UNL A   1      34.437  27.557  21.973  1.00  0.00     0.110 HD
ENDBRANCH  13  20
ENDBRANCH   5   8
ENDBRANCH   3   4
ENDBRANCH   2   3
ENDBRANCH   1   2
BRANCH   1  22
ATOM     22  C   UNL A   1      32.568  30.169  26.334  1.00  0.00     0.116 C 
BRANCH  22  23
ATOM     23  N   UNL A   1      32.494  31.519  26.877  1.00  0.00    -0.352 N 
ATOM     24  C   UNL A   1      33.417  32.259  27.582  1.00  0.00     0.251 C 
ATOM     25  H   UNL A   1      31.641  31.979  26.712  1.00  0.00     0.163 HD
ATOM     26  O   UNL A   1      33.117  33.377  27.992  1.00  0.00    -0.269 OA
BRANCH  24  27
ATOM     27  C   UNL A   1      34.744  31.694  27.910  1.00  0.00     0.039 A 
ATOM     28  C   UNL A   1      34.909  30.336  28.172  1.00  0.00     0.014 A 
ATOM     29  C   UNL A   1      35.841  32.557  28.003  1.00  0.00     0.014 A 
ATOM     30  C   UNL A   1      36.088  29.889  28.760  1.00  0.00     0.010 A 
ATOM     31  C   UNL A   1      37.061  32.084  28.496  1.00  0.00     0.010 A 
ATOM     32  C   UNL A   1      37.170  30.764  28.958  1.00  0.00    -0.014 A 
BRANCH  32  33
ATOM     33  C   UNL A   1      38.370  30.292  29.701  1.00  0.00     0.031 A 
ATOM     34  C   UNL A   1      38.591  30.700  31.136  1.00  0.00     0.074 A 
ATOM     35  C   UNL A   1      39.218  29.423  29.117  1.00  0.00     0.049 A 
ATOM     36  N   UNL A   1      39.565  30.370  31.950  1.00  0.00    -0.248 NA
ATOM     37  C   UNL A   1      37.593  31.598  31.741  1.00  0.00     0.031 C 
ATOM     38  C   UNL A   1      39.103  28.929  27.745  1.00  0.00     0.029 A 
ATOM     39  N   UNL A   1      40.319  28.772  29.614  1.00  0.00    -0.354 N 
ATOM     40  C   UNL A   1      39.311  31.036  33.143  1.00  0.00     0.074 A 
ATOM     41  C   UNL A   1      38.104  31.809  32.945  1.00  0.00     0.031 C 
ATOM     42  C   UNL A   1      40.049  28.005  27.530  1.00  0.00     0.029 A 
ATOM     43  C   UNL A   1      40.880  27.888  28.725  1.00  0.00     0.049 A 
ATOM     44  H   UNL A   1      40.673  28.923  30.520  1.00  0.00     0.167 HD
ATOM     45  C   UNL A   1      40.010  30.996  34.303  1.00  0.00     0.037 A 
ATOM     46  C   UNL A   1      41.949  27.080  28.850  1.00  0.00     0.037 A 
ATOM     47  C   UNL A   1      41.188  30.196  34.516  1.00  0.00     0.049 A 
ATOM     48  C   UNL A   1      42.726  27.079  30.135  1.00  0.00     0.074 A 
ATOM     49  C   UNL A   1      41.954  30.080  35.663  1.00  0.00     0.029 A 
ATOM     50  N   UNL A   1      41.763  29.367  33.565  1.00  0.00    -0.354 N 
ATOM     51  N   UNL A   1      42.486  27.733  31.245  1.00  0.00    -0.248 NA
ATOM     52  C   UNL A   1      43.932  26.242  30.179  1.00  0.00     0.031 C 
ATOM     53  C   UNL A   1      43.013  29.206  35.395  1.00  0.00     0.029 A 
ATOM     54  C   UNL A   1      42.883  28.749  34.095  1.00  0.00     0.049 A 
ATOM     55  H   UNL A   1      41.425  29.238  32.650  1.00  0.00     0.167 HD
ATOM     56  C   UNL A   1      43.505  27.386  32.120  1.00  0.00     0.074 A 
ATOM     57  C   UNL A   1      44.355  26.444  31.421  1.00  0.00     0.031 C 
ATOM     58  C   UNL A   1      43.722  27.818  33.385  1.00  0.00     0.037 A 
BRANCH  45  59
ATOM     59  C   UNL A   1      39.530  31.845  35.442  1.00  0.00     0.064 A 
ATOM     60  C   UNL A   1      39.945  33.176  35.594  1.00  0.00     0.173 A 
ATOM     61  C   UNL A   1      38.587  31.343  36.353  1.00  0.00     0.173 A 
ATOM     62  F   UNL A   1      40.854  33.698  34.757  1.00  0.00    -0.203 F 
ATOM     63  C   UNL A   1      39.441  33.971  36.621  1.00  0.00     0.198 A 
ATOM     64  C   UNL A   1      38.067  32.147  37.364  1.00  0.00     0.198 A 
ATOM     65  F   UNL A   1      38.153  30.078  36.248  1.00  0.00    -0.203 F 
ATOM     66  F   UNL A   1      39.873  35.231  36.764  1.00  0.00    -0.200 F 
ATOM     67  C   UNL A   1      38.497  33.459  37.499  1.00  0.00     0.200 A 
ATOM     68  F   UNL A   1      37.146  31.655  38.204  1.00  0.00    -0.200 F 
ATOM     69  F   UNL A   1      38.002  34.230  38.478  1.00  0.00    -0.200 F 
ENDBRANCH  45  59
BRANCH  46  70
ATOM     70  C   UNL A   1      42.339  26.203  27.718  1.00  0.00     0.064 A 
ATOM     71  C   UNL A   1      43.336  26.597  26.815  1.00  0.00     0.173 A 
ATOM     72  C   UNL A   1      41.751  24.942  27.536  1.00  0.00     0.173 A 
ATOM     73  F   UNL A   1      43.910  27.802  26.935  1.00  0.00    -0.203 F 
ATOM     74  C   UNL A   1      43.731  25.760  25.773  1.00  0.00     0.198 A 
ATOM     75  C   UNL A   1      42.166  24.097  26.511  1.00  0.00     0.198 A 
ATOM     76  F   UNL A   1      40.794  24.522  28.375  1.00  0.00    -0.203 F 
ATOM     77  F   UNL A   1      44.670  26.169  24.908  1.00  0.00    -0.200 F 
ATOM     78  C   UNL A   1      43.154  24.507  25.628  1.00  0.00     0.200 A 
ATOM     79  F   UNL A   1      41.617  22.881  26.385  1.00  0.00    -0.200 F 
ATOM     80  F   UNL A   1      43.547  23.696  24.638  1.00  0.00    -0.200 F 
ENDBRANCH  46  70
BRANCH  58  81
ATOM     81  C   UNL A   1      44.922  27.277  34.102  1.00  0.00     0.064 A 
ATOM     82  C   UNL A   1      46.148  27.957  34.081  1.00  0.00     0.173 A 
ATOM     83  C   UNL A   1      44.831  26.102  34.862  1.00  0.00     0.173 A 
ATOM     84  F   UNL A   1      46.286  29.077  33.356  1.00  0.00    -0.203 F 
ATOM     85  C   UNL A   1      47.245  27.471  34.786  1.00  0.00     0.198 A 
ATOM     86  C   UNL A   1      45.923  25.632  35.585  1.00  0.00     0.198 A 
ATOM     87  F   UNL A   1      43.676  25.422  34.918  1.00  0.00    -0.203 F 
ATOM     88  F   UNL A   1      48.418  28.119  34.726  1.00  0.00    -0.200 F 
ATOM     89  C   UNL A   1      47.131  26.315  35.543  1.00  0.00     0.200 A 
ATOM     90  F   UNL A   1      45.808  24.521  36.324  1.00  0.00    -0.200 F 
ATOM     91  F   UNL A   1      48.185  25.855  36.229  1.00  0.00    -0.200 F 
ENDBRANCH  58  81
ENDBRANCH  32  33
ENDBRANCH  24  27
ENDBRANCH  22  23
ENDBRANCH   1  22
TORSDOF 13
ENDMDL
MODEL 3
REMARK VINA RESULT:     -12.4      5.059     10.318
REMARK SMILES Cc1nc(-c2ccco2)nc(S)c1C(=O)NCCCCNC(=O)c1ccc(-c2c3nc(c(-c4c(F)c(F)c(F)c(F)c4F)c4ccc([nH]4)c(-c4c(F)c(F)c(F)c(F)c4F)c4nc(c(-c5c(F)c(F)c(F)c(F)c5F)c5ccc2[nH]5)C=C4)C=C3)cc1
REMARK SMILES IDX 19 1 18 2 17 3 16 4 14 5 15 6 13 8 1 9 2 10 3 11 4 12 11 13
REMARK SMILES IDX 10 14 5 15 6 16 9 17 7 18 8 19 12 20 20 22 21 23 22 24 23 26
REMARK SMILES IDX 24 27 25 28 86 29 26 30 85 31 27 32 28 33 29 34 79 35 30 36
REMARK SMILES IDX 84 37 78 38 80 39 31 40 83 41 77 42 76 43 32 45 64 46 44 47
REMARK SMILES IDX 63 48 45 49 48 50 62 51 81 52 46 53 47 54 61 56 82 57 49 58
REMARK SMILES IDX 33 59 34 60 42 61 35 62 36 63 40 64 43 65 37 66 38 67 41 68
REMARK SMILES IDX 39 69 65 70 66 71 74 72 67 73 68 74 72 75 75 76 69 77 70 78
REMARK SMILES IDX 73 79 71 80 50 81 51 82 59 83 52 84 53 85 57 86 60 87 54 88
REMARK SMILES IDX 55 89 58 90 56 91
REMARK H PARENT 16 7 12 21 21 25 80 44 48 55
REMARK Flexibility Score: inf
ROOT
ATOM      1  C   UNL A   1      36.605  22.195  23.879  1.00  0.00     0.023 C 
ENDROOT
BRANCH   1   2
ATOM      2  C   UNL A   1      35.891  23.539  23.716  1.00  0.00     0.023 C 
BRANCH   2   3
ATOM      3  C   UNL A   1      35.438  24.230  24.997  1.00  0.00     0.116 C 
BRANCH   3   4
ATOM      4  N   UNL A   1      34.044  24.631  25.013  1.00  0.00    -0.352 N 
ATOM      5  C   UNL A   1      32.910  23.860  25.110  1.00  0.00     0.255 C 
ATOM      6  O   UNL A   1      31.821  24.413  25.243  1.00  0.00    -0.269 OA
ATOM      7  H   UNL A   1      33.886  25.601  24.944  1.00  0.00     0.163 HD
BRANCH   5   8
ATOM      8  C   UNL A   1      32.952  22.391  25.009  1.00  0.00     0.093 A 
ATOM      9  C   UNL A   1      32.530  22.328  22.491  1.00  0.00     0.068 C 
ATOM     10  C   UNL A   1      32.798  21.695  23.820  1.00  0.00     0.055 A 
ATOM     11  N   UNL A   1      32.864  20.345  23.768  1.00  0.00    -0.230 NA
ATOM     12  C   UNL A   1      33.133  19.689  24.907  1.00  0.00     0.196 A 
ATOM     13  C   UNL A   1      33.277  21.618  26.123  1.00  0.00     0.110 A 
ATOM     14  N   UNL A   1      33.335  20.266  26.096  1.00  0.00    -0.218 NA
BRANCH  12  15
ATOM     15  C   UNL A   1      33.171  18.238  24.849  1.00  0.00     0.171 A 
ATOM     16  C   UNL A   1      33.905  17.323  24.118  1.00  0.00     0.054 A 
ATOM     17  O   UNL A   1      32.311  17.569  25.679  1.00  0.00    -0.461 OA
ATOM     18  C   UNL A   1      33.486  16.035  24.537  1.00  0.00     0.043 A 
ATOM     19  C   UNL A   1      32.504  16.241  25.477  1.00  0.00     0.196 A 
ENDBRANCH  12  15
BRANCH  13  20
ATOM     20  S   UNL A   1      33.625  22.300  27.740  1.00  0.00    -0.123 SA
ATOM     21  H   UNL A   1      34.242  23.504  27.601  1.00  0.00     0.110 HD
ENDBRANCH  13  20
ENDBRANCH   5   8
ENDBRANCH   3   4
ENDBRANCH   2   3
ENDBRANCH   1   2
BRANCH   1  22
ATOM     22  C   UNL A   1      36.914  21.745  25.304  1.00  0.00     0.116 C 
BRANCH  22  23
ATOM     23  N   UNL A   1      38.047  20.837  25.418  1.00  0.00    -0.352 N 
ATOM     24  C   UNL A   1      39.283  21.006  26.001  1.00  0.00     0.251 C 
ATOM     25  H   UNL A   1      37.905  19.953  25.008  1.00  0.00     0.163 HD
ATOM     26  O   UNL A   1      40.117  20.107  25.933  1.00  0.00    -0.269 OA
BRANCH  24  27
ATOM     27  C   UNL A   1      39.641  22.286  26.650  1.00  0.00     0.039 A 
ATOM     28  C   UNL A   1      39.054  23.487  26.257  1.00  0.00     0.014 A 
ATOM     29  C   UNL A   1      40.623  22.286  27.646  1.00  0.00     0.014 A 
ATOM     30  C   UNL A   1      39.616  24.691  26.669  1.00  0.00     0.010 A 
ATOM     31  C   UNL A   1      41.116  23.498  28.139  1.00  0.00     0.010 A 
ATOM     32  C   UNL A   1      40.675  24.712  27.593  1.00  0.00    -0.014 A 
BRANCH  32  33
ATOM     33  C   UNL A   1      41.338  26.004  27.920  1.00  0.00     0.031 A 
ATOM     34  C   UNL A   1      42.724  26.304  27.407  1.00  0.00     0.074 A 
ATOM     35  C   UNL A   1      40.662  26.948  28.605  1.00  0.00     0.049 A 
ATOM     36  N   UNL A   1      43.451  27.383  27.571  1.00  0.00    -0.248 NA
ATOM     37  C   UNL A   1      43.385  25.260  26.607  1.00  0.00     0.031 C 
ATOM     38  C   UNL A   1      39.307  26.792  29.134  1.00  0.00     0.029 A 
ATOM     39  N   UNL A   1      41.005  28.234  28.939  1.00  0.00    -0.354 N 
ATOM     40  C   UNL A   1      44.655  27.137  26.921  1.00  0.00     0.074 A 
ATOM     41  C   UNL A   1      44.575  25.798  26.379  1.00  0.00     0.031 C 
ATOM     42  C   UNL A   1      38.908  27.957  29.665  1.00  0.00     0.029 A 
ATOM     43  C   UNL A   1      40.001  28.921  29.575  1.00  0.00     0.049 A 
ATOM     44  H   UNL A   1      41.886  28.626  28.741  1.00  0.00     0.167 HD
ATOM     45  C   UNL A   1      45.725  27.955  26.777  1.00  0.00     0.037 A 
ATOM     46  C   UNL A   1      39.963  30.182  30.043  1.00  0.00     0.037 A 
ATOM     47  C   UNL A   1      45.792  29.303  27.280  1.00  0.00     0.049 A 
ATOM     48  C   UNL A   1      41.174  31.059  29.899  1.00  0.00     0.074 A 
ATOM     49  C   UNL A   1      46.830  30.213  27.169  1.00  0.00     0.029 A 
ATOM     50  N   UNL A   1      44.777  29.936  27.981  1.00  0.00    -0.354 N 
ATOM     51  N   UNL A   1      42.313  30.801  29.304  1.00  0.00    -0.248 NA
ATOM     52  C   UNL A   1      41.101  32.393  30.508  1.00  0.00     0.031 C 
ATOM     53  C   UNL A   1      46.454  31.386  27.831  1.00  0.00     0.029 A 
ATOM     54  C   UNL A   1      45.170  31.220  28.321  1.00  0.00     0.049 A 
ATOM     55  H   UNL A   1      43.907  29.533  28.202  1.00  0.00     0.167 HD
ATOM     56  C   UNL A   1      43.090  31.939  29.462  1.00  0.00     0.074 A 
ATOM     57  C   UNL A   1      42.286  32.899  30.188  1.00  0.00     0.031 C 
ATOM     58  C   UNL A   1      44.361  32.163  29.049  1.00  0.00     0.037 A 
BRANCH  45  59
ATOM     59  C   UNL A   1      46.923  27.424  26.048  1.00  0.00     0.064 A 
ATOM     60  C   UNL A   1      47.070  27.582  24.662  1.00  0.00     0.173 A 
ATOM     61  C   UNL A   1      47.971  26.813  26.755  1.00  0.00     0.173 A 
ATOM     62  F   UNL A   1      46.092  28.147  23.940  1.00  0.00    -0.203 F 
ATOM     63  C   UNL A   1      48.219  27.139  24.009  1.00  0.00     0.198 A 
ATOM     64  C   UNL A   1      49.128  26.393  26.103  1.00  0.00     0.198 A 
ATOM     65  F   UNL A   1      47.882  26.644  28.083  1.00  0.00    -0.203 F 
ATOM     66  F   UNL A   1      48.326  27.274  22.680  1.00  0.00    -0.200 F 
ATOM     67  C   UNL A   1      49.249  26.554  24.730  1.00  0.00     0.200 A 
ATOM     68  F   UNL A   1      50.127  25.839  26.803  1.00  0.00    -0.200 F 
ATOM     69  F   UNL A   1      50.359  26.141  24.102  1.00  0.00    -0.200 F 
ENDBRANCH  45  59
BRANCH  46  70
ATOM     70  C   UNL A   1      38.726  30.684  30.692  1.00  0.00     0.064 A 
ATOM     71  C   UNL A   1      37.660  31.174  29.925  1.00  0.00     0.173 A 
ATOM     72  C   UNL A   1      38.568  30.651  32.086  1.00  0.00     0.173 A 
ATOM     73  F   UNL A   1      37.773  31.246  28.591  1.00  0.00    -0.203 F 
ATOM     74  C   UNL A   1      36.483  31.611  30.528  1.00  0.00     0.198 A 
ATOM     75  C   UNL A   1      37.381  31.062  32.684  1.00  0.00     0.198 A 
ATOM     76  F   UNL A   1      39.559  30.189  32.861  1.00  0.00    -0.203 F 
ATOM     77  F   UNL A   1      35.487  32.097  29.775  1.00  0.00    -0.200 F 
ATOM     78  C   UNL A   1      36.340  31.544  31.907  1.00  0.00     0.200 A 
ATOM     79  F   UNL A   1      37.242  30.981  34.015  1.00  0.00    -0.200 F 
ATOM     80  F   UNL A   1      35.201  31.947  32.485  1.00  0.00    -0.200 F 
ENDBRANCH  46  70
BRANCH  58  81
ATOM     81  C   UNL A   1      44.964  33.496  29.369  1.00  0.00     0.064 A 
ATOM     82  C   UNL A   1      45.720  33.692  30.534  1.00  0.00     0.173 A 
ATOM     83  C   UNL A   1      44.835  34.572  28.477  1.00  0.00     0.173 A 
ATOM     84  F   UNL A   1      45.859  32.696  31.422  1.00  0.00    -0.203 F 
ATOM     85  C   UNL A   1      46.315  34.922  30.800  1.00  0.00     0.198 A 
ATOM     86  C   UNL A   1      45.451  35.792  28.736  1.00  0.00     0.198 A 
ATOM     87  F   UNL A   1      44.127  34.430  27.346  1.00  0.00    -0.203 F 
ATOM     88  F   UNL A   1      47.006  35.097  31.936  1.00  0.00    -0.200 F 
ATOM     89  C   UNL A   1      46.187  35.968  29.899  1.00  0.00     0.200 A 
ATOM     90  F   UNL A   1      45.334  36.799  27.859  1.00  0.00    -0.200 F 
ATOM     91  F   UNL A   1      46.768  37.147  30.153  1.00  0.00    -0.200 F 
ENDBRANCH  58  81
ENDBRANCH  32  33
ENDBRANCH  24  27
ENDBRANCH  22  23
ENDBRANCH   1  22
TORSDOF 13
ENDMDL
