MODEL 1
REMARK VINA RESULT:     -12.6      0.000      0.000
REMARK SMILES Cc1ncn(CC[C@@H]2CCC[C@@]2([NH3+])C(=O)NCCCCNC(=O)c2ccc(-c3c4nc(c(-c5c(F)c(F)c(F)c(F)c5F)c5ccc([nH]5)c(-c5c(F)c(F)c(F)c(F)c5F)c5nc(c(-c6c(F)c(F)c(F)c(F)c6F)c6ccc3[nH]6)C=C5)C=C4)cc2)c1C
REMARK SMILES IDX 18 1 17 2 16 3 14 4 15 5 12 7 8 8 9 9 10 10 11 11 7 12 6 13
REMARK SMILES IDX 5 14 1 15 2 16 3 17 87 18 4 19 88 20 13 21 19 25 20 26 21 27
REMARK SMILES IDX 22 28 23 30 24 31 25 32 86 33 26 34 85 35 27 36 28 37 29 38
REMARK SMILES IDX 79 39 30 40 84 41 78 42 80 43 31 44 83 45 77 46 76 47 32 49
REMARK SMILES IDX 64 50 44 51 63 52 45 53 48 54 62 55 81 56 46 57 47 58 61 60
REMARK SMILES IDX 82 61 49 62 33 63 34 64 42 65 35 66 36 67 40 68 43 69 37 70
REMARK SMILES IDX 38 71 41 72 39 73 65 74 66 75 74 76 67 77 68 78 72 79 75 80
REMARK SMILES IDX 69 81 70 82 73 83 71 84 50 85 51 86 59 87 52 88 53 89 57 90
REMARK SMILES IDX 60 91 54 92 55 93 58 94 56 95
REMARK H PARENT 16 6 13 22 13 23 13 24 21 29 80 48 48 59
REMARK Flexibility Score: inf
ROOT
ATOM      1  C   UNL A   1      32.150  27.707  26.677  1.00  0.00     0.023 C 
ENDROOT
BRANCH   1   2
ATOM      2  C   UNL A   1      32.383  26.223  26.365  1.00  0.00     0.116 C 
BRANCH   2   3
ATOM      3  N   UNL A   1      31.322  25.357  26.873  1.00  0.00    -0.351 N 
ATOM      4  C   UNL A   1      31.147  23.992  26.763  1.00  0.00     0.281 C 
ATOM      5  O   UNL A   1      30.148  23.485  27.274  1.00  0.00    -0.268 OA
ATOM      6  H   UNL A   1      30.616  25.824  27.377  1.00  0.00     0.163 HD
BRANCH   4   7
ATOM      7  C   UNL A   1      32.256  23.146  26.083  1.00  0.00     0.176 C 
ATOM      8  C   UNL A   1      32.655  23.505  24.620  1.00  0.00     0.062 C 
ATOM      9  C   UNL A   1      33.964  22.689  24.528  1.00  0.00     0.011 C 
ATOM     10  C   UNL A   1      34.709  23.016  25.799  1.00  0.00     0.008 C 
ATOM     11  C   UNL A   1      33.622  23.472  26.749  1.00  0.00     0.079 C 
BRANCH   8  12
ATOM     12  C   UNL A   1      31.729  23.228  23.423  1.00  0.00     0.032 C 
BRANCH  12  13
ATOM     13  C   UNL A   1      30.956  24.494  22.939  1.00  0.00     0.124 C 
BRANCH  13  14
ATOM     14  N   UNL A   1      31.771  25.562  22.384  1.00  0.00    -0.335 N 
ATOM     15  C   UNL A   1      33.640  28.633  22.724  1.00  0.00     0.069 C 
ATOM     16  C   UNL A   1      32.958  27.390  22.285  1.00  0.00     0.058 A 
ATOM     17  N   UNL A   1      33.646  26.432  21.580  1.00  0.00    -0.242 NA
ATOM     18  C   UNL A   1      31.705  26.917  22.658  1.00  0.00     0.037 A 
ATOM     19  C   UNL A   1      32.895  25.356  21.629  1.00  0.00     0.199 A 
ATOM     20  C   UNL A   1      30.621  27.596  23.410  1.00  0.00     0.066 C 
ENDBRANCH  13  14
ENDBRANCH  12  13
ENDBRANCH   8  12
BRANCH   7  21
ATOM     21  N   UNL A   1      31.847  21.722  26.120  1.00  0.00    -0.345 N 
ATOM     22  H   UNL A   1      32.444  21.214  26.773  1.00  0.00     0.345 HD
ATOM     23  H   UNL A   1      31.941  21.317  25.189  1.00  0.00     0.345 HD
ATOM     24  H   UNL A   1      30.876  21.654  26.424  1.00  0.00     0.345 HD
ENDBRANCH   7  21
ENDBRANCH   4   7
ENDBRANCH   2   3
ENDBRANCH   1   2
BRANCH   1  25
ATOM     25  C   UNL A   1      33.340  28.632  26.417  1.00  0.00     0.023 C 
BRANCH  25  26
ATOM     26  C   UNL A   1      33.741  29.496  27.604  1.00  0.00     0.116 C 
BRANCH  26  27
ATOM     27  N   UNL A   1      34.120  30.868  27.244  1.00  0.00    -0.352 N 
ATOM     28  C   UNL A   1      35.252  31.565  27.656  1.00  0.00     0.251 C 
ATOM     29  H   UNL A   1      33.505  31.348  26.645  1.00  0.00     0.163 HD
ATOM     30  O   UNL A   1      35.326  32.774  27.629  1.00  0.00    -0.269 OA
BRANCH  28  31
ATOM     31  C   UNL A   1      36.404  30.748  28.067  1.00  0.00     0.039 A 
ATOM     32  C   UNL A   1      36.629  29.444  27.619  1.00  0.00     0.014 A 
ATOM     33  C   UNL A   1      37.334  31.424  28.844  1.00  0.00     0.014 A 
ATOM     34  C   UNL A   1      37.852  28.847  27.922  1.00  0.00     0.010 A 
ATOM     35  C   UNL A   1      38.604  30.948  28.893  1.00  0.00     0.010 A 
ATOM     36  C   UNL A   1      38.831  29.620  28.559  1.00  0.00    -0.014 A 
BRANCH  36  37
ATOM     37  C   UNL A   1      40.146  29.121  28.911  1.00  0.00     0.031 A 
ATOM     38  C   UNL A   1      40.378  28.859  30.355  1.00  0.00     0.074 A 
ATOM     39  C   UNL A   1      40.953  28.641  27.937  1.00  0.00     0.049 A 
ATOM     40  N   UNL A   1      41.255  29.408  31.127  1.00  0.00    -0.248 NA
ATOM     41  C   UNL A   1      39.450  27.960  31.062  1.00  0.00     0.031 C 
ATOM     42  C   UNL A   1      40.701  28.524  26.491  1.00  0.00     0.029 A 
ATOM     43  N   UNL A   1      42.148  28.019  28.075  1.00  0.00    -0.354 N 
ATOM     44  C   UNL A   1      41.114  28.808  32.377  1.00  0.00     0.074 A 
ATOM     45  C   UNL A   1      39.888  28.054  32.319  1.00  0.00     0.031 C 
ATOM     46  C   UNL A   1      41.587  27.665  25.940  1.00  0.00     0.029 A 
ATOM     47  C   UNL A   1      42.567  27.320  26.947  1.00  0.00     0.049 A 
ATOM     48  H   UNL A   1      42.676  28.058  28.905  1.00  0.00     0.167 HD
ATOM     49  C   UNL A   1      42.129  28.820  33.287  1.00  0.00     0.037 A 
ATOM     50  C   UNL A   1      43.624  26.472  26.909  1.00  0.00     0.037 A 
ATOM     51  C   UNL A   1      43.136  29.784  32.917  1.00  0.00     0.049 A 
ATOM     52  C   UNL A   1      44.491  26.831  28.069  1.00  0.00     0.074 A 
ATOM     53  C   UNL A   1      43.133  31.156  32.747  1.00  0.00     0.029 A 
ATOM     54  N   UNL A   1      44.254  29.335  32.251  1.00  0.00    -0.354 N 
ATOM     55  N   UNL A   1      45.100  27.985  28.173  1.00  0.00    -0.248 NA
ATOM     56  C   UNL A   1      44.232  26.147  29.330  1.00  0.00     0.031 C 
ATOM     57  C   UNL A   1      43.909  31.375  31.569  1.00  0.00     0.029 A 
ATOM     58  C   UNL A   1      44.411  30.142  31.151  1.00  0.00     0.049 A 
ATOM     59  H   UNL A   1      44.830  28.580  32.513  1.00  0.00     0.167 HD
ATOM     60  C   UNL A   1      44.943  28.360  29.502  1.00  0.00     0.074 A 
ATOM     61  C   UNL A   1      44.434  27.164  30.175  1.00  0.00     0.031 C 
ATOM     62  C   UNL A   1      44.935  29.673  29.887  1.00  0.00     0.037 A 
BRANCH  49  63
ATOM     63  C   UNL A   1      42.393  27.756  34.323  1.00  0.00     0.064 A 
ATOM     64  C   UNL A   1      43.043  26.565  33.931  1.00  0.00     0.173 A 
ATOM     65  C   UNL A   1      41.790  27.723  35.597  1.00  0.00     0.173 A 
ATOM     66  F   UNL A   1      43.655  26.478  32.741  1.00  0.00    -0.203 F 
ATOM     67  C   UNL A   1      43.001  25.407  34.713  1.00  0.00     0.198 A 
ATOM     68  C   UNL A   1      41.795  26.582  36.397  1.00  0.00     0.198 A 
ATOM     69  F   UNL A   1      41.076  28.749  36.075  1.00  0.00    -0.203 F 
ATOM     70  F   UNL A   1      43.518  24.265  34.239  1.00  0.00    -0.200 F 
ATOM     71  C   UNL A   1      42.368  25.413  35.941  1.00  0.00     0.200 A 
ATOM     72  F   UNL A   1      41.168  26.606  37.582  1.00  0.00    -0.200 F 
ATOM     73  F   UNL A   1      42.267  24.289  36.663  1.00  0.00    -0.200 F 
ENDBRANCH  49  63
BRANCH  50  74
ATOM     74  C   UNL A   1      43.688  25.176  26.188  1.00  0.00     0.064 A 
ATOM     75  C   UNL A   1      44.676  24.920  25.226  1.00  0.00     0.173 A 
ATOM     76  C   UNL A   1      42.925  24.065  26.608  1.00  0.00     0.173 A 
ATOM     77  F   UNL A   1      45.480  25.907  24.809  1.00  0.00    -0.203 F 
ATOM     78  C   UNL A   1      44.894  23.630  24.721  1.00  0.00     0.198 A 
ATOM     79  C   UNL A   1      43.137  22.782  26.100  1.00  0.00     0.198 A 
ATOM     80  F   UNL A   1      42.014  24.183  27.585  1.00  0.00    -0.203 F 
ATOM     81  F   UNL A   1      45.879  23.415  23.839  1.00  0.00    -0.200 F 
ATOM     82  C   UNL A   1      44.129  22.562  25.164  1.00  0.00     0.200 A 
ATOM     83  F   UNL A   1      42.414  21.755  26.568  1.00  0.00    -0.200 F 
ATOM     84  F   UNL A   1      44.372  21.320  24.721  1.00  0.00    -0.200 F 
ENDBRANCH  50  74
BRANCH  62  85
ATOM     85  C   UNL A   1      45.255  30.732  28.861  1.00  0.00     0.064 A 
ATOM     86  C   UNL A   1      44.287  31.381  28.074  1.00  0.00     0.173 A 
ATOM     87  C   UNL A   1      46.555  31.251  28.817  1.00  0.00     0.173 A 
ATOM     88  F   UNL A   1      43.001  31.026  28.136  1.00  0.00    -0.203 F 
ATOM     89  C   UNL A   1      44.608  32.467  27.259  1.00  0.00     0.198 A 
ATOM     90  C   UNL A   1      46.870  32.357  28.029  1.00  0.00     0.198 A 
ATOM     91  F   UNL A   1      47.514  30.721  29.592  1.00  0.00    -0.203 F 
ATOM     92  F   UNL A   1      43.656  33.062  26.526  1.00  0.00    -0.200 F 
ATOM     93  C   UNL A   1      45.900  32.959  27.245  1.00  0.00     0.200 A 
ATOM     94  F   UNL A   1      48.110  32.865  28.061  1.00  0.00    -0.200 F 
ATOM     95  F   UNL A   1      46.202  34.033  26.500  1.00  0.00    -0.200 F 
ENDBRANCH  62  85
ENDBRANCH  36  37
ENDBRANCH  28  31
ENDBRANCH  26  27
ENDBRANCH  25  26
ENDBRANCH   1  25
TORSDOF 15
ENDMDL
MODEL 2
REMARK VINA RESULT:     -12.5      3.186      8.648
REMARK SMILES Cc1ncn(CC[C@@H]2CCC[C@@]2([NH3+])C(=O)NCCCCNC(=O)c2ccc(-c3c4nc(c(-c5c(F)c(F)c(F)c(F)c5F)c5ccc([nH]5)c(-c5c(F)c(F)c(F)c(F)c5F)c5nc(c(-c6c(F)c(F)c(F)c(F)c6F)c6ccc3[nH]6)C=C5)C=C4)cc2)c1C
REMARK SMILES IDX 18 1 17 2 16 3 14 4 15 5 12 7 8 8 9 9 10 10 11 11 7 12 6 13
REMARK SMILES IDX 5 14 1 15 2 16 3 17 87 18 4 19 88 20 13 21 19 25 20 26 21 27
REMARK SMILES IDX 22 28 23 30 24 31 25 32 86 33 26 34 85 35 27 36 28 37 29 38
REMARK SMILES IDX 79 39 30 40 84 41 78 42 80 43 31 44 83 45 77 46 76 47 32 49
REMARK SMILES IDX 64 50 44 51 63 52 45 53 48 54 62 55 81 56 46 57 47 58 61 60
REMARK SMILES IDX 82 61 49 62 33 63 34 64 42 65 35 66 36 67 40 68 43 69 37 70
REMARK SMILES IDX 38 71 41 72 39 73 65 74 66 75 74 76 67 77 68 78 72 79 75 80
REMARK SMILES IDX 69 81 70 82 73 83 71 84 50 85 51 86 59 87 52 88 53 89 57 90
REMARK SMILES IDX 60 91 54 92 55 93 58 94 56 95
REMARK H PARENT 16 6 13 22 13 23 13 24 21 29 80 48 48 59
REMARK Flexibility Score: inf
ROOT
ATOM      1  C   UNL A   1      37.801  23.673  25.765  1.00  0.00     0.023 C 
ENDROOT
BRANCH   1   2
ATOM      2  C   UNL A   1      36.278  23.782  25.610  1.00  0.00     0.116 C 
BRANCH   2   3
ATOM      3  N   UNL A   1      35.819  23.494  24.253  1.00  0.00    -0.351 N 
ATOM      4  C   UNL A   1      34.608  23.748  23.642  1.00  0.00     0.281 C 
ATOM      5  O   UNL A   1      34.453  23.392  22.473  1.00  0.00    -0.268 OA
ATOM      6  H   UNL A   1      36.483  23.044  23.681  1.00  0.00     0.163 HD
BRANCH   4   7
ATOM      7  C   UNL A   1      33.530  24.550  24.418  1.00  0.00     0.176 C 
ATOM      8  C   UNL A   1      33.260  24.164  25.904  1.00  0.00     0.062 C 
ATOM      9  C   UNL A   1      32.441  25.404  26.323  1.00  0.00     0.011 C 
ATOM     10  C   UNL A   1      33.229  26.579  25.800  1.00  0.00     0.008 C 
ATOM     11  C   UNL A   1      34.058  25.989  24.678  1.00  0.00     0.079 C 
BRANCH   8  12
ATOM     12  C   UNL A   1      32.553  22.856  26.298  1.00  0.00     0.032 C 
BRANCH  12  13
ATOM     13  C   UNL A   1      33.525  21.641  26.410  1.00  0.00     0.124 C 
BRANCH  13  14
ATOM     14  N   UNL A   1      33.378  20.615  25.390  1.00  0.00    -0.335 N 
ATOM     15  C   UNL A   1      34.202  17.390  23.989  1.00  0.00     0.069 C 
ATOM     16  C   UNL A   1      33.673  18.738  24.317  1.00  0.00     0.058 A 
ATOM     17  N   UNL A   1      32.319  18.963  24.356  1.00  0.00    -0.242 NA
ATOM     18  C   UNL A   1      34.366  19.837  24.812  1.00  0.00     0.037 A 
ATOM     19  C   UNL A   1      32.173  20.111  24.977  1.00  0.00     0.199 A 
ATOM     20  C   UNL A   1      35.828  20.054  24.948  1.00  0.00     0.066 C 
ENDBRANCH  13  14
ENDBRANCH  12  13
ENDBRANCH   8  12
BRANCH   7  21
ATOM     21  N   UNL A   1      32.252  24.460  23.672  1.00  0.00    -0.345 N 
ATOM     22  H   UNL A   1      31.548  25.036  24.134  1.00  0.00     0.345 HD
ATOM     23  H   UNL A   1      31.937  23.490  23.653  1.00  0.00     0.345 HD
ATOM     24  H   UNL A   1      32.391  24.792  22.718  1.00  0.00     0.345 HD
ENDBRANCH   7  21
ENDBRANCH   4   7
ENDBRANCH   2   3
ENDBRANCH   1   2
BRANCH   1  25
ATOM     25  C   UNL A   1      38.376  22.259  25.658  1.00  0.00     0.023 C 
BRANCH  25  26
ATOM     26  C   UNL A   1      39.503  21.960  26.637  1.00  0.00     0.116 C 
BRANCH  26  27
ATOM     27  N   UNL A   1      40.824  21.835  26.008  1.00  0.00    -0.352 N 
ATOM     28  C   UNL A   1      41.787  22.830  25.867  1.00  0.00     0.251 C 
ATOM     29  H   UNL A   1      41.053  20.950  25.645  1.00  0.00     0.163 HD
ATOM     30  O   UNL A   1      42.674  22.774  25.043  1.00  0.00    -0.269 OA
BRANCH  28  31
ATOM     31  C   UNL A   1      41.720  23.939  26.830  1.00  0.00     0.039 A 
ATOM     32  C   UNL A   1      42.384  23.941  28.059  1.00  0.00     0.014 A 
ATOM     33  C   UNL A   1      41.043  25.057  26.363  1.00  0.00     0.014 A 
ATOM     34  C   UNL A   1      42.403  25.126  28.793  1.00  0.00     0.010 A 
ATOM     35  C   UNL A   1      41.301  26.258  26.942  1.00  0.00     0.010 A 
ATOM     36  C   UNL A   1      41.858  26.278  28.213  1.00  0.00    -0.014 A 
BRANCH  36  37
ATOM     37  C   UNL A   1      41.833  27.573  28.866  1.00  0.00     0.031 A 
ATOM     38  C   UNL A   1      42.870  28.543  28.426  1.00  0.00     0.074 A 
ATOM     39  C   UNL A   1      40.739  27.935  29.574  1.00  0.00     0.049 A 
ATOM     40  N   UNL A   1      43.794  29.090  29.142  1.00  0.00    -0.248 NA
ATOM     41  C   UNL A   1      42.966  28.864  26.993  1.00  0.00     0.031 C 
ATOM     42  C   UNL A   1      39.487  27.193  29.801  1.00  0.00     0.029 A 
ATOM     43  N   UNL A   1      40.471  29.136  30.140  1.00  0.00    -0.354 N 
ATOM     44  C   UNL A   1      44.488  29.955  28.299  1.00  0.00     0.074 A 
ATOM     45  C   UNL A   1      44.045  29.650  26.963  1.00  0.00     0.031 C 
ATOM     46  C   UNL A   1      38.526  28.039  30.230  1.00  0.00     0.029 A 
ATOM     47  C   UNL A   1      39.136  29.327  30.482  1.00  0.00     0.049 A 
ATOM     48  H   UNL A   1      41.164  29.818  30.296  1.00  0.00     0.167 HD
ATOM     49  C   UNL A   1      45.220  30.993  28.796  1.00  0.00     0.037 A 
ATOM     50  C   UNL A   1      38.599  30.506  30.880  1.00  0.00     0.037 A 
ATOM     51  C   UNL A   1      45.436  30.834  30.213  1.00  0.00     0.049 A 
ATOM     52  C   UNL A   1      39.737  31.344  31.358  1.00  0.00     0.074 A 
ATOM     53  C   UNL A   1      46.072  29.879  30.985  1.00  0.00     0.029 A 
ATOM     54  N   UNL A   1      44.606  31.509  31.078  1.00  0.00    -0.354 N 
ATOM     55  N   UNL A   1      40.461  31.033  32.404  1.00  0.00    -0.248 NA
ATOM     56  C   UNL A   1      40.396  32.196  30.375  1.00  0.00     0.031 C 
ATOM     57  C   UNL A   1      45.207  29.683  32.102  1.00  0.00     0.029 A 
ATOM     58  C   UNL A   1      44.152  30.590  31.992  1.00  0.00     0.049 A 
ATOM     59  H   UNL A   1      44.380  32.468  31.047  1.00  0.00     0.167 HD
ATOM     60  C   UNL A   1      41.771  31.304  32.031  1.00  0.00     0.074 A 
ATOM     61  C   UNL A   1      41.662  32.058  30.781  1.00  0.00     0.031 C 
ATOM     62  C   UNL A   1      42.832  30.637  32.581  1.00  0.00     0.037 A 
BRANCH  49  63
ATOM     63  C   UNL A   1      45.466  32.309  28.100  1.00  0.00     0.064 A 
ATOM     64  C   UNL A   1      44.369  33.159  27.838  1.00  0.00     0.173 A 
ATOM     65  C   UNL A   1      46.660  32.639  27.426  1.00  0.00     0.173 A 
ATOM     66  F   UNL A   1      43.182  32.946  28.424  1.00  0.00    -0.203 F 
ATOM     67  C   UNL A   1      44.442  34.194  26.901  1.00  0.00     0.198 A 
ATOM     68  C   UNL A   1      46.743  33.704  26.531  1.00  0.00     0.198 A 
ATOM     69  F   UNL A   1      47.762  31.884  27.516  1.00  0.00    -0.203 F 
ATOM     70  F   UNL A   1      43.340  34.889  26.590  1.00  0.00    -0.200 F 
ATOM     71  C   UNL A   1      45.626  34.459  26.240  1.00  0.00     0.200 A 
ATOM     72  F   UNL A   1      47.899  33.939  25.894  1.00  0.00    -0.200 F 
ATOM     73  F   UNL A   1      45.683  35.404  25.293  1.00  0.00    -0.200 F 
ENDBRANCH  49  63
BRANCH  50  74
ATOM     74  C   UNL A   1      37.270  31.043  30.495  1.00  0.00     0.064 A 
ATOM     75  C   UNL A   1      36.329  31.432  31.459  1.00  0.00     0.173 A 
ATOM     76  C   UNL A   1      36.988  31.418  29.163  1.00  0.00     0.173 A 
ATOM     77  F   UNL A   1      36.542  31.162  32.754  1.00  0.00    -0.203 F 
ATOM     78  C   UNL A   1      35.180  32.159  31.114  1.00  0.00     0.198 A 
ATOM     79  C   UNL A   1      35.842  32.136  28.819  1.00  0.00     0.198 A 
ATOM     80  F   UNL A   1      37.863  31.172  28.177  1.00  0.00    -0.203 F 
ATOM     81  F   UNL A   1      34.327  32.555  32.069  1.00  0.00    -0.200 F 
ATOM     82  C   UNL A   1      34.942  32.515  29.796  1.00  0.00     0.200 A 
ATOM     83  F   UNL A   1      35.646  32.506  27.545  1.00  0.00    -0.200 F 
ATOM     84  F   UNL A   1      33.872  33.256  29.473  1.00  0.00    -0.200 F 
ENDBRANCH  50  74
BRANCH  62  85
ATOM     85  C   UNL A   1      42.578  29.692  33.729  1.00  0.00     0.064 A 
ATOM     86  C   UNL A   1      42.339  28.314  33.574  1.00  0.00     0.173 A 
ATOM     87  C   UNL A   1      42.785  30.153  35.036  1.00  0.00     0.173 A 
ATOM     88  F   UNL A   1      42.240  27.766  32.361  1.00  0.00    -0.203 F 
ATOM     89  C   UNL A   1      42.274  27.451  34.668  1.00  0.00     0.198 A 
ATOM     90  C   UNL A   1      42.753  29.286  36.127  1.00  0.00     0.198 A 
ATOM     91  F   UNL A   1      43.082  31.444  35.250  1.00  0.00    -0.203 F 
ATOM     92  F   UNL A   1      42.048  26.142  34.480  1.00  0.00    -0.200 F 
ATOM     93  C   UNL A   1      42.490  27.938  35.945  1.00  0.00     0.200 A 
ATOM     94  F   UNL A   1      43.018  29.752  37.354  1.00  0.00    -0.200 F 
ATOM     95  F   UNL A   1      42.476  27.103  36.994  1.00  0.00    -0.200 F 
ENDBRANCH  62  85
ENDBRANCH  36  37
ENDBRANCH  28  31
ENDBRANCH  26  27
ENDBRANCH  25  26
ENDBRANCH   1  25
TORSDOF 15
ENDMDL
MODEL 3
REMARK VINA RESULT:     -12.5      3.246      8.445
REMARK SMILES Cc1ncn(CC[C@@H]2CCC[C@@]2([NH3+])C(=O)NCCCCNC(=O)c2ccc(-c3c4nc(c(-c5c(F)c(F)c(F)c(F)c5F)c5ccc([nH]5)c(-c5c(F)c(F)c(F)c(F)c5F)c5nc(c(-c6c(F)c(F)c(F)c(F)c6F)c6ccc3[nH]6)C=C5)C=C4)cc2)c1C
REMARK SMILES IDX 18 1 17 2 16 3 14 4 15 5 12 7 8 8 9 9 10 10 11 11 7 12 6 13
REMARK SMILES IDX 5 14 1 15 2 16 3 17 87 18 4 19 88 20 13 21 19 25 20 26 21 27
REMARK SMILES IDX 22 28 23 30 24 31 25 32 86 33 26 34 85 35 27 36 28 37 29 38
REMARK SMILES IDX 79 39 30 40 84 41 78 42 80 43 31 44 83 45 77 46 76 47 32 49
REMARK SMILES IDX 64 50 44 51 63 52 45 53 48 54 62 55 81 56 46 57 47 58 61 60
REMARK SMILES IDX 82 61 49 62 33 63 34 64 42 65 35 66 36 67 40 68 43 69 37 70
REMARK SMILES IDX 38 71 41 72 39 73 65 74 66 75 74 76 67 77 68 78 72 79 75 80
REMARK SMILES IDX 69 81 70 82 73 83 71 84 50 85 51 86 59 87 52 88 53 89 57 90
REMARK SMILES IDX 60 91 54 92 55 93 58 94 56 95
REMARK H PARENT 16 6 13 22 13 23 13 24 21 29 80 48 48 59
REMARK Flexibility Score: inf
ROOT
ATOM      1  C   UNL A   1      37.205  21.489  24.910  1.00  0.00     0.023 C 
ENDROOT
BRANCH   1   2
ATOM      2  C   UNL A   1      35.937  20.706  25.277  1.00  0.00     0.116 C 
BRANCH   2   3
ATOM      3  N   UNL A   1      35.145  21.354  26.319  1.00  0.00    -0.351 N 
ATOM      4  C   UNL A   1      33.779  21.519  26.438  1.00  0.00     0.281 C 
ATOM      5  O   UNL A   1      33.343  22.122  27.419  1.00  0.00    -0.268 OA
ATOM      6  H   UNL A   1      35.672  21.736  27.059  1.00  0.00     0.163 HD
BRANCH   4   7
ATOM      7  C   UNL A   1      32.850  20.861  25.384  1.00  0.00     0.176 C 
ATOM      8  C   UNL A   1      33.068  21.231  23.885  1.00  0.00     0.062 C 
ATOM      9  C   UNL A   1      32.216  20.113  23.243  1.00  0.00     0.011 C 
ATOM     10  C   UNL A   1      32.636  18.852  23.957  1.00  0.00     0.008 C 
ATOM     11  C   UNL A   1      33.200  19.351  25.271  1.00  0.00     0.079 C 
BRANCH   8  12
ATOM     12  C   UNL A   1      32.709  22.615  23.319  1.00  0.00     0.032 C 
BRANCH  12  13
ATOM     13  C   UNL A   1      33.871  23.649  23.440  1.00  0.00     0.124 C 
BRANCH  13  14
ATOM     14  N   UNL A   1      33.533  25.024  23.111  1.00  0.00    -0.335 N 
ATOM     15  C   UNL A   1      34.171  28.575  23.274  1.00  0.00     0.069 C 
ATOM     16  C   UNL A   1      33.662  27.201  23.035  1.00  0.00     0.058 A 
ATOM     17  N   UNL A   1      33.381  26.775  21.759  1.00  0.00    -0.242 NA
ATOM     18  C   UNL A   1      33.599  26.139  23.930  1.00  0.00     0.037 A 
ATOM     19  C   UNL A   1      33.278  25.469  21.842  1.00  0.00     0.199 A 
ATOM     20  C   UNL A   1      33.810  26.122  25.399  1.00  0.00     0.066 C 
ENDBRANCH  13  14
ENDBRANCH  12  13
ENDBRANCH   8  12
BRANCH   7  21
ATOM     21  N   UNL A   1      31.445  21.169  25.742  1.00  0.00    -0.345 N 
ATOM     22  H   UNL A   1      31.089  20.450  26.372  1.00  0.00     0.345 HD
ATOM     23  H   UNL A   1      30.875  21.190  24.895  1.00  0.00     0.345 HD
ATOM     24  H   UNL A   1      31.402  22.078  26.203  1.00  0.00     0.345 HD
ENDBRANCH   7  21
ENDBRANCH   4   7
ENDBRANCH   2   3
ENDBRANCH   1   2
BRANCH   1  25
ATOM     25  C   UNL A   1      37.130  23.001  25.123  1.00  0.00     0.023 C 
BRANCH  25  26
ATOM     26  C   UNL A   1      38.048  23.531  26.216  1.00  0.00     0.116 C 
BRANCH  26  27
ATOM     27  N   UNL A   1      39.174  22.644  26.534  1.00  0.00    -0.352 N 
ATOM     28  C   UNL A   1      40.512  22.999  26.679  1.00  0.00     0.251 C 
ATOM     29  H   UNL A   1      38.959  21.692  26.658  1.00  0.00     0.163 HD
ATOM     30  O   UNL A   1      41.419  22.202  26.578  1.00  0.00    -0.269 OA
BRANCH  28  31
ATOM     31  C   UNL A   1      40.775  24.401  27.037  1.00  0.00     0.039 A 
ATOM     32  C   UNL A   1      40.409  25.488  26.238  1.00  0.00     0.014 A 
ATOM     33  C   UNL A   1      41.306  24.574  28.307  1.00  0.00     0.014 A 
ATOM     34  C   UNL A   1      40.534  26.768  26.773  1.00  0.00     0.010 A 
ATOM     35  C   UNL A   1      41.164  25.783  28.908  1.00  0.00     0.010 A 
ATOM     36  C   UNL A   1      40.911  26.895  28.117  1.00  0.00    -0.014 A 
BRANCH  36  37
ATOM     37  C   UNL A   1      41.058  28.169  28.794  1.00  0.00     0.031 A 
ATOM     38  C   UNL A   1      42.198  29.013  28.350  1.00  0.00     0.074 A 
ATOM     39  C   UNL A   1      40.030  28.648  29.531  1.00  0.00     0.049 A 
ATOM     40  N   UNL A   1      43.196  29.427  29.057  1.00  0.00    -0.248 NA
ATOM     41  C   UNL A   1      42.306  29.350  26.921  1.00  0.00     0.031 C 
ATOM     42  C   UNL A   1      38.701  28.060  29.770  1.00  0.00     0.029 A 
ATOM     43  N   UNL A   1      39.923  29.860  30.125  1.00  0.00    -0.354 N 
ATOM     44  C   UNL A   1      43.975  30.219  28.215  1.00  0.00     0.074 A 
ATOM     45  C   UNL A   1      43.473  29.999  26.884  1.00  0.00     0.031 C 
ATOM     46  C   UNL A   1      37.859  29.009  30.236  1.00  0.00     0.029 A 
ATOM     47  C   UNL A   1      38.628  30.206  30.498  1.00  0.00     0.049 A 
ATOM     48  H   UNL A   1      40.697  30.448  30.279  1.00  0.00     0.167 HD
ATOM     49  C   UNL A   1      44.839  31.148  28.717  1.00  0.00     0.037 A 
ATOM     50  C   UNL A   1      38.247  31.434  30.929  1.00  0.00     0.037 A 
ATOM     51  C   UNL A   1      45.059  30.933  30.126  1.00  0.00     0.049 A 
ATOM     52  C   UNL A   1      39.488  32.115  31.399  1.00  0.00     0.074 A 
ATOM     53  C   UNL A   1      45.587  29.892  30.865  1.00  0.00     0.029 A 
ATOM     54  N   UNL A   1      44.335  31.687  31.020  1.00  0.00    -0.354 N 
ATOM     55  N   UNL A   1      40.188  31.696  32.424  1.00  0.00    -0.248 NA
ATOM     56  C   UNL A   1      40.229  32.900  30.419  1.00  0.00     0.031 C 
ATOM     57  C   UNL A   1      44.725  29.779  31.997  1.00  0.00     0.029 A 
ATOM     58  C   UNL A   1      43.788  30.811  31.926  1.00  0.00     0.049 A 
ATOM     59  H   UNL A   1      44.229  32.667  31.012  1.00  0.00     0.167 HD
ATOM     60  C   UNL A   1      41.515  31.811  32.029  1.00  0.00     0.074 A 
ATOM     61  C   UNL A   1      41.476  32.599  30.796  1.00  0.00     0.031 C 
ATOM     62  C   UNL A   1      42.495  31.008  32.544  1.00  0.00     0.037 A 
BRANCH  49  63
ATOM     63  C   UNL A   1      45.231  32.438  28.040  1.00  0.00     0.064 A 
ATOM     64  C   UNL A   1      44.242  33.420  27.812  1.00  0.00     0.173 A 
ATOM     65  C   UNL A   1      46.447  32.634  27.352  1.00  0.00     0.173 A 
ATOM     66  F   UNL A   1      43.046  33.340  28.415  1.00  0.00    -0.203 F 
ATOM     67  C   UNL A   1      44.426  34.456  26.893  1.00  0.00     0.198 A 
ATOM     68  C   UNL A   1      46.645  33.699  26.475  1.00  0.00     0.198 A 
ATOM     69  F   UNL A   1      47.450  31.751  27.410  1.00  0.00    -0.203 F 
ATOM     70  F   UNL A   1      43.411  35.285  26.614  1.00  0.00    -0.200 F 
ATOM     71  C   UNL A   1      45.624  34.589  26.217  1.00  0.00     0.200 A 
ATOM     72  F   UNL A   1      47.812  33.806  25.822  1.00  0.00    -0.200 F 
ATOM     73  F   UNL A   1      45.781  35.540  25.286  1.00  0.00    -0.200 F 
ENDBRANCH  49  63
BRANCH  50  74
ATOM     74  C   UNL A   1      36.988  32.138  30.582  1.00  0.00     0.064 A 
ATOM     75  C   UNL A   1      36.112  32.606  31.573  1.00  0.00     0.173 A 
ATOM     76  C   UNL A   1      36.737  32.587  29.268  1.00  0.00     0.173 A 
ATOM     77  F   UNL A   1      36.307  32.270  32.856  1.00  0.00    -0.203 F 
ATOM     78  C   UNL A   1      35.054  33.475  31.270  1.00  0.00     0.198 A 
ATOM     79  C   UNL A   1      35.680  33.448  28.964  1.00  0.00     0.198 A 
ATOM     80  F   UNL A   1      37.564  32.270  28.261  1.00  0.00    -0.203 F 
ATOM     81  F   UNL A   1      34.268  33.939  32.249  1.00  0.00    -0.200 F 
ATOM     82  C   UNL A   1      34.845  33.900  29.967  1.00  0.00     0.200 A 
ATOM     83  F   UNL A   1      35.515  33.879  27.706  1.00  0.00    -0.200 F 
ATOM     84  F   UNL A   1      33.867  34.773  29.684  1.00  0.00    -0.200 F 
ENDBRANCH  50  74
BRANCH  62  85
ATOM     85  C   UNL A   1      42.148  30.077  33.679  1.00  0.00     0.064 A 
ATOM     86  C   UNL A   1      41.735  28.744  33.503  1.00  0.00     0.173 A 
ATOM     87  C   UNL A   1      42.438  30.480  34.989  1.00  0.00     0.173 A 
ATOM     88  F   UNL A   1      41.543  28.239  32.282  1.00  0.00    -0.203 F 
ATOM     89  C   UNL A   1      41.584  27.872  34.581  1.00  0.00     0.198 A 
ATOM     90  C   UNL A   1      42.320  29.600  36.064  1.00  0.00     0.198 A 
ATOM     91  F   UNL A   1      42.899  31.718  35.221  1.00  0.00    -0.203 F 
ATOM     92  F   UNL A   1      41.192  26.606  34.373  1.00  0.00    -0.200 F 
ATOM     93  C   UNL A   1      41.885  28.300  35.862  1.00  0.00     0.200 A 
ATOM     94  F   UNL A   1      42.666  30.002  37.293  1.00  0.00    -0.200 F 
ATOM     95  F   UNL A   1      41.788  27.451  36.895  1.00  0.00    -0.200 F 
ENDBRANCH  62  85
ENDBRANCH  36  37
ENDBRANCH  28  31
ENDBRANCH  26  27
ENDBRANCH  25  26
ENDBRANCH   1  25
TORSDOF 15
ENDMDL
