MODEL 1
REMARK VINA RESULT:     -12.2      0.000      0.000
REMARK SMILES Cc1cc(N(C)C(C)C)cc(C(=O)NCCCCNC(=O)c2ccc(-c3c4nc(c(-c5c(F)c(F)c(F)c(F)c5F)c5ccc([nH]5)c(-c5c(F)c(F)c(F)c(F)c5F)c5nc(c(-c6c(F)c(F)c(F)c(F)c6F)c6ccc3[nH]6)C=C5)C=C4)cc2)c1N
REMARK SMILES IDX 16 1 15 2 14 3 12 4 13 5 11 7 1 8 2 9 3 10 85 11 4 12 10 13
REMARK SMILES IDX 86 14 5 17 6 18 7 19 8 20 9 21 17 22 18 23 19 24 20 25 21 27
REMARK SMILES IDX 22 28 23 29 84 30 24 31 83 32 25 33 26 34 27 35 77 36 28 37
REMARK SMILES IDX 82 38 76 39 78 40 29 41 81 42 75 43 74 44 30 46 62 47 42 48
REMARK SMILES IDX 61 49 43 50 46 51 60 52 79 53 44 54 45 55 59 57 80 58 47 59
REMARK SMILES IDX 31 60 32 61 40 62 33 63 34 64 38 65 41 66 35 67 36 68 39 69
REMARK SMILES IDX 37 70 63 71 64 72 72 73 65 74 66 75 70 76 73 77 67 78 68 79
REMARK SMILES IDX 71 80 69 81 48 82 49 83 57 84 50 85 51 86 55 87 58 88 52 89
REMARK SMILES IDX 53 90 56 91 54 92
REMARK H PARENT 14 6 86 15 86 16 19 26 78 45 46 56
REMARK Flexibility Score: inf
ROOT
ATOM      1  C   UNL A   1      31.797  30.337  26.878  1.00  0.00     0.023 C 
ENDROOT
BRANCH   1   2
ATOM      2  C   UNL A   1      33.093  29.526  26.774  1.00  0.00     0.116 C 
BRANCH   2   3
ATOM      3  N   UNL A   1      33.634  29.614  25.434  1.00  0.00    -0.352 N 
ATOM      4  C   UNL A   1      33.202  29.142  24.217  1.00  0.00     0.253 C 
ATOM      5  O   UNL A   1      33.951  29.371  23.261  1.00  0.00    -0.269 OA
ATOM      6  H   UNL A   1      34.480  30.113  25.384  1.00  0.00     0.163 HD
BRANCH   4   7
ATOM      7  C   UNL A   1      31.895  28.430  23.993  1.00  0.00     0.065 A 
ATOM      8  C   UNL A   1      30.536  24.863  23.881  1.00  0.00     0.046 C 
ATOM      9  C   UNL A   1      30.647  26.363  23.817  1.00  0.00    -0.025 A 
ATOM     10  C   UNL A   1      29.493  27.112  23.501  1.00  0.00     0.031 A 
ATOM     11  C   UNL A   1      31.868  27.018  24.053  1.00  0.00     0.047 A 
ATOM     12  C   UNL A   1      29.475  28.507  23.429  1.00  0.00     0.038 A 
ATOM     13  C   UNL A   1      30.689  29.124  23.775  1.00  0.00     0.042 A 
BRANCH  11  14
ATOM     14  N   UNL A   1      33.039  26.265  24.188  1.00  0.00    -0.398 N 
ATOM     15  H   UNL A   1      33.914  26.681  24.015  1.00  0.00     0.156 HD
ATOM     16  H   UNL A   1      32.988  25.319  24.455  1.00  0.00     0.156 HD
ENDBRANCH  11  14
BRANCH  12  17
ATOM     17  N   UNL A   1      28.366  29.242  23.023  1.00  0.00    -0.372 N 
ATOM     18  C   UNL A   1      27.019  28.664  23.128  1.00  0.00     0.144 C 
BRANCH  17  19
ATOM     19  C   UNL A   1      28.374  30.648  22.554  1.00  0.00     0.075 C 
ATOM     20  C   UNL A   1      28.025  30.771  21.071  1.00  0.00     0.030 C 
ATOM     21  C   UNL A   1      27.601  31.593  23.469  1.00  0.00     0.030 C 
ENDBRANCH  17  19
ENDBRANCH  12  17
ENDBRANCH   4   7
ENDBRANCH   2   3
ENDBRANCH   1   2
BRANCH   1  22
ATOM     22  C   UNL A   1      31.951  31.817  26.519  1.00  0.00     0.023 C 
BRANCH  22  23
ATOM     23  C   UNL A   1      32.918  32.590  27.405  1.00  0.00     0.116 C 
BRANCH  23  24
ATOM     24  N   UNL A   1      32.494  33.958  27.662  1.00  0.00    -0.352 N 
ATOM     25  C   UNL A   1      33.016  34.858  28.564  1.00  0.00     0.251 C 
ATOM     26  H   UNL A   1      31.738  34.282  27.122  1.00  0.00     0.163 HD
ATOM     27  O   UNL A   1      32.495  35.947  28.736  1.00  0.00    -0.269 OA
BRANCH  25  28
ATOM     28  C   UNL A   1      34.193  34.457  29.361  1.00  0.00     0.039 A 
ATOM     29  C   UNL A   1      33.986  33.902  30.626  1.00  0.00     0.014 A 
ATOM     30  C   UNL A   1      35.480  34.567  28.833  1.00  0.00     0.014 A 
ATOM     31  C   UNL A   1      35.070  33.379  31.331  1.00  0.00     0.010 A 
ATOM     32  C   UNL A   1      36.550  33.990  29.507  1.00  0.00     0.010 A 
ATOM     33  C   UNL A   1      36.352  33.382  30.757  1.00  0.00    -0.014 A 
BRANCH  33  34
ATOM     34  C   UNL A   1      37.495  32.723  31.432  1.00  0.00     0.031 A 
ATOM     35  C   UNL A   1      38.192  31.566  30.779  1.00  0.00     0.074 A 
ATOM     36  C   UNL A   1      37.846  33.117  32.671  1.00  0.00     0.049 A 
ATOM     37  N   UNL A   1      39.156  30.813  31.243  1.00  0.00    -0.248 NA
ATOM     38  C   UNL A   1      37.722  31.186  29.438  1.00  0.00     0.031 C 
ATOM     39  C   UNL A   1      37.205  34.191  33.431  1.00  0.00     0.029 A 
ATOM     40  N   UNL A   1      38.821  32.649  33.516  1.00  0.00    -0.354 N 
ATOM     41  C   UNL A   1      39.397  29.863  30.261  1.00  0.00     0.074 A 
ATOM     42  C   UNL A   1      38.448  30.104  29.195  1.00  0.00     0.031 C 
ATOM     43  C   UNL A   1      37.813  34.311  34.622  1.00  0.00     0.029 A 
ATOM     44  C   UNL A   1      38.865  33.305  34.721  1.00  0.00     0.049 A 
ATOM     45  H   UNL A   1      39.431  31.913  33.280  1.00  0.00     0.167 HD
ATOM     46  C   UNL A   1      40.340  28.891  30.242  1.00  0.00     0.037 A 
ATOM     47  C   UNL A   1      39.663  33.112  35.788  1.00  0.00     0.037 A 
ATOM     48  C   UNL A   1      41.300  28.673  31.291  1.00  0.00     0.049 A 
ATOM     49  C   UNL A   1      40.713  32.037  35.735  1.00  0.00     0.074 A 
ATOM     50  C   UNL A   1      42.338  27.759  31.336  1.00  0.00     0.029 A 
ATOM     51  N   UNL A   1      41.337  29.380  32.485  1.00  0.00    -0.354 N 
ATOM     52  N   UNL A   1      40.981  31.191  34.770  1.00  0.00    -0.248 NA
ATOM     53  C   UNL A   1      41.576  31.895  36.915  1.00  0.00     0.031 C 
ATOM     54  C   UNL A   1      42.982  27.889  32.573  1.00  0.00     0.029 A 
ATOM     55  C   UNL A   1      42.370  28.911  33.280  1.00  0.00     0.049 A 
ATOM     56  H   UNL A   1      40.720  30.107  32.729  1.00  0.00     0.167 HD
ATOM     57  C   UNL A   1      42.057  30.435  35.213  1.00  0.00     0.074 A 
ATOM     58  C   UNL A   1      42.400  30.929  36.531  1.00  0.00     0.031 C 
ATOM     59  C   UNL A   1      42.702  29.422  34.585  1.00  0.00     0.037 A 
BRANCH  46  60
ATOM     60  C   UNL A   1      40.380  27.994  29.041  1.00  0.00     0.064 A 
ATOM     61  C   UNL A   1      39.648  26.798  28.994  1.00  0.00     0.173 A 
ATOM     62  C   UNL A   1      41.137  28.344  27.914  1.00  0.00     0.173 A 
ATOM     63  F   UNL A   1      38.918  26.411  30.052  1.00  0.00    -0.203 F 
ATOM     64  C   UNL A   1      39.697  25.971  27.875  1.00  0.00     0.198 A 
ATOM     65  C   UNL A   1      41.163  27.528  26.785  1.00  0.00     0.198 A 
ATOM     66  F   UNL A   1      41.853  29.480  27.906  1.00  0.00    -0.203 F 
ATOM     67  F   UNL A   1      39.028  24.809  27.873  1.00  0.00    -0.200 F 
ATOM     68  C   UNL A   1      40.449  26.340  26.770  1.00  0.00     0.200 A 
ATOM     69  F   UNL A   1      41.881  27.891  25.714  1.00  0.00    -0.200 F 
ATOM     70  F   UNL A   1      40.492  25.544  25.692  1.00  0.00    -0.200 F 
ENDBRANCH  46  60
BRANCH  47  71
ATOM     71  C   UNL A   1      39.522  33.981  36.983  1.00  0.00     0.064 A 
ATOM     72  C   UNL A   1      38.769  33.562  38.089  1.00  0.00     0.173 A 
ATOM     73  C   UNL A   1      40.139  35.239  37.050  1.00  0.00     0.173 A 
ATOM     74  F   UNL A   1      38.145  32.375  38.061  1.00  0.00    -0.203 F 
ATOM     75  C   UNL A   1      38.626  34.375  39.211  1.00  0.00     0.198 A 
ATOM     76  C   UNL A   1      40.015  36.040  38.183  1.00  0.00     0.198 A 
ATOM     77  F   UNL A   1      40.875  35.681  36.021  1.00  0.00    -0.203 F 
ATOM     78  F   UNL A   1      37.871  33.965  40.239  1.00  0.00    -0.200 F 
ATOM     79  C   UNL A   1      39.254  35.610  39.260  1.00  0.00     0.200 A 
ATOM     80  F   UNL A   1      40.633  37.228  38.232  1.00  0.00    -0.200 F 
ATOM     81  F   UNL A   1      39.120  36.389  40.342  1.00  0.00    -0.200 F 
ENDBRANCH  47  71
BRANCH  59  82
ATOM     82  C   UNL A   1      43.866  28.803  35.300  1.00  0.00     0.064 A 
ATOM     83  C   UNL A   1      45.173  29.279  35.121  1.00  0.00     0.173 A 
ATOM     84  C   UNL A   1      43.665  27.751  36.205  1.00  0.00     0.173 A 
ATOM     85  F   UNL A   1      45.417  30.273  34.254  1.00  0.00    -0.203 F 
ATOM     86  C   UNL A   1      46.240  28.709  35.810  1.00  0.00     0.198 A 
ATOM     87  C   UNL A   1      44.731  27.201  36.910  1.00  0.00     0.198 A 
ATOM     88  F   UNL A   1      42.432  27.265  36.413  1.00  0.00    -0.203 F 
ATOM     89  F   UNL A   1      47.486  29.152  35.596  1.00  0.00    -0.200 F 
ATOM     90  C   UNL A   1      46.018  27.676  36.708  1.00  0.00     0.200 A 
ATOM     91  F   UNL A   1      44.512  26.210  37.786  1.00  0.00    -0.200 F 
ATOM     92  F   UNL A   1      47.045  27.133  37.376  1.00  0.00    -0.200 F 
ENDBRANCH  59  82
ENDBRANCH  33  34
ENDBRANCH  25  28
ENDBRANCH  23  24
ENDBRANCH  22  23
ENDBRANCH   1  22
TORSDOF 14
ENDMDL
MODEL 2
REMARK VINA RESULT:     -12.1      6.199     11.353
REMARK SMILES Cc1cc(N(C)C(C)C)cc(C(=O)NCCCCNC(=O)c2ccc(-c3c4nc(c(-c5c(F)c(F)c(F)c(F)c5F)c5ccc([nH]5)c(-c5c(F)c(F)c(F)c(F)c5F)c5nc(c(-c6c(F)c(F)c(F)c(F)c6F)c6ccc3[nH]6)C=C5)C=C4)cc2)c1N
REMARK SMILES IDX 16 1 15 2 14 3 12 4 13 5 11 7 1 8 2 9 3 10 85 11 4 12 10 13
REMARK SMILES IDX 86 14 5 17 6 18 7 19 8 20 9 21 17 22 18 23 19 24 20 25 21 27
REMARK SMILES IDX 22 28 23 29 84 30 24 31 83 32 25 33 26 34 27 35 77 36 28 37
REMARK SMILES IDX 82 38 76 39 78 40 29 41 81 42 75 43 74 44 30 46 62 47 42 48
REMARK SMILES IDX 61 49 43 50 46 51 60 52 79 53 44 54 45 55 59 57 80 58 47 59
REMARK SMILES IDX 31 60 32 61 40 62 33 63 34 64 38 65 41 66 35 67 36 68 39 69
REMARK SMILES IDX 37 70 63 71 64 72 72 73 65 74 66 75 70 76 73 77 67 78 68 79
REMARK SMILES IDX 71 80 69 81 48 82 49 83 57 84 50 85 51 86 55 87 58 88 52 89
REMARK SMILES IDX 53 90 56 91 54 92
REMARK H PARENT 14 6 86 15 86 16 19 26 78 45 46 56
REMARK Flexibility Score: inf
ROOT
ATOM      1  C   UNL A   1      37.357  21.360  24.525  1.00  0.00     0.023 C 
ENDROOT
BRANCH   1   2
ATOM      2  C   UNL A   1      36.984  22.542  25.426  1.00  0.00     0.116 C 
BRANCH   2   3
ATOM      3  N   UNL A   1      36.100  22.105  26.487  1.00  0.00    -0.352 N 
ATOM      4  C   UNL A   1      34.756  21.820  26.529  1.00  0.00     0.253 C 
ATOM      5  O   UNL A   1      34.313  21.506  27.639  1.00  0.00    -0.269 OA
ATOM      6  H   UNL A   1      36.554  21.987  27.352  1.00  0.00     0.163 HD
BRANCH   4   7
ATOM      7  C   UNL A   1      33.845  21.827  25.332  1.00  0.00     0.065 A 
ATOM      8  C   UNL A   1      32.224  19.345  22.924  1.00  0.00     0.046 C 
ATOM      9  C   UNL A   1      32.660  20.617  23.603  1.00  0.00    -0.025 A 
ATOM     10  C   UNL A   1      32.223  21.850  23.069  1.00  0.00     0.031 A 
ATOM     11  C   UNL A   1      33.489  20.596  24.736  1.00  0.00     0.047 A 
ATOM     12  C   UNL A   1      32.551  23.089  23.623  1.00  0.00     0.038 A 
ATOM     13  C   UNL A   1      33.294  23.017  24.814  1.00  0.00     0.042 A 
BRANCH  11  14
ATOM     14  N   UNL A   1      34.060  19.388  25.150  1.00  0.00    -0.398 N 
ATOM     15  H   UNL A   1      35.004  19.359  25.425  1.00  0.00     0.156 HD
ATOM     16  H   UNL A   1      33.518  18.567  25.165  1.00  0.00     0.156 HD
ENDBRANCH  11  14
BRANCH  12  17
ATOM     17  N   UNL A   1      32.206  24.306  23.045  1.00  0.00    -0.372 N 
ATOM     18  C   UNL A   1      30.855  24.853  23.230  1.00  0.00     0.144 C 
BRANCH  17  19
ATOM     19  C   UNL A   1      33.116  25.209  22.300  1.00  0.00     0.075 C 
ATOM     20  C   UNL A   1      32.645  25.458  20.868  1.00  0.00     0.030 C 
ATOM     21  C   UNL A   1      33.483  26.469  23.077  1.00  0.00     0.030 C 
ENDBRANCH  17  19
ENDBRANCH  12  17
ENDBRANCH   4   7
ENDBRANCH   2   3
ENDBRANCH   1   2
BRANCH   1  22
ATOM     22  C   UNL A   1      37.985  20.178  25.268  1.00  0.00     0.023 C 
BRANCH  22  23
ATOM     23  C   UNL A   1      39.344  20.467  25.891  1.00  0.00     0.116 C 
BRANCH  23  24
ATOM     24  N   UNL A   1      40.233  19.314  25.891  1.00  0.00    -0.352 N 
ATOM     25  C   UNL A   1      41.594  19.287  26.093  1.00  0.00     0.251 C 
ATOM     26  H   UNL A   1      39.806  18.443  25.726  1.00  0.00     0.163 HD
ATOM     27  O   UNL A   1      42.225  18.250  25.973  1.00  0.00    -0.269 OA
BRANCH  25  28
ATOM     28  C   UNL A   1      42.287  20.552  26.409  1.00  0.00     0.039 A 
ATOM     29  C   UNL A   1      42.728  21.354  25.353  1.00  0.00     0.014 A 
ATOM     30  C   UNL A   1      42.435  20.970  27.733  1.00  0.00     0.014 A 
ATOM     31  C   UNL A   1      43.248  22.619  25.626  1.00  0.00     0.010 A 
ATOM     32  C   UNL A   1      42.895  22.255  27.999  1.00  0.00     0.010 A 
ATOM     33  C   UNL A   1      43.295  23.094  26.947  1.00  0.00    -0.014 A 
BRANCH  33  34
ATOM     34  C   UNL A   1      43.726  24.479  27.249  1.00  0.00     0.031 A 
ATOM     35  C   UNL A   1      42.735  25.486  27.752  1.00  0.00     0.074 A 
ATOM     36  C   UNL A   1      44.996  24.847  26.986  1.00  0.00     0.049 A 
ATOM     37  N   UNL A   1      42.903  26.761  27.997  1.00  0.00    -0.248 NA
ATOM     38  C   UNL A   1      41.365  25.003  27.981  1.00  0.00     0.031 C 
ATOM     39  C   UNL A   1      46.035  23.972  26.441  1.00  0.00     0.029 A 
ATOM     40  N   UNL A   1      45.624  26.058  27.130  1.00  0.00    -0.354 N 
ATOM     41  C   UNL A   1      41.660  27.234  28.393  1.00  0.00     0.074 A 
ATOM     42  C   UNL A   1      40.736  26.122  28.311  1.00  0.00     0.031 C 
ATOM     43  C   UNL A   1      47.174  24.670  26.312  1.00  0.00     0.029 A 
ATOM     44  C   UNL A   1      46.939  26.046  26.736  1.00  0.00     0.049 A 
ATOM     45  H   UNL A   1      45.175  26.860  27.483  1.00  0.00     0.167 HD
ATOM     46  C   UNL A   1      41.325  28.479  28.808  1.00  0.00     0.037 A 
ATOM     47  C   UNL A   1      47.851  27.036  26.717  1.00  0.00     0.037 A 
ATOM     48  C   UNL A   1      42.253  29.574  28.914  1.00  0.00     0.049 A 
ATOM     49  C   UNL A   1      47.458  28.405  27.198  1.00  0.00     0.074 A 
ATOM     50  C   UNL A   1      42.027  30.854  29.388  1.00  0.00     0.029 A 
ATOM     51  N   UNL A   1      43.588  29.516  28.538  1.00  0.00    -0.354 N 
ATOM     52  N   UNL A   1      46.298  28.824  27.641  1.00  0.00    -0.248 NA
ATOM     53  C   UNL A   1      48.504  29.437  27.184  1.00  0.00     0.031 C 
ATOM     54  C   UNL A   1      43.217  31.582  29.265  1.00  0.00     0.029 A 
ATOM     55  C   UNL A   1      44.193  30.743  28.754  1.00  0.00     0.049 A 
ATOM     56  H   UNL A   1      44.037  28.719  28.173  1.00  0.00     0.167 HD
ATOM     57  C   UNL A   1      46.478  30.157  27.983  1.00  0.00     0.074 A 
ATOM     58  C   UNL A   1      47.864  30.475  27.706  1.00  0.00     0.031 C 
ATOM     59  C   UNL A   1      45.576  31.037  28.480  1.00  0.00     0.037 A 
BRANCH  46  60
ATOM     60  C   UNL A   1      39.894  28.718  29.184  1.00  0.00     0.064 A 
ATOM     61  C   UNL A   1      39.428  28.486  30.487  1.00  0.00     0.173 A 
ATOM     62  C   UNL A   1      38.981  29.210  28.239  1.00  0.00     0.173 A 
ATOM     63  F   UNL A   1      40.259  28.003  31.424  1.00  0.00    -0.203 F 
ATOM     64  C   UNL A   1      38.096  28.709  30.822  1.00  0.00     0.198 A 
ATOM     65  C   UNL A   1      37.655  29.458  28.585  1.00  0.00     0.198 A 
ATOM     66  F   UNL A   1      39.376  29.453  26.979  1.00  0.00    -0.203 F 
ATOM     67  F   UNL A   1      37.663  28.433  32.061  1.00  0.00    -0.200 F 
ATOM     68  C   UNL A   1      37.212  29.200  29.874  1.00  0.00     0.200 A 
ATOM     69  F   UNL A   1      36.804  29.942  27.670  1.00  0.00    -0.200 F 
ATOM     70  F   UNL A   1      35.930  29.417  30.199  1.00  0.00    -0.200 F 
ENDBRANCH  46  60
BRANCH  47  71
ATOM     71  C   UNL A   1      49.234  26.757  26.256  1.00  0.00     0.064 A 
ATOM     72  C   UNL A   1      50.194  26.246  27.141  1.00  0.00     0.173 A 
ATOM     73  C   UNL A   1      49.624  26.986  24.928  1.00  0.00     0.173 A 
ATOM     74  F   UNL A   1      49.872  26.031  28.425  1.00  0.00    -0.203 F 
ATOM     75  C   UNL A   1      51.496  25.989  26.718  1.00  0.00     0.198 A 
ATOM     76  C   UNL A   1      50.919  26.704  24.501  1.00  0.00     0.198 A 
ATOM     77  F   UNL A   1      48.739  27.467  24.043  1.00  0.00    -0.203 F 
ATOM     78  F   UNL A   1      52.404  25.535  27.593  1.00  0.00    -0.200 F 
ATOM     79  C   UNL A   1      51.856  26.212  25.398  1.00  0.00     0.200 A 
ATOM     80  F   UNL A   1      51.261  26.909  23.222  1.00  0.00    -0.200 F 
ATOM     81  F   UNL A   1      53.107  25.959  24.991  1.00  0.00    -0.200 F 
ENDBRANCH  47  71
BRANCH  59  82
ATOM     82  C   UNL A   1      46.068  32.420  28.791  1.00  0.00     0.064 A 
ATOM     83  C   UNL A   1      45.999  33.453  27.845  1.00  0.00     0.173 A 
ATOM     84  C   UNL A   1      46.574  32.724  30.063  1.00  0.00     0.173 A 
ATOM     85  F   UNL A   1      45.538  33.206  26.609  1.00  0.00    -0.203 F 
ATOM     86  C   UNL A   1      46.437  34.736  28.156  1.00  0.00     0.198 A 
ATOM     87  C   UNL A   1      46.988  34.014  30.379  1.00  0.00     0.198 A 
ATOM     88  F   UNL A   1      46.656  31.771  31.004  1.00  0.00    -0.203 F 
ATOM     89  F   UNL A   1      46.399  35.699  27.225  1.00  0.00    -0.200 F 
ATOM     90  C   UNL A   1      46.925  35.018  29.424  1.00  0.00     0.200 A 
ATOM     91  F   UNL A   1      47.449  34.286  31.608  1.00  0.00    -0.200 F 
ATOM     92  F   UNL A   1      47.340  36.256  29.724  1.00  0.00    -0.200 F 
ENDBRANCH  59  82
ENDBRANCH  33  34
ENDBRANCH  25  28
ENDBRANCH  23  24
ENDBRANCH  22  23
ENDBRANCH   1  22
TORSDOF 14
ENDMDL
MODEL 3
REMARK VINA RESULT:     -12.1      1.072      3.154
REMARK SMILES Cc1cc(N(C)C(C)C)cc(C(=O)NCCCCNC(=O)c2ccc(-c3c4nc(c(-c5c(F)c(F)c(F)c(F)c5F)c5ccc([nH]5)c(-c5c(F)c(F)c(F)c(F)c5F)c5nc(c(-c6c(F)c(F)c(F)c(F)c6F)c6ccc3[nH]6)C=C5)C=C4)cc2)c1N
REMARK SMILES IDX 16 1 15 2 14 3 12 4 13 5 11 7 1 8 2 9 3 10 85 11 4 12 10 13
REMARK SMILES IDX 86 14 5 17 6 18 7 19 8 20 9 21 17 22 18 23 19 24 20 25 21 27
REMARK SMILES IDX 22 28 23 29 84 30 24 31 83 32 25 33 26 34 27 35 77 36 28 37
REMARK SMILES IDX 82 38 76 39 78 40 29 41 81 42 75 43 74 44 30 46 62 47 42 48
REMARK SMILES IDX 61 49 43 50 46 51 60 52 79 53 44 54 45 55 59 57 80 58 47 59
REMARK SMILES IDX 31 60 32 61 40 62 33 63 34 64 38 65 41 66 35 67 36 68 39 69
REMARK SMILES IDX 37 70 63 71 64 72 72 73 65 74 66 75 70 76 73 77 67 78 68 79
REMARK SMILES IDX 71 80 69 81 48 82 49 83 57 84 50 85 51 86 55 87 58 88 52 89
REMARK SMILES IDX 53 90 56 91 54 92
REMARK H PARENT 14 6 86 15 86 16 19 26 78 45 46 56
REMARK Flexibility Score: inf
ROOT
ATOM      1  C   UNL A   1      32.022  30.207  26.979  1.00  0.00     0.023 C 
ENDROOT
BRANCH   1   2
ATOM      2  C   UNL A   1      33.424  29.736  26.577  1.00  0.00     0.116 C 
BRANCH   2   3
ATOM      3  N   UNL A   1      33.560  29.742  25.135  1.00  0.00    -0.352 N 
ATOM      4  C   UNL A   1      33.120  28.890  24.149  1.00  0.00     0.253 C 
ATOM      5  O   UNL A   1      33.462  29.187  22.999  1.00  0.00    -0.269 OA
ATOM      6  H   UNL A   1      34.069  30.510  24.792  1.00  0.00     0.163 HD
BRANCH   4   7
ATOM      7  C   UNL A   1      32.243  27.691  24.386  1.00  0.00     0.065 A 
ATOM      8  C   UNL A   1      28.601  26.644  23.918  1.00  0.00     0.046 C 
ATOM      9  C   UNL A   1      30.062  26.648  24.283  1.00  0.00    -0.025 A 
ATOM     10  C   UNL A   1      30.605  25.499  24.900  1.00  0.00     0.031 A 
ATOM     11  C   UNL A   1      30.877  27.764  24.032  1.00  0.00     0.047 A 
ATOM     12  C   UNL A   1      31.948  25.385  25.268  1.00  0.00     0.038 A 
ATOM     13  C   UNL A   1      32.747  26.482  24.904  1.00  0.00     0.042 A 
BRANCH  11  14
ATOM     14  N   UNL A   1      30.295  28.956  23.588  1.00  0.00    -0.398 N 
ATOM     15  H   UNL A   1      30.603  29.818  23.949  1.00  0.00     0.156 HD
ATOM     16  H   UNL A   1      29.577  28.933  22.915  1.00  0.00     0.156 HD
ENDBRANCH  11  14
BRANCH  12  17
ATOM     17  N   UNL A   1      32.465  24.297  25.963  1.00  0.00    -0.372 N 
ATOM     18  C   UNL A   1      31.617  23.554  26.905  1.00  0.00     0.144 C 
BRANCH  17  19
ATOM     19  C   UNL A   1      33.816  23.712  25.791  1.00  0.00     0.075 C 
ATOM     20  C   UNL A   1      34.291  22.965  27.037  1.00  0.00     0.030 C 
ATOM     21  C   UNL A   1      33.976  22.938  24.486  1.00  0.00     0.030 C 
ENDBRANCH  17  19
ENDBRANCH  12  17
ENDBRANCH   4   7
ENDBRANCH   2   3
ENDBRANCH   1   2
BRANCH   1  22
ATOM     22  C   UNL A   1      31.791  31.710  26.802  1.00  0.00     0.023 C 
BRANCH  22  23
ATOM     23  C   UNL A   1      32.911  32.594  27.333  1.00  0.00     0.116 C 
BRANCH  23  24
ATOM     24  N   UNL A   1      32.486  33.960  27.605  1.00  0.00    -0.352 N 
ATOM     25  C   UNL A   1      33.008  34.849  28.516  1.00  0.00     0.251 C 
ATOM     26  H   UNL A   1      31.730  34.289  27.069  1.00  0.00     0.163 HD
ATOM     27  O   UNL A   1      32.486  35.937  28.700  1.00  0.00    -0.269 OA
BRANCH  25  28
ATOM     28  C   UNL A   1      34.185  34.440  29.309  1.00  0.00     0.039 A 
ATOM     29  C   UNL A   1      33.978  33.855  30.560  1.00  0.00     0.014 A 
ATOM     30  C   UNL A   1      35.473  34.574  28.788  1.00  0.00     0.014 A 
ATOM     31  C   UNL A   1      35.064  33.326  31.257  1.00  0.00     0.010 A 
ATOM     32  C   UNL A   1      36.546  33.991  29.454  1.00  0.00     0.010 A 
ATOM     33  C   UNL A   1      36.349  33.353  30.688  1.00  0.00    -0.014 A 
BRANCH  33  34
ATOM     34  C   UNL A   1      37.495  32.688  31.352  1.00  0.00     0.031 A 
ATOM     35  C   UNL A   1      38.193  31.541  30.683  1.00  0.00     0.074 A 
ATOM     36  C   UNL A   1      37.847  33.068  32.596  1.00  0.00     0.049 A 
ATOM     37  N   UNL A   1      39.160  30.785  31.136  1.00  0.00    -0.248 NA
ATOM     38  C   UNL A   1      37.721  31.177  29.339  1.00  0.00     0.031 C 
ATOM     39  C   UNL A   1      37.205  34.131  33.371  1.00  0.00     0.029 A 
ATOM     40  N   UNL A   1      38.825  32.591  33.432  1.00  0.00    -0.354 N 
ATOM     41  C   UNL A   1      39.402  29.848  30.142  1.00  0.00     0.074 A 
ATOM     42  C   UNL A   1      38.449  30.100  29.081  1.00  0.00     0.031 C 
ATOM     43  C   UNL A   1      37.816  34.237  34.561  1.00  0.00     0.029 A 
ATOM     44  C   UNL A   1      38.871  33.232  34.646  1.00  0.00     0.049 A 
ATOM     45  H   UNL A   1      39.437  31.860  33.186  1.00  0.00     0.167 HD
ATOM     46  C   UNL A   1      40.346  28.879  30.108  1.00  0.00     0.037 A 
ATOM     47  C   UNL A   1      39.672  33.029  35.708  1.00  0.00     0.037 A 
ATOM     48  C   UNL A   1      41.309  28.650  31.153  1.00  0.00     0.049 A 
ATOM     49  C   UNL A   1      40.724  31.957  35.639  1.00  0.00     0.074 A 
ATOM     50  C   UNL A   1      42.350  27.738  31.184  1.00  0.00     0.029 A 
ATOM     51  N   UNL A   1      41.347  29.342  32.355  1.00  0.00    -0.354 N 
ATOM     52  N   UNL A   1      40.992  31.124  34.663  1.00  0.00    -0.248 NA
ATOM     53  C   UNL A   1      41.590  31.802  36.816  1.00  0.00     0.031 C 
ATOM     54  C   UNL A   1      42.996  27.854  32.421  1.00  0.00     0.029 A 
ATOM     55  C   UNL A   1      42.384  28.866  33.142  1.00  0.00     0.049 A 
ATOM     56  H   UNL A   1      40.730  30.065  32.610  1.00  0.00     0.167 HD
ATOM     57  C   UNL A   1      42.071  30.365  35.094  1.00  0.00     0.074 A 
ATOM     58  C   UNL A   1      42.415  30.844  36.418  1.00  0.00     0.031 C 
ATOM     59  C   UNL A   1      42.717  29.362  34.453  1.00  0.00     0.037 A 
BRANCH  46  60
ATOM     60  C   UNL A   1      40.386  27.997  28.896  1.00  0.00     0.064 A 
ATOM     61  C   UNL A   1      41.140  28.339  27.763  1.00  0.00     0.173 A 
ATOM     62  C   UNL A   1      39.685  26.782  28.875  1.00  0.00     0.173 A 
ATOM     63  F   UNL A   1      41.818  29.497  27.729  1.00  0.00    -0.203 F 
ATOM     64  C   UNL A   1      41.166  27.513  26.643  1.00  0.00     0.198 A 
ATOM     65  C   UNL A   1      39.735  25.945  27.763  1.00  0.00     0.198 A 
ATOM     66  F   UNL A   1      38.952  26.405  29.935  1.00  0.00    -0.203 F 
ATOM     67  F   UNL A   1      41.853  27.886  25.554  1.00  0.00    -0.200 F 
ATOM     68  C   UNL A   1      40.468  26.315  26.646  1.00  0.00     0.200 A 
ATOM     69  F   UNL A   1      39.069  24.782  27.771  1.00  0.00    -0.200 F 
ATOM     70  F   UNL A   1      40.497  25.519  25.568  1.00  0.00    -0.200 F 
ENDBRANCH  46  60
BRANCH  47  71
ATOM     71  C   UNL A   1      39.531  33.882  36.914  1.00  0.00     0.064 A 
ATOM     72  C   UNL A   1      40.170  35.128  36.989  1.00  0.00     0.173 A 
ATOM     73  C   UNL A   1      38.753  33.480  38.009  1.00  0.00     0.173 A 
ATOM     74  F   UNL A   1      40.940  35.545  35.973  1.00  0.00    -0.203 F 
ATOM     75  C   UNL A   1      40.049  35.932  38.119  1.00  0.00     0.198 A 
ATOM     76  C   UNL A   1      38.612  34.296  39.130  1.00  0.00     0.198 A 
ATOM     77  F   UNL A   1      38.116  32.300  37.983  1.00  0.00    -0.203 F 
ATOM     78  F   UNL A   1      40.699  37.101  38.179  1.00  0.00    -0.200 F 
ATOM     79  C   UNL A   1      39.265  35.518  39.187  1.00  0.00     0.200 A 
ATOM     80  F   UNL A   1      37.845  33.899  40.154  1.00  0.00    -0.200 F 
ATOM     81  F   UNL A   1      39.145  36.294  40.272  1.00  0.00    -0.200 F 
ENDBRANCH  47  71
BRANCH  59  82
ATOM     82  C   UNL A   1      43.884  28.737  35.157  1.00  0.00     0.064 A 
ATOM     83  C   UNL A   1      43.727  27.620  35.990  1.00  0.00     0.173 A 
ATOM     84  C   UNL A   1      45.180  29.237  34.962  1.00  0.00     0.173 A 
ATOM     85  F   UNL A   1      42.504  27.117  36.220  1.00  0.00    -0.203 F 
ATOM     86  C   UNL A   1      44.824  27.038  36.617  1.00  0.00     0.198 A 
ATOM     87  C   UNL A   1      46.278  28.636  35.571  1.00  0.00     0.198 A 
ATOM     88  F   UNL A   1      45.383  30.301  34.170  1.00  0.00    -0.203 F 
ATOM     89  F   UNL A   1      44.646  25.995  37.441  1.00  0.00    -0.200 F 
ATOM     90  C   UNL A   1      46.098  27.541  36.403  1.00  0.00     0.200 A 
ATOM     91  F   UNL A   1      47.509  29.117  35.354  1.00  0.00    -0.200 F 
ATOM     92  F   UNL A   1      47.154  26.974  37.002  1.00  0.00    -0.200 F 
ENDBRANCH  59  82
ENDBRANCH  33  34
ENDBRANCH  25  28
ENDBRANCH  23  24
ENDBRANCH  22  23
ENDBRANCH   1  22
TORSDOF 14
ENDMDL
