MODEL 1
REMARK VINA RESULT:     -11.4      0.000      0.000
REMARK SMILES C#CCN(CC(=O)NCCCCNC(=O)c1ccc(-c2c3nc(c(-c4c(F)c(F)c(F)c(F)c4F)c4ccc([nH]4)c(-c4c(F)c(F)c(F)c(F)c4F)c4nc(c(-c5c(F)c(F)c(F)c(F)c5F)c5ccc2[nH]5)C=C4)C=C3)cc1)C(=O)c1c[nH]c(=O)[nH]1
REMARK SMILES IDX 10 1 9 2 8 3 6 4 7 5 5 7 4 8 3 9 2 10 1 11 79 12 80 13 81 14
REMARK SMILES IDX 82 15 86 16 83 17 84 18 85 21 11 22 12 23 13 24 14 25 15 27
REMARK SMILES IDX 16 28 17 29 78 30 18 31 77 32 19 33 20 34 21 35 71 36 22 37
REMARK SMILES IDX 76 38 70 39 72 40 23 41 75 42 69 43 68 44 24 46 56 47 36 48
REMARK SMILES IDX 55 49 37 50 40 51 54 52 73 53 38 54 39 55 53 57 74 58 41 59
REMARK SMILES IDX 25 60 26 61 34 62 27 63 28 64 32 65 35 66 29 67 30 68 33 69
REMARK SMILES IDX 31 70 57 71 58 72 66 73 59 74 60 75 64 76 67 77 61 78 62 79
REMARK SMILES IDX 65 80 63 81 42 82 43 83 51 84 44 85 45 86 49 87 52 88 46 89
REMARK SMILES IDX 47 90 50 91 48 92
REMARK H PARENT 8 6 86 19 83 20 13 26 72 45 40 56
REMARK Flexibility Score: inf
ROOT
ATOM      1  C   UNL A   1      37.320  21.202  24.450  1.00  0.00     0.023 C 
ENDROOT
BRANCH   1   2
ATOM      2  C   UNL A   1      37.051  22.345  25.427  1.00  0.00     0.116 C 
BRANCH   2   3
ATOM      3  N   UNL A   1      36.054  22.027  26.424  1.00  0.00    -0.355 N 
ATOM      4  C   UNL A   1      34.722  21.775  26.275  1.00  0.00     0.239 C 
ATOM      5  O   UNL A   1      34.155  21.213  27.216  1.00  0.00    -0.273 OA
ATOM      6  H   UNL A   1      36.386  21.986  27.350  1.00  0.00     0.163 HD
BRANCH   4   7
ATOM      7  C   UNL A   1      33.963  22.060  24.965  1.00  0.00     0.220 C 
BRANCH   7   8
ATOM      8  N   UNL A   1      32.701  21.335  24.786  1.00  0.00    -0.317 N 
BRANCH   8   9
ATOM      9  C   UNL A   1      31.480  21.954  25.302  1.00  0.00     0.210 C 
BRANCH   9  10
ATOM     10  C   UNL A   1      31.100  23.196  24.511  1.00  0.00    -0.085 C 
ATOM     11  C   UNL A   1      30.774  24.261  23.833  1.00  0.00     0.006 C 
ENDBRANCH   9  10
ENDBRANCH   8   9
BRANCH   8  12
ATOM     12  C   UNL A   1      32.580  20.145  24.075  1.00  0.00     0.273 C 
ATOM     13  O   UNL A   1      32.132  20.094  22.929  1.00  0.00    -0.267 OA
BRANCH  12  14
ATOM     14  C   UNL A   1      33.046  18.879  24.697  1.00  0.00     0.125 A 
ATOM     15  C   UNL A   1      32.682  18.312  25.857  1.00  0.00     0.119 A 
ATOM     16  N   UNL A   1      33.887  18.010  24.037  1.00  0.00    -0.302 N 
ATOM     17  N   UNL A   1      33.323  17.103  25.974  1.00  0.00    -0.312 N 
ATOM     18  C   UNL A   1      34.090  16.874  24.826  1.00  0.00     0.323 A 
ATOM     19  H   UNL A   1      34.284  18.165  23.149  1.00  0.00     0.172 HD
ATOM     20  H   UNL A   1      33.254  16.494  26.744  1.00  0.00     0.171 HD
ATOM     21  O   UNL A   1      34.770  15.897  24.570  1.00  0.00    -0.248 OA
ENDBRANCH  12  14
ENDBRANCH   8  12
ENDBRANCH   7   8
ENDBRANCH   4   7
ENDBRANCH   2   3
ENDBRANCH   1   2
BRANCH   1  22
ATOM     22  C   UNL A   1      38.035  19.995  25.050  1.00  0.00     0.023 C 
BRANCH  22  23
ATOM     23  C   UNL A   1      39.313  20.316  25.807  1.00  0.00     0.116 C 
BRANCH  23  24
ATOM     24  N   UNL A   1      40.235  19.193  25.887  1.00  0.00    -0.352 N 
ATOM     25  C   UNL A   1      41.590  19.214  26.119  1.00  0.00     0.251 C 
ATOM     26  H   UNL A   1      39.837  18.302  25.757  1.00  0.00     0.163 HD
ATOM     27  O   UNL A   1      42.252  18.186  26.046  1.00  0.00    -0.269 OA
BRANCH  25  28
ATOM     28  C   UNL A   1      42.244  20.503  26.420  1.00  0.00     0.039 A 
ATOM     29  C   UNL A   1      42.731  21.277  25.365  1.00  0.00     0.014 A 
ATOM     30  C   UNL A   1      42.323  20.968  27.736  1.00  0.00     0.014 A 
ATOM     31  C   UNL A   1      43.232  22.552  25.623  1.00  0.00     0.010 A 
ATOM     32  C   UNL A   1      42.739  22.271  27.979  1.00  0.00     0.010 A 
ATOM     33  C   UNL A   1      43.201  23.076  26.927  1.00  0.00    -0.014 A 
BRANCH  33  34
ATOM     34  C   UNL A   1      43.647  24.461  27.214  1.00  0.00     0.031 A 
ATOM     35  C   UNL A   1      42.668  25.475  27.734  1.00  0.00     0.074 A 
ATOM     36  C   UNL A   1      44.914  24.826  26.941  1.00  0.00     0.049 A 
ATOM     37  N   UNL A   1      42.844  26.748  27.983  1.00  0.00    -0.248 NA
ATOM     38  C   UNL A   1      41.297  25.000  27.978  1.00  0.00     0.031 C 
ATOM     39  C   UNL A   1      45.947  23.946  26.393  1.00  0.00     0.029 A 
ATOM     40  N   UNL A   1      45.547  26.035  27.079  1.00  0.00    -0.354 N 
ATOM     41  C   UNL A   1      41.609  27.225  28.401  1.00  0.00     0.074 A 
ATOM     42  C   UNL A   1      40.676  26.123  28.304  1.00  0.00     0.031 C 
ATOM     43  C   UNL A   1      47.093  24.634  26.275  1.00  0.00     0.029 A 
ATOM     44  C   UNL A   1      46.864  26.015  26.693  1.00  0.00     0.049 A 
ATOM     45  H   UNL A   1      45.100  26.841  27.425  1.00  0.00     0.167 HD
ATOM     46  C   UNL A   1      41.287  28.461  28.852  1.00  0.00     0.037 A 
ATOM     47  C   UNL A   1      47.783  26.999  26.671  1.00  0.00     0.037 A 
ATOM     48  C   UNL A   1      42.222  29.551  28.953  1.00  0.00     0.049 A 
ATOM     49  C   UNL A   1      47.392  28.376  27.137  1.00  0.00     0.074 A 
ATOM     50  C   UNL A   1      42.010  30.828  29.440  1.00  0.00     0.029 A 
ATOM     51  N   UNL A   1      43.547  29.495  28.543  1.00  0.00    -0.354 N 
ATOM     52  N   UNL A   1      46.240  28.800  27.598  1.00  0.00    -0.248 NA
ATOM     53  C   UNL A   1      48.434  29.411  27.085  1.00  0.00     0.031 C 
ATOM     54  C   UNL A   1      43.188  31.563  29.266  1.00  0.00     0.029 A 
ATOM     55  C   UNL A   1      44.156  30.724  28.736  1.00  0.00     0.049 A 
ATOM     56  H   UNL A   1      43.990  28.698  28.169  1.00  0.00     0.167 HD
ATOM     57  C   UNL A   1      46.426  30.137  27.922  1.00  0.00     0.074 A 
ATOM     58  C   UNL A   1      47.806  30.452  27.615  1.00  0.00     0.031 C 
ATOM     59  C   UNL A   1      45.534  31.023  28.431  1.00  0.00     0.037 A 
BRANCH  46  60
ATOM     60  C   UNL A   1      39.858  28.695  29.259  1.00  0.00     0.064 A 
ATOM     61  C   UNL A   1      38.903  29.188  28.355  1.00  0.00     0.173 A 
ATOM     62  C   UNL A   1      39.436  28.424  30.569  1.00  0.00     0.173 A 
ATOM     63  F   UNL A   1      39.253  29.475  27.091  1.00  0.00    -0.203 F 
ATOM     64  C   UNL A   1      37.596  29.448  28.759  1.00  0.00     0.198 A 
ATOM     65  C   UNL A   1      38.118  28.647  30.960  1.00  0.00     0.198 A 
ATOM     66  F   UNL A   1      40.302  27.945  31.474  1.00  0.00    -0.203 F 
ATOM     67  F   UNL A   1      36.725  29.990  27.898  1.00  0.00    -0.200 F 
ATOM     68  C   UNL A   1      37.203  29.173  30.060  1.00  0.00     0.200 A 
ATOM     69  F   UNL A   1      37.736  28.365  32.214  1.00  0.00    -0.200 F 
ATOM     70  F   UNL A   1      35.946  29.424  30.450  1.00  0.00    -0.200 F 
ENDBRANCH  46  60
BRANCH  47  71
ATOM     71  C   UNL A   1      49.169  26.708  26.223  1.00  0.00     0.064 A 
ATOM     72  C   UNL A   1      49.560  26.953  24.898  1.00  0.00     0.173 A 
ATOM     73  C   UNL A   1      50.133  26.193  27.101  1.00  0.00     0.173 A 
ATOM     74  F   UNL A   1      48.670  27.427  24.015  1.00  0.00    -0.203 F 
ATOM     75  C   UNL A   1      50.857  26.678  24.468  1.00  0.00     0.198 A 
ATOM     76  C   UNL A   1      51.438  25.948  26.677  1.00  0.00     0.198 A 
ATOM     77  F   UNL A   1      49.812  25.947  28.381  1.00  0.00    -0.203 F 
ATOM     78  F   UNL A   1      51.191  26.882  23.186  1.00  0.00    -0.200 F 
ATOM     79  C   UNL A   1      51.796  26.183  25.359  1.00  0.00     0.200 A 
ATOM     80  F   UNL A   1      52.346  25.485  27.546  1.00  0.00    -0.200 F 
ATOM     81  F   UNL A   1      53.046  25.928  24.947  1.00  0.00    -0.200 F 
ENDBRANCH  47  71
BRANCH  59  82
ATOM     82  C   UNL A   1      46.031  32.410  28.731  1.00  0.00     0.064 A 
ATOM     83  C   UNL A   1      45.948  33.448  27.792  1.00  0.00     0.173 A 
ATOM     84  C   UNL A   1      46.559  32.713  29.997  1.00  0.00     0.173 A 
ATOM     85  F   UNL A   1      45.465  33.209  26.562  1.00  0.00    -0.203 F 
ATOM     86  C   UNL A   1      46.399  34.729  28.098  1.00  0.00     0.198 A 
ATOM     87  C   UNL A   1      46.975  34.003  30.311  1.00  0.00     0.198 A 
ATOM     88  F   UNL A   1      46.654  31.759  30.936  1.00  0.00    -0.203 F 
ATOM     89  F   UNL A   1      46.359  35.692  27.167  1.00  0.00    -0.200 F 
ATOM     90  C   UNL A   1      46.904  35.008  29.359  1.00  0.00     0.200 A 
ATOM     91  F   UNL A   1      47.445  34.273  31.538  1.00  0.00    -0.200 F 
ATOM     92  F   UNL A   1      47.327  36.245  29.656  1.00  0.00    -0.200 F 
ENDBRANCH  59  82
ENDBRANCH  33  34
ENDBRANCH  25  28
ENDBRANCH  23  24
ENDBRANCH  22  23
ENDBRANCH   1  22
TORSDOF 16
ENDMDL
MODEL 2
REMARK VINA RESULT:     -11.3      6.110     11.353
REMARK SMILES C#CCN(CC(=O)NCCCCNC(=O)c1ccc(-c2c3nc(c(-c4c(F)c(F)c(F)c(F)c4F)c4ccc([nH]4)c(-c4c(F)c(F)c(F)c(F)c4F)c4nc(c(-c5c(F)c(F)c(F)c(F)c5F)c5ccc2[nH]5)C=C4)C=C3)cc1)C(=O)c1c[nH]c(=O)[nH]1
REMARK SMILES IDX 10 1 9 2 8 3 6 4 7 5 5 7 4 8 3 9 2 10 1 11 79 12 80 13 81 14
REMARK SMILES IDX 82 15 86 16 83 17 84 18 85 21 11 22 12 23 13 24 14 25 15 27
REMARK SMILES IDX 16 28 17 29 78 30 18 31 77 32 19 33 20 34 21 35 71 36 22 37
REMARK SMILES IDX 76 38 70 39 72 40 23 41 75 42 69 43 68 44 24 46 56 47 36 48
REMARK SMILES IDX 55 49 37 50 40 51 54 52 73 53 38 54 39 55 53 57 74 58 41 59
REMARK SMILES IDX 25 60 26 61 34 62 27 63 28 64 32 65 35 66 29 67 30 68 33 69
REMARK SMILES IDX 31 70 57 71 58 72 66 73 59 74 60 75 64 76 67 77 61 78 62 79
REMARK SMILES IDX 65 80 63 81 42 82 43 83 51 84 44 85 45 86 49 87 52 88 46 89
REMARK SMILES IDX 47 90 50 91 48 92
REMARK H PARENT 8 6 86 19 83 20 13 26 72 45 40 56
REMARK Flexibility Score: inf
ROOT
ATOM      1  C   UNL A   1      31.789  30.339  26.879  1.00  0.00     0.023 C 
ENDROOT
BRANCH   1   2
ATOM      2  C   UNL A   1      33.190  29.789  26.616  1.00  0.00     0.116 C 
BRANCH   2   3
ATOM      3  N   UNL A   1      33.512  29.685  25.212  1.00  0.00    -0.355 N 
ATOM      4  C   UNL A   1      33.498  28.594  24.393  1.00  0.00     0.239 C 
ATOM      5  O   UNL A   1      33.493  28.812  23.178  1.00  0.00    -0.273 OA
ATOM      6  H   UNL A   1      33.783  30.527  24.780  1.00  0.00     0.163 HD
BRANCH   4   7
ATOM      7  C   UNL A   1      33.377  27.154  24.927  1.00  0.00     0.220 C 
BRANCH   7   8
ATOM      8  N   UNL A   1      32.017  26.610  24.998  1.00  0.00    -0.317 N 
BRANCH   8   9
ATOM      9  C   UNL A   1      31.321  26.349  23.737  1.00  0.00     0.210 C 
BRANCH   9  10
ATOM     10  C   UNL A   1      32.151  25.483  22.804  1.00  0.00    -0.085 C 
ATOM     11  C   UNL A   1      32.862  24.739  22.003  1.00  0.00     0.006 C 
ENDBRANCH   9  10
ENDBRANCH   8   9
BRANCH   8  12
ATOM     12  C   UNL A   1      31.386  26.239  26.181  1.00  0.00     0.273 C 
ATOM     13  O   UNL A   1      31.023  27.054  27.029  1.00  0.00    -0.267 OA
BRANCH  12  14
ATOM     14  C   UNL A   1      31.091  24.804  26.425  1.00  0.00     0.125 A 
ATOM     15  C   UNL A   1      31.932  23.761  26.511  1.00  0.00     0.119 A 
ATOM     16  N   UNL A   1      29.824  24.362  26.737  1.00  0.00    -0.302 N 
ATOM     17  N   UNL A   1      31.207  22.639  26.829  1.00  0.00    -0.312 N 
ATOM     18  C   UNL A   1      29.861  22.989  26.991  1.00  0.00     0.323 A 
ATOM     19  H   UNL A   1      29.017  24.927  26.774  1.00  0.00     0.172 HD
ATOM     20  H   UNL A   1      31.575  21.731  26.927  1.00  0.00     0.171 HD
ATOM     21  O   UNL A   1      28.936  22.259  27.298  1.00  0.00    -0.248 OA
ENDBRANCH  12  14
ENDBRANCH   8  12
ENDBRANCH   7   8
ENDBRANCH   4   7
ENDBRANCH   2   3
ENDBRANCH   1   2
BRANCH   1  22
ATOM     22  C   UNL A   1      31.650  31.851  26.725  1.00  0.00     0.023 C 
BRANCH  22  23
ATOM     23  C   UNL A   1      32.791  32.665  27.313  1.00  0.00     0.116 C 
BRANCH  23  24
ATOM     24  N   UNL A   1      32.428  34.043  27.605  1.00  0.00    -0.352 N 
ATOM     25  C   UNL A   1      32.975  34.892  28.538  1.00  0.00     0.251 C 
ATOM     26  H   UNL A   1      31.695  34.417  27.064  1.00  0.00     0.163 HD
ATOM     27  O   UNL A   1      32.482  35.995  28.743  1.00  0.00    -0.269 OA
BRANCH  25  28
ATOM     28  C   UNL A   1      34.141  34.439  29.320  1.00  0.00     0.039 A 
ATOM     29  C   UNL A   1      33.928  33.783  30.534  1.00  0.00     0.014 A 
ATOM     30  C   UNL A   1      35.437  34.612  28.826  1.00  0.00     0.014 A 
ATOM     31  C   UNL A   1      35.012  33.236  31.219  1.00  0.00     0.010 A 
ATOM     32  C   UNL A   1      36.503  33.989  29.463  1.00  0.00     0.010 A 
ATOM     33  C   UNL A   1      36.303  33.297  30.667  1.00  0.00    -0.014 A 
BRANCH  33  34
ATOM     34  C   UNL A   1      37.459  32.647  31.332  1.00  0.00     0.031 A 
ATOM     35  C   UNL A   1      38.174  31.510  30.658  1.00  0.00     0.074 A 
ATOM     36  C   UNL A   1      37.822  33.032  32.570  1.00  0.00     0.049 A 
ATOM     37  N   UNL A   1      39.159  30.770  31.100  1.00  0.00    -0.248 NA
ATOM     38  C   UNL A   1      37.695  31.134  29.318  1.00  0.00     0.031 C 
ATOM     39  C   UNL A   1      37.180  34.094  33.347  1.00  0.00     0.029 A 
ATOM     40  N   UNL A   1      38.815  32.569  33.397  1.00  0.00    -0.354 N 
ATOM     41  C   UNL A   1      39.409  29.840  30.100  1.00  0.00     0.074 A 
ATOM     42  C   UNL A   1      38.426  30.062  29.061  1.00  0.00     0.031 C 
ATOM     43  C   UNL A   1      37.817  34.224  34.521  1.00  0.00     0.029 A 
ATOM     44  C   UNL A   1      38.879  33.226  34.601  1.00  0.00     0.049 A 
ATOM     45  H   UNL A   1      39.424  31.837  33.150  1.00  0.00     0.167 HD
ATOM     46  C   UNL A   1      40.386  28.903  30.040  1.00  0.00     0.037 A 
ATOM     47  C   UNL A   1      39.699  33.040  35.653  1.00  0.00     0.037 A 
ATOM     48  C   UNL A   1      41.364  28.692  31.075  1.00  0.00     0.049 A 
ATOM     49  C   UNL A   1      40.750  31.966  35.582  1.00  0.00     0.074 A 
ATOM     50  C   UNL A   1      42.425  27.803  31.093  1.00  0.00     0.029 A 
ATOM     51  N   UNL A   1      41.393  29.371  32.285  1.00  0.00    -0.354 N 
ATOM     52  N   UNL A   1      41.025  31.136  34.603  1.00  0.00    -0.248 NA
ATOM     53  C   UNL A   1      41.611  31.805  36.762  1.00  0.00     0.031 C 
ATOM     54  C   UNL A   1      43.055  27.900  32.338  1.00  0.00     0.029 A 
ATOM     55  C   UNL A   1      42.432  28.898  33.070  1.00  0.00     0.049 A 
ATOM     56  H   UNL A   1      40.766  30.085  32.548  1.00  0.00     0.167 HD
ATOM     57  C   UNL A   1      42.107  30.382  35.033  1.00  0.00     0.074 A 
ATOM     58  C   UNL A   1      42.447  30.858  36.359  1.00  0.00     0.031 C 
ATOM     59  C   UNL A   1      42.763  29.385  34.387  1.00  0.00     0.037 A 
BRANCH  46  60
ATOM     60  C   UNL A   1      40.431  28.032  28.815  1.00  0.00     0.064 A 
ATOM     61  C   UNL A   1      39.741  26.809  28.752  1.00  0.00     0.173 A 
ATOM     62  C   UNL A   1      41.171  28.421  27.690  1.00  0.00     0.173 A 
ATOM     63  F   UNL A   1      39.026  26.381  29.803  1.00  0.00    -0.203 F 
ATOM     64  C   UNL A   1      39.834  25.989  27.630  1.00  0.00     0.198 A 
ATOM     65  C   UNL A   1      41.228  27.618  26.553  1.00  0.00     0.198 A 
ATOM     66  F   UNL A   1      41.843  29.582  27.689  1.00  0.00    -0.203 F 
ATOM     67  F   UNL A   1      39.229  24.793  27.624  1.00  0.00    -0.200 F 
ATOM     68  C   UNL A   1      40.572  26.396  26.530  1.00  0.00     0.200 A 
ATOM     69  F   UNL A   1      41.930  28.021  25.485  1.00  0.00    -0.200 F 
ATOM     70  F   UNL A   1      40.662  25.607  25.451  1.00  0.00    -0.200 F 
ENDBRANCH  46  60
BRANCH  47  71
ATOM     71  C   UNL A   1      39.577  33.913  36.849  1.00  0.00     0.064 A 
ATOM     72  C   UNL A   1      38.788  33.527  37.941  1.00  0.00     0.173 A 
ATOM     73  C   UNL A   1      40.250  35.141  36.934  1.00  0.00     0.173 A 
ATOM     74  F   UNL A   1      38.110  32.371  37.901  1.00  0.00    -0.203 F 
ATOM     75  C   UNL A   1      38.664  34.342  39.065  1.00  0.00     0.198 A 
ATOM     76  C   UNL A   1      40.149  35.941  38.071  1.00  0.00     0.198 A 
ATOM     77  F   UNL A   1      41.023  35.555  35.918  1.00  0.00    -0.203 F 
ATOM     78  F   UNL A   1      37.870  33.966  40.077  1.00  0.00    -0.200 F 
ATOM     79  C   UNL A   1      39.351  35.544  39.132  1.00  0.00     0.200 A 
ATOM     80  F   UNL A   1      40.828  37.094  38.137  1.00  0.00    -0.200 F 
ATOM     81  F   UNL A   1      39.239  36.323  40.217  1.00  0.00    -0.200 F 
ENDBRANCH  47  71
BRANCH  59  82
ATOM     82  C   UNL A   1      43.944  28.769  35.083  1.00  0.00     0.064 A 
ATOM     83  C   UNL A   1      43.817  27.633  35.896  1.00  0.00     0.173 A 
ATOM     84  C   UNL A   1      45.231  29.300  34.897  1.00  0.00     0.173 A 
ATOM     85  F   UNL A   1      42.608  27.094  36.120  1.00  0.00    -0.203 F 
ATOM     86  C   UNL A   1      44.928  27.069  36.518  1.00  0.00     0.198 A 
ATOM     87  C   UNL A   1      46.343  28.712  35.491  1.00  0.00     0.198 A 
ATOM     88  F   UNL A   1      45.411  30.381  34.123  1.00  0.00    -0.203 F 
ATOM     89  F   UNL A   1      44.775  26.016  37.333  1.00  0.00    -0.200 F 
ATOM     90  C   UNL A   1      46.191  27.603  36.308  1.00  0.00     0.200 A 
ATOM     91  F   UNL A   1      47.565  29.219  35.270  1.00  0.00    -0.200 F 
ATOM     92  F   UNL A   1      47.261  27.052  36.898  1.00  0.00    -0.200 F 
ENDBRANCH  59  82
ENDBRANCH  33  34
ENDBRANCH  25  28
ENDBRANCH  23  24
ENDBRANCH  22  23
ENDBRANCH   1  22
TORSDOF 16
ENDMDL
MODEL 3
REMARK VINA RESULT:     -11.3      6.462     11.739
REMARK SMILES C#CCN(CC(=O)NCCCCNC(=O)c1ccc(-c2c3nc(c(-c4c(F)c(F)c(F)c(F)c4F)c4ccc([nH]4)c(-c4c(F)c(F)c(F)c(F)c4F)c4nc(c(-c5c(F)c(F)c(F)c(F)c5F)c5ccc2[nH]5)C=C4)C=C3)cc1)C(=O)c1c[nH]c(=O)[nH]1
REMARK SMILES IDX 10 1 9 2 8 3 6 4 7 5 5 7 4 8 3 9 2 10 1 11 79 12 80 13 81 14
REMARK SMILES IDX 82 15 86 16 83 17 84 18 85 21 11 22 12 23 13 24 14 25 15 27
REMARK SMILES IDX 16 28 17 29 78 30 18 31 77 32 19 33 20 34 21 35 71 36 22 37
REMARK SMILES IDX 76 38 70 39 72 40 23 41 75 42 69 43 68 44 24 46 56 47 36 48
REMARK SMILES IDX 55 49 37 50 40 51 54 52 73 53 38 54 39 55 53 57 74 58 41 59
REMARK SMILES IDX 25 60 26 61 34 62 27 63 28 64 32 65 35 66 29 67 30 68 33 69
REMARK SMILES IDX 31 70 57 71 58 72 66 73 59 74 60 75 64 76 67 77 61 78 62 79
REMARK SMILES IDX 65 80 63 81 42 82 43 83 51 84 44 85 45 86 49 87 52 88 46 89
REMARK SMILES IDX 47 90 50 91 48 92
REMARK H PARENT 8 6 86 19 83 20 13 26 72 45 40 56
REMARK Flexibility Score: inf
ROOT
ATOM      1  C   UNL A   1      31.865  30.487  26.827  1.00  0.00     0.023 C 
ENDROOT
BRANCH   1   2
ATOM      2  C   UNL A   1      31.805  29.800  25.464  1.00  0.00     0.116 C 
BRANCH   2   3
ATOM      3  N   UNL A   1      32.781  28.747  25.308  1.00  0.00    -0.355 N 
ATOM      4  C   UNL A   1      32.597  27.408  25.128  1.00  0.00     0.239 C 
ATOM      5  O   UNL A   1      33.561  26.767  24.698  1.00  0.00    -0.273 OA
ATOM      6  H   UNL A   1      33.721  29.039  25.338  1.00  0.00     0.163 HD
BRANCH   4   7
ATOM      7  C   UNL A   1      31.233  26.721  25.329  1.00  0.00     0.220 C 
BRANCH   7   8
ATOM      8  N   UNL A   1      30.500  26.381  24.106  1.00  0.00    -0.317 N 
BRANCH   8   9
ATOM      9  C   UNL A   1      30.829  25.119  23.443  1.00  0.00     0.210 C 
BRANCH   9  10
ATOM     10  C   UNL A   1      30.907  23.966  24.431  1.00  0.00    -0.085 C 
ATOM     11  C   UNL A   1      30.975  22.978  25.278  1.00  0.00     0.006 C 
ENDBRANCH   9  10
ENDBRANCH   8   9
BRANCH   8  12
ATOM     12  C   UNL A   1      29.450  27.135  23.591  1.00  0.00     0.273 C 
ATOM     13  O   UNL A   1      28.268  26.822  23.738  1.00  0.00    -0.267 OA
BRANCH  12  14
ATOM     14  C   UNL A   1      29.750  28.397  22.868  1.00  0.00     0.125 A 
ATOM     15  C   UNL A   1      30.845  28.744  22.174  1.00  0.00     0.119 A 
ATOM     16  N   UNL A   1      28.809  29.391  22.713  1.00  0.00    -0.302 N 
ATOM     17  N   UNL A   1      30.634  29.980  21.612  1.00  0.00    -0.312 N 
ATOM     18  C   UNL A   1      29.342  30.416  21.928  1.00  0.00     0.323 A 
ATOM     19  H   UNL A   1      27.902  29.381  23.098  1.00  0.00     0.172 HD
ATOM     20  H   UNL A   1      31.289  30.480  21.074  1.00  0.00     0.171 HD
ATOM     21  O   UNL A   1      28.803  31.451  21.581  1.00  0.00    -0.248 OA
ENDBRANCH  12  14
ENDBRANCH   8  12
ENDBRANCH   7   8
ENDBRANCH   4   7
ENDBRANCH   2   3
ENDBRANCH   1   2
BRANCH   1  22
ATOM     22  C   UNL A   1      31.681  32.002  26.795  1.00  0.00     0.023 C 
BRANCH  22  23
ATOM     23  C   UNL A   1      32.821  32.801  27.406  1.00  0.00     0.116 C 
BRANCH  23  24
ATOM     24  N   UNL A   1      32.470  34.184  27.692  1.00  0.00    -0.352 N 
ATOM     25  C   UNL A   1      33.026  35.032  28.620  1.00  0.00     0.251 C 
ATOM     26  H   UNL A   1      31.739  34.561  27.151  1.00  0.00     0.163 HD
ATOM     27  O   UNL A   1      32.543  36.140  28.821  1.00  0.00    -0.269 OA
BRANCH  25  28
ATOM     28  C   UNL A   1      34.191  34.573  29.402  1.00  0.00     0.039 A 
ATOM     29  C   UNL A   1      33.982  34.039  30.675  1.00  0.00     0.014 A 
ATOM     30  C   UNL A   1      35.476  34.618  28.854  1.00  0.00     0.014 A 
ATOM     31  C   UNL A   1      35.056  33.482  31.370  1.00  0.00     0.010 A 
ATOM     32  C   UNL A   1      36.524  33.984  29.509  1.00  0.00     0.010 A 
ATOM     33  C   UNL A   1      36.326  33.412  30.774  1.00  0.00    -0.014 A 
BRANCH  33  34
ATOM     34  C   UNL A   1      37.464  32.748  31.457  1.00  0.00     0.031 A 
ATOM     35  C   UNL A   1      38.173  31.600  30.795  1.00  0.00     0.074 A 
ATOM     36  C   UNL A   1      37.813  33.130  32.700  1.00  0.00     0.049 A 
ATOM     37  N   UNL A   1      39.142  30.848  31.252  1.00  0.00    -0.248 NA
ATOM     38  C   UNL A   1      37.709  31.230  29.449  1.00  0.00     0.031 C 
ATOM     39  C   UNL A   1      37.175  34.200  33.466  1.00  0.00     0.029 A 
ATOM     40  N   UNL A   1      38.788  32.655  33.542  1.00  0.00    -0.354 N 
ATOM     41  C   UNL A   1      39.394  29.913  30.257  1.00  0.00     0.074 A 
ATOM     42  C   UNL A   1      38.430  30.147  29.203  1.00  0.00     0.031 C 
ATOM     43  C   UNL A   1      37.795  34.324  34.649  1.00  0.00     0.029 A 
ATOM     44  C   UNL A   1      38.844  33.312  34.746  1.00  0.00     0.049 A 
ATOM     45  H   UNL A   1      39.391  31.914  33.304  1.00  0.00     0.167 HD
ATOM     46  C   UNL A   1      40.360  28.964  30.212  1.00  0.00     0.037 A 
ATOM     47  C   UNL A   1      39.645  33.117  35.810  1.00  0.00     0.037 A 
ATOM     48  C   UNL A   1      41.320  28.741  31.261  1.00  0.00     0.049 A 
ATOM     49  C   UNL A   1      40.683  32.029  35.755  1.00  0.00     0.074 A 
ATOM     50  C   UNL A   1      42.368  27.839  31.296  1.00  0.00     0.029 A 
ATOM     51  N   UNL A   1      41.340  29.422  32.471  1.00  0.00    -0.354 N 
ATOM     52  N   UNL A   1      40.961  31.195  34.782  1.00  0.00    -0.248 NA
ATOM     53  C   UNL A   1      41.524  31.858  36.949  1.00  0.00     0.031 C 
ATOM     54  C   UNL A   1      42.981  27.928  32.550  1.00  0.00     0.029 A 
ATOM     55  C   UNL A   1      42.361  28.936  33.272  1.00  0.00     0.049 A 
ATOM     56  H   UNL A   1      40.718  30.143  32.724  1.00  0.00     0.167 HD
ATOM     57  C   UNL A   1      42.027  30.426  35.229  1.00  0.00     0.074 A 
ATOM     58  C   UNL A   1      42.354  30.900  36.558  1.00  0.00     0.031 C 
ATOM     59  C   UNL A   1      42.679  29.420  34.593  1.00  0.00     0.037 A 
BRANCH  46  60
ATOM     60  C   UNL A   1      40.411  28.090  28.989  1.00  0.00     0.064 A 
ATOM     61  C   UNL A   1      41.164  28.445  27.858  1.00  0.00     0.173 A 
ATOM     62  C   UNL A   1      39.699  26.883  28.945  1.00  0.00     0.173 A 
ATOM     63  F   UNL A   1      41.857  29.594  27.840  1.00  0.00    -0.203 F 
ATOM     64  C   UNL A   1      41.161  27.651  26.714  1.00  0.00     0.198 A 
ATOM     65  C   UNL A   1      39.730  26.071  27.814  1.00  0.00     0.198 A 
ATOM     66  F   UNL A   1      38.967  26.489  29.998  1.00  0.00    -0.203 F 
ATOM     67  F   UNL A   1      41.827  28.050  25.621  1.00  0.00    -0.200 F 
ATOM     68  C   UNL A   1      40.448  26.462  26.694  1.00  0.00     0.200 A 
ATOM     69  F   UNL A   1      39.053  24.914  27.803  1.00  0.00    -0.200 F 
ATOM     70  F   UNL A   1      40.445  25.699  25.593  1.00  0.00    -0.200 F 
ENDBRANCH  46  60
BRANCH  47  71
ATOM     71  C   UNL A   1      39.517  33.993  37.003  1.00  0.00     0.064 A 
ATOM     72  C   UNL A   1      40.153  35.242  37.045  1.00  0.00     0.173 A 
ATOM     73  C   UNL A   1      38.755  33.613  38.117  1.00  0.00     0.173 A 
ATOM     74  F   UNL A   1      40.910  35.643  36.014  1.00  0.00    -0.203 F 
ATOM     75  C   UNL A   1      40.043  36.069  38.162  1.00  0.00     0.198 A 
ATOM     76  C   UNL A   1      38.621  34.453  39.220  1.00  0.00     0.198 A 
ATOM     77  F   UNL A   1      38.121  32.430  38.124  1.00  0.00    -0.203 F 
ATOM     78  F   UNL A   1      40.696  37.239  38.193  1.00  0.00    -0.200 F 
ATOM     79  C   UNL A   1      39.271  35.677  39.245  1.00  0.00     0.200 A 
ATOM     80  F   UNL A   1      37.860  34.078  40.257  1.00  0.00    -0.200 F 
ATOM     81  F   UNL A   1      39.158  36.477  40.315  1.00  0.00    -0.200 F 
ENDBRANCH  47  71
BRANCH  59  82
ATOM     82  C   UNL A   1      43.841  28.789  35.307  1.00  0.00     0.064 A 
ATOM     83  C   UNL A   1      45.155  29.252  35.142  1.00  0.00     0.173 A 
ATOM     84  C   UNL A   1      43.628  27.730  36.205  1.00  0.00     0.173 A 
ATOM     85  F   UNL A   1      45.416  30.252  34.285  1.00  0.00    -0.203 F 
ATOM     86  C   UNL A   1      46.214  28.663  35.827  1.00  0.00     0.198 A 
ATOM     87  C   UNL A   1      44.685  27.168  36.915  1.00  0.00     0.198 A 
ATOM     88  F   UNL A   1      42.391  27.253  36.406  1.00  0.00    -0.203 F 
ATOM     89  F   UNL A   1      47.467  29.087  35.614  1.00  0.00    -0.200 F 
ATOM     90  C   UNL A   1      45.977  27.627  36.719  1.00  0.00     0.200 A 
ATOM     91  F   UNL A   1      44.450  26.180  37.791  1.00  0.00    -0.200 F 
ATOM     92  F   UNL A   1      46.996  27.069  37.387  1.00  0.00    -0.200 F 
ENDBRANCH  59  82
ENDBRANCH  33  34
ENDBRANCH  25  28
ENDBRANCH  23  24
ENDBRANCH  22  23
ENDBRANCH   1  22
TORSDOF 16
ENDMDL
