MODEL 1
REMARK VINA RESULT:     -13.2      0.000      0.000
REMARK SMILES C[C@H]1CC[C@@H](C(=O)NCCCCNC(=O)c2ccc(-c3c4nc(c(-c5c(F)c(F)c(F)c(F)c5F)c5ccc([nH]5)c(-c5c(F)c(F)c(F)c(F)c5F)c5nc(c(-c6c(F)c(F)c(F)c(F)c6F)c6ccc3[nH]6)C=C5)C=C4)cc2)[C@H]([N@@H+](C)CCS(C)(=O)=O)C1
REMARK SMILES IDX 9 1 8 2 6 3 7 4 5 6 1 7 2 8 3 9 88 10 4 11 79 12 80 13 81 14
REMARK SMILES IDX 82 16 83 17 84 18 85 19 86 20 87 21 10 22 11 23 12 24 13 25
REMARK SMILES IDX 14 26 15 28 16 29 17 30 78 31 18 32 77 33 19 34 20 35 21 36
REMARK SMILES IDX 71 37 22 38 76 39 70 40 72 41 23 42 75 43 69 44 68 45 24 47
REMARK SMILES IDX 56 48 36 49 55 50 37 51 40 52 54 53 73 54 38 55 39 56 53 58
REMARK SMILES IDX 74 59 41 60 25 61 26 62 34 63 27 64 28 65 32 66 35 67 29 68
REMARK SMILES IDX 30 69 33 70 31 71 57 72 58 73 66 74 59 75 60 76 64 77 67 78
REMARK SMILES IDX 61 79 62 80 65 81 63 82 42 83 43 84 51 85 44 86 45 87 49 88
REMARK SMILES IDX 52 89 46 90 47 91 50 92 48 93
REMARK H PARENT 8 5 80 15 13 27 72 46 40 57
REMARK Flexibility Score: inf
ROOT
ATOM      1  C   UNL A   1      32.792  30.112  25.846  1.00  0.00     0.116 C 
ENDROOT
BRANCH   1   2
ATOM      2  N   UNL A   1      32.943  29.712  24.467  1.00  0.00    -0.356 N 
ATOM      3  C   UNL A   1      33.558  28.603  23.978  1.00  0.00     0.229 C 
ATOM      4  O   UNL A   1      34.403  28.885  23.129  1.00  0.00    -0.275 OA
ATOM      5  H   UNL A   1      32.553  30.317  23.797  1.00  0.00     0.163 HD
BRANCH   3   6
ATOM      6  C   UNL A   1      33.135  27.131  24.436  1.00  0.00     0.136 C 
ATOM      7  C   UNL A   1      35.704  22.530  23.501  1.00  0.00     0.008 C 
ATOM      8  C   UNL A   1      34.582  23.466  24.012  1.00  0.00    -0.008 C 
ATOM      9  C   UNL A   1      34.912  24.485  25.637  1.00  0.00     0.004 C 
ATOM     10  C   UNL A   1      33.654  24.375  22.551  1.00  0.00     0.069 C 
ATOM     11  C   UNL A   1      34.004  26.211  25.909  1.00  0.00     0.020 C 
ATOM     12  C   UNL A   1      32.687  26.051  22.872  1.00  0.00     0.196 C 
BRANCH  12  13
ATOM     13  N   UNL A   1      31.285  25.792  23.193  1.00  0.00    -0.333 N 
ATOM     14  C   UNL A   1      30.897  25.905  24.592  1.00  0.00     0.333 C 
ATOM     15  H   UNL A   1      30.984  24.831  23.030  1.00  0.00     0.348 HD
BRANCH  13  16
ATOM     16  C   UNL A   1      30.732  26.812  22.374  1.00  0.00     0.278 C 
BRANCH  16  17
ATOM     17  C   UNL A   1      29.671  27.618  23.263  1.00  0.00     0.197 C 
BRANCH  17  18
ATOM     18  S   UNL A   1      28.306  29.579  22.731  1.00  0.00     0.152 S 
ATOM     19  C   UNL A   1      28.768  31.263  23.358  1.00  0.00     0.158 C 
ATOM     20  O   UNL A   1      28.338  30.021  21.337  1.00  0.00    -0.229 OA
ATOM     21  O   UNL A   1      26.903  29.478  23.128  1.00  0.00    -0.229 OA
ENDBRANCH  17  18
ENDBRANCH  16  17
ENDBRANCH  13  16
ENDBRANCH  12  13
ENDBRANCH   3   6
ENDBRANCH   1   2
BRANCH   1  22
ATOM     22  C   UNL A   1      31.404  30.704  26.134  1.00  0.00     0.023 C 
BRANCH  22  23
ATOM     23  C   UNL A   1      31.331  32.195  26.501  1.00  0.00     0.023 C 
BRANCH  23  24
ATOM     24  C   UNL A   1      32.535  32.804  27.215  1.00  0.00     0.116 C 
BRANCH  24  25
ATOM     25  N   UNL A   1      32.325  34.181  27.626  1.00  0.00    -0.352 N 
ATOM     26  C   UNL A   1      32.975  34.936  28.572  1.00  0.00     0.251 C 
ATOM     27  H   UNL A   1      31.601  34.649  27.150  1.00  0.00     0.163 HD
ATOM     28  O   UNL A   1      32.555  36.058  28.841  1.00  0.00    -0.269 OA
BRANCH  26  29
ATOM     29  C   UNL A   1      34.153  34.405  29.297  1.00  0.00     0.039 A 
ATOM     30  C   UNL A   1      33.946  33.757  30.519  1.00  0.00     0.014 A 
ATOM     31  C   UNL A   1      35.451  34.559  28.806  1.00  0.00     0.014 A 
ATOM     32  C   UNL A   1      35.027  33.208  31.213  1.00  0.00     0.010 A 
ATOM     33  C   UNL A   1      36.521  33.948  29.461  1.00  0.00     0.010 A 
ATOM     34  C   UNL A   1      36.321  33.263  30.671  1.00  0.00    -0.014 A 
BRANCH  34  35
ATOM     35  C   UNL A   1      37.465  32.596  31.349  1.00  0.00     0.031 A 
ATOM     36  C   UNL A   1      38.187  31.454  30.688  1.00  0.00     0.074 A 
ATOM     37  C   UNL A   1      37.822  32.986  32.590  1.00  0.00     0.049 A 
ATOM     38  N   UNL A   1      39.173  30.721  31.144  1.00  0.00    -0.248 NA
ATOM     39  C   UNL A   1      37.726  31.068  29.346  1.00  0.00     0.031 C 
ATOM     40  C   UNL A   1      37.179  34.054  33.356  1.00  0.00     0.029 A 
ATOM     41  N   UNL A   1      38.807  32.525  33.428  1.00  0.00    -0.354 N 
ATOM     42  C   UNL A   1      39.439  29.783  30.153  1.00  0.00     0.074 A 
ATOM     43  C   UNL A   1      38.476  30.005  29.096  1.00  0.00     0.031 C 
ATOM     44  C   UNL A   1      37.802  34.185  34.537  1.00  0.00     0.029 A 
ATOM     45  C   UNL A   1      38.856  33.181  34.635  1.00  0.00     0.049 A 
ATOM     46  H   UNL A   1      39.421  31.794  33.188  1.00  0.00     0.167 HD
ATOM     47  C   UNL A   1      40.409  28.839  30.120  1.00  0.00     0.037 A 
ATOM     48  C   UNL A   1      39.652  32.988  35.705  1.00  0.00     0.037 A 
ATOM     49  C   UNL A   1      41.372  28.629  31.171  1.00  0.00     0.049 A 
ATOM     50  C   UNL A   1      40.700  31.907  35.654  1.00  0.00     0.074 A 
ATOM     51  C   UNL A   1      42.430  27.738  31.205  1.00  0.00     0.029 A 
ATOM     52  N   UNL A   1      41.386  29.310  32.379  1.00  0.00    -0.354 N 
ATOM     53  N   UNL A   1      40.992  31.080  34.680  1.00  0.00    -0.248 NA
ATOM     54  C   UNL A   1      41.533  31.737  36.853  1.00  0.00     0.031 C 
ATOM     55  C   UNL A   1      43.039  27.828  32.460  1.00  0.00     0.029 A 
ATOM     56  C   UNL A   1      42.411  28.832  33.181  1.00  0.00     0.049 A 
ATOM     57  H   UNL A   1      40.759  30.027  32.631  1.00  0.00     0.167 HD
ATOM     58  C   UNL A   1      42.061  30.319  35.133  1.00  0.00     0.074 A 
ATOM     59  C   UNL A   1      42.377  30.793  36.464  1.00  0.00     0.031 C 
ATOM     60  C   UNL A   1      42.723  29.317  34.502  1.00  0.00     0.037 A 
BRANCH  47  61
ATOM     61  C   UNL A   1      40.475  27.947  28.910  1.00  0.00     0.064 A 
ATOM     62  C   UNL A   1      39.754  26.745  28.836  1.00  0.00     0.173 A 
ATOM     63  C   UNL A   1      41.236  28.321  27.791  1.00  0.00     0.173 A 
ATOM     64  F   UNL A   1      39.014  26.335  29.876  1.00  0.00    -0.203 F 
ATOM     65  C   UNL A   1      39.823  25.935  27.705  1.00  0.00     0.198 A 
ATOM     66  C   UNL A   1      41.274  27.527  26.648  1.00  0.00     0.198 A 
ATOM     67  F   UNL A   1      41.938  29.465  27.802  1.00  0.00    -0.203 F 
ATOM     68  F   UNL A   1      39.171  24.764  27.681  1.00  0.00    -0.200 F 
ATOM     69  C   UNL A   1      40.576  26.330  26.609  1.00  0.00     0.200 A 
ATOM     70  F   UNL A   1      41.986  27.921  25.583  1.00  0.00    -0.200 F 
ATOM     71  F   UNL A   1      40.632  25.554  25.518  1.00  0.00    -0.200 F 
ENDBRANCH  47  61
BRANCH  48  72
ATOM     72  C   UNL A   1      39.504  33.846  36.912  1.00  0.00     0.064 A 
ATOM     73  C   UNL A   1      38.741  33.421  38.009  1.00  0.00     0.173 A 
ATOM     74  C   UNL A   1      40.102  35.113  36.988  1.00  0.00     0.173 A 
ATOM     75  F   UNL A   1      38.131  32.226  37.976  1.00  0.00    -0.203 F 
ATOM     76  C   UNL A   1      38.559  34.239  39.122  1.00  0.00     0.198 A 
ATOM     77  C   UNL A   1      39.949  35.915  38.117  1.00  0.00     0.198 A 
ATOM     78  F   UNL A   1      40.847  35.567  35.969  1.00  0.00    -0.203 F 
ATOM     79  F   UNL A   1      37.777  33.830  40.130  1.00  0.00    -0.200 F 
ATOM     80  C   UNL A   1      39.169  35.482  39.178  1.00  0.00     0.200 A 
ATOM     81  F   UNL A   1      40.555  37.108  38.174  1.00  0.00    -0.200 F 
ATOM     82  F   UNL A   1      38.996  36.268  40.249  1.00  0.00    -0.200 F 
ENDBRANCH  48  72
BRANCH  60  83
ATOM     83  C   UNL A   1      43.888  28.695  35.221  1.00  0.00     0.064 A 
ATOM     84  C   UNL A   1      45.197  29.174  35.068  1.00  0.00     0.173 A 
ATOM     85  C   UNL A   1      43.682  27.624  36.106  1.00  0.00     0.173 A 
ATOM     86  F   UNL A   1      45.453  30.185  34.225  1.00  0.00    -0.203 F 
ATOM     87  C   UNL A   1      46.260  28.584  35.749  1.00  0.00     0.198 A 
ATOM     88  C   UNL A   1      44.741  27.063  36.815  1.00  0.00     0.198 A 
ATOM     89  F   UNL A   1      42.449  27.132  36.298  1.00  0.00    -0.203 F 
ATOM     90  F   UNL A   1      47.510  29.020  35.542  1.00  0.00    -0.200 F 
ATOM     91  C   UNL A   1      46.030  27.537  36.627  1.00  0.00     0.200 A 
ATOM     92  F   UNL A   1      44.513  26.064  37.677  1.00  0.00    -0.200 F 
ATOM     93  F   UNL A   1      47.053  26.977  37.289  1.00  0.00    -0.200 F 
ENDBRANCH  60  83
ENDBRANCH  34  35
ENDBRANCH  26  29
ENDBRANCH  24  25
ENDBRANCH  23  24
ENDBRANCH  22  23
ENDBRANCH   1  22
TORSDOF 15
ENDMDL
MODEL 2
REMARK VINA RESULT:     -13.1      0.168      1.610
REMARK SMILES C[C@H]1CC[C@@H](C(=O)NCCCCNC(=O)c2ccc(-c3c4nc(c(-c5c(F)c(F)c(F)c(F)c5F)c5ccc([nH]5)c(-c5c(F)c(F)c(F)c(F)c5F)c5nc(c(-c6c(F)c(F)c(F)c(F)c6F)c6ccc3[nH]6)C=C5)C=C4)cc2)[C@H]([N@@H+](C)CCS(C)(=O)=O)C1
REMARK SMILES IDX 9 1 8 2 6 3 7 4 5 6 1 7 2 8 3 9 88 10 4 11 79 12 80 13 81 14
REMARK SMILES IDX 82 16 83 17 84 18 85 19 86 20 87 21 10 22 11 23 12 24 13 25
REMARK SMILES IDX 14 26 15 28 16 29 17 30 78 31 18 32 77 33 19 34 20 35 21 36
REMARK SMILES IDX 71 37 22 38 76 39 70 40 72 41 23 42 75 43 69 44 68 45 24 47
REMARK SMILES IDX 56 48 36 49 55 50 37 51 40 52 54 53 73 54 38 55 39 56 53 58
REMARK SMILES IDX 74 59 41 60 25 61 26 62 34 63 27 64 28 65 32 66 35 67 29 68
REMARK SMILES IDX 30 69 33 70 31 71 57 72 58 73 66 74 59 75 60 76 64 77 67 78
REMARK SMILES IDX 61 79 62 80 65 81 63 82 42 83 43 84 51 85 44 86 45 87 49 88
REMARK SMILES IDX 52 89 46 90 47 91 50 92 48 93
REMARK H PARENT 8 5 80 15 13 27 72 46 40 57
REMARK Flexibility Score: inf
ROOT
ATOM      1  C   UNL A   1      32.977  30.146  25.788  1.00  0.00     0.116 C 
ENDROOT
BRANCH   1   2
ATOM      2  N   UNL A   1      33.096  29.730  24.411  1.00  0.00    -0.356 N 
ATOM      3  C   UNL A   1      33.619  28.573  23.926  1.00  0.00     0.229 C 
ATOM      4  O   UNL A   1      34.485  28.783  23.077  1.00  0.00    -0.275 OA
ATOM      5  H   UNL A   1      32.756  30.363  23.738  1.00  0.00     0.163 HD
BRANCH   3   6
ATOM      6  C   UNL A   1      33.077  27.142  24.388  1.00  0.00     0.136 C 
ATOM      7  C   UNL A   1      35.408  22.371  23.723  1.00  0.00     0.008 C 
ATOM      8  C   UNL A   1      34.317  23.387  24.140  1.00  0.00    -0.008 C 
ATOM      9  C   UNL A   1      34.607  24.426  25.760  1.00  0.00     0.004 C 
ATOM     10  C   UNL A   1      33.541  24.312  22.603  1.00  0.00     0.069 C 
ATOM     11  C   UNL A   1      33.794  26.210  25.934  1.00  0.00     0.020 C 
ATOM     12  C   UNL A   1      32.662  26.051  22.823  1.00  0.00     0.196 C 
BRANCH  12  13
ATOM     13  N   UNL A   1      31.229  25.886  23.060  1.00  0.00    -0.333 N 
ATOM     14  C   UNL A   1      30.779  25.935  24.444  1.00  0.00     0.333 C 
ATOM     15  H   UNL A   1      30.862  24.966  22.814  1.00  0.00     0.348 HD
BRANCH  13  16
ATOM     16  C   UNL A   1      30.801  27.001  22.292  1.00  0.00     0.278 C 
BRANCH  16  17
ATOM     17  C   UNL A   1      29.767  27.833  23.189  1.00  0.00     0.197 C 
BRANCH  17  18
ATOM     18  S   UNL A   1      28.277  29.684  22.604  1.00  0.00     0.152 S 
ATOM     19  C   UNL A   1      28.739  31.440  22.986  1.00  0.00     0.158 C 
ATOM     20  O   UNL A   1      28.138  29.966  21.175  1.00  0.00    -0.229 OA
ATOM     21  O   UNL A   1      26.931  29.591  23.166  1.00  0.00    -0.229 OA
ENDBRANCH  17  18
ENDBRANCH  16  17
ENDBRANCH  13  16
ENDBRANCH  12  13
ENDBRANCH   3   6
ENDBRANCH   1   2
BRANCH   1  22
ATOM     22  C   UNL A   1      31.562  30.635  26.131  1.00  0.00     0.023 C 
BRANCH  22  23
ATOM     23  C   UNL A   1      31.407  32.096  26.585  1.00  0.00     0.023 C 
BRANCH  23  24
ATOM     24  C   UNL A   1      32.642  32.792  27.150  1.00  0.00     0.116 C 
BRANCH  24  25
ATOM     25  N   UNL A   1      32.385  34.151  27.594  1.00  0.00    -0.352 N 
ATOM     26  C   UNL A   1      32.998  34.898  28.571  1.00  0.00     0.251 C 
ATOM     27  H   UNL A   1      31.654  34.609  27.120  1.00  0.00     0.163 HD
ATOM     28  O   UNL A   1      32.541  36.000  28.863  1.00  0.00    -0.269 OA
BRANCH  26  29
ATOM     29  C   UNL A   1      34.180  34.383  29.300  1.00  0.00     0.039 A 
ATOM     30  C   UNL A   1      33.978  33.740  30.526  1.00  0.00     0.014 A 
ATOM     31  C   UNL A   1      35.477  34.546  28.809  1.00  0.00     0.014 A 
ATOM     32  C   UNL A   1      35.064  33.206  31.223  1.00  0.00     0.010 A 
ATOM     33  C   UNL A   1      36.552  33.948  29.468  1.00  0.00     0.010 A 
ATOM     34  C   UNL A   1      36.358  33.269  30.682  1.00  0.00    -0.014 A 
BRANCH  34  35
ATOM     35  C   UNL A   1      37.507  32.617  31.365  1.00  0.00     0.031 A 
ATOM     36  C   UNL A   1      38.226  31.463  30.722  1.00  0.00     0.074 A 
ATOM     37  C   UNL A   1      37.872  33.031  32.596  1.00  0.00     0.049 A 
ATOM     38  N   UNL A   1      39.217  30.740  31.184  1.00  0.00    -0.248 NA
ATOM     39  C   UNL A   1      37.757  31.052  29.390  1.00  0.00     0.031 C 
ATOM     40  C   UNL A   1      37.232  34.113  33.346  1.00  0.00     0.029 A 
ATOM     41  N   UNL A   1      38.864  32.588  33.436  1.00  0.00    -0.354 N 
ATOM     42  C   UNL A   1      39.477  29.785  30.210  1.00  0.00     0.074 A 
ATOM     43  C   UNL A   1      38.507  29.985  29.155  1.00  0.00     0.031 C 
ATOM     44  C   UNL A   1      37.863  34.268  34.520  1.00  0.00     0.029 A 
ATOM     45  C   UNL A   1      38.920  33.267  34.629  1.00  0.00     0.049 A 
ATOM     46  H   UNL A   1      39.477  31.853  33.206  1.00  0.00     0.167 HD
ATOM     47  C   UNL A   1      40.449  28.842  30.188  1.00  0.00     0.037 A 
ATOM     48  C   UNL A   1      39.723  33.096  35.697  1.00  0.00     0.037 A 
ATOM     49  C   UNL A   1      41.419  28.653  31.237  1.00  0.00     0.049 A 
ATOM     50  C   UNL A   1      40.772  32.015  35.660  1.00  0.00     0.074 A 
ATOM     51  C   UNL A   1      42.479  27.764  31.281  1.00  0.00     0.029 A 
ATOM     52  N   UNL A   1      41.440  29.356  32.432  1.00  0.00    -0.354 N 
ATOM     53  N   UNL A   1      41.059  31.170  34.701  1.00  0.00    -0.248 NA
ATOM     54  C   UNL A   1      41.613  31.869  36.857  1.00  0.00     0.031 C 
ATOM     55  C   UNL A   1      43.096  27.879  32.530  1.00  0.00     0.029 A 
ATOM     56  C   UNL A   1      42.472  28.895  33.236  1.00  0.00     0.049 A 
ATOM     57  H   UNL A   1      40.814  30.077  32.674  1.00  0.00     0.167 HD
ATOM     58  C   UNL A   1      42.132  30.419  35.161  1.00  0.00     0.074 A 
ATOM     59  C   UNL A   1      42.456  30.919  36.480  1.00  0.00     0.031 C 
ATOM     60  C   UNL A   1      42.791  29.407  34.545  1.00  0.00     0.037 A 
BRANCH  47  61
ATOM     61  C   UNL A   1      40.507  27.926  28.996  1.00  0.00     0.064 A 
ATOM     62  C   UNL A   1      39.752  26.745  28.930  1.00  0.00     0.173 A 
ATOM     63  C   UNL A   1      41.299  28.257  27.884  1.00  0.00     0.173 A 
ATOM     64  F   UNL A   1      38.982  26.377  29.964  1.00  0.00    -0.203 F 
ATOM     65  C   UNL A   1      39.815  25.913  27.814  1.00  0.00     0.198 A 
ATOM     66  C   UNL A   1      41.331  27.442  26.756  1.00  0.00     0.198 A 
ATOM     67  F   UNL A   1      42.035  29.379  27.887  1.00  0.00    -0.203 F 
ATOM     68  F   UNL A   1      39.128  24.762  27.799  1.00  0.00    -0.200 F 
ATOM     69  C   UNL A   1      40.598  26.266  26.725  1.00  0.00     0.200 A 
ATOM     70  F   UNL A   1      42.073  27.796  25.696  1.00  0.00    -0.200 F 
ATOM     71  F   UNL A   1      40.649  25.470  25.649  1.00  0.00    -0.200 F 
ENDBRANCH  47  61
BRANCH  48  72
ATOM     72  C   UNL A   1      39.581  33.976  36.889  1.00  0.00     0.064 A 
ATOM     73  C   UNL A   1      40.225  35.221  36.946  1.00  0.00     0.173 A 
ATOM     74  C   UNL A   1      38.819  33.587  38.000  1.00  0.00     0.173 A 
ATOM     75  F   UNL A   1      40.983  35.630  35.918  1.00  0.00    -0.203 F 
ATOM     76  C   UNL A   1      40.134  36.029  38.078  1.00  0.00     0.198 A 
ATOM     77  C   UNL A   1      38.700  34.412  39.117  1.00  0.00     0.198 A 
ATOM     78  F   UNL A   1      38.178  32.408  37.997  1.00  0.00    -0.203 F 
ATOM     79  F   UNL A   1      40.806  37.186  38.127  1.00  0.00    -0.200 F 
ATOM     80  C   UNL A   1      39.366  35.627  39.160  1.00  0.00     0.200 A 
ATOM     81  F   UNL A   1      37.941  34.027  40.152  1.00  0.00    -0.200 F 
ATOM     82  F   UNL A   1      39.277  36.404  40.247  1.00  0.00    -0.200 F 
ENDBRANCH  48  72
BRANCH  60  83
ATOM     83  C   UNL A   1      43.962  28.800  35.268  1.00  0.00     0.064 A 
ATOM     84  C   UNL A   1      43.815  27.705  36.132  1.00  0.00     0.173 A 
ATOM     85  C   UNL A   1      45.257  29.302  35.062  1.00  0.00     0.173 A 
ATOM     86  F   UNL A   1      42.599  27.195  36.376  1.00  0.00    -0.203 F 
ATOM     87  C   UNL A   1      44.916  27.157  36.788  1.00  0.00     0.198 A 
ATOM     88  C   UNL A   1      46.359  28.727  35.688  1.00  0.00     0.198 A 
ATOM     89  F   UNL A   1      45.457  30.342  34.239  1.00  0.00    -0.203 F 
ATOM     90  F   UNL A   1      44.743  26.149  37.654  1.00  0.00    -0.200 F 
ATOM     91  C   UNL A   1      46.186  27.661  36.558  1.00  0.00     0.200 A 
ATOM     92  F   UNL A   1      47.588  29.204  35.449  1.00  0.00    -0.200 F 
ATOM     93  F   UNL A   1      47.245  27.126  37.181  1.00  0.00    -0.200 F 
ENDBRANCH  60  83
ENDBRANCH  34  35
ENDBRANCH  26  29
ENDBRANCH  24  25
ENDBRANCH  23  24
ENDBRANCH  22  23
ENDBRANCH   1  22
TORSDOF 15
ENDMDL
MODEL 3
REMARK VINA RESULT:     -13.0      0.595      7.461
REMARK SMILES C[C@H]1CC[C@@H](C(=O)NCCCCNC(=O)c2ccc(-c3c4nc(c(-c5c(F)c(F)c(F)c(F)c5F)c5ccc([nH]5)c(-c5c(F)c(F)c(F)c(F)c5F)c5nc(c(-c6c(F)c(F)c(F)c(F)c6F)c6ccc3[nH]6)C=C5)C=C4)cc2)[C@H]([N@@H+](C)CCS(C)(=O)=O)C1
REMARK SMILES IDX 9 1 8 2 6 3 7 4 5 6 1 7 2 8 3 9 88 10 4 11 79 12 80 13 81 14
REMARK SMILES IDX 82 16 83 17 84 18 85 19 86 20 87 21 10 22 11 23 12 24 13 25
REMARK SMILES IDX 14 26 15 28 16 29 17 30 78 31 18 32 77 33 19 34 20 35 21 36
REMARK SMILES IDX 71 37 22 38 76 39 70 40 72 41 23 42 75 43 69 44 68 45 24 47
REMARK SMILES IDX 56 48 36 49 55 50 37 51 40 52 54 53 73 54 38 55 39 56 53 58
REMARK SMILES IDX 74 59 41 60 25 61 26 62 34 63 27 64 28 65 32 66 35 67 29 68
REMARK SMILES IDX 30 69 33 70 31 71 57 72 58 73 66 74 59 75 60 76 64 77 67 78
REMARK SMILES IDX 61 79 62 80 65 81 63 82 42 83 43 84 51 85 44 86 45 87 49 88
REMARK SMILES IDX 52 89 46 90 47 91 50 92 48 93
REMARK H PARENT 8 5 80 15 13 27 72 46 40 57
REMARK Flexibility Score: inf
ROOT
ATOM      1  C   UNL A   1      32.785  30.126  25.907  1.00  0.00     0.116 C 
ENDROOT
BRANCH   1   2
ATOM      2  N   UNL A   1      32.965  29.719  24.534  1.00  0.00    -0.356 N 
ATOM      3  C   UNL A   1      33.515  28.568  24.065  1.00  0.00     0.229 C 
ATOM      4  O   UNL A   1      34.415  28.788  23.254  1.00  0.00    -0.275 OA
ATOM      5  H   UNL A   1      32.650  30.354  23.851  1.00  0.00     0.163 HD
BRANCH   3   6
ATOM      6  C   UNL A   1      32.963  27.131  24.496  1.00  0.00     0.136 C 
ATOM      7  C   UNL A   1      35.333  22.373  23.870  1.00  0.00     0.008 C 
ATOM      8  C   UNL A   1      34.225  23.382  24.258  1.00  0.00    -0.008 C 
ATOM      9  C   UNL A   1      34.455  24.408  25.896  1.00  0.00     0.004 C 
ATOM     10  C   UNL A   1      33.498  24.318  22.703  1.00  0.00     0.069 C 
ATOM     11  C   UNL A   1      33.630  26.188  26.058  1.00  0.00     0.020 C 
ATOM     12  C   UNL A   1      32.605  26.052  22.908  1.00  0.00     0.196 C 
BRANCH  12  13
ATOM     13  N   UNL A   1      31.166  25.880  23.094  1.00  0.00    -0.333 N 
ATOM     14  C   UNL A   1      30.674  25.872  24.464  1.00  0.00     0.333 C 
ATOM     15  H   UNL A   1      30.807  24.972  22.799  1.00  0.00     0.348 HD
BRANCH  13  16
ATOM     16  C   UNL A   1      30.763  27.027  22.360  1.00  0.00     0.278 C 
BRANCH  16  17
ATOM     17  C   UNL A   1      29.546  27.701  23.156  1.00  0.00     0.197 C 
BRANCH  17  18
ATOM     18  S   UNL A   1      28.239  29.712  22.666  1.00  0.00     0.152 S 
ATOM     19  C   UNL A   1      28.885  31.398  23.092  1.00  0.00     0.158 C 
ATOM     20  O   UNL A   1      28.099  30.055  21.251  1.00  0.00    -0.229 OA
ATOM     21  O   UNL A   1      26.903  29.736  23.258  1.00  0.00    -0.229 OA
ENDBRANCH  17  18
ENDBRANCH  16  17
ENDBRANCH  13  16
ENDBRANCH  12  13
ENDBRANCH   3   6
ENDBRANCH   1   2
BRANCH   1  22
ATOM     22  C   UNL A   1      31.405  30.750  26.156  1.00  0.00     0.023 C 
BRANCH  22  23
ATOM     23  C   UNL A   1      31.355  32.244  26.517  1.00  0.00     0.023 C 
BRANCH  23  24
ATOM     24  C   UNL A   1      32.633  32.879  27.058  1.00  0.00     0.116 C 
BRANCH  24  25
ATOM     25  N   UNL A   1      32.424  34.200  27.624  1.00  0.00    -0.352 N 
ATOM     26  C   UNL A   1      33.068  34.837  28.657  1.00  0.00     0.251 C 
ATOM     27  H   UNL A   1      31.705  34.723  27.200  1.00  0.00     0.163 HD
ATOM     28  O   UNL A   1      32.650  35.923  29.050  1.00  0.00    -0.269 OA
BRANCH  26  29
ATOM     29  C   UNL A   1      34.238  34.222  29.325  1.00  0.00     0.039 A 
ATOM     30  C   UNL A   1      34.022  33.461  30.479  1.00  0.00     0.014 A 
ATOM     31  C   UNL A   1      35.538  34.403  28.849  1.00  0.00     0.014 A 
ATOM     32  C   UNL A   1      35.095  32.832  31.114  1.00  0.00     0.010 A 
ATOM     33  C   UNL A   1      36.599  33.715  29.440  1.00  0.00     0.010 A 
ATOM     34  C   UNL A   1      36.390  32.919  30.578  1.00  0.00    -0.014 A 
BRANCH  34  35
ATOM     35  C   UNL A   1      37.523  32.173  31.187  1.00  0.00     0.031 A 
ATOM     36  C   UNL A   1      38.013  32.518  32.566  1.00  0.00     0.074 A 
ATOM     37  C   UNL A   1      38.150  31.216  30.473  1.00  0.00     0.049 A 
ATOM     38  N   UNL A   1      39.016  32.011  33.242  1.00  0.00    -0.248 NA
ATOM     39  C   UNL A   1      37.296  33.589  33.274  1.00  0.00     0.031 C 
ATOM     40  C   UNL A   1      37.799  30.814  29.110  1.00  0.00     0.029 A 
ATOM     41  N   UNL A   1      39.219  30.414  30.789  1.00  0.00    -0.354 N 
ATOM     42  C   UNL A   1      39.057  32.709  34.443  1.00  0.00     0.074 A 
ATOM     43  C   UNL A   1      38.013  33.710  34.382  1.00  0.00     0.031 C 
ATOM     44  C   UNL A   1      38.616  29.824  28.719  1.00  0.00     0.029 A 
ATOM     45  C   UNL A   1      39.580  29.553  29.780  1.00  0.00     0.049 A 
ATOM     46  H   UNL A   1      39.683  30.451  31.656  1.00  0.00     0.167 HD
ATOM     47  C   UNL A   1      39.874  32.518  35.505  1.00  0.00     0.037 A 
ATOM     48  C   UNL A   1      40.583  28.655  29.712  1.00  0.00     0.037 A 
ATOM     49  C   UNL A   1      40.905  31.513  35.565  1.00  0.00     0.049 A 
ATOM     50  C   UNL A   1      41.500  28.489  30.896  1.00  0.00     0.074 A 
ATOM     51  C   UNL A   1      41.746  31.202  36.619  1.00  0.00     0.029 A 
ATOM     52  N   UNL A   1      41.244  30.664  34.521  1.00  0.00    -0.354 N 
ATOM     53  N   UNL A   1      41.478  29.100  32.055  1.00  0.00    -0.248 NA
ATOM     54  C   UNL A   1      42.580  27.501  30.760  1.00  0.00     0.031 C 
ATOM     55  C   UNL A   1      42.641  30.216  36.190  1.00  0.00     0.029 A 
ATOM     56  C   UNL A   1      42.307  29.855  34.894  1.00  0.00     0.049 A 
ATOM     57  H   UNL A   1      40.796  30.640  33.644  1.00  0.00     0.167 HD
ATOM     58  C   UNL A   1      42.513  28.549  32.798  1.00  0.00     0.074 A 
ATOM     59  C   UNL A   1      43.134  27.541  31.963  1.00  0.00     0.031 C 
ATOM     60  C   UNL A   1      42.912  28.849  34.058  1.00  0.00     0.037 A 
BRANCH  47  61
ATOM     61  C   UNL A   1      39.699  33.424  36.693  1.00  0.00     0.064 A 
ATOM     62  C   UNL A   1      40.374  34.650  36.796  1.00  0.00     0.173 A 
ATOM     63  C   UNL A   1      38.811  33.080  37.725  1.00  0.00     0.173 A 
ATOM     64  F   UNL A   1      41.239  35.028  35.843  1.00  0.00    -0.203 F 
ATOM     65  C   UNL A   1      40.195  35.479  37.901  1.00  0.00     0.198 A 
ATOM     66  C   UNL A   1      38.606  33.928  38.810  1.00  0.00     0.198 A 
ATOM     67  F   UNL A   1      38.131  31.925  37.676  1.00  0.00    -0.203 F 
ATOM     68  F   UNL A   1      40.894  36.618  38.003  1.00  0.00    -0.200 F 
ATOM     69  C   UNL A   1      39.305  35.121  38.903  1.00  0.00     0.200 A 
ATOM     70  F   UNL A   1      37.731  33.589  39.768  1.00  0.00    -0.200 F 
ATOM     71  F   UNL A   1      39.127  35.924  39.960  1.00  0.00    -0.200 F 
ENDBRANCH  47  61
BRANCH  48  72
ATOM     72  C   UNL A   1      40.766  27.831  28.487  1.00  0.00     0.064 A 
ATOM     73  C   UNL A   1      41.560  28.285  27.425  1.00  0.00     0.173 A 
ATOM     74  C   UNL A   1      40.139  26.584  28.343  1.00  0.00     0.173 A 
ATOM     75  F   UNL A   1      42.165  29.480  27.505  1.00  0.00    -0.203 F 
ATOM     76  C   UNL A   1      41.698  27.539  26.256  1.00  0.00     0.198 A 
ATOM     77  C   UNL A   1      40.306  25.823  27.187  1.00  0.00     0.198 A 
ATOM     78  F   UNL A   1      39.371  26.099  29.330  1.00  0.00    -0.203 F 
ATOM     79  F   UNL A   1      42.416  28.025  25.234  1.00  0.00    -0.200 F 
ATOM     80  C   UNL A   1      41.076  26.306  26.141  1.00  0.00     0.200 A 
ATOM     81  F   UNL A   1      39.718  24.623  27.089  1.00  0.00    -0.200 F 
ATOM     82  F   UNL A   1      41.210  25.587  25.018  1.00  0.00    -0.200 F 
ENDBRANCH  48  72
BRANCH  60  83
ATOM     83  C   UNL A   1      44.046  28.047  34.636  1.00  0.00     0.064 A 
ATOM     84  C   UNL A   1      45.377  28.486  34.568  1.00  0.00     0.173 A 
ATOM     85  C   UNL A   1      43.789  26.837  35.301  1.00  0.00     0.173 A 
ATOM     86  F   UNL A   1      45.680  29.627  33.932  1.00  0.00    -0.203 F 
ATOM     87  C   UNL A   1      46.410  27.727  35.115  1.00  0.00     0.198 A 
ATOM     88  C   UNL A   1      44.819  26.102  35.880  1.00  0.00     0.198 A 
ATOM     89  F   UNL A   1      42.534  26.374  35.403  1.00  0.00    -0.203 F 
ATOM     90  F   UNL A   1      47.679  28.137  34.986  1.00  0.00    -0.200 F 
ATOM     91  C   UNL A   1      46.130  26.543  35.778  1.00  0.00     0.200 A 
ATOM     92  F   UNL A   1      44.544  24.967  36.537  1.00  0.00    -0.200 F 
ATOM     93  F   UNL A   1      47.124  25.820  36.312  1.00  0.00    -0.200 F 
ENDBRANCH  60  83
ENDBRANCH  34  35
ENDBRANCH  26  29
ENDBRANCH  24  25
ENDBRANCH  23  24
ENDBRANCH  22  23
ENDBRANCH   1  22
TORSDOF 15
ENDMDL
