MODEL 1
REMARK VINA RESULT:     -14.1      0.000      0.000
REMARK SMILES Cc1ccc2c(=O)c3cccc(CC(=O)NCCCCNC(=O)c4ccc(-c5c6nc(c(-c7c(F)c(F)c(F)c(F)c7F)c7ccc([nH]7)c(-c7c(F)c(F)c(F)c(F)c7F)c7nc(c(-c8c(F)c(F)c(F)c(F)c8F)c8ccc5[nH]8)C=C7)C=C6)cc4)c3oc2c1C
REMARK SMILES IDX 19 1 18 2 17 3 16 4 14 5 15 6 13 8 12 9 1 10 2 11 3 12 90 13
REMARK SMILES IDX 4 14 89 15 91 16 5 17 88 18 6 19 87 20 7 21 8 22 9 23 11 24
REMARK SMILES IDX 10 25 20 26 21 27 22 28 23 30 24 31 25 32 86 33 26 34 85 35
REMARK SMILES IDX 27 36 28 37 29 38 79 39 30 40 84 41 78 42 80 43 31 44 83 45
REMARK SMILES IDX 77 46 76 47 32 49 64 50 44 51 63 52 45 53 48 54 62 55 81 56
REMARK SMILES IDX 46 57 47 58 61 60 82 61 49 62 33 63 34 64 42 65 35 66 36 67
REMARK SMILES IDX 40 68 43 69 37 70 38 71 41 72 39 73 65 74 66 75 74 76 67 77
REMARK SMILES IDX 68 78 72 79 75 80 69 81 70 82 73 83 71 84 50 85 51 86 59 87
REMARK SMILES IDX 52 88 53 89 57 90 60 91 54 92 55 93 58 94 56 95
REMARK H PARENT 16 7 21 29 80 48 48 59
REMARK Flexibility Score: inf
ROOT
ATOM      1  C   UNL A   1      31.640  31.962  26.876  1.00  0.00     0.023 C 
ENDROOT
BRANCH   1   2
ATOM      2  C   UNL A   1      31.921  30.461  26.806  1.00  0.00     0.023 C 
BRANCH   2   3
ATOM      3  C   UNL A   1      33.391  30.086  26.610  1.00  0.00     0.116 C 
BRANCH   3   4
ATOM      4  N   UNL A   1      33.645  29.509  25.305  1.00  0.00    -0.356 N 
ATOM      5  C   UNL A   1      33.889  28.209  24.966  1.00  0.00     0.224 C 
ATOM      6  O   UNL A   1      34.027  27.943  23.770  1.00  0.00    -0.275 OA
ATOM      7  H   UNL A   1      33.643  30.147  24.555  1.00  0.00     0.163 HD
BRANCH   5   8
ATOM      8  C   UNL A   1      33.901  27.120  26.027  1.00  0.00     0.139 C 
BRANCH   8   9
ATOM      9  C   UNL A   1      32.747  26.145  25.963  1.00  0.00     0.005 A 
ATOM     10  C   UNL A   1      37.510  20.742  24.740  1.00  0.00     0.045 C 
ATOM     11  C   UNL A   1      36.111  21.232  25.001  1.00  0.00    -0.044 A 
ATOM     12  C   UNL A   1      35.068  20.290  25.001  1.00  0.00     0.005 A 
ATOM     13  C   UNL A   1      35.823  22.589  25.278  1.00  0.00    -0.005 A 
ATOM     14  C   UNL A   1      33.752  20.681  25.237  1.00  0.00     0.016 A 
ATOM     15  C   UNL A   1      34.482  22.978  25.490  1.00  0.00     0.141 A 
ATOM     16  C   UNL A   1      36.902  23.641  25.341  1.00  0.00     0.049 C 
ATOM     17  C   UNL A   1      33.466  22.025  25.470  1.00  0.00     0.066 A 
ATOM     18  O   UNL A   1      34.244  24.317  25.710  1.00  0.00    -0.455 OA
ATOM     19  C   UNL A   1      32.080  22.456  25.691  1.00  0.00     0.200 A 
ATOM     20  C   UNL A   1      32.949  24.759  25.828  1.00  0.00     0.142 A 
ATOM     21  O   UNL A   1      31.157  21.654  25.750  1.00  0.00    -0.288 OA
ATOM     22  C   UNL A   1      31.850  23.900  25.826  1.00  0.00     0.066 A 
ATOM     23  C   UNL A   1      30.548  24.394  25.947  1.00  0.00     0.016 A 
ATOM     24  C   UNL A   1      31.429  26.635  26.039  1.00  0.00     0.008 A 
ATOM     25  C   UNL A   1      30.338  25.765  26.044  1.00  0.00     0.001 A 
ENDBRANCH   8   9
ENDBRANCH   5   8
ENDBRANCH   3   4
ENDBRANCH   2   3
ENDBRANCH   1   2
BRANCH   1  26
ATOM     26  C   UNL A   1      32.789  32.821  27.387  1.00  0.00     0.116 C 
BRANCH  26  27
ATOM     27  N   UNL A   1      32.412  34.196  27.676  1.00  0.00    -0.352 N 
ATOM     28  C   UNL A   1      32.994  35.079  28.559  1.00  0.00     0.251 C 
ATOM     29  H   UNL A   1      31.637  34.542  27.176  1.00  0.00     0.163 HD
ATOM     30  O   UNL A   1      32.501  36.185  28.750  1.00  0.00    -0.269 OA
BRANCH  28  31
ATOM     31  C   UNL A   1      34.193  34.660  29.318  1.00  0.00     0.039 A 
ATOM     32  C   UNL A   1      35.467  34.793  28.765  1.00  0.00     0.014 A 
ATOM     33  C   UNL A   1      34.028  34.068  30.573  1.00  0.00     0.014 A 
ATOM     34  C   UNL A   1      36.549  34.174  29.380  1.00  0.00     0.010 A 
ATOM     35  C   UNL A   1      35.131  33.515  31.229  1.00  0.00     0.010 A 
ATOM     36  C   UNL A   1      36.389  33.509  30.608  1.00  0.00    -0.014 A 
BRANCH  36  37
ATOM     37  C   UNL A   1      37.547  32.785  31.192  1.00  0.00     0.031 A 
ATOM     38  C   UNL A   1      38.008  33.082  32.594  1.00  0.00     0.074 A 
ATOM     39  C   UNL A   1      38.127  31.791  30.492  1.00  0.00     0.049 A 
ATOM     40  N   UNL A   1      38.951  32.502  33.295  1.00  0.00    -0.248 NA
ATOM     41  C   UNL A   1      37.323  34.173  33.307  1.00  0.00     0.031 C 
ATOM     42  C   UNL A   1      37.756  31.397  29.134  1.00  0.00     0.029 A 
ATOM     43  N   UNL A   1      39.117  30.908  30.839  1.00  0.00    -0.354 N 
ATOM     44  C   UNL A   1      38.979  33.160  34.518  1.00  0.00     0.074 A 
ATOM     45  C   UNL A   1      37.982  34.207  34.456  1.00  0.00     0.031 C 
ATOM     46  C   UNL A   1      38.458  30.309  28.787  1.00  0.00     0.029 A 
ATOM     47  C   UNL A   1      39.367  29.961  29.876  1.00  0.00     0.049 A 
ATOM     48  H   UNL A   1      39.601  30.948  31.694  1.00  0.00     0.167 HD
ATOM     49  C   UNL A   1      39.753  32.903  35.599  1.00  0.00     0.037 A 
ATOM     50  C   UNL A   1      40.227  28.926  29.872  1.00  0.00     0.037 A 
ATOM     51  C   UNL A   1      40.728  31.848  35.671  1.00  0.00     0.049 A 
ATOM     52  C   UNL A   1      41.105  28.693  31.068  1.00  0.00     0.074 A 
ATOM     53  C   UNL A   1      41.551  31.504  36.730  1.00  0.00     0.029 A 
ATOM     54  N   UNL A   1      41.008  30.960  34.643  1.00  0.00    -0.354 N 
ATOM     55  N   UNL A   1      41.125  29.328  32.214  1.00  0.00    -0.248 NA
ATOM     56  C   UNL A   1      42.092  27.608  30.962  1.00  0.00     0.031 C 
ATOM     57  C   UNL A   1      42.353  30.430  36.331  1.00  0.00     0.029 A 
ATOM     58  C   UNL A   1      42.004  30.080  35.037  1.00  0.00     0.049 A 
ATOM     59  H   UNL A   1      40.565  30.956  33.765  1.00  0.00     0.167 HD
ATOM     60  C   UNL A   1      42.117  28.719  32.968  1.00  0.00     0.074 A 
ATOM     61  C   UNL A   1      42.664  27.650  32.158  1.00  0.00     0.031 C 
ATOM     62  C   UNL A   1      42.541  29.025  34.218  1.00  0.00     0.037 A 
BRANCH  49  63
ATOM     63  C   UNL A   1      39.581  33.782  36.803  1.00  0.00     0.064 A 
ATOM     64  C   UNL A   1      40.188  35.044  36.881  1.00  0.00     0.173 A 
ATOM     65  C   UNL A   1      38.752  33.384  37.864  1.00  0.00     0.173 A 
ATOM     66  F   UNL A   1      40.998  35.465  35.898  1.00  0.00    -0.203 F 
ATOM     67  C   UNL A   1      39.983  35.870  37.984  1.00  0.00     0.198 A 
ATOM     68  C   UNL A   1      38.531  34.222  38.954  1.00  0.00     0.198 A 
ATOM     69  F   UNL A   1      38.143  32.190  37.834  1.00  0.00    -0.203 F 
ATOM     70  F   UNL A   1      40.598  37.058  38.052  1.00  0.00    -0.200 F 
ATOM     71  C   UNL A   1      39.150  35.461  39.015  1.00  0.00     0.200 A 
ATOM     72  F   UNL A   1      37.717  33.831  39.944  1.00  0.00    -0.200 F 
ATOM     73  F   UNL A   1      38.946  36.262  40.070  1.00  0.00    -0.200 F 
ENDBRANCH  49  63
BRANCH  50  74
ATOM     74  C   UNL A   1      40.277  28.024  28.695  1.00  0.00     0.064 A 
ATOM     75  C   UNL A   1      41.017  28.372  27.558  1.00  0.00     0.173 A 
ATOM     76  C   UNL A   1      39.622  26.784  28.699  1.00  0.00     0.173 A 
ATOM     77  F   UNL A   1      41.644  29.556  27.503  1.00  0.00    -0.203 F 
ATOM     78  C   UNL A   1      41.101  27.511  26.465  1.00  0.00     0.198 A 
ATOM     79  C   UNL A   1      39.726  25.914  27.616  1.00  0.00     0.198 A 
ATOM     80  F   UNL A   1      38.903  26.407  29.765  1.00  0.00    -0.203 F 
ATOM     81  F   UNL A   1      41.798  27.876  25.380  1.00  0.00    -0.200 F 
ATOM     82  C   UNL A   1      40.464  26.280  26.499  1.00  0.00     0.200 A 
ATOM     83  F   UNL A   1      39.122  24.719  27.658  1.00  0.00    -0.200 F 
ATOM     84  F   UNL A   1      40.559  25.446  25.455  1.00  0.00    -0.200 F 
ENDBRANCH  50  74
BRANCH  62  85
ATOM     85  C   UNL A   1      43.650  28.197  34.792  1.00  0.00     0.064 A 
ATOM     86  C   UNL A   1      44.988  28.603  34.690  1.00  0.00     0.173 A 
ATOM     87  C   UNL A   1      43.368  27.022  35.505  1.00  0.00     0.173 A 
ATOM     88  F   UNL A   1      45.306  29.712  34.006  1.00  0.00    -0.203 F 
ATOM     89  C   UNL A   1      46.008  27.855  35.272  1.00  0.00     0.198 A 
ATOM     90  C   UNL A   1      44.388  26.289  36.104  1.00  0.00     0.198 A 
ATOM     91  F   UNL A   1      42.103  26.596  35.634  1.00  0.00    -0.203 F 
ATOM     92  F   UNL A   1      47.283  28.245  35.138  1.00  0.00    -0.200 F 
ATOM     93  C   UNL A   1      45.706  26.704  35.985  1.00  0.00     0.200 A 
ATOM     94  F   UNL A   1      44.096  25.183  36.802  1.00  0.00    -0.200 F 
ATOM     95  F   UNL A   1      46.688  25.991  36.555  1.00  0.00    -0.200 F 
ENDBRANCH  62  85
ENDBRANCH  36  37
ENDBRANCH  28  31
ENDBRANCH  26  27
ENDBRANCH   1  26
TORSDOF 12
ENDMDL
MODEL 2
REMARK VINA RESULT:     -14.0      0.202      1.131
REMARK SMILES Cc1ccc2c(=O)c3cccc(CC(=O)NCCCCNC(=O)c4ccc(-c5c6nc(c(-c7c(F)c(F)c(F)c(F)c7F)c7ccc([nH]7)c(-c7c(F)c(F)c(F)c(F)c7F)c7nc(c(-c8c(F)c(F)c(F)c(F)c8F)c8ccc5[nH]8)C=C7)C=C6)cc4)c3oc2c1C
REMARK SMILES IDX 19 1 18 2 17 3 16 4 14 5 15 6 13 8 12 9 1 10 2 11 3 12 90 13
REMARK SMILES IDX 4 14 89 15 91 16 5 17 88 18 6 19 87 20 7 21 8 22 9 23 11 24
REMARK SMILES IDX 10 25 20 26 21 27 22 28 23 30 24 31 25 32 86 33 26 34 85 35
REMARK SMILES IDX 27 36 28 37 29 38 79 39 30 40 84 41 78 42 80 43 31 44 83 45
REMARK SMILES IDX 77 46 76 47 32 49 64 50 44 51 63 52 45 53 48 54 62 55 81 56
REMARK SMILES IDX 46 57 47 58 61 60 82 61 49 62 33 63 34 64 42 65 35 66 36 67
REMARK SMILES IDX 40 68 43 69 37 70 38 71 41 72 39 73 65 74 66 75 74 76 67 77
REMARK SMILES IDX 68 78 72 79 75 80 69 81 70 82 73 83 71 84 50 85 51 86 59 87
REMARK SMILES IDX 52 88 53 89 57 90 60 91 54 92 55 93 58 94 56 95
REMARK H PARENT 16 7 21 29 80 48 48 59
REMARK Flexibility Score: inf
ROOT
ATOM      1  C   UNL A   1      31.691  31.921  26.886  1.00  0.00     0.023 C 
ENDROOT
BRANCH   1   2
ATOM      2  C   UNL A   1      32.020  30.429  26.852  1.00  0.00     0.023 C 
BRANCH   2   3
ATOM      3  C   UNL A   1      33.492  30.096  26.600  1.00  0.00     0.116 C 
BRANCH   3   4
ATOM      4  N   UNL A   1      33.701  29.451  25.319  1.00  0.00    -0.356 N 
ATOM      5  C   UNL A   1      33.840  28.124  25.030  1.00  0.00     0.224 C 
ATOM      6  O   UNL A   1      33.959  27.803  23.845  1.00  0.00    -0.275 OA
ATOM      7  H   UNL A   1      33.752  30.058  24.546  1.00  0.00     0.163 HD
BRANCH   5   8
ATOM      8  C   UNL A   1      33.762  27.078  26.131  1.00  0.00     0.139 C 
BRANCH   8   9
ATOM      9  C   UNL A   1      32.641  26.072  25.987  1.00  0.00     0.005 A 
ATOM     10  C   UNL A   1      37.615  20.852  24.806  1.00  0.00     0.045 C 
ATOM     11  C   UNL A   1      36.191  21.293  25.021  1.00  0.00    -0.044 A 
ATOM     12  C   UNL A   1      35.178  20.321  24.946  1.00  0.00     0.005 A 
ATOM     13  C   UNL A   1      35.851  22.631  25.326  1.00  0.00    -0.005 A 
ATOM     14  C   UNL A   1      33.842  20.666  25.137  1.00  0.00     0.016 A 
ATOM     15  C   UNL A   1      34.491  22.974  25.492  1.00  0.00     0.141 A 
ATOM     16  C   UNL A   1      36.893  23.712  25.469  1.00  0.00     0.049 C 
ATOM     17  C   UNL A   1      33.506  21.993  25.398  1.00  0.00     0.066 A 
ATOM     18  O   UNL A   1      34.203  24.298  25.742  1.00  0.00    -0.455 OA
ATOM     19  C   UNL A   1      32.099  22.377  25.572  1.00  0.00     0.200 A 
ATOM     20  C   UNL A   1      32.891  24.698  25.818  1.00  0.00     0.142 A 
ATOM     21  O   UNL A   1      31.200  21.547  25.565  1.00  0.00    -0.288 OA
ATOM     22  C   UNL A   1      31.820  23.808  25.741  1.00  0.00     0.066 A 
ATOM     23  C   UNL A   1      30.499  24.260  25.820  1.00  0.00     0.016 A 
ATOM     24  C   UNL A   1      31.307  26.522  26.020  1.00  0.00     0.008 A 
ATOM     25  C   UNL A   1      30.244  25.620  25.951  1.00  0.00     0.001 A 
ENDBRANCH   8   9
ENDBRANCH   5   8
ENDBRANCH   3   4
ENDBRANCH   2   3
ENDBRANCH   1   2
BRANCH   1  26
ATOM     26  C   UNL A   1      32.818  32.830  27.360  1.00  0.00     0.116 C 
BRANCH  26  27
ATOM     27  N   UNL A   1      32.386  34.180  27.688  1.00  0.00    -0.352 N 
ATOM     28  C   UNL A   1      32.930  35.058  28.600  1.00  0.00     0.251 C 
ATOM     29  H   UNL A   1      31.601  34.511  27.194  1.00  0.00     0.163 HD
ATOM     30  O   UNL A   1      32.393  36.138  28.821  1.00  0.00    -0.269 OA
BRANCH  28  31
ATOM     31  C   UNL A   1      34.141  34.663  29.352  1.00  0.00     0.039 A 
ATOM     32  C   UNL A   1      35.408  34.802  28.785  1.00  0.00     0.014 A 
ATOM     33  C   UNL A   1      33.995  34.089  30.618  1.00  0.00     0.014 A 
ATOM     34  C   UNL A   1      36.502  34.203  29.398  1.00  0.00     0.010 A 
ATOM     35  C   UNL A   1      35.111  33.557  31.270  1.00  0.00     0.010 A 
ATOM     36  C   UNL A   1      36.362  33.555  30.637  1.00  0.00    -0.014 A 
BRANCH  36  37
ATOM     37  C   UNL A   1      37.534  32.852  31.220  1.00  0.00     0.031 A 
ATOM     38  C   UNL A   1      38.021  33.193  32.603  1.00  0.00     0.074 A 
ATOM     39  C   UNL A   1      38.103  31.839  30.539  1.00  0.00     0.049 A 
ATOM     40  N   UNL A   1      38.980  32.637  33.302  1.00  0.00    -0.248 NA
ATOM     41  C   UNL A   1      37.347  34.303  33.296  1.00  0.00     0.031 C 
ATOM     42  C   UNL A   1      37.707  31.402  29.201  1.00  0.00     0.029 A 
ATOM     43  N   UNL A   1      39.103  30.969  30.893  1.00  0.00    -0.354 N 
ATOM     44  C   UNL A   1      39.029  33.333  34.504  1.00  0.00     0.074 A 
ATOM     45  C   UNL A   1      38.028  34.374  34.430  1.00  0.00     0.031 C 
ATOM     46  C   UNL A   1      38.406  30.306  28.873  1.00  0.00     0.029 A 
ATOM     47  C   UNL A   1      39.336  29.994  29.955  1.00  0.00     0.049 A 
ATOM     48  H   UNL A   1      39.604  31.037  31.737  1.00  0.00     0.167 HD
ATOM     49  C   UNL A   1      39.825  33.111  35.577  1.00  0.00     0.037 A 
ATOM     50  C   UNL A   1      40.200  28.962  29.965  1.00  0.00     0.037 A 
ATOM     51  C   UNL A   1      40.805  32.060  35.662  1.00  0.00     0.049 A 
ATOM     52  C   UNL A   1      41.102  28.768  31.150  1.00  0.00     0.074 A 
ATOM     53  C   UNL A   1      41.650  31.751  36.714  1.00  0.00     0.029 A 
ATOM     54  N   UNL A   1      41.068  31.143  34.656  1.00  0.00    -0.354 N 
ATOM     55  N   UNL A   1      41.142  29.437  32.275  1.00  0.00    -0.248 NA
ATOM     56  C   UNL A   1      42.089  27.682  31.058  1.00  0.00     0.031 C 
ATOM     57  C   UNL A   1      42.447  30.667  36.333  1.00  0.00     0.029 A 
ATOM     58  C   UNL A   1      42.074  30.277  35.057  1.00  0.00     0.049 A 
ATOM     59  H   UNL A   1      40.607  31.110  33.787  1.00  0.00     0.167 HD
ATOM     60  C   UNL A   1      42.151  28.854  33.028  1.00  0.00     0.074 A 
ATOM     61  C   UNL A   1      42.684  27.762  32.241  1.00  0.00     0.031 C 
ATOM     62  C   UNL A   1      42.598  29.199  34.260  1.00  0.00     0.037 A 
BRANCH  49  63
ATOM     63  C   UNL A   1      39.674  34.025  36.757  1.00  0.00     0.064 A 
ATOM     64  C   UNL A   1      38.887  33.670  37.862  1.00  0.00     0.173 A 
ATOM     65  C   UNL A   1      40.371  35.242  36.809  1.00  0.00     0.173 A 
ATOM     66  F   UNL A   1      38.193  32.522  37.855  1.00  0.00    -0.203 F 
ATOM     67  C   UNL A   1      38.793  34.508  38.971  1.00  0.00     0.198 A 
ATOM     68  C   UNL A   1      40.292  36.066  37.929  1.00  0.00     0.198 A 
ATOM     69  F   UNL A   1      41.142  35.624  35.780  1.00  0.00    -0.203 F 
ATOM     70  F   UNL A   1      38.010  34.163  40.003  1.00  0.00    -0.200 F 
ATOM     71  C   UNL A   1      39.500  35.701  39.006  1.00  0.00     0.200 A 
ATOM     72  F   UNL A   1      40.985  37.213  37.966  1.00  0.00    -0.200 F 
ATOM     73  F   UNL A   1      39.416  36.499  40.079  1.00  0.00    -0.200 F 
ENDBRANCH  49  63
BRANCH  50  74
ATOM     74  C   UNL A   1      40.229  28.024  28.816  1.00  0.00     0.064 A 
ATOM     75  C   UNL A   1      40.961  28.331  27.662  1.00  0.00     0.173 A 
ATOM     76  C   UNL A   1      39.563  26.791  28.863  1.00  0.00     0.173 A 
ATOM     77  F   UNL A   1      41.598  29.506  27.565  1.00  0.00    -0.203 F 
ATOM     78  C   UNL A   1      41.026  27.436  26.595  1.00  0.00     0.198 A 
ATOM     79  C   UNL A   1      39.648  25.888  27.806  1.00  0.00     0.198 A 
ATOM     80  F   UNL A   1      38.851  26.453  29.947  1.00  0.00    -0.203 F 
ATOM     81  F   UNL A   1      41.715  27.761  25.492  1.00  0.00    -0.200 F 
ATOM     82  C   UNL A   1      40.378  26.213  26.671  1.00  0.00     0.200 A 
ATOM     83  F   UNL A   1      39.033  24.701  27.890  1.00  0.00    -0.200 F 
ATOM     84  F   UNL A   1      40.454  25.347  25.652  1.00  0.00    -0.200 F 
ENDBRANCH  50  74
BRANCH  62  85
ATOM     85  C   UNL A   1      43.720  28.392  34.837  1.00  0.00     0.064 A 
ATOM     86  C   UNL A   1      45.056  28.792  34.686  1.00  0.00     0.173 A 
ATOM     87  C   UNL A   1      43.457  27.245  35.600  1.00  0.00     0.173 A 
ATOM     88  F   UNL A   1      45.357  29.874  33.953  1.00  0.00    -0.203 F 
ATOM     89  C   UNL A   1      46.089  28.065  35.271  1.00  0.00     0.198 A 
ATOM     90  C   UNL A   1      44.491  26.534  36.201  1.00  0.00     0.198 A 
ATOM     91  F   UNL A   1      42.194  26.826  35.777  1.00  0.00    -0.203 F 
ATOM     92  F   UNL A   1      47.361  28.448  35.091  1.00  0.00    -0.200 F 
ATOM     93  C   UNL A   1      45.806  26.942  36.034  1.00  0.00     0.200 A 
ATOM     94  F   UNL A   1      44.216  25.455  36.947  1.00  0.00    -0.200 F 
ATOM     95  F   UNL A   1      46.801  26.250  36.606  1.00  0.00    -0.200 F 
ENDBRANCH  62  85
ENDBRANCH  36  37
ENDBRANCH  28  31
ENDBRANCH  26  27
ENDBRANCH   1  26
TORSDOF 12
ENDMDL
MODEL 3
REMARK VINA RESULT:     -14.0      0.413      7.143
REMARK SMILES Cc1ccc2c(=O)c3cccc(CC(=O)NCCCCNC(=O)c4ccc(-c5c6nc(c(-c7c(F)c(F)c(F)c(F)c7F)c7ccc([nH]7)c(-c7c(F)c(F)c(F)c(F)c7F)c7nc(c(-c8c(F)c(F)c(F)c(F)c8F)c8ccc5[nH]8)C=C7)C=C6)cc4)c3oc2c1C
REMARK SMILES IDX 19 1 18 2 17 3 16 4 14 5 15 6 13 8 12 9 1 10 2 11 3 12 90 13
REMARK SMILES IDX 4 14 89 15 91 16 5 17 88 18 6 19 87 20 7 21 8 22 9 23 11 24
REMARK SMILES IDX 10 25 20 26 21 27 22 28 23 30 24 31 25 32 86 33 26 34 85 35
REMARK SMILES IDX 27 36 28 37 29 38 79 39 30 40 84 41 78 42 80 43 31 44 83 45
REMARK SMILES IDX 77 46 76 47 32 49 64 50 44 51 63 52 45 53 48 54 62 55 81 56
REMARK SMILES IDX 46 57 47 58 61 60 82 61 49 62 33 63 34 64 42 65 35 66 36 67
REMARK SMILES IDX 40 68 43 69 37 70 38 71 41 72 39 73 65 74 66 75 74 76 67 77
REMARK SMILES IDX 68 78 72 79 75 80 69 81 70 82 73 83 71 84 50 85 51 86 59 87
REMARK SMILES IDX 52 88 53 89 57 90 60 91 54 92 55 93 58 94 56 95
REMARK H PARENT 16 7 21 29 80 48 48 59
REMARK Flexibility Score: inf
ROOT
ATOM      1  C   UNL A   1      31.619  32.053  26.832  1.00  0.00     0.023 C 
ENDROOT
BRANCH   1   2
ATOM      2  C   UNL A   1      31.857  30.545  26.748  1.00  0.00     0.023 C 
BRANCH   2   3
ATOM      3  C   UNL A   1      33.323  30.127  26.626  1.00  0.00     0.116 C 
BRANCH   3   4
ATOM      4  N   UNL A   1      33.625  29.543  25.335  1.00  0.00    -0.356 N 
ATOM      5  C   UNL A   1      33.875  28.240  25.011  1.00  0.00     0.224 C 
ATOM      6  O   UNL A   1      34.059  27.969  23.822  1.00  0.00    -0.275 OA
ATOM      7  H   UNL A   1      33.656  30.178  24.583  1.00  0.00     0.163 HD
BRANCH   5   8
ATOM      8  C   UNL A   1      33.839  27.156  26.076  1.00  0.00     0.139 C 
BRANCH   8   9
ATOM      9  C   UNL A   1      32.697  26.171  25.955  1.00  0.00     0.005 A 
ATOM     10  C   UNL A   1      37.554  20.835  24.807  1.00  0.00     0.045 C 
ATOM     11  C   UNL A   1      36.142  21.308  25.028  1.00  0.00    -0.044 A 
ATOM     12  C   UNL A   1      35.109  20.356  24.975  1.00  0.00     0.005 A 
ATOM     13  C   UNL A   1      35.831  22.656  25.317  1.00  0.00    -0.005 A 
ATOM     14  C   UNL A   1      33.782  20.730  25.172  1.00  0.00     0.016 A 
ATOM     15  C   UNL A   1      34.479  23.029  25.489  1.00  0.00     0.141 A 
ATOM     16  C   UNL A   1      36.896  23.718  25.436  1.00  0.00     0.049 C 
ATOM     17  C   UNL A   1      33.474  22.067  25.417  1.00  0.00     0.066 A 
ATOM     18  O   UNL A   1      34.220  24.362  25.723  1.00  0.00    -0.455 OA
ATOM     19  C   UNL A   1      32.077  22.482  25.596  1.00  0.00     0.200 A 
ATOM     20  C   UNL A   1      32.918  24.790  25.804  1.00  0.00     0.142 A 
ATOM     21  O   UNL A   1      31.161  21.670  25.609  1.00  0.00    -0.288 OA
ATOM     22  C   UNL A   1      31.828  23.920  25.748  1.00  0.00     0.066 A 
ATOM     23  C   UNL A   1      30.517  24.400  25.831  1.00  0.00     0.016 A 
ATOM     24  C   UNL A   1      31.372  26.648  25.993  1.00  0.00     0.008 A 
ATOM     25  C   UNL A   1      30.291  25.767  25.945  1.00  0.00     0.001 A 
ENDBRANCH   8   9
ENDBRANCH   5   8
ENDBRANCH   3   4
ENDBRANCH   2   3
ENDBRANCH   1   2
BRANCH   1  26
ATOM     26  C   UNL A   1      32.769  32.867  27.408  1.00  0.00     0.116 C 
BRANCH  26  27
ATOM     27  N   UNL A   1      32.429  34.255  27.680  1.00  0.00    -0.352 N 
ATOM     28  C   UNL A   1      32.983  35.109  28.609  1.00  0.00     0.251 C 
ATOM     29  H   UNL A   1      31.707  34.635  27.129  1.00  0.00     0.163 HD
ATOM     30  O   UNL A   1      32.523  36.234  28.773  1.00  0.00    -0.269 OA
BRANCH  28  31
ATOM     31  C   UNL A   1      34.106  34.638  29.447  1.00  0.00     0.039 A 
ATOM     32  C   UNL A   1      35.405  34.593  28.938  1.00  0.00     0.014 A 
ATOM     33  C   UNL A   1      33.840  34.176  30.740  1.00  0.00     0.014 A 
ATOM     34  C   UNL A   1      36.395  33.922  29.646  1.00  0.00     0.010 A 
ATOM     35  C   UNL A   1      34.859  33.572  31.483  1.00  0.00     0.010 A 
ATOM     36  C   UNL A   1      36.128  33.385  30.916  1.00  0.00    -0.014 A 
BRANCH  36  37
ATOM     37  C   UNL A   1      37.185  32.600  31.605  1.00  0.00     0.031 A 
ATOM     38  C   UNL A   1      37.895  31.481  30.891  1.00  0.00     0.074 A 
ATOM     39  C   UNL A   1      37.570  32.957  32.845  1.00  0.00     0.049 A 
ATOM     40  N   UNL A   1      38.890  30.736  31.307  1.00  0.00    -0.248 NA
ATOM     41  C   UNL A   1      37.432  31.151  29.534  1.00  0.00     0.031 C 
ATOM     42  C   UNL A   1      36.971  34.035  33.630  1.00  0.00     0.029 A 
ATOM     43  N   UNL A   1      38.579  32.481  33.643  1.00  0.00    -0.354 N 
ATOM     44  C   UNL A   1      39.161  29.849  30.273  1.00  0.00     0.074 A 
ATOM     45  C   UNL A   1      38.206  30.122  29.220  1.00  0.00     0.031 C 
ATOM     46  C   UNL A   1      37.666  34.186  34.767  1.00  0.00     0.029 A 
ATOM     47  C   UNL A   1      38.724  33.181  34.815  1.00  0.00     0.049 A 
ATOM     48  H   UNL A   1      39.143  31.713  33.399  1.00  0.00     0.167 HD
ATOM     49  C   UNL A   1      40.130  28.905  30.200  1.00  0.00     0.037 A 
ATOM     50  C   UNL A   1      39.613  33.034  35.815  1.00  0.00     0.037 A 
ATOM     51  C   UNL A   1      41.095  28.647  31.235  1.00  0.00     0.049 A 
ATOM     52  C   UNL A   1      40.647  31.949  35.728  1.00  0.00     0.074 A 
ATOM     53  C   UNL A   1      42.122  27.718  31.246  1.00  0.00     0.029 A 
ATOM     54  N   UNL A   1      41.158  29.325  32.443  1.00  0.00    -0.354 N 
ATOM     55  N   UNL A   1      40.888  31.114  34.748  1.00  0.00    -0.248 NA
ATOM     56  C   UNL A   1      41.525  31.777  36.895  1.00  0.00     0.031 C 
ATOM     57  C   UNL A   1      42.785  27.811  32.474  1.00  0.00     0.029 A 
ATOM     58  C   UNL A   1      42.195  28.823  33.214  1.00  0.00     0.049 A 
ATOM     59  H   UNL A   1      40.556  30.055  32.713  1.00  0.00     0.167 HD
ATOM     60  C   UNL A   1      41.944  30.322  35.173  1.00  0.00     0.074 A 
ATOM     61  C   UNL A   1      42.314  30.790  36.493  1.00  0.00     0.031 C 
ATOM     62  C   UNL A   1      42.548  29.295  34.528  1.00  0.00     0.037 A 
BRANCH  49  63
ATOM     63  C   UNL A   1      40.197  28.070  28.955  1.00  0.00     0.064 A 
ATOM     64  C   UNL A   1      40.931  28.486  27.835  1.00  0.00     0.173 A 
ATOM     65  C   UNL A   1      39.572  26.815  28.903  1.00  0.00     0.173 A 
ATOM     66  F   UNL A   1      41.537  29.683  27.831  1.00  0.00    -0.203 F 
ATOM     67  C   UNL A   1      41.024  27.681  26.702  1.00  0.00     0.198 A 
ATOM     68  C   UNL A   1      39.686  26.004  27.778  1.00  0.00     0.198 A 
ATOM     69  F   UNL A   1      38.864  26.369  29.952  1.00  0.00    -0.203 F 
ATOM     70  F   UNL A   1      41.704  28.112  25.631  1.00  0.00    -0.200 F 
ATOM     71  C   UNL A   1      40.408  26.438  26.677  1.00  0.00     0.200 A 
ATOM     72  F   UNL A   1      39.100  24.798  27.760  1.00  0.00    -0.200 F 
ATOM     73  F   UNL A   1      40.509  25.662  25.590  1.00  0.00    -0.200 F 
ENDBRANCH  49  63
BRANCH  50  74
ATOM     74  C   UNL A   1      39.567  33.960  36.974  1.00  0.00     0.064 A 
ATOM     75  C   UNL A   1      40.235  35.190  36.933  1.00  0.00     0.173 A 
ATOM     76  C   UNL A   1      38.827  33.652  38.124  1.00  0.00     0.173 A 
ATOM     77  F   UNL A   1      40.971  35.518  35.861  1.00  0.00    -0.203 F 
ATOM     78  C   UNL A   1      40.163  36.082  38.001  1.00  0.00     0.198 A 
ATOM     79  C   UNL A   1      38.736  34.554  39.182  1.00  0.00     0.198 A 
ATOM     80  F   UNL A   1      38.170  32.487  38.209  1.00  0.00    -0.203 F 
ATOM     81  F   UNL A   1      40.828  37.244  37.948  1.00  0.00    -0.200 F 
ATOM     82  C   UNL A   1      39.406  35.767  39.120  1.00  0.00     0.200 A 
ATOM     83  F   UNL A   1      37.992  34.253  40.255  1.00  0.00    -0.200 F 
ATOM     84  F   UNL A   1      39.324  36.632  40.140  1.00  0.00    -0.200 F 
ENDBRANCH  50  74
BRANCH  62  85
ATOM     85  C   UNL A   1      43.671  28.601  35.235  1.00  0.00     0.064 A 
ATOM     86  C   UNL A   1      45.004  28.996  35.047  1.00  0.00     0.173 A 
ATOM     87  C   UNL A   1      43.410  27.576  36.156  1.00  0.00     0.173 A 
ATOM     88  F   UNL A   1      45.302  29.963  34.166  1.00  0.00    -0.203 F 
ATOM     89  C   UNL A   1      46.036  28.381  35.749  1.00  0.00     0.198 A 
ATOM     90  C   UNL A   1      44.444  26.979  36.872  1.00  0.00     0.198 A 
ATOM     91  F   UNL A   1      42.151  27.166  36.374  1.00  0.00    -0.203 F 
ATOM     92  F   UNL A   1      47.305  28.755  35.533  1.00  0.00    -0.200 F 
ATOM     93  C   UNL A   1      45.755  27.379  36.666  1.00  0.00     0.200 A 
ATOM     94  F   UNL A   1      44.171  26.018  37.766  1.00  0.00    -0.200 F 
ATOM     95  F   UNL A   1      46.750  26.797  37.349  1.00  0.00    -0.200 F 
ENDBRANCH  62  85
ENDBRANCH  36  37
ENDBRANCH  28  31
ENDBRANCH  26  27
ENDBRANCH   1  26
TORSDOF 12
ENDMDL
