MODEL 1
REMARK VINA RESULT:     -13.0      0.000      0.000
REMARK SMILES C[C@@H](C(=O)NCCCCNC(=O)c1ccc(-c2c3nc(c(-c4c(F)c(F)c(F)c(F)c4F)c4ccc([nH]4)c(-c4c(F)c(F)c(F)c(F)c4F)c4nc(c(-c5c(F)c(F)c(F)c(F)c5F)c5ccc2[nH]5)C=C4)C=C3)cc1)c1ccc(C[C@H]2CCCC2=O)cc1
REMARK SMILES IDX 7 1 6 2 5 3 3 4 4 5 2 7 1 8 76 9 77 10 88 11 78 12 87 13
REMARK SMILES IDX 79 14 80 15 81 16 82 17 85 18 83 19 84 20 86 21 8 22 9 23
REMARK SMILES IDX 10 24 11 25 12 27 13 28 14 29 75 30 15 31 74 32 16 33 17 34
REMARK SMILES IDX 18 35 68 36 19 37 73 38 67 39 69 40 20 41 72 42 66 43 65 44
REMARK SMILES IDX 21 46 53 47 33 48 52 49 34 50 37 51 51 52 70 53 35 54 36 55
REMARK SMILES IDX 50 57 71 58 38 59 22 60 23 61 31 62 24 63 25 64 29 65 32 66
REMARK SMILES IDX 26 67 27 68 30 69 28 70 54 71 55 72 63 73 56 74 57 75 61 76
REMARK SMILES IDX 64 77 58 78 59 79 62 80 60 81 39 82 40 83 48 84 41 85 42 86
REMARK SMILES IDX 46 87 49 88 43 89 44 90 47 91 45 92
REMARK H PARENT 5 6 10 26 69 45 37 56
REMARK Flexibility Score: inf
ROOT
ATOM      1  C   UNL A   1      31.802  30.675  26.090  1.00  0.00     0.023 C 
ENDROOT
BRANCH   1   2
ATOM      2  C   UNL A   1      32.845  29.680  26.603  1.00  0.00     0.116 C 
BRANCH   2   3
ATOM      3  N   UNL A   1      32.224  28.464  27.084  1.00  0.00    -0.356 N 
ATOM      4  C   UNL A   1      31.882  27.319  26.422  1.00  0.00     0.227 C 
ATOM      5  O   UNL A   1      31.305  26.461  27.093  1.00  0.00    -0.274 OA
ATOM      6  H   UNL A   1      32.013  28.462  28.046  1.00  0.00     0.163 HD
BRANCH   4   7
ATOM      7  C   UNL A   1      32.248  27.147  24.938  1.00  0.00     0.105 C 
ATOM      8  C   UNL A   1      33.620  27.738  24.599  1.00  0.00     0.023 C 
BRANCH   7   9
ATOM      9  C   UNL A   1      31.235  27.748  23.968  1.00  0.00    -0.036 A 
ATOM     10  C   UNL A   1      31.624  28.780  23.102  1.00  0.00     0.005 A 
ATOM     11  C   UNL A   1      29.885  27.369  23.991  1.00  0.00     0.005 A 
ATOM     12  C   UNL A   1      30.682  29.430  22.302  1.00  0.00     0.004 A 
ATOM     13  C   UNL A   1      28.944  28.018  23.193  1.00  0.00     0.004 A 
ATOM     14  C   UNL A   1      29.328  29.074  22.361  1.00  0.00    -0.047 A 
BRANCH  14  15
ATOM     15  C   UNL A   1      28.292  29.843  21.577  1.00  0.00     0.047 C 
BRANCH  15  16
ATOM     16  C   UNL A   1      27.649  31.030  22.306  1.00  0.00     0.060 C 
ATOM     17  C   UNL A   1      27.977  31.182  23.795  1.00  0.00     0.012 C 
ATOM     18  C   UNL A   1      28.097  32.360  21.746  1.00  0.00     0.136 C 
ATOM     19  C   UNL A   1      29.099  32.212  23.884  1.00  0.00     0.009 C 
ATOM     20  C   UNL A   1      28.833  33.198  22.758  1.00  0.00     0.076 C 
ATOM     21  O   UNL A   1      27.867  32.730  20.600  1.00  0.00    -0.299 OA
ENDBRANCH  15  16
ENDBRANCH  14  15
ENDBRANCH   7   9
ENDBRANCH   4   7
ENDBRANCH   2   3
ENDBRANCH   1   2
BRANCH   1  22
ATOM     22  C   UNL A   1      31.531  31.864  27.016  1.00  0.00     0.023 C 
BRANCH  22  23
ATOM     23  C   UNL A   1      32.743  32.728  27.343  1.00  0.00     0.116 C 
BRANCH  23  24
ATOM     24  N   UNL A   1      32.392  34.110  27.635  1.00  0.00    -0.352 N 
ATOM     25  C   UNL A   1      32.956  34.980  28.534  1.00  0.00     0.251 C 
ATOM     26  H   UNL A   1      31.641  34.473  27.111  1.00  0.00     0.163 HD
ATOM     27  O   UNL A   1      32.442  36.077  28.738  1.00  0.00    -0.269 OA
BRANCH  25  28
ATOM     28  C   UNL A   1      34.160  34.578  29.290  1.00  0.00     0.039 A 
ATOM     29  C   UNL A   1      34.002  34.057  30.577  1.00  0.00     0.014 A 
ATOM     30  C   UNL A   1      35.434  34.681  28.722  1.00  0.00     0.014 A 
ATOM     31  C   UNL A   1      35.109  33.551  31.258  1.00  0.00     0.010 A 
ATOM     32  C   UNL A   1      36.527  34.120  29.377  1.00  0.00     0.010 A 
ATOM     33  C   UNL A   1      36.371  33.530  30.642  1.00  0.00    -0.014 A 
BRANCH  33  34
ATOM     34  C   UNL A   1      37.522  32.835  31.273  1.00  0.00     0.031 A 
ATOM     35  C   UNL A   1      38.158  31.649  30.607  1.00  0.00     0.074 A 
ATOM     36  C   UNL A   1      37.935  33.227  32.495  1.00  0.00     0.049 A 
ATOM     37  N   UNL A   1      39.108  30.865  31.050  1.00  0.00    -0.248 NA
ATOM     38  C   UNL A   1      37.645  31.279  29.278  1.00  0.00     0.031 C 
ATOM     39  C   UNL A   1      37.362  34.333  33.266  1.00  0.00     0.029 A 
ATOM     40  N   UNL A   1      38.918  32.729  33.314  1.00  0.00    -0.354 N 
ATOM     41  C   UNL A   1      39.298  29.906  30.065  1.00  0.00     0.074 A 
ATOM     42  C   UNL A   1      38.341  30.181  29.016  1.00  0.00     0.031 C 
ATOM     43  C   UNL A   1      38.006  34.434  34.438  1.00  0.00     0.029 A 
ATOM     44  C   UNL A   1      39.008  33.376  34.523  1.00  0.00     0.049 A 
ATOM     45  H   UNL A   1      39.503  31.979  33.060  1.00  0.00     0.167 HD
ATOM     46  C   UNL A   1      40.202  28.898  30.035  1.00  0.00     0.037 A 
ATOM     47  C   UNL A   1      39.795  33.132  35.588  1.00  0.00     0.037 A 
ATOM     48  C   UNL A   1      41.173  28.645  31.068  1.00  0.00     0.049 A 
ATOM     49  C   UNL A   1      40.779  31.994  35.529  1.00  0.00     0.074 A 
ATOM     50  C   UNL A   1      42.188  27.705  31.084  1.00  0.00     0.029 A 
ATOM     51  N   UNL A   1      41.242  29.328  32.273  1.00  0.00    -0.354 N 
ATOM     52  N   UNL A   1      41.011  31.153  34.553  1.00  0.00    -0.248 NA
ATOM     53  C   UNL A   1      41.609  31.774  36.721  1.00  0.00     0.031 C 
ATOM     54  C   UNL A   1      42.838  27.782  32.320  1.00  0.00     0.029 A 
ATOM     55  C   UNL A   1      42.260  28.804  33.054  1.00  0.00     0.049 A 
ATOM     56  H   UNL A   1      40.656  30.075  32.535  1.00  0.00     0.167 HD
ATOM     57  C   UNL A   1      42.023  30.316  35.003  1.00  0.00     0.074 A 
ATOM     58  C   UNL A   1      42.379  30.768  36.331  1.00  0.00     0.031 C 
ATOM     59  C   UNL A   1      42.601  29.264  34.376  1.00  0.00     0.037 A 
BRANCH  46  60
ATOM     60  C   UNL A   1      40.203  27.987  28.844  1.00  0.00     0.064 A 
ATOM     61  C   UNL A   1      40.928  28.296  27.683  1.00  0.00     0.173 A 
ATOM     62  C   UNL A   1      39.542  26.751  28.896  1.00  0.00     0.173 A 
ATOM     63  F   UNL A   1      41.570  29.469  27.581  1.00  0.00    -0.203 F 
ATOM     64  C   UNL A   1      40.981  27.405  26.615  1.00  0.00     0.198 A 
ATOM     65  C   UNL A   1      39.618  25.852  27.836  1.00  0.00     0.198 A 
ATOM     66  F   UNL A   1      38.840  26.405  29.986  1.00  0.00    -0.203 F 
ATOM     67  F   UNL A   1      41.658  27.731  25.505  1.00  0.00    -0.200 F 
ATOM     68  C   UNL A   1      40.335  26.180  26.695  1.00  0.00     0.200 A 
ATOM     69  F   UNL A   1      39.006  24.662  27.922  1.00  0.00    -0.200 F 
ATOM     70  F   UNL A   1      40.404  25.315  25.674  1.00  0.00    -0.200 F 
ENDBRANCH  46  60
BRANCH  47  71
ATOM     71  C   UNL A   1      39.682  33.970  36.811  1.00  0.00     0.064 A 
ATOM     72  C   UNL A   1      38.874  33.573  37.886  1.00  0.00     0.173 A 
ATOM     73  C   UNL A   1      40.352  35.197  36.918  1.00  0.00     0.173 A 
ATOM     74  F   UNL A   1      38.194  32.419  37.822  1.00  0.00    -0.203 F 
ATOM     75  C   UNL A   1      38.716  34.386  39.007  1.00  0.00     0.198 A 
ATOM     76  C   UNL A   1      40.220  35.994  38.053  1.00  0.00     0.198 A 
ATOM     77  F   UNL A   1      41.141  35.622  35.919  1.00  0.00    -0.203 F 
ATOM     78  F   UNL A   1      37.892  34.010  39.994  1.00  0.00    -0.200 F 
ATOM     79  C   UNL A   1      39.393  35.594  39.091  1.00  0.00     0.200 A 
ATOM     80  F   UNL A   1      40.886  37.154  38.137  1.00  0.00    -0.200 F 
ATOM     81  F   UNL A   1      39.240  36.376  40.169  1.00  0.00    -0.200 F 
ENDBRANCH  47  71
BRANCH  59  82
ATOM     82  C   UNL A   1      43.687  28.536  35.113  1.00  0.00     0.064 A 
ATOM     83  C   UNL A   1      45.030  28.928  35.009  1.00  0.00     0.173 A 
ATOM     84  C   UNL A   1      43.378  27.461  35.960  1.00  0.00     0.173 A 
ATOM     85  F   UNL A   1      45.378  29.937  34.199  1.00  0.00    -0.203 F 
ATOM     86  C   UNL A   1      46.027  28.254  35.710  1.00  0.00     0.198 A 
ATOM     87  C   UNL A   1      44.374  26.810  36.681  1.00  0.00     0.198 A 
ATOM     88  F   UNL A   1      42.108  27.052  36.098  1.00  0.00    -0.203 F 
ATOM     89  F   UNL A   1      47.309  28.615  35.559  1.00  0.00    -0.200 F 
ATOM     90  C   UNL A   1      45.697  27.202  36.551  1.00  0.00     0.200 A 
ATOM     91  F   UNL A   1      44.052  25.802  37.505  1.00  0.00    -0.200 F 
ATOM     92  F   UNL A   1      46.658  26.559  37.230  1.00  0.00    -0.200 F 
ENDBRANCH  59  82
ENDBRANCH  33  34
ENDBRANCH  25  28
ENDBRANCH  23  24
ENDBRANCH  22  23
ENDBRANCH   1  22
TORSDOF 14
ENDMDL
MODEL 2
REMARK VINA RESULT:     -12.9      0.500      7.271
REMARK SMILES C[C@@H](C(=O)NCCCCNC(=O)c1ccc(-c2c3nc(c(-c4c(F)c(F)c(F)c(F)c4F)c4ccc([nH]4)c(-c4c(F)c(F)c(F)c(F)c4F)c4nc(c(-c5c(F)c(F)c(F)c(F)c5F)c5ccc2[nH]5)C=C4)C=C3)cc1)c1ccc(C[C@H]2CCCC2=O)cc1
REMARK SMILES IDX 7 1 6 2 5 3 3 4 4 5 2 7 1 8 76 9 77 10 88 11 78 12 87 13
REMARK SMILES IDX 79 14 80 15 81 16 82 17 85 18 83 19 84 20 86 21 8 22 9 23
REMARK SMILES IDX 10 24 11 25 12 27 13 28 14 29 75 30 15 31 74 32 16 33 17 34
REMARK SMILES IDX 18 35 68 36 19 37 73 38 67 39 69 40 20 41 72 42 66 43 65 44
REMARK SMILES IDX 21 46 53 47 33 48 52 49 34 50 37 51 51 52 70 53 35 54 36 55
REMARK SMILES IDX 50 57 71 58 38 59 22 60 23 61 31 62 24 63 25 64 29 65 32 66
REMARK SMILES IDX 26 67 27 68 30 69 28 70 54 71 55 72 63 73 56 74 57 75 61 76
REMARK SMILES IDX 64 77 58 78 59 79 62 80 60 81 39 82 40 83 48 84 41 85 42 86
REMARK SMILES IDX 46 87 49 88 43 89 44 90 47 91 45 92
REMARK H PARENT 5 6 10 26 69 45 37 56
REMARK Flexibility Score: inf
ROOT
ATOM      1  C   UNL A   1      31.632  30.709  26.055  1.00  0.00     0.023 C 
ENDROOT
BRANCH   1   2
ATOM      2  C   UNL A   1      32.732  29.786  26.585  1.00  0.00     0.116 C 
BRANCH   2   3
ATOM      3  N   UNL A   1      32.183  28.544  27.089  1.00  0.00    -0.356 N 
ATOM      4  C   UNL A   1      31.911  27.369  26.448  1.00  0.00     0.227 C 
ATOM      5  O   UNL A   1      31.384  26.492  27.135  1.00  0.00    -0.274 OA
ATOM      6  H   UNL A   1      31.971  28.548  28.050  1.00  0.00     0.163 HD
BRANCH   4   7
ATOM      7  C   UNL A   1      32.289  27.191  24.967  1.00  0.00     0.105 C 
ATOM      8  C   UNL A   1      33.656  27.800  24.634  1.00  0.00     0.023 C 
BRANCH   7   9
ATOM      9  C   UNL A   1      31.275  27.772  23.986  1.00  0.00    -0.036 A 
ATOM     10  C   UNL A   1      31.664  28.780  23.094  1.00  0.00     0.005 A 
ATOM     11  C   UNL A   1      29.924  27.398  24.024  1.00  0.00     0.005 A 
ATOM     12  C   UNL A   1      30.721  29.413  22.280  1.00  0.00     0.004 A 
ATOM     13  C   UNL A   1      28.981  28.030  23.213  1.00  0.00     0.004 A 
ATOM     14  C   UNL A   1      29.366  29.063  22.353  1.00  0.00    -0.047 A 
BRANCH  14  15
ATOM     15  C   UNL A   1      28.330  29.816  21.555  1.00  0.00     0.047 C 
BRANCH  15  16
ATOM     16  C   UNL A   1      27.652  30.987  22.276  1.00  0.00     0.060 C 
ATOM     17  C   UNL A   1      27.966  31.151  23.767  1.00  0.00     0.012 C 
ATOM     18  C   UNL A   1      28.069  32.328  21.717  1.00  0.00     0.136 C 
ATOM     19  C   UNL A   1      29.060  32.209  23.862  1.00  0.00     0.009 C 
ATOM     20  C   UNL A   1      28.778  33.187  22.731  1.00  0.00     0.076 C 
ATOM     21  O   UNL A   1      27.838  32.689  20.568  1.00  0.00    -0.299 OA
ENDBRANCH  15  16
ENDBRANCH  14  15
ENDBRANCH   7   9
ENDBRANCH   4   7
ENDBRANCH   2   3
ENDBRANCH   1   2
BRANCH   1  22
ATOM     22  C   UNL A   1      31.401  31.979  26.878  1.00  0.00     0.023 C 
BRANCH  22  23
ATOM     23  C   UNL A   1      32.661  32.744  27.269  1.00  0.00     0.116 C 
BRANCH  23  24
ATOM     24  N   UNL A   1      32.397  34.136  27.602  1.00  0.00    -0.352 N 
ATOM     25  C   UNL A   1      32.999  34.935  28.542  1.00  0.00     0.251 C 
ATOM     26  H   UNL A   1      31.685  34.567  27.075  1.00  0.00     0.163 HD
ATOM     27  O   UNL A   1      32.556  36.057  28.774  1.00  0.00    -0.269 OA
BRANCH  25  28
ATOM     28  C   UNL A   1      34.155  34.426  29.308  1.00  0.00     0.039 A 
ATOM     29  C   UNL A   1      33.924  33.796  30.534  1.00  0.00     0.014 A 
ATOM     30  C   UNL A   1      35.456  34.538  28.807  1.00  0.00     0.014 A 
ATOM     31  C   UNL A   1      34.984  33.194  31.212  1.00  0.00     0.010 A 
ATOM     32  C   UNL A   1      36.502  33.884  29.453  1.00  0.00     0.010 A 
ATOM     33  C   UNL A   1      36.271  33.187  30.650  1.00  0.00    -0.014 A 
BRANCH  33  34
ATOM     34  C   UNL A   1      37.371  32.399  31.262  1.00  0.00     0.031 A 
ATOM     35  C   UNL A   1      37.909  32.762  32.617  1.00  0.00     0.074 A 
ATOM     36  C   UNL A   1      37.942  31.406  30.551  1.00  0.00     0.049 A 
ATOM     37  N   UNL A   1      38.923  32.247  33.267  1.00  0.00    -0.248 NA
ATOM     38  C   UNL A   1      37.238  33.862  33.326  1.00  0.00     0.031 C 
ATOM     39  C   UNL A   1      37.541  30.995  29.204  1.00  0.00     0.029 A 
ATOM     40  N   UNL A   1      38.994  30.576  30.850  1.00  0.00    -0.354 N 
ATOM     41  C   UNL A   1      39.018  32.964  34.451  1.00  0.00     0.074 A 
ATOM     42  C   UNL A   1      37.984  33.976  34.416  1.00  0.00     0.031 C 
ATOM     43  C   UNL A   1      38.329  29.988  28.797  1.00  0.00     0.029 A 
ATOM     44  C   UNL A   1      39.318  29.710  29.834  1.00  0.00     0.049 A 
ATOM     45  H   UNL A   1      39.470  30.599  31.711  1.00  0.00     0.167 HD
ATOM     46  C   UNL A   1      39.879  32.782  35.479  1.00  0.00     0.037 A 
ATOM     47  C   UNL A   1      40.313  28.808  29.739  1.00  0.00     0.037 A 
ATOM     48  C   UNL A   1      40.888  31.755  35.522  1.00  0.00     0.049 A 
ATOM     49  C   UNL A   1      41.265  28.640  30.893  1.00  0.00     0.074 A 
ATOM     50  C   UNL A   1      41.747  31.434  36.559  1.00  0.00     0.029 A 
ATOM     51  N   UNL A   1      41.180  30.889  34.479  1.00  0.00    -0.354 N 
ATOM     52  N   UNL A   1      41.284  29.263  32.045  1.00  0.00    -0.248 NA
ATOM     53  C   UNL A   1      42.332  27.643  30.732  1.00  0.00     0.031 C 
ATOM     54  C   UNL A   1      42.595  30.410  36.125  1.00  0.00     0.029 A 
ATOM     55  C   UNL A   1      42.231  30.059  34.836  1.00  0.00     0.049 A 
ATOM     56  H   UNL A   1      40.710  30.865  33.614  1.00  0.00     0.167 HD
ATOM     57  C   UNL A   1      42.350  28.724  32.752  1.00  0.00     0.074 A 
ATOM     58  C   UNL A   1      42.938  27.704  31.910  1.00  0.00     0.031 C 
ATOM     59  C   UNL A   1      42.806  29.048  33.986  1.00  0.00     0.037 A 
BRANCH  46  60
ATOM     60  C   UNL A   1      39.776  33.703  36.658  1.00  0.00     0.064 A 
ATOM     61  C   UNL A   1      40.437  34.940  36.683  1.00  0.00     0.173 A 
ATOM     62  C   UNL A   1      38.939  33.382  37.737  1.00  0.00     0.173 A 
ATOM     63  F   UNL A   1      41.255  35.289  35.679  1.00  0.00    -0.203 F 
ATOM     64  C   UNL A   1      40.270  35.818  37.751  1.00  0.00     0.198 A 
ATOM     65  C   UNL A   1      38.755  34.273  38.791  1.00  0.00     0.198 A 
ATOM     66  F   UNL A   1      38.280  32.214  37.758  1.00  0.00    -0.203 F 
ATOM     67  F   UNL A   1      40.930  36.984  37.767  1.00  0.00    -0.200 F 
ATOM     68  C   UNL A   1      39.423  35.489  38.799  1.00  0.00     0.200 A 
ATOM     69  F   UNL A   1      37.924  33.960  39.795  1.00  0.00    -0.200 F 
ATOM     70  F   UNL A   1      39.248  36.344  39.816  1.00  0.00    -0.200 F 
ENDBRANCH  46  60
BRANCH  47  71
ATOM     71  C   UNL A   1      40.475  27.998  28.503  1.00  0.00     0.064 A 
ATOM     72  C   UNL A   1      39.887  26.730  28.389  1.00  0.00     0.173 A 
ATOM     73  C   UNL A   1      41.244  28.458  27.425  1.00  0.00     0.173 A 
ATOM     74  F   UNL A   1      39.161  26.235  29.402  1.00  0.00    -0.203 F 
ATOM     75  C   UNL A   1      40.089  25.942  27.257  1.00  0.00     0.198 A 
ATOM     76  C   UNL A   1      41.419  27.683  26.280  1.00  0.00     0.198 A 
ATOM     77  F   UNL A   1      41.825  29.666  27.481  1.00  0.00    -0.203 F 
ATOM     78  F   UNL A   1      39.565  24.710  27.199  1.00  0.00    -0.200 F 
ATOM     79  C   UNL A   1      40.851  26.421  26.202  1.00  0.00     0.200 A 
ATOM     80  F   UNL A   1      42.144  28.156  25.257  1.00  0.00    -0.200 F 
ATOM     81  F   UNL A   1      41.047  25.662  25.115  1.00  0.00    -0.200 F 
ENDBRANCH  47  71
BRANCH  59  82
ATOM     82  C   UNL A   1      43.990  28.285  34.504  1.00  0.00     0.064 A 
ATOM     83  C   UNL A   1      45.298  28.766  34.342  1.00  0.00     0.173 A 
ATOM     84  C   UNL A   1      43.812  27.080  35.200  1.00  0.00     0.173 A 
ATOM     85  F   UNL A   1      45.520  29.903  33.668  1.00  0.00    -0.203 F 
ATOM     86  C   UNL A   1      46.387  28.055  34.839  1.00  0.00     0.198 A 
ATOM     87  C   UNL A   1      44.901  26.389  35.722  1.00  0.00     0.198 A 
ATOM     88  F   UNL A   1      42.582  26.581  35.386  1.00  0.00    -0.203 F 
ATOM     89  F   UNL A   1      47.631  28.510  34.632  1.00  0.00    -0.200 F 
ATOM     90  C   UNL A   1      46.187  26.873  35.536  1.00  0.00     0.200 A 
ATOM     91  F   UNL A   1      44.707  25.252  36.406  1.00  0.00    -0.200 F 
ATOM     92  F   UNL A   1      47.237  26.194  36.020  1.00  0.00    -0.200 F 
ENDBRANCH  59  82
ENDBRANCH  33  34
ENDBRANCH  25  28
ENDBRANCH  23  24
ENDBRANCH  22  23
ENDBRANCH   1  22
TORSDOF 14
ENDMDL
MODEL 3
REMARK VINA RESULT:     -12.7      0.424      2.005
REMARK SMILES C[C@@H](C(=O)NCCCCNC(=O)c1ccc(-c2c3nc(c(-c4c(F)c(F)c(F)c(F)c4F)c4ccc([nH]4)c(-c4c(F)c(F)c(F)c(F)c4F)c4nc(c(-c5c(F)c(F)c(F)c(F)c5F)c5ccc2[nH]5)C=C4)C=C3)cc1)c1ccc(C[C@H]2CCCC2=O)cc1
REMARK SMILES IDX 7 1 6 2 5 3 3 4 4 5 2 7 1 8 76 9 77 10 88 11 78 12 87 13
REMARK SMILES IDX 79 14 80 15 81 16 82 17 85 18 83 19 84 20 86 21 8 22 9 23
REMARK SMILES IDX 10 24 11 25 12 27 13 28 14 29 75 30 15 31 74 32 16 33 17 34
REMARK SMILES IDX 18 35 68 36 19 37 73 38 67 39 69 40 20 41 72 42 66 43 65 44
REMARK SMILES IDX 21 46 53 47 33 48 52 49 34 50 37 51 51 52 70 53 35 54 36 55
REMARK SMILES IDX 50 57 71 58 38 59 22 60 23 61 31 62 24 63 25 64 29 65 32 66
REMARK SMILES IDX 26 67 27 68 30 69 28 70 54 71 55 72 63 73 56 74 57 75 61 76
REMARK SMILES IDX 64 77 58 78 59 79 62 80 60 81 39 82 40 83 48 84 41 85 42 86
REMARK SMILES IDX 46 87 49 88 43 89 44 90 47 91 45 92
REMARK H PARENT 5 6 10 26 69 45 37 56
REMARK Flexibility Score: inf
ROOT
ATOM      1  C   UNL A   1      31.896  30.194  27.218  1.00  0.00     0.023 C 
ENDROOT
BRANCH   1   2
ATOM      2  C   UNL A   1      31.773  29.176  26.082  1.00  0.00     0.116 C 
BRANCH   2   3
ATOM      3  N   UNL A   1      31.534  27.842  26.590  1.00  0.00    -0.356 N 
ATOM      4  C   UNL A   1      31.441  26.645  25.937  1.00  0.00     0.227 C 
ATOM      5  O   UNL A   1      31.169  25.670  26.639  1.00  0.00    -0.274 OA
ATOM      6  H   UNL A   1      31.419  27.788  27.567  1.00  0.00     0.163 HD
BRANCH   4   7
ATOM      7  C   UNL A   1      31.703  26.570  24.423  1.00  0.00     0.105 C 
ATOM      8  C   UNL A   1      33.137  26.966  24.056  1.00  0.00     0.023 C 
BRANCH   7   9
ATOM      9  C   UNL A   1      30.760  27.424  23.580  1.00  0.00    -0.036 A 
ATOM     10  C   UNL A   1      31.277  28.442  22.767  1.00  0.00     0.005 A 
ATOM     11  C   UNL A   1      29.367  27.289  23.677  1.00  0.00     0.005 A 
ATOM     12  C   UNL A   1      30.422  29.315  22.090  1.00  0.00     0.004 A 
ATOM     13  C   UNL A   1      28.513  28.160  23.002  1.00  0.00     0.004 A 
ATOM     14  C   UNL A   1      29.033  29.200  22.224  1.00  0.00    -0.047 A 
BRANCH  14  15
ATOM     15  C   UNL A   1      28.108  30.205  21.581  1.00  0.00     0.047 C 
BRANCH  15  16
ATOM     16  C   UNL A   1      27.620  31.341  22.489  1.00  0.00     0.060 C 
ATOM     17  C   UNL A   1      28.116  31.323  23.939  1.00  0.00     0.012 C 
ATOM     18  C   UNL A   1      28.085  32.698  22.014  1.00  0.00     0.136 C 
ATOM     19  C   UNL A   1      29.301  32.282  24.000  1.00  0.00     0.009 C 
ATOM     20  C   UNL A   1      28.975  33.391  23.011  1.00  0.00     0.076 C 
ATOM     21  O   UNL A   1      27.755  33.195  20.942  1.00  0.00    -0.299 OA
ENDBRANCH  15  16
ENDBRANCH  14  15
ENDBRANCH   7   9
ENDBRANCH   4   7
ENDBRANCH   2   3
ENDBRANCH   1   2
BRANCH   1  22
ATOM     22  C   UNL A   1      31.803  31.660  26.787  1.00  0.00     0.023 C 
BRANCH  22  23
ATOM     23  C   UNL A   1      32.944  32.555  27.258  1.00  0.00     0.116 C 
BRANCH  23  24
ATOM     24  N   UNL A   1      32.510  33.909  27.567  1.00  0.00    -0.352 N 
ATOM     25  C   UNL A   1      32.995  34.785  28.507  1.00  0.00     0.251 C 
ATOM     26  H   UNL A   1      31.762  34.246  27.024  1.00  0.00     0.163 HD
ATOM     27  O   UNL A   1      32.418  35.848  28.717  1.00  0.00    -0.269 OA
BRANCH  25  28
ATOM     28  C   UNL A   1      34.190  34.426  29.299  1.00  0.00     0.039 A 
ATOM     29  C   UNL A   1      34.013  33.907  30.584  1.00  0.00     0.014 A 
ATOM     30  C   UNL A   1      35.475  34.568  28.767  1.00  0.00     0.014 A 
ATOM     31  C   UNL A   1      35.116  33.440  31.299  1.00  0.00     0.010 A 
ATOM     32  C   UNL A   1      36.568  34.047  29.455  1.00  0.00     0.010 A 
ATOM     33  C   UNL A   1      36.395  33.458  30.718  1.00  0.00    -0.014 A 
BRANCH  33  34
ATOM     34  C   UNL A   1      37.550  32.804  31.385  1.00  0.00     0.031 A 
ATOM     35  C   UNL A   1      38.230  31.624  30.754  1.00  0.00     0.074 A 
ATOM     36  C   UNL A   1      37.927  33.228  32.608  1.00  0.00     0.049 A 
ATOM     37  N   UNL A   1      39.190  30.872  31.231  1.00  0.00    -0.248 NA
ATOM     38  C   UNL A   1      37.755  31.218  29.422  1.00  0.00     0.031 C 
ATOM     39  C   UNL A   1      37.309  34.332  33.347  1.00  0.00     0.029 A 
ATOM     40  N   UNL A   1      38.905  32.770  33.456  1.00  0.00    -0.354 N 
ATOM     41  C   UNL A   1      39.426  29.901  30.267  1.00  0.00     0.074 A 
ATOM     42  C   UNL A   1      38.484  30.134  29.194  1.00  0.00     0.031 C 
ATOM     43  C   UNL A   1      37.926  34.470  34.531  1.00  0.00     0.029 A 
ATOM     44  C   UNL A   1      38.953  33.441  34.655  1.00  0.00     0.049 A 
ATOM     45  H   UNL A   1      39.514  32.031  33.228  1.00  0.00     0.167 HD
ATOM     46  C   UNL A   1      40.356  28.917  30.274  1.00  0.00     0.037 A 
ATOM     47  C   UNL A   1      39.723  33.235  35.740  1.00  0.00     0.037 A 
ATOM     48  C   UNL A   1      41.310  28.707  31.331  1.00  0.00     0.049 A 
ATOM     49  C   UNL A   1      40.737  32.123  35.722  1.00  0.00     0.074 A 
ATOM     50  C   UNL A   1      42.349  27.795  31.385  1.00  0.00     0.029 A 
ATOM     51  N   UNL A   1      41.336  29.413  32.525  1.00  0.00    -0.354 N 
ATOM     52  N   UNL A   1      41.011  31.270  34.766  1.00  0.00    -0.248 NA
ATOM     53  C   UNL A   1      41.547  31.945  36.935  1.00  0.00     0.031 C 
ATOM     54  C   UNL A   1      42.970  27.910  32.632  1.00  0.00     0.029 A 
ATOM     55  C   UNL A   1      42.351  28.930  33.336  1.00  0.00     0.049 A 
ATOM     56  H   UNL A   1      40.727  30.149  32.761  1.00  0.00     0.167 HD
ATOM     57  C   UNL A   1      42.034  30.468  35.252  1.00  0.00     0.074 A 
ATOM     58  C   UNL A   1      42.350  30.952  36.579  1.00  0.00     0.031 C 
ATOM     59  C   UNL A   1      42.653  29.421  34.656  1.00  0.00     0.037 A 
BRANCH  46  60
ATOM     60  C   UNL A   1      40.405  27.986  29.099  1.00  0.00     0.064 A 
ATOM     61  C   UNL A   1      39.635  26.813  29.060  1.00  0.00     0.173 A 
ATOM     62  C   UNL A   1      41.165  28.313  27.966  1.00  0.00     0.173 A 
ATOM     63  F   UNL A   1      38.899  26.453  30.121  1.00  0.00    -0.203 F 
ATOM     64  C   UNL A   1      39.633  25.998  27.931  1.00  0.00     0.198 A 
ATOM     65  C   UNL A   1      41.140  27.508  26.831  1.00  0.00     0.198 A 
ATOM     66  F   UNL A   1      41.913  29.426  27.951  1.00  0.00    -0.203 F 
ATOM     67  F   UNL A   1      38.910  24.870  27.924  1.00  0.00    -0.200 F 
ATOM     68  C   UNL A   1      40.376  26.350  26.815  1.00  0.00     0.200 A 
ATOM     69  F   UNL A   1      41.847  27.857  25.747  1.00  0.00    -0.200 F 
ATOM     70  F   UNL A   1      40.357  25.573  25.722  1.00  0.00    -0.200 F 
ENDBRANCH  46  60
BRANCH  47  71
ATOM     71  C   UNL A   1      39.563  34.091  36.945  1.00  0.00     0.064 A 
ATOM     72  C   UNL A   1      40.216  35.328  37.044  1.00  0.00     0.173 A 
ATOM     73  C   UNL A   1      38.782  33.679  38.034  1.00  0.00     0.173 A 
ATOM     74  F   UNL A   1      40.992  35.757  36.038  1.00  0.00    -0.203 F 
ATOM     75  C   UNL A   1      40.118  36.105  38.197  1.00  0.00     0.198 A 
ATOM     76  C   UNL A   1      38.659  34.470  39.174  1.00  0.00     0.198 A 
ATOM     77  F   UNL A   1      38.133  32.505  37.990  1.00  0.00    -0.203 F 
ATOM     78  F   UNL A   1      40.800  37.254  38.288  1.00  0.00    -0.200 F 
ATOM     79  C   UNL A   1      39.336  35.676  39.260  1.00  0.00     0.200 A 
ATOM     80  F   UNL A   1      37.891  34.059  40.194  1.00  0.00    -0.200 F 
ATOM     81  F   UNL A   1      39.245  36.421  40.370  1.00  0.00    -0.200 F 
ENDBRANCH  47  71
BRANCH  59  82
ATOM     82  C   UNL A   1      43.741  28.735  35.429  1.00  0.00     0.064 A 
ATOM     83  C   UNL A   1      43.455  27.701  36.333  1.00  0.00     0.173 A 
ATOM     84  C   UNL A   1      45.085  29.089  35.236  1.00  0.00     0.173 A 
ATOM     85  F   UNL A   1      42.185  27.339  36.565  1.00  0.00    -0.203 F 
ATOM     86  C   UNL A   1      44.475  27.063  37.034  1.00  0.00     0.198 A 
ATOM     87  C   UNL A   1      46.103  28.428  35.916  1.00  0.00     0.198 A 
ATOM     88  F   UNL A   1      45.410  30.067  34.378  1.00  0.00    -0.203 F 
ATOM     89  F   UNL A   1      44.176  26.110  37.928  1.00  0.00    -0.200 F 
ATOM     90  C   UNL A   1      45.798  27.421  36.819  1.00  0.00     0.200 A 
ATOM     91  F   UNL A   1      47.382  28.766  35.698  1.00  0.00    -0.200 F 
ATOM     92  F   UNL A   1      46.779  26.799  37.489  1.00  0.00    -0.200 F 
ENDBRANCH  59  82
ENDBRANCH  33  34
ENDBRANCH  25  28
ENDBRANCH  23  24
ENDBRANCH  22  23
ENDBRANCH   1  22
TORSDOF 14
ENDMDL
