MODEL 1
REMARK VINA RESULT:     -12.4      0.000      0.000
REMARK SMILES [NH3+][C@H]1C=C[C@@H](C(=O)NC2(CC(=O)NCCCCNC(=O)c3ccc(-c4c5nc(c(-c6c(F)c(F)c(F)c(F)c6F)c6ccc([nH]6)c(-c6c(F)c(F)c(F)c(F)c6F)c6nc(c(-c7c(F)c(F)c(F)c(F)c7F)c7ccc4[nH]7)C=C6)C=C5)cc3)CCCCC2)C1
REMARK SMILES IDX 14 1 13 2 11 3 12 4 10 6 9 7 84 8 88 9 85 10 87 11 86 12
REMARK SMILES IDX 8 13 6 14 7 15 5 17 2 18 3 19 89 20 4 21 1 22 15 26 16 27
REMARK SMILES IDX 17 28 18 29 19 30 20 32 21 33 22 34 83 35 23 36 82 37 24 38
REMARK SMILES IDX 25 39 26 40 76 41 27 42 81 43 75 44 77 45 28 46 80 47 74 48
REMARK SMILES IDX 73 49 29 51 61 52 41 53 60 54 42 55 45 56 59 57 78 58 43 59
REMARK SMILES IDX 44 60 58 62 79 63 46 64 30 65 31 66 39 67 32 68 33 69 37 70
REMARK SMILES IDX 40 71 34 72 35 73 38 74 36 75 62 76 63 77 71 78 64 79 65 80
REMARK SMILES IDX 69 81 72 82 66 83 67 84 70 85 68 86 47 87 48 88 56 89 49 90
REMARK SMILES IDX 50 91 54 92 57 93 51 94 52 95 55 96 53 97
REMARK H PARENT 13 5 8 16 1 23 1 24 1 25 18 31 77 50 45 61
REMARK Flexibility Score: inf
ROOT
ATOM      1  C   UNL A   1      30.978  26.721  25.990  1.00  0.00     0.116 C 
ENDROOT
BRANCH   1   2
ATOM      2  N   UNL A   1      30.825  25.530  26.793  1.00  0.00    -0.356 N 
ATOM      3  C   UNL A   1      30.813  24.223  26.429  1.00  0.00     0.222 C 
ATOM      4  O   UNL A   1      30.459  23.398  27.274  1.00  0.00    -0.275 OA
ATOM      5  H   UNL A   1      30.710  25.692  27.758  1.00  0.00     0.163 HD
BRANCH   3   6
ATOM      6  C   UNL A   1      31.217  23.765  25.036  1.00  0.00     0.128 C 
BRANCH   6   7
ATOM      7  C   UNL A   1      32.708  23.307  24.850  1.00  0.00     0.049 C 
ATOM      8  C   UNL A   1      33.527  24.556  24.463  1.00  0.00     0.029 C 
ATOM      9  C   UNL A   1      32.833  22.289  23.697  1.00  0.00     0.029 C 
ATOM     10  C   UNL A   1      33.171  25.142  23.095  1.00  0.00     0.002 C 
ATOM     11  C   UNL A   1      32.500  22.840  22.309  1.00  0.00     0.002 C 
ATOM     12  C   UNL A   1      33.298  24.097  21.991  1.00  0.00     0.000 C 
BRANCH   7  13
ATOM     13  N   UNL A   1      33.179  22.681  26.124  1.00  0.00    -0.350 N 
ATOM     14  C   UNL A   1      34.255  22.060  26.656  1.00  0.00     0.227 C 
ATOM     15  O   UNL A   1      34.012  21.422  27.693  1.00  0.00    -0.274 OA
ATOM     16  H   UNL A   1      32.467  22.739  26.802  1.00  0.00     0.164 HD
BRANCH  14  17
ATOM     17  C   UNL A   1      35.706  22.081  26.167  1.00  0.00     0.107 C 
ATOM     18  C   UNL A   1      37.121  22.404  24.195  1.00  0.00     0.205 C 
ATOM     19  C   UNL A   1      37.177  23.572  25.123  1.00  0.00     0.033 C 
ATOM     20  C   UNL A   1      35.992  21.534  24.771  1.00  0.00     0.087 C 
ATOM     21  C   UNL A   1      36.392  23.408  26.196  1.00  0.00    -0.012 C 
BRANCH  18  22
ATOM     22  N   UNL A   1      36.861  22.827  22.828  1.00  0.00    -0.352 N 
ATOM     23  H   UNL A   1      37.743  23.046  22.367  1.00  0.00     0.345 HD
ATOM     24  H   UNL A   1      36.266  23.655  22.835  1.00  0.00     0.345 HD
ATOM     25  H   UNL A   1      36.392  22.074  22.323  1.00  0.00     0.345 HD
ENDBRANCH  18  22
ENDBRANCH  14  17
ENDBRANCH   7  13
ENDBRANCH   6   7
ENDBRANCH   3   6
ENDBRANCH   1   2
BRANCH   1  26
ATOM     26  C   UNL A   1      32.139  27.571  26.515  1.00  0.00     0.023 C 
BRANCH  26  27
ATOM     27  C   UNL A   1      31.786  29.018  26.822  1.00  0.00     0.023 C 
BRANCH  27  28
ATOM     28  C   UNL A   1      32.794  30.027  26.304  1.00  0.00     0.116 C 
BRANCH  28  29
ATOM     29  N   UNL A   1      32.573  31.391  26.765  1.00  0.00    -0.352 N 
ATOM     30  C   UNL A   1      33.430  32.174  27.508  1.00  0.00     0.251 C 
ATOM     31  H   UNL A   1      31.711  31.799  26.520  1.00  0.00     0.163 HD
ATOM     32  O   UNL A   1      33.101  33.289  27.887  1.00  0.00    -0.269 OA
BRANCH  30  33
ATOM     33  C   UNL A   1      34.737  31.602  27.890  1.00  0.00     0.039 A 
ATOM     34  C   UNL A   1      35.843  32.449  27.969  1.00  0.00     0.014 A 
ATOM     35  C   UNL A   1      34.827  30.270  28.300  1.00  0.00     0.014 A 
ATOM     36  C   UNL A   1      37.021  31.977  28.548  1.00  0.00     0.010 A 
ATOM     37  C   UNL A   1      35.962  29.837  28.972  1.00  0.00     0.010 A 
ATOM     38  C   UNL A   1      37.071  30.685  29.101  1.00  0.00    -0.014 A 
BRANCH  38  39
ATOM     39  C   UNL A   1      38.279  30.214  29.822  1.00  0.00     0.031 A 
ATOM     40  C   UNL A   1      38.536  30.659  31.235  1.00  0.00     0.074 A 
ATOM     41  C   UNL A   1      39.169  29.428  29.185  1.00  0.00     0.049 A 
ATOM     42  N   UNL A   1      39.526  30.347  32.032  1.00  0.00    -0.248 NA
ATOM     43  C   UNL A   1      37.577  31.612  31.816  1.00  0.00     0.031 C 
ATOM     44  C   UNL A   1      39.079  29.006  27.785  1.00  0.00     0.029 A 
ATOM     45  N   UNL A   1      40.324  28.840  29.634  1.00  0.00    -0.354 N 
ATOM     46  C   UNL A   1      39.312  31.071  33.197  1.00  0.00     0.074 A 
ATOM     47  C   UNL A   1      38.144  31.893  32.979  1.00  0.00     0.031 C 
ATOM     48  C   UNL A   1      40.108  28.190  27.504  1.00  0.00     0.029 A 
ATOM     49  C   UNL A   1      40.939  28.048  28.695  1.00  0.00     0.049 A 
ATOM     50  H   UNL A   1      40.679  28.973  30.543  1.00  0.00     0.167 HD
ATOM     51  C   UNL A   1      40.005  31.026  34.360  1.00  0.00     0.037 A 
ATOM     52  C   UNL A   1      42.039  27.277  28.794  1.00  0.00     0.037 A 
ATOM     53  C   UNL A   1      41.144  30.178  34.585  1.00  0.00     0.049 A 
ATOM     54  C   UNL A   1      42.757  27.200  30.114  1.00  0.00     0.074 A 
ATOM     55  C   UNL A   1      41.877  30.004  35.746  1.00  0.00     0.029 A 
ATOM     56  N   UNL A   1      41.714  29.356  33.624  1.00  0.00    -0.354 N 
ATOM     57  N   UNL A   1      42.492  27.819  31.239  1.00  0.00    -0.248 NA
ATOM     58  C   UNL A   1      43.919  26.303  30.180  1.00  0.00     0.031 C 
ATOM     59  C   UNL A   1      42.911  29.100  35.477  1.00  0.00     0.029 A 
ATOM     60  C   UNL A   1      42.796  28.679  34.162  1.00  0.00     0.049 A 
ATOM     61  H   UNL A   1      41.394  29.266  32.697  1.00  0.00     0.167 HD
ATOM     62  C   UNL A   1      43.436  27.371  32.152  1.00  0.00     0.074 A 
ATOM     63  C   UNL A   1      44.265  26.409  31.454  1.00  0.00     0.031 C 
ATOM     64  C   UNL A   1      43.608  27.726  33.449  1.00  0.00     0.037 A 
BRANCH  51  65
ATOM     65  C   UNL A   1      39.529  31.906  35.478  1.00  0.00     0.064 A 
ATOM     66  C   UNL A   1      38.576  31.460  36.408  1.00  0.00     0.173 A 
ATOM     67  C   UNL A   1      40.038  33.204  35.632  1.00  0.00     0.173 A 
ATOM     68  F   UNL A   1      38.045  30.233  36.295  1.00  0.00    -0.203 F 
ATOM     69  C   UNL A   1      38.127  32.292  37.430  1.00  0.00     0.198 A 
ATOM     70  C   UNL A   1      39.609  34.022  36.674  1.00  0.00     0.198 A 
ATOM     71  F   UNL A   1      40.951  33.680  34.773  1.00  0.00    -0.203 F 
ATOM     72  F   UNL A   1      37.175  31.863  38.270  1.00  0.00    -0.200 F 
ATOM     73  C   UNL A   1      38.648  33.569  37.566  1.00  0.00     0.200 A 
ATOM     74  F   UNL A   1      40.119  35.254  36.812  1.00  0.00    -0.200 F 
ATOM     75  F   UNL A   1      38.216  34.368  38.552  1.00  0.00    -0.200 F 
ENDBRANCH  51  65
BRANCH  52  76
ATOM     76  C   UNL A   1      42.489  26.467  27.632  1.00  0.00     0.064 A 
ATOM     77  C   UNL A   1      41.941  25.200  27.387  1.00  0.00     0.173 A 
ATOM     78  C   UNL A   1      43.472  26.936  26.750  1.00  0.00     0.173 A 
ATOM     79  F   UNL A   1      41.010  24.702  28.214  1.00  0.00    -0.203 F 
ATOM     80  C   UNL A   1      42.377  24.422  26.317  1.00  0.00     0.198 A 
ATOM     81  C   UNL A   1      43.889  26.167  25.665  1.00  0.00     0.198 A 
ATOM     82  F   UNL A   1      44.022  28.144  26.937  1.00  0.00    -0.203 F 
ATOM     83  F   UNL A   1      41.869  23.195  26.133  1.00  0.00    -0.200 F 
ATOM     84  C   UNL A   1      43.348  24.907  25.455  1.00  0.00     0.200 A 
ATOM     85  F   UNL A   1      44.818  26.644  24.826  1.00  0.00    -0.200 F 
ATOM     86  F   UNL A   1      43.766  24.159  24.424  1.00  0.00    -0.200 F 
ENDBRANCH  52  76
BRANCH  64  87
ATOM     87  C   UNL A   1      44.721  27.053  34.196  1.00  0.00     0.064 A 
ATOM     88  C   UNL A   1      46.004  27.615  34.263  1.00  0.00     0.173 A 
ATOM     89  C   UNL A   1      44.497  25.839  34.862  1.00  0.00     0.173 A 
ATOM     90  F   UNL A   1      46.270  28.768  33.629  1.00  0.00    -0.203 F 
ATOM     91  C   UNL A   1      47.033  26.967  34.939  1.00  0.00     0.198 A 
ATOM     92  C   UNL A   1      45.521  25.209  35.562  1.00  0.00     0.198 A 
ATOM     93  F   UNL A   1      43.285  25.266  34.835  1.00  0.00    -0.203 F 
ATOM     94  F   UNL A   1      48.267  27.492  34.940  1.00  0.00    -0.200 F 
ATOM     95  C   UNL A   1      46.790  25.768  35.591  1.00  0.00     0.200 A 
ATOM     96  F   UNL A   1      45.282  24.057  36.203  1.00  0.00    -0.200 F 
ATOM     97  F   UNL A   1      47.783  25.144  36.240  1.00  0.00    -0.200 F 
ENDBRANCH  64  87
ENDBRANCH  38  39
ENDBRANCH  30  33
ENDBRANCH  28  29
ENDBRANCH  27  28
ENDBRANCH  26  27
ENDBRANCH   1  26
TORSDOF 15
ENDMDL
MODEL 2
REMARK VINA RESULT:     -12.3      1.030      1.836
REMARK SMILES [NH3+][C@H]1C=C[C@@H](C(=O)NC2(CC(=O)NCCCCNC(=O)c3ccc(-c4c5nc(c(-c6c(F)c(F)c(F)c(F)c6F)c6ccc([nH]6)c(-c6c(F)c(F)c(F)c(F)c6F)c6nc(c(-c7c(F)c(F)c(F)c(F)c7F)c7ccc4[nH]7)C=C6)C=C5)cc3)CCCCC2)C1
REMARK SMILES IDX 14 1 13 2 11 3 12 4 10 6 9 7 84 8 88 9 85 10 87 11 86 12
REMARK SMILES IDX 8 13 6 14 7 15 5 17 2 18 3 19 89 20 4 21 1 22 15 26 16 27
REMARK SMILES IDX 17 28 18 29 19 30 20 32 21 33 22 34 83 35 23 36 82 37 24 38
REMARK SMILES IDX 25 39 26 40 76 41 27 42 81 43 75 44 77 45 28 46 80 47 74 48
REMARK SMILES IDX 73 49 29 51 61 52 41 53 60 54 42 55 45 56 59 57 78 58 43 59
REMARK SMILES IDX 44 60 58 62 79 63 46 64 30 65 31 66 39 67 32 68 33 69 37 70
REMARK SMILES IDX 40 71 34 72 35 73 38 74 36 75 62 76 63 77 71 78 64 79 65 80
REMARK SMILES IDX 69 81 72 82 66 83 67 84 70 85 68 86 47 87 48 88 56 89 49 90
REMARK SMILES IDX 50 91 54 92 57 93 51 94 52 95 55 96 53 97
REMARK H PARENT 13 5 8 16 1 23 1 24 1 25 18 31 77 50 45 61
REMARK Flexibility Score: inf
ROOT
ATOM      1  C   UNL A   1      30.948  26.732  26.194  1.00  0.00     0.116 C 
ENDROOT
BRANCH   1   2
ATOM      2  N   UNL A   1      31.315  25.517  26.886  1.00  0.00    -0.356 N 
ATOM      3  C   UNL A   1      31.663  24.300  26.396  1.00  0.00     0.222 C 
ATOM      4  O   UNL A   1      31.731  23.363  27.194  1.00  0.00    -0.275 OA
ATOM      5  H   UNL A   1      31.312  25.582  27.869  1.00  0.00     0.163 HD
BRANCH   3   6
ATOM      6  C   UNL A   1      31.962  24.074  24.922  1.00  0.00     0.128 C 
BRANCH   6   7
ATOM      7  C   UNL A   1      33.477  24.041  24.508  1.00  0.00     0.049 C 
ATOM      8  C   UNL A   1      34.018  25.479  24.629  1.00  0.00     0.029 C 
ATOM      9  C   UNL A   1      33.637  23.602  23.037  1.00  0.00     0.029 C 
ATOM     10  C   UNL A   1      33.408  26.467  23.633  1.00  0.00     0.002 C 
ATOM     11  C   UNL A   1      33.052  24.571  22.006  1.00  0.00     0.002 C 
ATOM     12  C   UNL A   1      33.581  25.986  22.196  1.00  0.00     0.000 C 
BRANCH   7  13
ATOM     13  N   UNL A   1      34.195  23.076  25.398  1.00  0.00    -0.350 N 
ATOM     14  C   UNL A   1      34.340  21.750  25.610  1.00  0.00     0.227 C 
ATOM     15  O   UNL A   1      34.817  21.463  26.721  1.00  0.00    -0.274 OA
ATOM     16  H   UNL A   1      34.745  23.573  26.045  1.00  0.00     0.164 HD
BRANCH  14  17
ATOM     17  C   UNL A   1      34.030  20.592  24.658  1.00  0.00     0.107 C 
ATOM     18  C   UNL A   1      33.868  18.153  24.501  1.00  0.00     0.205 C 
ATOM     19  C   UNL A   1      32.525  18.806  24.511  1.00  0.00     0.033 C 
ATOM     20  C   UNL A   1      34.835  19.305  24.821  1.00  0.00     0.087 C 
ATOM     21  C   UNL A   1      32.607  20.139  24.612  1.00  0.00    -0.012 C 
BRANCH  18  22
ATOM     22  N   UNL A   1      33.939  17.076  25.474  1.00  0.00    -0.352 N 
ATOM     23  H   UNL A   1      33.404  16.276  25.136  1.00  0.00     0.345 HD
ATOM     24  H   UNL A   1      33.551  17.393  26.362  1.00  0.00     0.345 HD
ATOM     25  H   UNL A   1      34.913  16.801  25.607  1.00  0.00     0.345 HD
ENDBRANCH  18  22
ENDBRANCH  14  17
ENDBRANCH   7  13
ENDBRANCH   6   7
ENDBRANCH   3   6
ENDBRANCH   1   2
BRANCH   1  26
ATOM     26  C   UNL A   1      31.738  27.920  26.751  1.00  0.00     0.023 C 
BRANCH  26  27
ATOM     27  C   UNL A   1      31.755  29.152  25.861  1.00  0.00     0.023 C 
BRANCH  27  28
ATOM     28  C   UNL A   1      32.973  30.038  26.048  1.00  0.00     0.116 C 
BRANCH  28  29
ATOM     29  N   UNL A   1      32.684  31.347  26.617  1.00  0.00    -0.352 N 
ATOM     30  C   UNL A   1      33.479  32.087  27.465  1.00  0.00     0.251 C 
ATOM     31  H   UNL A   1      31.820  31.748  26.369  1.00  0.00     0.163 HD
ATOM     32  O   UNL A   1      33.095  33.153  27.926  1.00  0.00    -0.269 OA
BRANCH  30  33
ATOM     33  C   UNL A   1      34.788  31.524  27.857  1.00  0.00     0.039 A 
ATOM     34  C   UNL A   1      35.890  32.376  27.931  1.00  0.00     0.014 A 
ATOM     35  C   UNL A   1      34.882  30.196  28.280  1.00  0.00     0.014 A 
ATOM     36  C   UNL A   1      37.068  31.915  28.517  1.00  0.00     0.010 A 
ATOM     37  C   UNL A   1      36.017  29.775  28.958  1.00  0.00     0.010 A 
ATOM     38  C   UNL A   1      37.123  30.629  29.083  1.00  0.00    -0.014 A 
BRANCH  38  39
ATOM     39  C   UNL A   1      38.330  30.170  29.812  1.00  0.00     0.031 A 
ATOM     40  C   UNL A   1      38.584  30.632  31.219  1.00  0.00     0.074 A 
ATOM     41  C   UNL A   1      39.223  29.378  29.186  1.00  0.00     0.049 A 
ATOM     42  N   UNL A   1      39.572  30.332  32.023  1.00  0.00    -0.248 NA
ATOM     43  C   UNL A   1      37.620  31.589  31.788  1.00  0.00     0.031 C 
ATOM     44  C   UNL A   1      39.137  28.939  27.791  1.00  0.00     0.029 A 
ATOM     45  N   UNL A   1      40.379  28.799  29.644  1.00  0.00    -0.354 N 
ATOM     46  C   UNL A   1      39.355  31.069  33.178  1.00  0.00     0.074 A 
ATOM     47  C   UNL A   1      38.184  31.886  32.948  1.00  0.00     0.031 C 
ATOM     48  C   UNL A   1      40.168  28.123  27.522  1.00  0.00     0.029 A 
ATOM     49  C   UNL A   1      40.998  27.997  28.715  1.00  0.00     0.049 A 
ATOM     50  H   UNL A   1      40.732  28.943  30.551  1.00  0.00     0.167 HD
ATOM     51  C   UNL A   1      40.046  31.040  34.343  1.00  0.00     0.037 A 
ATOM     52  C   UNL A   1      42.100  27.231  28.826  1.00  0.00     0.037 A 
ATOM     53  C   UNL A   1      41.186  30.198  34.580  1.00  0.00     0.049 A 
ATOM     54  C   UNL A   1      42.816  27.171  30.148  1.00  0.00     0.074 A 
ATOM     55  C   UNL A   1      41.917  30.040  35.744  1.00  0.00     0.029 A 
ATOM     56  N   UNL A   1      41.760  29.366  33.630  1.00  0.00    -0.354 N 
ATOM     57  N   UNL A   1      42.547  27.802  31.265  1.00  0.00    -0.248 NA
ATOM     58  C   UNL A   1      43.980  26.278  30.226  1.00  0.00     0.031 C 
ATOM     59  C   UNL A   1      42.954  29.135  35.488  1.00  0.00     0.029 A 
ATOM     60  C   UNL A   1      42.843  28.698  34.178  1.00  0.00     0.049 A 
ATOM     61  H   UNL A   1      41.443  29.264  32.703  1.00  0.00     0.167 HD
ATOM     62  C   UNL A   1      43.490  27.369  32.184  1.00  0.00     0.074 A 
ATOM     63  C   UNL A   1      44.323  26.400  31.500  1.00  0.00     0.031 C 
ATOM     64  C   UNL A   1      43.658  27.739  33.478  1.00  0.00     0.037 A 
BRANCH  51  65
ATOM     65  C   UNL A   1      39.565  31.932  35.449  1.00  0.00     0.064 A 
ATOM     66  C   UNL A   1      38.607  31.496  36.379  1.00  0.00     0.173 A 
ATOM     67  C   UNL A   1      40.075  33.231  35.593  1.00  0.00     0.173 A 
ATOM     68  F   UNL A   1      38.074  30.270  36.275  1.00  0.00    -0.203 F 
ATOM     69  C   UNL A   1      38.153  32.339  37.390  1.00  0.00     0.198 A 
ATOM     70  C   UNL A   1      39.641  34.060  36.624  1.00  0.00     0.198 A 
ATOM     71  F   UNL A   1      40.993  33.697  34.734  1.00  0.00    -0.203 F 
ATOM     72  F   UNL A   1      37.196  31.921  38.229  1.00  0.00    -0.200 F 
ATOM     73  C   UNL A   1      38.675  33.617  37.516  1.00  0.00     0.200 A 
ATOM     74  F   UNL A   1      40.153  35.292  36.752  1.00  0.00    -0.200 F 
ATOM     75  F   UNL A   1      38.239  34.427  38.491  1.00  0.00    -0.200 F 
ENDBRANCH  51  65
BRANCH  52  76
ATOM     76  C   UNL A   1      42.554  26.408  27.674  1.00  0.00     0.064 A 
ATOM     77  C   UNL A   1      43.532  26.888  26.793  1.00  0.00     0.173 A 
ATOM     78  C   UNL A   1      42.020  25.136  27.427  1.00  0.00     0.173 A 
ATOM     79  F   UNL A   1      44.060  28.107  26.978  1.00  0.00    -0.203 F 
ATOM     80  C   UNL A   1      43.943  26.136  25.694  1.00  0.00     0.198 A 
ATOM     81  C   UNL A   1      42.450  24.374  26.343  1.00  0.00     0.198 A 
ATOM     82  F   UNL A   1      41.086  24.629  28.245  1.00  0.00    -0.203 F 
ATOM     83  F   UNL A   1      44.847  26.640  24.841  1.00  0.00    -0.200 F 
ATOM     84  C   UNL A   1      43.405  24.879  25.472  1.00  0.00     0.200 A 
ATOM     85  F   UNL A   1      41.937  23.153  26.138  1.00  0.00    -0.200 F 
ATOM     86  F   UNL A   1      43.801  24.155  24.416  1.00  0.00    -0.200 F 
ENDBRANCH  52  76
BRANCH  64  87
ATOM     87  C   UNL A   1      44.772  27.078  34.235  1.00  0.00     0.064 A 
ATOM     88  C   UNL A   1      46.052  27.648  34.303  1.00  0.00     0.173 A 
ATOM     89  C   UNL A   1      44.552  25.868  34.909  1.00  0.00     0.173 A 
ATOM     90  F   UNL A   1      46.314  28.797  33.662  1.00  0.00    -0.203 F 
ATOM     91  C   UNL A   1      47.081  27.011  34.988  1.00  0.00     0.198 A 
ATOM     92  C   UNL A   1      45.576  25.249  35.619  1.00  0.00     0.198 A 
ATOM     93  F   UNL A   1      43.344  25.288  34.881  1.00  0.00    -0.203 F 
ATOM     94  F   UNL A   1      48.312  27.542  34.992  1.00  0.00    -0.200 F 
ATOM     95  C   UNL A   1      46.843  25.815  35.649  1.00  0.00     0.200 A 
ATOM     96  F   UNL A   1      45.341  24.100  36.267  1.00  0.00    -0.200 F 
ATOM     97  F   UNL A   1      47.835  25.202  36.307  1.00  0.00    -0.200 F 
ENDBRANCH  64  87
ENDBRANCH  38  39
ENDBRANCH  30  33
ENDBRANCH  28  29
ENDBRANCH  27  28
ENDBRANCH  26  27
ENDBRANCH   1  26
TORSDOF 15
ENDMDL
MODEL 3
REMARK VINA RESULT:     -12.3      2.416      4.324
REMARK SMILES [NH3+][C@H]1C=C[C@@H](C(=O)NC2(CC(=O)NCCCCNC(=O)c3ccc(-c4c5nc(c(-c6c(F)c(F)c(F)c(F)c6F)c6ccc([nH]6)c(-c6c(F)c(F)c(F)c(F)c6F)c6nc(c(-c7c(F)c(F)c(F)c(F)c7F)c7ccc4[nH]7)C=C6)C=C5)cc3)CCCCC2)C1
REMARK SMILES IDX 14 1 13 2 11 3 12 4 10 6 9 7 84 8 88 9 85 10 87 11 86 12
REMARK SMILES IDX 8 13 6 14 7 15 5 17 2 18 3 19 89 20 4 21 1 22 15 26 16 27
REMARK SMILES IDX 17 28 18 29 19 30 20 32 21 33 22 34 83 35 23 36 82 37 24 38
REMARK SMILES IDX 25 39 26 40 76 41 27 42 81 43 75 44 77 45 28 46 80 47 74 48
REMARK SMILES IDX 73 49 29 51 61 52 41 53 60 54 42 55 45 56 59 57 78 58 43 59
REMARK SMILES IDX 44 60 58 62 79 63 46 64 30 65 31 66 39 67 32 68 33 69 37 70
REMARK SMILES IDX 40 71 34 72 35 73 38 74 36 75 62 76 63 77 71 78 64 79 65 80
REMARK SMILES IDX 69 81 72 82 66 83 67 84 70 85 68 86 47 87 48 88 56 89 49 90
REMARK SMILES IDX 50 91 54 92 57 93 51 94 52 95 55 96 53 97
REMARK H PARENT 13 5 8 16 1 23 1 24 1 25 18 31 77 50 45 61
REMARK Flexibility Score: inf
ROOT
ATOM      1  C   UNL A   1      33.388  29.835  26.858  1.00  0.00     0.116 C 
ENDROOT
BRANCH   1   2
ATOM      2  N   UNL A   1      33.745  29.492  25.500  1.00  0.00    -0.356 N 
ATOM      3  C   UNL A   1      33.676  28.304  24.849  1.00  0.00     0.222 C 
ATOM      4  O   UNL A   1      34.236  28.220  23.753  1.00  0.00    -0.275 OA
ATOM      5  H   UNL A   1      34.094  30.240  24.962  1.00  0.00     0.163 HD
BRANCH   3   6
ATOM      6  C   UNL A   1      32.943  27.103  25.426  1.00  0.00     0.128 C 
BRANCH   6   7
ATOM      7  C   UNL A   1      32.797  25.850  24.490  1.00  0.00     0.049 C 
ATOM      8  C   UNL A   1      31.842  24.862  25.189  1.00  0.00     0.029 C 
ATOM      9  C   UNL A   1      34.154  25.138  24.304  1.00  0.00     0.029 C 
ATOM     10  C   UNL A   1      32.394  24.265  26.485  1.00  0.00     0.002 C 
ATOM     11  C   UNL A   1      34.735  24.513  25.575  1.00  0.00     0.002 C 
ATOM     12  C   UNL A   1      33.740  23.583  26.255  1.00  0.00     0.000 C 
BRANCH   7  13
ATOM     13  N   UNL A   1      32.285  26.305  23.160  1.00  0.00    -0.350 N 
ATOM     14  C   UNL A   1      31.233  26.941  22.600  1.00  0.00     0.227 C 
ATOM     15  O   UNL A   1      31.134  26.776  21.373  1.00  0.00    -0.274 OA
ATOM     16  H   UNL A   1      32.930  26.058  22.458  1.00  0.00     0.164 HD
BRANCH  14  17
ATOM     17  C   UNL A   1      30.199  27.848  23.273  1.00  0.00     0.107 C 
ATOM     18  C   UNL A   1      28.396  29.448  22.840  1.00  0.00     0.205 C 
ATOM     19  C   UNL A   1      27.875  28.126  23.300  1.00  0.00     0.033 C 
ATOM     20  C   UNL A   1      29.894  29.189  22.611  1.00  0.00     0.087 C 
ATOM     21  C   UNL A   1      28.856  27.242  23.524  1.00  0.00    -0.012 C 
BRANCH  18  22
ATOM     22  N   UNL A   1      27.714  29.894  21.636  1.00  0.00    -0.352 N 
ATOM     23  H   UNL A   1      27.433  30.867  21.745  1.00  0.00     0.345 HD
ATOM     24  H   UNL A   1      26.888  29.317  21.478  1.00  0.00     0.345 HD
ATOM     25  H   UNL A   1      28.345  29.810  20.838  1.00  0.00     0.345 HD
ENDBRANCH  18  22
ENDBRANCH  14  17
ENDBRANCH   7  13
ENDBRANCH   6   7
ENDBRANCH   3   6
ENDBRANCH   1   2
BRANCH   1  26
ATOM     26  C   UNL A   1      31.953  30.370  26.911  1.00  0.00     0.023 C 
BRANCH  26  27
ATOM     27  C   UNL A   1      31.820  31.868  26.691  1.00  0.00     0.023 C 
BRANCH  27  28
ATOM     28  C   UNL A   1      32.799  32.705  27.495  1.00  0.00     0.116 C 
BRANCH  28  29
ATOM     29  N   UNL A   1      32.358  34.069  27.748  1.00  0.00    -0.352 N 
ATOM     30  C   UNL A   1      32.932  34.991  28.597  1.00  0.00     0.251 C 
ATOM     31  H   UNL A   1      31.558  34.367  27.258  1.00  0.00     0.163 HD
ATOM     32  O   UNL A   1      32.429  36.093  28.770  1.00  0.00    -0.269 OA
BRANCH  30  33
ATOM     33  C   UNL A   1      34.140  34.588  29.346  1.00  0.00     0.039 A 
ATOM     34  C   UNL A   1      33.985  33.983  30.593  1.00  0.00     0.014 A 
ATOM     35  C   UNL A   1      35.400  34.685  28.750  1.00  0.00     0.014 A 
ATOM     36  C   UNL A   1      35.091  33.391  31.203  1.00  0.00     0.010 A 
ATOM     37  C   UNL A   1      36.472  34.003  29.307  1.00  0.00     0.010 A 
ATOM     38  C   UNL A   1      36.330  33.350  30.540  1.00  0.00    -0.014 A 
BRANCH  38  39
ATOM     39  C   UNL A   1      37.482  32.623  31.126  1.00  0.00     0.031 A 
ATOM     40  C   UNL A   1      37.983  32.979  32.497  1.00  0.00     0.074 A 
ATOM     41  C   UNL A   1      38.109  31.676  30.399  1.00  0.00     0.049 A 
ATOM     42  N   UNL A   1      38.966  32.451  33.182  1.00  0.00    -0.248 NA
ATOM     43  C   UNL A   1      37.318  34.104  33.176  1.00  0.00     0.031 C 
ATOM     44  C   UNL A   1      37.777  31.306  29.021  1.00  0.00     0.029 A 
ATOM     45  N   UNL A   1      39.155  30.850  30.720  1.00  0.00    -0.354 N 
ATOM     46  C   UNL A   1      39.041  33.185  34.358  1.00  0.00     0.074 A 
ATOM     47  C   UNL A   1      38.057  34.240  34.265  1.00  0.00     0.031 C 
ATOM     48  C   UNL A   1      38.571  30.295  28.633  1.00  0.00     0.029 A 
ATOM     49  C   UNL A   1      39.480  29.961  29.724  1.00  0.00     0.049 A 
ATOM     50  H   UNL A   1      39.629  30.889  31.583  1.00  0.00     0.167 HD
ATOM     51  C   UNL A   1      39.833  32.975  35.436  1.00  0.00     0.037 A 
ATOM     52  C   UNL A   1      40.395  28.973  29.706  1.00  0.00     0.037 A 
ATOM     53  C   UNL A   1      40.784  31.902  35.539  1.00  0.00     0.049 A 
ATOM     54  C   UNL A   1      41.223  28.724  30.937  1.00  0.00     0.074 A 
ATOM     55  C   UNL A   1      41.587  31.557  36.612  1.00  0.00     0.029 A 
ATOM     56  N   UNL A   1      41.056  30.993  34.527  1.00  0.00    -0.354 N 
ATOM     57  N   UNL A   1      41.221  29.366  32.081  1.00  0.00    -0.248 NA
ATOM     58  C   UNL A   1      42.167  27.600  30.880  1.00  0.00     0.031 C 
ATOM     59  C   UNL A   1      42.369  30.459  36.236  1.00  0.00     0.029 A 
ATOM     60  C   UNL A   1      42.023  30.093  34.944  1.00  0.00     0.049 A 
ATOM     61  H   UNL A   1      40.624  30.988  33.641  1.00  0.00     0.167 HD
ATOM     62  C   UNL A   1      42.144  28.714  32.885  1.00  0.00     0.074 A 
ATOM     63  C   UNL A   1      42.667  27.609  32.107  1.00  0.00     0.031 C 
ATOM     64  C   UNL A   1      42.529  29.003  34.153  1.00  0.00     0.037 A 
BRANCH  51  65
ATOM     65  C   UNL A   1      39.682  33.917  36.594  1.00  0.00     0.064 A 
ATOM     66  C   UNL A   1      40.338  35.159  36.619  1.00  0.00     0.173 A 
ATOM     67  C   UNL A   1      38.863  33.586  37.683  1.00  0.00     0.173 A 
ATOM     68  F   UNL A   1      41.147  35.516  35.611  1.00  0.00    -0.203 F 
ATOM     69  C   UNL A   1      40.207  36.017  37.707  1.00  0.00     0.198 A 
ATOM     70  C   UNL A   1      38.709  34.461  38.755  1.00  0.00     0.198 A 
ATOM     71  F   UNL A   1      38.212  32.414  37.709  1.00  0.00    -0.203 F 
ATOM     72  F   UNL A   1      40.888  37.170  37.735  1.00  0.00    -0.200 F 
ATOM     73  C   UNL A   1      39.387  35.671  38.770  1.00  0.00     0.200 A 
ATOM     74  F   UNL A   1      37.910  34.131  39.779  1.00  0.00    -0.200 F 
ATOM     75  F   UNL A   1      39.260  36.500  39.817  1.00  0.00    -0.200 F 
ENDBRANCH  51  65
BRANCH  52  76
ATOM     76  C   UNL A   1      40.531  28.106  28.507  1.00  0.00     0.064 A 
ATOM     77  C   UNL A   1      41.321  28.505  27.419  1.00  0.00     0.173 A 
ATOM     78  C   UNL A   1      39.875  26.870  28.419  1.00  0.00     0.173 A 
ATOM     79  F   UNL A   1      41.953  29.687  27.450  1.00  0.00    -0.203 F 
ATOM     80  C   UNL A   1      41.431  27.712  26.279  1.00  0.00     0.198 A 
ATOM     81  C   UNL A   1      40.006  26.066  27.288  1.00  0.00     0.198 A 
ATOM     82  F   UNL A   1      39.114  26.439  29.435  1.00  0.00    -0.203 F 
ATOM     83  F   UNL A   1      42.155  28.140  25.236  1.00  0.00    -0.200 F 
ATOM     84  C   UNL A   1      40.777  26.491  26.216  1.00  0.00     0.200 A 
ATOM     85  F   UNL A   1      39.384  24.880  27.236  1.00  0.00    -0.200 F 
ATOM     86  F   UNL A   1      40.884  25.727  25.120  1.00  0.00    -0.200 F 
ENDBRANCH  52  76
BRANCH  64  87
ATOM     87  C   UNL A   1      43.550  28.097  34.776  1.00  0.00     0.064 A 
ATOM     88  C   UNL A   1      44.924  28.366  34.682  1.00  0.00     0.173 A 
ATOM     89  C   UNL A   1      43.148  26.955  35.484  1.00  0.00     0.173 A 
ATOM     90  F   UNL A   1      45.357  29.439  34.003  1.00  0.00    -0.203 F 
ATOM     91  C   UNL A   1      45.860  27.503  35.244  1.00  0.00     0.198 A 
ATOM     92  C   UNL A   1      44.086  26.111  36.070  1.00  0.00     0.198 A 
ATOM     93  F   UNL A   1      41.846  26.659  35.607  1.00  0.00    -0.203 F 
ATOM     94  F   UNL A   1      47.169  27.747  35.093  1.00  0.00    -0.200 F 
ATOM     95  C   UNL A   1      45.441  26.379  35.941  1.00  0.00     0.200 A 
ATOM     96  F   UNL A   1      43.680  25.032  36.753  1.00  0.00    -0.200 F 
ATOM     97  F   UNL A   1      46.344  25.549  36.479  1.00  0.00    -0.200 F 
ENDBRANCH  64  87
ENDBRANCH  38  39
ENDBRANCH  30  33
ENDBRANCH  28  29
ENDBRANCH  27  28
ENDBRANCH  26  27
ENDBRANCH   1  26
TORSDOF 15
ENDMDL
