MODEL 1
REMARK VINA RESULT:     -12.8      0.000      0.000
REMARK SMILES O=C(CN1C(=O)/C(=C2/Sc3ccccc3N2CCCS(=O)(=O)[O-])SC1=S)NCCCCNC(=O)c1ccc(-c2c3nc(c(-c4c(F)c(F)c(F)c(F)c4F)c4ccc([nH]4)c(-c4c(F)c(F)c(F)c(F)c4F)c4nc(c(-c5c(F)c(F)c(F)c(F)c5F)c5ccc2[nH]5)C=C4)C=C3)cc1
REMARK SMILES IDX 28 1 27 2 1 3 2 4 3 6 4 7 5 8 25 9 6 10 7 11 24 12 26 13
REMARK SMILES IDX 8 14 9 15 16 16 10 17 15 18 11 19 14 20 12 21 13 22 17 23
REMARK SMILES IDX 18 24 19 25 20 26 21 27 22 28 23 29 29 30 30 31 31 32 32 33
REMARK SMILES IDX 33 34 34 36 35 37 36 38 97 39 37 40 96 41 38 42 39 43 40 44
REMARK SMILES IDX 90 45 41 46 95 47 89 48 91 49 42 50 94 51 88 52 87 53 43 55
REMARK SMILES IDX 75 56 55 57 74 58 56 59 59 60 73 61 92 62 57 63 58 64 72 66
REMARK SMILES IDX 93 67 60 68 44 69 45 70 53 71 46 72 47 73 51 74 54 75 48 76
REMARK SMILES IDX 49 77 52 78 50 79 76 80 77 81 85 82 78 83 79 84 83 85 86 86
REMARK SMILES IDX 80 87 81 88 84 89 82 90 61 91 62 92 70 93 63 94 64 95 68 96
REMARK SMILES IDX 71 97 65 98 66 99 69 100 67 101
REMARK H PARENT 27 5 32 35 91 54 59 65
REMARK Flexibility Score: inf
ROOT
ATOM      1  C   UNL A   1      36.989  22.028  24.185  1.00  0.00     0.116 C 
ENDROOT
BRANCH   1   2
ATOM      2  N   UNL A   1      35.827  22.875  24.408  1.00  0.00    -0.355 N 
ATOM      3  O   UNL A   1      36.850  24.030  26.074  1.00  0.00    -0.273 OA
ATOM      4  C   UNL A   1      35.878  23.889  25.329  1.00  0.00     0.240 C 
ATOM      5  H   UNL A   1      35.001  22.720  23.894  1.00  0.00     0.163 HD
BRANCH   4   6
ATOM      6  C   UNL A   1      34.604  24.687  25.597  1.00  0.00     0.227 C 
BRANCH   6   7
ATOM      7  N   UNL A   1      33.300  24.450  24.961  1.00  0.00    -0.283 N 
ATOM      8  C   UNL A   1      32.914  25.183  23.850  1.00  0.00     0.269 C 
ATOM      9  C   UNL A   1      32.305  23.683  25.509  1.00  0.00     0.148 C 
ATOM     10  O   UNL A   1      33.635  25.432  22.895  1.00  0.00    -0.268 OA
ATOM     11  C   UNL A   1      31.455  25.496  23.918  1.00  0.00     0.111 C 
ATOM     12  S   UNL A   1      30.770  24.126  24.781  1.00  0.00    -0.052 SA
ATOM     13  S   UNL A   1      32.452  22.510  26.682  1.00  0.00    -0.052 S 
ATOM     14  C   UNL A   1      30.787  26.622  23.538  1.00  0.00     0.100 C 
ATOM     15  S   UNL A   1      28.985  26.626  23.883  1.00  0.00    -0.068 SA
ATOM     16  N   UNL A   1      31.185  27.855  22.935  1.00  0.00    -0.334 N 
ATOM     17  C   UNL A   1      28.837  28.219  23.124  1.00  0.00     0.037 A 
ATOM     18  C   UNL A   1      30.077  28.729  22.700  1.00  0.00     0.056 A 
ATOM     19  C   UNL A   1      27.634  28.891  22.924  1.00  0.00     0.017 A 
ATOM     20  C   UNL A   1      30.078  29.984  22.084  1.00  0.00     0.027 A 
ATOM     21  C   UNL A   1      27.653  30.123  22.278  1.00  0.00     0.001 A 
ATOM     22  C   UNL A   1      28.870  30.669  21.865  1.00  0.00     0.002 A 
BRANCH  16  23
ATOM     23  C   UNL A   1      32.453  28.212  22.288  1.00  0.00     0.124 C 
BRANCH  23  24
ATOM     24  C   UNL A   1      33.368  29.102  23.146  1.00  0.00     0.037 C 
BRANCH  24  25
ATOM     25  C   UNL A   1      33.658  28.607  24.553  1.00  0.00     0.124 C 
BRANCH  25  26
ATOM     26  S   UNL A   1      32.609  29.210  25.879  1.00  0.00     0.095 S 
ATOM     27  O   UNL A   1      31.849  30.340  25.395  1.00  0.00    -0.243 OA
ATOM     28  O   UNL A   1      31.993  28.073  26.522  1.00  0.00    -0.243 OA
ATOM     29  O   UNL A   1      33.708  29.761  26.920  1.00  0.00    -0.748 OA
ENDBRANCH  25  26
ENDBRANCH  24  25
ENDBRANCH  23  24
ENDBRANCH  16  23
ENDBRANCH   6   7
ENDBRANCH   4   6
ENDBRANCH   1   2
BRANCH   1  30
ATOM     30  C   UNL A   1      37.130  20.891  25.204  1.00  0.00     0.023 C 
BRANCH  30  31
ATOM     31  C   UNL A   1      38.287  19.928  24.947  1.00  0.00     0.023 C 
BRANCH  31  32
ATOM     32  C   UNL A   1      39.528  20.161  25.793  1.00  0.00     0.116 C 
BRANCH  32  33
ATOM     33  N   UNL A   1      40.444  19.031  25.820  1.00  0.00    -0.352 N 
ATOM     34  C   UNL A   1      41.798  19.030  26.078  1.00  0.00     0.251 C 
ATOM     35  H   UNL A   1      40.045  18.152  25.628  1.00  0.00     0.163 HD
ATOM     36  O   UNL A   1      42.454  18.000  25.973  1.00  0.00    -0.269 OA
BRANCH  34  37
ATOM     37  C   UNL A   1      42.467  20.303  26.430  1.00  0.00     0.039 A 
ATOM     38  C   UNL A   1      42.375  20.818  27.723  1.00  0.00     0.014 A 
ATOM     39  C   UNL A   1      43.117  21.028  25.428  1.00  0.00     0.014 A 
ATOM     40  C   UNL A   1      42.743  22.136  27.963  1.00  0.00     0.010 A 
ATOM     41  C   UNL A   1      43.583  22.317  25.700  1.00  0.00     0.010 A 
ATOM     42  C   UNL A   1      43.340  22.908  26.951  1.00  0.00    -0.014 A 
BRANCH  42  43
ATOM     43  C   UNL A   1      43.678  24.331  27.218  1.00  0.00     0.031 A 
ATOM     44  C   UNL A   1      45.054  24.867  26.923  1.00  0.00     0.074 A 
ATOM     45  C   UNL A   1      42.721  25.162  27.671  1.00  0.00     0.049 A 
ATOM     46  N   UNL A   1      45.518  26.083  27.074  1.00  0.00    -0.248 NA
ATOM     47  C   UNL A   1      46.042  23.914  26.394  1.00  0.00     0.031 C 
ATOM     48  C   UNL A   1      41.345  24.769  27.975  1.00  0.00     0.029 A 
ATOM     49  N   UNL A   1      42.748  26.509  27.930  1.00  0.00    -0.354 N 
ATOM     50  C   UNL A   1      46.848  26.038  26.674  1.00  0.00     0.074 A 
ATOM     51  C   UNL A   1      47.131  24.664  26.316  1.00  0.00     0.031 C 
ATOM     52  C   UNL A   1      40.644  25.858  28.320  1.00  0.00     0.029 A 
ATOM     53  C   UNL A   1      41.536  27.013  28.333  1.00  0.00     0.049 A 
ATOM     54  H   UNL A   1      43.558  27.061  27.836  1.00  0.00     0.167 HD
ATOM     55  C   UNL A   1      47.743  27.051  26.593  1.00  0.00     0.037 A 
ATOM     56  C   UNL A   1      41.181  28.262  28.685  1.00  0.00     0.037 A 
ATOM     57  C   UNL A   1      47.455  28.420  26.939  1.00  0.00     0.049 A 
ATOM     58  C   UNL A   1      42.210  29.354  28.658  1.00  0.00     0.074 A 
ATOM     59  C   UNL A   1      48.292  29.521  26.876  1.00  0.00     0.029 A 
ATOM     60  N   UNL A   1      46.233  28.876  27.416  1.00  0.00    -0.354 N 
ATOM     61  N   UNL A   1      43.461  29.301  28.270  1.00  0.00    -0.248 NA
ATOM     62  C   UNL A   1      41.781  30.679  29.127  1.00  0.00     0.031 C 
ATOM     63  C   UNL A   1      47.596  30.630  27.368  1.00  0.00     0.029 A 
ATOM     64  C   UNL A   1      46.305  30.235  27.682  1.00  0.00     0.049 A 
ATOM     65  H   UNL A   1      45.434  28.316  27.547  1.00  0.00     0.167 HD
ATOM     66  C   UNL A   1      43.967  30.583  28.434  1.00  0.00     0.074 A 
ATOM     67  C   UNL A   1      42.880  31.398  28.938  1.00  0.00     0.031 C 
ATOM     68  C   UNL A   1      45.220  31.038  28.191  1.00  0.00     0.037 A 
BRANCH  55  69
ATOM     69  C   UNL A   1      49.134  26.718  26.123  1.00  0.00     0.064 A 
ATOM     70  C   UNL A   1      50.097  26.181  26.992  1.00  0.00     0.173 A 
ATOM     71  C   UNL A   1      49.496  26.902  24.780  1.00  0.00     0.173 A 
ATOM     72  F   UNL A   1      49.807  25.992  28.287  1.00  0.00    -0.203 F 
ATOM     73  C   UNL A   1      51.378  25.871  26.540  1.00  0.00     0.198 A 
ATOM     74  C   UNL A   1      50.768  26.560  24.324  1.00  0.00     0.198 A 
ATOM     75  F   UNL A   1      48.614  27.402  23.902  1.00  0.00    -0.203 F 
ATOM     76  F   UNL A   1      52.296  25.409  27.401  1.00  0.00    -0.200 F 
ATOM     77  C   UNL A   1      51.710  26.054  25.206  1.00  0.00     0.200 A 
ATOM     78  F   UNL A   1      51.081  26.720  23.031  1.00  0.00    -0.200 F 
ATOM     79  F   UNL A   1      52.941  25.748  24.773  1.00  0.00    -0.200 F 
ENDBRANCH  55  69
BRANCH  56  80
ATOM     80  C   UNL A   1      39.773  28.528  29.074  1.00  0.00     0.064 A 
ATOM     81  C   UNL A   1      39.345  28.329  30.392  1.00  0.00     0.173 A 
ATOM     82  C   UNL A   1      38.848  29.052  28.156  1.00  0.00     0.173 A 
ATOM     83  F   UNL A   1      40.186  27.814  31.299  1.00  0.00    -0.203 F 
ATOM     84  C   UNL A   1      38.047  28.655  30.781  1.00  0.00     0.198 A 
ATOM     85  C   UNL A   1      37.561  29.404  28.554  1.00  0.00     0.198 A 
ATOM     86  F   UNL A   1      39.213  29.265  26.883  1.00  0.00    -0.203 F 
ATOM     87  F   UNL A   1      37.656  28.441  32.046  1.00  0.00    -0.200 F 
ATOM     88  C   UNL A   1      37.161  29.204  29.866  1.00  0.00     0.200 A 
ATOM     89  F   UNL A   1      36.717  29.955  27.672  1.00  0.00    -0.200 F 
ATOM     90  F   UNL A   1      35.923  29.544  30.250  1.00  0.00    -0.200 F 
ENDBRANCH  56  80
BRANCH  68  91
ATOM     91  C   UNL A   1      45.495  32.490  28.457  1.00  0.00     0.064 A 
ATOM     92  C   UNL A   1      45.233  33.474  27.492  1.00  0.00     0.173 A 
ATOM     93  C   UNL A   1      45.956  32.910  29.714  1.00  0.00     0.173 A 
ATOM     94  F   UNL A   1      44.805  33.124  26.270  1.00  0.00    -0.203 F 
ATOM     95  C   UNL A   1      45.436  34.823  27.772  1.00  0.00     0.198 A 
ATOM     96  C   UNL A   1      46.128  34.262  30.000  1.00  0.00     0.198 A 
ATOM     97  F   UNL A   1      46.216  32.010  30.675  1.00  0.00    -0.203 F 
ATOM     98  F   UNL A   1      45.215  35.743  26.822  1.00  0.00    -0.200 F 
ATOM     99  C   UNL A   1      45.872  35.216  29.028  1.00  0.00     0.200 A 
ATOM    100  F   UNL A   1      46.533  34.641  31.220  1.00  0.00    -0.200 F 
ATOM    101  F   UNL A   1      46.050  36.517  29.302  1.00  0.00    -0.200 F 
ENDBRANCH  68  91
ENDBRANCH  42  43
ENDBRANCH  34  37
ENDBRANCH  32  33
ENDBRANCH  31  32
ENDBRANCH  30  31
ENDBRANCH   1  30
TORSDOF 16
ENDMDL
MODEL 2
REMARK VINA RESULT:     -12.6      0.519      7.022
REMARK SMILES O=C(CN1C(=O)/C(=C2/Sc3ccccc3N2CCCS(=O)(=O)[O-])SC1=S)NCCCCNC(=O)c1ccc(-c2c3nc(c(-c4c(F)c(F)c(F)c(F)c4F)c4ccc([nH]4)c(-c4c(F)c(F)c(F)c(F)c4F)c4nc(c(-c5c(F)c(F)c(F)c(F)c5F)c5ccc2[nH]5)C=C4)C=C3)cc1
REMARK SMILES IDX 28 1 27 2 1 3 2 4 3 6 4 7 5 8 25 9 6 10 7 11 24 12 26 13
REMARK SMILES IDX 8 14 9 15 16 16 10 17 15 18 11 19 14 20 12 21 13 22 17 23
REMARK SMILES IDX 18 24 19 25 20 26 21 27 22 28 23 29 29 30 30 31 31 32 32 33
REMARK SMILES IDX 33 34 34 36 35 37 36 38 97 39 37 40 96 41 38 42 39 43 40 44
REMARK SMILES IDX 90 45 41 46 95 47 89 48 91 49 42 50 94 51 88 52 87 53 43 55
REMARK SMILES IDX 75 56 55 57 74 58 56 59 59 60 73 61 92 62 57 63 58 64 72 66
REMARK SMILES IDX 93 67 60 68 44 69 45 70 53 71 46 72 47 73 51 74 54 75 48 76
REMARK SMILES IDX 49 77 52 78 50 79 76 80 77 81 85 82 78 83 79 84 83 85 86 86
REMARK SMILES IDX 80 87 81 88 84 89 82 90 61 91 62 92 70 93 63 94 64 95 68 96
REMARK SMILES IDX 71 97 65 98 66 99 69 100 67 101
REMARK H PARENT 27 5 32 35 91 54 59 65
REMARK Flexibility Score: inf
ROOT
ATOM      1  C   UNL A   1      36.997  22.102  24.182  1.00  0.00     0.116 C 
ENDROOT
BRANCH   1   2
ATOM      2  N   UNL A   1      35.806  22.920  24.354  1.00  0.00    -0.355 N 
ATOM      3  O   UNL A   1      36.733  24.111  26.050  1.00  0.00    -0.273 OA
ATOM      4  C   UNL A   1      35.795  23.940  25.269  1.00  0.00     0.240 C 
ATOM      5  H   UNL A   1      35.004  22.739  23.810  1.00  0.00     0.163 HD
BRANCH   4   6
ATOM      6  C   UNL A   1      34.490  24.706  25.483  1.00  0.00     0.227 C 
BRANCH   6   7
ATOM      7  N   UNL A   1      33.254  24.515  24.710  1.00  0.00    -0.283 N 
ATOM      8  C   UNL A   1      32.884  25.430  23.737  1.00  0.00     0.269 C 
ATOM      9  C   UNL A   1      32.291  23.589  25.014  1.00  0.00     0.148 C 
ATOM     10  O   UNL A   1      33.644  25.914  22.910  1.00  0.00    -0.268 OA
ATOM     11  C   UNL A   1      31.404  25.626  23.747  1.00  0.00     0.111 C 
ATOM     12  S   UNL A   1      30.776  24.068  24.267  1.00  0.00    -0.052 SA
ATOM     13  S   UNL A   1      32.456  22.216  25.942  1.00  0.00    -0.052 S 
ATOM     14  C   UNL A   1      30.672  26.759  23.543  1.00  0.00     0.100 C 
ATOM     15  S   UNL A   1      28.858  26.574  23.736  1.00  0.00    -0.068 SA
ATOM     16  N   UNL A   1      31.008  28.112  23.228  1.00  0.00    -0.334 N 
ATOM     17  C   UNL A   1      28.631  28.274  23.295  1.00  0.00     0.037 A 
ATOM     18  C   UNL A   1      29.851  28.940  23.081  1.00  0.00     0.056 A 
ATOM     19  C   UNL A   1      27.394  28.891  23.135  1.00  0.00     0.017 A 
ATOM     20  C   UNL A   1      29.791  30.291  22.726  1.00  0.00     0.027 A 
ATOM     21  C   UNL A   1      27.355  30.227  22.747  1.00  0.00     0.001 A 
ATOM     22  C   UNL A   1      28.549  30.924  22.548  1.00  0.00     0.002 A 
BRANCH  16  23
ATOM     23  C   UNL A   1      32.283  28.675  22.768  1.00  0.00     0.124 C 
BRANCH  23  24
ATOM     24  C   UNL A   1      33.251  29.049  23.903  1.00  0.00     0.037 C 
BRANCH  24  25
ATOM     25  C   UNL A   1      32.631  29.707  25.123  1.00  0.00     0.124 C 
BRANCH  25  26
ATOM     26  S   UNL A   1      33.150  29.118  26.738  1.00  0.00     0.095 S 
ATOM     27  O   UNL A   1      31.981  28.715  27.485  1.00  0.00    -0.243 OA
ATOM     28  O   UNL A   1      34.296  28.258  26.560  1.00  0.00    -0.243 OA
ATOM     29  O   UNL A   1      33.717  30.475  27.398  1.00  0.00    -0.748 OA
ENDBRANCH  25  26
ENDBRANCH  24  25
ENDBRANCH  23  24
ENDBRANCH  16  23
ENDBRANCH   6   7
ENDBRANCH   4   6
ENDBRANCH   1   2
BRANCH   1  30
ATOM     30  C   UNL A   1      37.105  20.947  25.184  1.00  0.00     0.023 C 
BRANCH  30  31
ATOM     31  C   UNL A   1      38.256  19.975  24.934  1.00  0.00     0.023 C 
BRANCH  31  32
ATOM     32  C   UNL A   1      39.508  20.224  25.758  1.00  0.00     0.116 C 
BRANCH  32  33
ATOM     33  N   UNL A   1      40.393  19.072  25.849  1.00  0.00    -0.352 N 
ATOM     34  C   UNL A   1      41.746  19.047  26.114  1.00  0.00     0.251 C 
ATOM     35  H   UNL A   1      39.971  18.195  25.701  1.00  0.00     0.163 HD
ATOM     36  O   UNL A   1      42.374  17.996  26.065  1.00  0.00    -0.269 OA
BRANCH  34  37
ATOM     37  C   UNL A   1      42.448  20.318  26.402  1.00  0.00     0.039 A 
ATOM     38  C   UNL A   1      42.353  20.910  27.662  1.00  0.00     0.014 A 
ATOM     39  C   UNL A   1      43.135  20.964  25.371  1.00  0.00     0.014 A 
ATOM     40  C   UNL A   1      42.758  22.228  27.831  1.00  0.00     0.010 A 
ATOM     41  C   UNL A   1      43.636  22.252  25.576  1.00  0.00     0.010 A 
ATOM     42  C   UNL A   1      43.393  22.922  26.786  1.00  0.00    -0.014 A 
BRANCH  42  43
ATOM     43  C   UNL A   1      43.771  24.347  26.976  1.00  0.00     0.031 A 
ATOM     44  C   UNL A   1      42.778  25.345  27.510  1.00  0.00     0.074 A 
ATOM     45  C   UNL A   1      45.036  24.733  26.725  1.00  0.00     0.049 A 
ATOM     46  N   UNL A   1      42.939  26.623  27.757  1.00  0.00    -0.248 NA
ATOM     47  C   UNL A   1      41.424  24.850  27.800  1.00  0.00     0.031 C 
ATOM     48  C   UNL A   1      46.096  23.857  26.225  1.00  0.00     0.029 A 
ATOM     49  N   UNL A   1      45.652  25.949  26.878  1.00  0.00    -0.354 N 
ATOM     50  C   UNL A   1      41.711  27.082  28.215  1.00  0.00     0.074 A 
ATOM     51  C   UNL A   1      40.800  25.959  28.170  1.00  0.00     0.031 C 
ATOM     52  C   UNL A   1      47.244  24.545  26.171  1.00  0.00     0.029 A 
ATOM     53  C   UNL A   1      46.988  25.928  26.560  1.00  0.00     0.049 A 
ATOM     54  H   UNL A   1      45.183  26.758  27.186  1.00  0.00     0.167 HD
ATOM     55  C   UNL A   1      41.380  28.321  28.653  1.00  0.00     0.037 A 
ATOM     56  C   UNL A   1      47.905  26.913  26.570  1.00  0.00     0.037 A 
ATOM     57  C   UNL A   1      42.292  29.434  28.709  1.00  0.00     0.049 A 
ATOM     58  C   UNL A   1      47.496  28.295  26.988  1.00  0.00     0.074 A 
ATOM     59  C   UNL A   1      42.055  30.724  29.151  1.00  0.00     0.029 A 
ATOM     60  N   UNL A   1      43.621  29.391  28.305  1.00  0.00    -0.354 N 
ATOM     61  N   UNL A   1      46.336  28.715  27.428  1.00  0.00    -0.248 NA
ATOM     62  C   UNL A   1      48.523  29.342  26.904  1.00  0.00     0.031 C 
ATOM     63  C   UNL A   1      43.220  31.475  28.962  1.00  0.00     0.029 A 
ATOM     64  C   UNL A   1      44.204  30.639  28.458  1.00  0.00     0.049 A 
ATOM     65  H   UNL A   1      44.080  28.591  27.960  1.00  0.00     0.167 HD
ATOM     66  C   UNL A   1      46.492  30.070  27.685  1.00  0.00     0.074 A 
ATOM     67  C   UNL A   1      47.868  30.397  27.371  1.00  0.00     0.031 C 
ATOM     68  C   UNL A   1      45.574  30.959  28.137  1.00  0.00     0.037 A 
BRANCH  55  69
ATOM     69  C   UNL A   1      39.960  28.547  29.097  1.00  0.00     0.064 A 
ATOM     70  C   UNL A   1      39.552  28.302  30.418  1.00  0.00     0.173 A 
ATOM     71  C   UNL A   1      39.004  29.051  28.202  1.00  0.00     0.173 A 
ATOM     72  F   UNL A   1      40.422  27.813  31.314  1.00  0.00    -0.203 F 
ATOM     73  C   UNL A   1      38.235  28.524  30.815  1.00  0.00     0.198 A 
ATOM     74  C   UNL A   1      37.696  29.303  28.611  1.00  0.00     0.198 A 
ATOM     75  F   UNL A   1      39.339  29.313  26.930  1.00  0.00    -0.203 F 
ATOM     76  F   UNL A   1      37.858  28.232  32.068  1.00  0.00    -0.200 F 
ATOM     77  C   UNL A   1      37.310  29.030  29.914  1.00  0.00     0.200 A 
ATOM     78  F   UNL A   1      36.809  29.809  27.744  1.00  0.00    -0.200 F 
ATOM     79  F   UNL A   1      36.046  29.250  30.301  1.00  0.00    -0.200 F 
ENDBRANCH  55  69
BRANCH  56  80
ATOM     80  C   UNL A   1      49.304  26.598  26.182  1.00  0.00     0.064 A 
ATOM     81  C   UNL A   1      49.744  26.796  24.867  1.00  0.00     0.173 A 
ATOM     82  C   UNL A   1      50.244  26.162  27.129  1.00  0.00     0.173 A 
ATOM     83  F   UNL A   1      48.878  27.194  23.924  1.00  0.00    -0.203 F 
ATOM     84  C   UNL A   1      51.075  26.582  24.516  1.00  0.00     0.198 A 
ATOM     85  C   UNL A   1      51.580  25.976  26.783  1.00  0.00     0.198 A 
ATOM     86  F   UNL A   1      49.872  25.963  28.402  1.00  0.00    -0.203 F 
ATOM     87  F   UNL A   1      51.468  26.764  23.248  1.00  0.00    -0.200 F 
ATOM     88  C   UNL A   1      51.994  26.184  25.476  1.00  0.00     0.200 A 
ATOM     89  F   UNL A   1      52.468  25.615  27.718  1.00  0.00    -0.200 F 
ATOM     90  F   UNL A   1      53.280  26.007  25.143  1.00  0.00    -0.200 F 
ENDBRANCH  56  80
BRANCH  68  91
ATOM     91  C   UNL A   1      46.021  32.379  28.331  1.00  0.00     0.064 A 
ATOM     92  C   UNL A   1      45.845  33.346  27.330  1.00  0.00     0.173 A 
ATOM     93  C   UNL A   1      46.562  32.795  29.558  1.00  0.00     0.173 A 
ATOM     94  F   UNL A   1      45.346  32.998  26.135  1.00  0.00    -0.203 F 
ATOM     95  C   UNL A   1      46.210  34.673  27.545  1.00  0.00     0.198 A 
ATOM     96  C   UNL A   1      46.896  34.128  29.779  1.00  0.00     0.198 A 
ATOM     97  F   UNL A   1      46.745  31.912  30.551  1.00  0.00    -0.203 F 
ATOM     98  F   UNL A   1      46.068  35.572  26.561  1.00  0.00    -0.200 F 
ATOM     99  C   UNL A   1      46.724  35.065  28.772  1.00  0.00     0.200 A 
ATOM    100  F   UNL A   1      47.377  34.508  30.972  1.00  0.00    -0.200 F 
ATOM    101  F   UNL A   1      47.057  36.346  28.983  1.00  0.00    -0.200 F 
ENDBRANCH  68  91
ENDBRANCH  42  43
ENDBRANCH  34  37
ENDBRANCH  32  33
ENDBRANCH  31  32
ENDBRANCH  30  31
ENDBRANCH   1  30
TORSDOF 16
ENDMDL
MODEL 3
REMARK VINA RESULT:     -11.7      1.193      2.068
REMARK SMILES O=C(CN1C(=O)/C(=C2/Sc3ccccc3N2CCCS(=O)(=O)[O-])SC1=S)NCCCCNC(=O)c1ccc(-c2c3nc(c(-c4c(F)c(F)c(F)c(F)c4F)c4ccc([nH]4)c(-c4c(F)c(F)c(F)c(F)c4F)c4nc(c(-c5c(F)c(F)c(F)c(F)c5F)c5ccc2[nH]5)C=C4)C=C3)cc1
REMARK SMILES IDX 28 1 27 2 1 3 2 4 3 6 4 7 5 8 25 9 6 10 7 11 24 12 26 13
REMARK SMILES IDX 8 14 9 15 16 16 10 17 15 18 11 19 14 20 12 21 13 22 17 23
REMARK SMILES IDX 18 24 19 25 20 26 21 27 22 28 23 29 29 30 30 31 31 32 32 33
REMARK SMILES IDX 33 34 34 36 35 37 36 38 97 39 37 40 96 41 38 42 39 43 40 44
REMARK SMILES IDX 90 45 41 46 95 47 89 48 91 49 42 50 94 51 88 52 87 53 43 55
REMARK SMILES IDX 75 56 55 57 74 58 56 59 59 60 73 61 92 62 57 63 58 64 72 66
REMARK SMILES IDX 93 67 60 68 44 69 45 70 53 71 46 72 47 73 51 74 54 75 48 76
REMARK SMILES IDX 49 77 52 78 50 79 76 80 77 81 85 82 78 83 79 84 83 85 86 86
REMARK SMILES IDX 80 87 81 88 84 89 82 90 61 91 62 92 70 93 63 94 64 95 68 96
REMARK SMILES IDX 71 97 65 98 66 99 69 100 67 101
REMARK H PARENT 27 5 32 35 91 54 59 65
REMARK Flexibility Score: inf
ROOT
ATOM      1  C   UNL A   1      38.417  23.902  26.399  1.00  0.00     0.116 C 
ENDROOT
BRANCH   1   2
ATOM      2  N   UNL A   1      37.803  23.508  25.140  1.00  0.00    -0.355 N 
ATOM      3  O   UNL A   1      35.700  23.761  25.959  1.00  0.00    -0.273 OA
ATOM      4  C   UNL A   1      36.440  23.531  25.000  1.00  0.00     0.240 C 
ATOM      5  H   UNL A   1      38.369  23.223  24.386  1.00  0.00     0.163 HD
BRANCH   4   6
ATOM      6  C   UNL A   1      35.838  23.015  23.694  1.00  0.00     0.227 C 
BRANCH   6   7
ATOM      7  N   UNL A   1      34.412  22.752  23.458  1.00  0.00    -0.283 N 
ATOM      8  C   UNL A   1      33.668  23.585  22.636  1.00  0.00     0.269 C 
ATOM      9  C   UNL A   1      33.669  21.842  24.164  1.00  0.00     0.148 C 
ATOM     10  O   UNL A   1      34.043  24.012  21.554  1.00  0.00    -0.268 OA
ATOM     11  C   UNL A   1      32.293  23.765  23.190  1.00  0.00     0.111 C 
ATOM     12  S   UNL A   1      31.967  22.244  24.011  1.00  0.00    -0.052 SA
ATOM     13  S   UNL A   1      34.223  20.546  25.052  1.00  0.00    -0.052 S 
ATOM     14  C   UNL A   1      31.494  24.870  23.200  1.00  0.00     0.100 C 
ATOM     15  S   UNL A   1      29.893  24.681  24.074  1.00  0.00    -0.068 SA
ATOM     16  N   UNL A   1      31.634  26.198  22.691  1.00  0.00    -0.334 N 
ATOM     17  C   UNL A   1      29.451  26.338  23.637  1.00  0.00     0.037 A 
ATOM     18  C   UNL A   1      30.474  26.999  22.936  1.00  0.00     0.056 A 
ATOM     19  C   UNL A   1      28.220  26.928  23.913  1.00  0.00     0.017 A 
ATOM     20  C   UNL A   1      30.233  28.318  22.539  1.00  0.00     0.027 A 
ATOM     21  C   UNL A   1      27.987  28.229  23.480  1.00  0.00     0.001 A 
ATOM     22  C   UNL A   1      28.991  28.922  22.800  1.00  0.00     0.002 A 
BRANCH  16  23
ATOM     23  C   UNL A   1      32.621  26.739  21.749  1.00  0.00     0.124 C 
BRANCH  23  24
ATOM     24  C   UNL A   1      33.539  27.816  22.349  1.00  0.00     0.037 C 
BRANCH  24  25
ATOM     25  C   UNL A   1      34.029  27.568  23.765  1.00  0.00     0.124 C 
BRANCH  25  26
ATOM     26  S   UNL A   1      33.184  28.425  25.098  1.00  0.00     0.095 S 
ATOM     27  O   UNL A   1      32.703  29.694  24.605  1.00  0.00    -0.243 OA
ATOM     28  O   UNL A   1      32.332  27.478  25.777  1.00  0.00    -0.243 OA
ATOM     29  O   UNL A   1      34.408  28.716  26.105  1.00  0.00    -0.748 OA
ENDBRANCH  25  26
ENDBRANCH  24  25
ENDBRANCH  23  24
ENDBRANCH  16  23
ENDBRANCH   6   7
ENDBRANCH   4   6
ENDBRANCH   1   2
BRANCH   1  30
ATOM     30  C   UNL A   1      39.519  22.949  26.876  1.00  0.00     0.023 C 
BRANCH  30  31
ATOM     31  C   UNL A   1      39.596  21.619  26.130  1.00  0.00     0.023 C 
BRANCH  31  32
ATOM     32  C   UNL A   1      40.120  20.447  26.943  1.00  0.00     0.116 C 
BRANCH  32  33
ATOM     33  N   UNL A   1      40.998  19.557  26.197  1.00  0.00    -0.352 N 
ATOM     34  C   UNL A   1      42.277  19.797  25.742  1.00  0.00     0.251 C 
ATOM     35  H   UNL A   1      40.630  18.668  25.989  1.00  0.00     0.163 HD
ATOM     36  O   UNL A   1      42.857  18.975  25.043  1.00  0.00    -0.269 OA
BRANCH  34  37
ATOM     37  C   UNL A   1      42.925  21.090  26.059  1.00  0.00     0.039 A 
ATOM     38  C   UNL A   1      43.289  21.397  27.371  1.00  0.00     0.014 A 
ATOM     39  C   UNL A   1      43.088  22.035  25.043  1.00  0.00     0.014 A 
ATOM     40  C   UNL A   1      43.614  22.707  27.701  1.00  0.00     0.010 A 
ATOM     41  C   UNL A   1      43.517  23.326  25.364  1.00  0.00     0.010 A 
ATOM     42  C   UNL A   1      43.720  23.692  26.705  1.00  0.00    -0.014 A 
BRANCH  42  43
ATOM     43  C   UNL A   1      44.019  25.096  27.091  1.00  0.00     0.031 A 
ATOM     44  C   UNL A   1      45.385  25.686  26.863  1.00  0.00     0.074 A 
ATOM     45  C   UNL A   1      43.035  25.866  27.593  1.00  0.00     0.049 A 
ATOM     46  N   UNL A   1      45.818  26.897  27.120  1.00  0.00    -0.248 NA
ATOM     47  C   UNL A   1      46.404  24.803  26.276  1.00  0.00     0.031 C 
ATOM     48  C   UNL A   1      41.664  25.418  27.840  1.00  0.00     0.029 A 
ATOM     49  N   UNL A   1      43.025  27.188  27.960  1.00  0.00    -0.354 N 
ATOM     50  C   UNL A   1      47.154  26.915  26.740  1.00  0.00     0.074 A 
ATOM     51  C   UNL A   1      47.476  25.582  26.277  1.00  0.00     0.031 C 
ATOM     52  C   UNL A   1      40.932  26.459  28.260  1.00  0.00     0.029 A 
ATOM     53  C   UNL A   1      41.796  27.629  28.381  1.00  0.00     0.049 A 
ATOM     54  H   UNL A   1      43.823  27.764  27.924  1.00  0.00     0.167 HD
ATOM     55  C   UNL A   1      48.025  27.952  26.756  1.00  0.00     0.037 A 
ATOM     56  C   UNL A   1      41.405  28.837  28.827  1.00  0.00     0.037 A 
ATOM     57  C   UNL A   1      47.699  29.281  27.206  1.00  0.00     0.049 A 
ATOM     58  C   UNL A   1      42.407  29.952  28.905  1.00  0.00     0.074 A 
ATOM     59  C   UNL A   1      48.509  30.403  27.246  1.00  0.00     0.029 A 
ATOM     60  N   UNL A   1      46.459  29.669  27.698  1.00  0.00    -0.354 N 
ATOM     61  N   UNL A   1      43.664  29.959  28.535  1.00  0.00    -0.248 NA
ATOM     62  C   UNL A   1      41.939  31.224  29.472  1.00  0.00     0.031 C 
ATOM     63  C   UNL A   1      47.779  31.452  27.815  1.00  0.00     0.029 A 
ATOM     64  C   UNL A   1      46.493  31.003  28.074  1.00  0.00     0.049 A 
ATOM     65  H   UNL A   1      45.671  29.082  27.770  1.00  0.00     0.167 HD
ATOM     66  C   UNL A   1      44.136  31.235  28.811  1.00  0.00     0.074 A 
ATOM     67  C   UNL A   1      43.022  31.981  29.360  1.00  0.00     0.031 C 
ATOM     68  C   UNL A   1      45.381  31.737  28.626  1.00  0.00     0.037 A 
BRANCH  55  69
ATOM     69  C   UNL A   1      49.430  27.690  26.285  1.00  0.00     0.064 A 
ATOM     70  C   UNL A   1      50.482  27.468  27.188  1.00  0.00     0.173 A 
ATOM     71  C   UNL A   1      49.722  27.623  24.914  1.00  0.00     0.173 A 
ATOM     72  F   UNL A   1      50.261  27.529  28.510  1.00  0.00    -0.203 F 
ATOM     73  C   UNL A   1      51.776  27.220  26.736  1.00  0.00     0.198 A 
ATOM     74  C   UNL A   1      51.012  27.342  24.465  1.00  0.00     0.198 A 
ATOM     75  F   UNL A   1      48.756  27.817  24.005  1.00  0.00    -0.203 F 
ATOM     76  F   UNL A   1      52.773  27.063  27.619  1.00  0.00    -0.200 F 
ATOM     77  C   UNL A   1      52.038  27.150  25.376  1.00  0.00     0.200 A 
ATOM     78  F   UNL A   1      51.259  27.257  23.151  1.00  0.00    -0.200 F 
ATOM     79  F   UNL A   1      53.283  26.903  24.944  1.00  0.00    -0.200 F 
ENDBRANCH  55  69
BRANCH  56  80
ATOM     80  C   UNL A   1      39.984  29.039  29.211  1.00  0.00     0.064 A 
ATOM     81  C   UNL A   1      39.027  29.395  28.253  1.00  0.00     0.173 A 
ATOM     82  C   UNL A   1      39.544  28.812  30.525  1.00  0.00     0.173 A 
ATOM     83  F   UNL A   1      39.403  29.640  26.990  1.00  0.00    -0.203 F 
ATOM     84  C   UNL A   1      37.680  29.505  28.591  1.00  0.00     0.198 A 
ATOM     85  C   UNL A   1      38.194  28.894  30.854  1.00  0.00     0.198 A 
ATOM     86  F   UNL A   1      40.422  28.464  31.476  1.00  0.00    -0.203 F 
ATOM     87  F   UNL A   1      36.785  29.862  27.659  1.00  0.00    -0.200 F 
ATOM     88  C   UNL A   1      37.262  29.242  29.888  1.00  0.00     0.200 A 
ATOM     89  F   UNL A   1      37.793  28.617  32.102  1.00  0.00    -0.200 F 
ATOM     90  F   UNL A   1      35.963  29.320  30.204  1.00  0.00    -0.200 F 
ENDBRANCH  56  80
BRANCH  68  91
ATOM     91  C   UNL A   1      45.617  33.169  29.013  1.00  0.00     0.064 A 
ATOM     92  C   UNL A   1      46.135  33.512  30.270  1.00  0.00     0.173 A 
ATOM     93  C   UNL A   1      45.390  34.203  28.092  1.00  0.00     0.173 A 
ATOM     94  F   UNL A   1      46.356  32.563  31.192  1.00  0.00    -0.203 F 
ATOM     95  C   UNL A   1      46.405  34.840  30.595  1.00  0.00     0.198 A 
ATOM     96  C   UNL A   1      45.690  35.525  28.409  1.00  0.00     0.198 A 
ATOM     97  F   UNL A   1      44.901  33.928  26.873  1.00  0.00    -0.203 F 
ATOM     98  F   UNL A   1      46.865  35.149  31.816  1.00  0.00    -0.200 F 
ATOM     99  C   UNL A   1      46.193  35.843  29.661  1.00  0.00     0.200 A 
ATOM    100  F   UNL A   1      45.501  36.491  27.499  1.00  0.00    -0.200 F 
ATOM    101  F   UNL A   1      46.470  37.118  29.969  1.00  0.00    -0.200 F 
ENDBRANCH  68  91
ENDBRANCH  42  43
ENDBRANCH  34  37
ENDBRANCH  32  33
ENDBRANCH  31  32
ENDBRANCH  30  31
ENDBRANCH   1  30
TORSDOF 16
ENDMDL
