MODEL 1
REMARK VINA RESULT:     -12.7      0.000      0.000
REMARK SMILES O=C(NCCCCNC(=O)c1cncc(Sc2ccc(Cl)cn2)n1)c1ccc(-c2c3nc(c(-c4c(F)c(F)c(F)c(F)c4F)c4ccc([nH]4)c(-c4c(F)c(F)c(F)c(F)c4F)c4nc(c(-c5c(F)c(F)c(F)c(F)c5F)c5ccc2[nH]5)C=C4)C=C3)cc1
REMARK SMILES IDX 5 1 4 2 3 3 1 4 2 5 25 7 26 8 87 9 27 10 86 11 28 12 29 13
REMARK SMILES IDX 30 14 80 15 31 16 85 17 79 18 81 19 32 20 84 21 78 22 77 23
REMARK SMILES IDX 33 25 65 26 45 27 64 28 46 29 49 30 63 31 82 32 47 33 48 34
REMARK SMILES IDX 62 36 83 37 50 38 34 39 35 40 43 41 36 42 37 43 41 44 44 45
REMARK SMILES IDX 38 46 39 47 42 48 40 49 66 50 67 51 75 52 68 53 69 54 73 55
REMARK SMILES IDX 76 56 70 57 71 58 74 59 72 60 51 61 52 62 60 63 53 64 54 65
REMARK SMILES IDX 58 66 61 67 55 68 56 69 59 70 57 71 6 72 7 73 8 74 9 75
REMARK SMILES IDX 10 77 11 78 12 79 24 80 13 81 15 82 14 83 16 84 17 85 18 86
REMARK SMILES IDX 23 87 19 88 22 89 20 90 21 91
REMARK H PARENT 3 6 81 24 49 35 8 76
REMARK Flexibility Score: inf
ROOT
ATOM      1  C   UNL A   1      31.398  32.364  26.552  1.00  0.00     0.023 C 
ENDROOT
BRANCH   1   2
ATOM      2  C   UNL A   1      32.579  32.974  27.297  1.00  0.00     0.116 C 
BRANCH   2   3
ATOM      3  N   UNL A   1      32.330  34.334  27.752  1.00  0.00    -0.352 N 
ATOM      4  O   UNL A   1      32.536  36.168  29.048  1.00  0.00    -0.269 OA
ATOM      5  C   UNL A   1      32.973  35.068  28.720  1.00  0.00     0.251 C 
ATOM      6  H   UNL A   1      31.590  34.798  27.299  1.00  0.00     0.163 HD
BRANCH   5   7
ATOM      7  C   UNL A   1      34.170  34.523  29.398  1.00  0.00     0.039 A 
ATOM      8  C   UNL A   1      35.442  34.663  28.839  1.00  0.00     0.014 A 
ATOM      9  C   UNL A   1      34.012  33.854  30.616  1.00  0.00     0.014 A 
ATOM     10  C   UNL A   1      36.523  33.997  29.406  1.00  0.00     0.010 A 
ATOM     11  C   UNL A   1      35.118  33.257  31.230  1.00  0.00     0.010 A 
ATOM     12  C   UNL A   1      36.374  33.283  30.606  1.00  0.00    -0.014 A 
BRANCH  12  13
ATOM     13  C   UNL A   1      37.548  32.589  31.195  1.00  0.00     0.031 A 
ATOM     14  C   UNL A   1      38.032  32.924  32.580  1.00  0.00     0.074 A 
ATOM     15  C   UNL A   1      38.158  31.621  30.486  1.00  0.00     0.049 A 
ATOM     16  N   UNL A   1      39.014  32.390  33.264  1.00  0.00    -0.248 NA
ATOM     17  C   UNL A   1      37.330  34.005  33.287  1.00  0.00     0.031 C 
ATOM     18  C   UNL A   1      37.786  31.212  29.131  1.00  0.00     0.029 A 
ATOM     19  N   UNL A   1      39.200  30.791  30.811  1.00  0.00    -0.354 N 
ATOM     20  C   UNL A   1      39.063  33.083  34.466  1.00  0.00     0.074 A 
ATOM     21  C   UNL A   1      38.028  34.094  34.411  1.00  0.00     0.031 C 
ATOM     22  C   UNL A   1      38.551  30.175  28.760  1.00  0.00     0.029 A 
ATOM     23  C   UNL A   1      39.502  29.882  29.828  1.00  0.00     0.049 A 
ATOM     24  H   UNL A   1      39.684  30.843  31.667  1.00  0.00     0.167 HD
ATOM     25  C   UNL A   1      39.891  32.889  35.522  1.00  0.00     0.037 A 
ATOM     26  C   UNL A   1      40.442  28.921  29.788  1.00  0.00     0.037 A 
ATOM     27  C   UNL A   1      40.902  31.865  35.585  1.00  0.00     0.049 A 
ATOM     28  C   UNL A   1      41.351  28.731  30.968  1.00  0.00     0.074 A 
ATOM     29  C   UNL A   1      41.758  31.557  36.630  1.00  0.00     0.029 A 
ATOM     30  N   UNL A   1      41.199  30.982  34.557  1.00  0.00    -0.354 N 
ATOM     31  N   UNL A   1      41.362  29.368  32.113  1.00  0.00    -0.248 NA
ATOM     32  C   UNL A   1      42.381  27.691  30.847  1.00  0.00     0.031 C 
ATOM     33  C   UNL A   1      42.600  30.518  36.218  1.00  0.00     0.029 A 
ATOM     34  C   UNL A   1      42.238  30.145  34.934  1.00  0.00     0.049 A 
ATOM     35  H   UNL A   1      40.738  30.953  33.687  1.00  0.00     0.167 HD
ATOM     36  C   UNL A   1      42.379  28.792  32.859  1.00  0.00     0.074 A 
ATOM     37  C   UNL A   1      42.956  27.745  32.040  1.00  0.00     0.031 C 
ATOM     38  C   UNL A   1      42.798  29.103  34.110  1.00  0.00     0.037 A 
BRANCH  25  39
ATOM     39  C   UNL A   1      39.753  33.819  36.693  1.00  0.00     0.064 A 
ATOM     40  C   UNL A   1      40.414  35.056  36.740  1.00  0.00     0.173 A 
ATOM     41  C   UNL A   1      38.921  33.482  37.771  1.00  0.00     0.173 A 
ATOM     42  F   UNL A   1      41.231  35.423  35.740  1.00  0.00    -0.203 F 
ATOM     43  C   UNL A   1      40.271  35.905  37.834  1.00  0.00     0.198 A 
ATOM     44  C   UNL A   1      38.758  34.345  38.851  1.00  0.00     0.198 A 
ATOM     45  F   UNL A   1      38.259  32.314  37.775  1.00  0.00    -0.203 F 
ATOM     46  F   UNL A   1      40.951  37.059  37.878  1.00  0.00    -0.200 F 
ATOM     47  C   UNL A   1      39.440  35.552  38.886  1.00  0.00     0.200 A 
ATOM     48  F   UNL A   1      37.945  34.006  39.862  1.00  0.00    -0.200 F 
ATOM     49  F   UNL A   1      39.301  36.371  39.938  1.00  0.00    -0.200 F 
ENDBRANCH  25  39
BRANCH  26  50
ATOM     50  C   UNL A   1      40.547  28.049  28.591  1.00  0.00     0.064 A 
ATOM     51  C   UNL A   1      41.331  28.428  27.494  1.00  0.00     0.173 A 
ATOM     52  C   UNL A   1      39.890  26.810  28.531  1.00  0.00     0.173 A 
ATOM     53  F   UNL A   1      41.962  29.611  27.499  1.00  0.00    -0.203 F 
ATOM     54  C   UNL A   1      41.450  27.604  26.377  1.00  0.00     0.198 A 
ATOM     55  C   UNL A   1      40.031  25.976  27.426  1.00  0.00     0.198 A 
ATOM     56  F   UNL A   1      39.133  26.402  29.560  1.00  0.00    -0.203 F 
ATOM     57  F   UNL A   1      42.182  28.002  25.328  1.00  0.00    -0.200 F 
ATOM     58  C   UNL A   1      40.807  26.375  26.347  1.00  0.00     0.200 A 
ATOM     59  F   UNL A   1      39.422  24.783  27.409  1.00  0.00    -0.200 F 
ATOM     60  F   UNL A   1      40.933  25.576  25.279  1.00  0.00    -0.200 F 
ENDBRANCH  26  50
BRANCH  38  61
ATOM     61  C   UNL A   1      43.910  28.275  34.683  1.00  0.00     0.064 A 
ATOM     62  C   UNL A   1      45.253  28.657  34.556  1.00  0.00     0.173 A 
ATOM     63  C   UNL A   1      43.624  27.096  35.388  1.00  0.00     0.173 A 
ATOM     64  F   UNL A   1      45.578  29.768  33.877  1.00  0.00    -0.203 F 
ATOM     65  C   UNL A   1      46.273  27.873  35.089  1.00  0.00     0.198 A 
ATOM     66  C   UNL A   1      44.644  26.329  35.943  1.00  0.00     0.198 A 
ATOM     67  F   UNL A   1      42.355  26.690  35.541  1.00  0.00    -0.203 F 
ATOM     68  F   UNL A   1      47.553  28.231  34.914  1.00  0.00    -0.200 F 
ATOM     69  C   UNL A   1      45.967  26.714  35.787  1.00  0.00     0.200 A 
ATOM     70  F   UNL A   1      44.348  25.214  36.625  1.00  0.00    -0.200 F 
ATOM     71  F   UNL A   1      46.950  25.961  36.301  1.00  0.00    -0.200 F 
ENDBRANCH  38  61
ENDBRANCH  12  13
ENDBRANCH   5   7
ENDBRANCH   2   3
ENDBRANCH   1   2
BRANCH   1  72
ATOM     72  C   UNL A   1      31.518  30.874  26.227  1.00  0.00     0.023 C 
BRANCH  72  73
ATOM     73  C   UNL A   1      32.817  30.207  26.678  1.00  0.00     0.116 C 
BRANCH  73  74
ATOM     74  N   UNL A   1      33.588  29.687  25.562  1.00  0.00    -0.351 N 
ATOM     75  C   UNL A   1      33.463  28.486  24.902  1.00  0.00     0.271 C 
ATOM     76  H   UNL A   1      34.301  30.278  25.231  1.00  0.00     0.163 HD
ATOM     77  O   UNL A   1      34.283  28.182  24.041  1.00  0.00    -0.267 OA
BRANCH  75  78
ATOM     78  C   UNL A   1      32.334  27.582  25.216  1.00  0.00     0.147 A 
ATOM     79  C   UNL A   1      32.364  26.814  26.370  1.00  0.00     0.145 A 
ATOM     80  N   UNL A   1      31.294  27.563  24.344  1.00  0.00    -0.233 NA
ATOM     81  N   UNL A   1      31.363  25.963  26.692  1.00  0.00    -0.259 NA
ATOM     82  C   UNL A   1      30.263  26.753  24.678  1.00  0.00     0.122 A 
ATOM     83  C   UNL A   1      30.315  25.960  25.825  1.00  0.00     0.146 A 
BRANCH  82  84
ATOM     84  S   UNL A   1      28.841  26.648  23.613  1.00  0.00    -0.048 SA
BRANCH  84  85
ATOM     85  C   UNL A   1      28.659  28.318  23.034  1.00  0.00     0.102 A 
ATOM     86  C   UNL A   1      27.622  29.125  23.500  1.00  0.00     0.037 A 
ATOM     87  N   UNL A   1      29.622  28.779  22.200  1.00  0.00    -0.248 NA
ATOM     88  C   UNL A   1      27.549  30.450  23.074  1.00  0.00     0.025 A 
ATOM     89  C   UNL A   1      29.523  30.071  21.799  1.00  0.00     0.132 A 
ATOM     90  C   UNL A   1      28.518  30.934  22.207  1.00  0.00     0.059 A 
ATOM     91  Cl  UNL A   1      28.476  32.563  21.669  1.00  0.00    -0.083 Cl
ENDBRANCH  84  85
ENDBRANCH  82  84
ENDBRANCH  75  78
ENDBRANCH  73  74
ENDBRANCH  72  73
ENDBRANCH   1  72
TORSDOF 13
ENDMDL
MODEL 2
REMARK VINA RESULT:     -12.6      0.466      7.404
REMARK SMILES O=C(NCCCCNC(=O)c1cncc(Sc2ccc(Cl)cn2)n1)c1ccc(-c2c3nc(c(-c4c(F)c(F)c(F)c(F)c4F)c4ccc([nH]4)c(-c4c(F)c(F)c(F)c(F)c4F)c4nc(c(-c5c(F)c(F)c(F)c(F)c5F)c5ccc2[nH]5)C=C4)C=C3)cc1
REMARK SMILES IDX 5 1 4 2 3 3 1 4 2 5 25 7 26 8 87 9 27 10 86 11 28 12 29 13
REMARK SMILES IDX 30 14 80 15 31 16 85 17 79 18 81 19 32 20 84 21 78 22 77 23
REMARK SMILES IDX 33 25 65 26 45 27 64 28 46 29 49 30 63 31 82 32 47 33 48 34
REMARK SMILES IDX 62 36 83 37 50 38 34 39 35 40 43 41 36 42 37 43 41 44 44 45
REMARK SMILES IDX 38 46 39 47 42 48 40 49 66 50 67 51 75 52 68 53 69 54 73 55
REMARK SMILES IDX 76 56 70 57 71 58 74 59 72 60 51 61 52 62 60 63 53 64 54 65
REMARK SMILES IDX 58 66 61 67 55 68 56 69 59 70 57 71 6 72 7 73 8 74 9 75
REMARK SMILES IDX 10 77 11 78 12 79 24 80 13 81 15 82 14 83 16 84 17 85 18 86
REMARK SMILES IDX 23 87 19 88 22 89 20 90 21 91
REMARK H PARENT 3 6 81 24 49 35 8 76
REMARK Flexibility Score: inf
ROOT
ATOM      1  C   UNL A   1      31.364  32.349  26.573  1.00  0.00     0.023 C 
ENDROOT
BRANCH   1   2
ATOM      2  C   UNL A   1      32.556  32.961  27.299  1.00  0.00     0.116 C 
BRANCH   2   3
ATOM      3  N   UNL A   1      32.338  34.344  27.695  1.00  0.00    -0.352 N 
ATOM      4  O   UNL A   1      32.550  36.212  28.940  1.00  0.00    -0.269 OA
ATOM      5  C   UNL A   1      32.959  35.086  28.672  1.00  0.00     0.251 C 
ATOM      6  H   UNL A   1      31.642  34.820  27.188  1.00  0.00     0.163 HD
BRANCH   5   7
ATOM      7  C   UNL A   1      34.095  34.518  29.431  1.00  0.00     0.039 A 
ATOM      8  C   UNL A   1      35.404  34.625  28.957  1.00  0.00     0.014 A 
ATOM      9  C   UNL A   1      33.841  33.862  30.641  1.00  0.00     0.014 A 
ATOM     10  C   UNL A   1      36.429  33.939  29.599  1.00  0.00     0.010 A 
ATOM     11  C   UNL A   1      34.889  33.244  31.330  1.00  0.00     0.010 A 
ATOM     12  C   UNL A   1      36.184  33.237  30.791  1.00  0.00    -0.014 A 
BRANCH  12  13
ATOM     13  C   UNL A   1      37.300  32.521  31.460  1.00  0.00     0.031 A 
ATOM     14  C   UNL A   1      38.061  31.434  30.750  1.00  0.00     0.074 A 
ATOM     15  C   UNL A   1      37.653  32.883  32.708  1.00  0.00     0.049 A 
ATOM     16  N   UNL A   1      39.088  30.735  31.169  1.00  0.00    -0.248 NA
ATOM     17  C   UNL A   1      37.607  31.079  29.397  1.00  0.00     0.031 C 
ATOM     18  C   UNL A   1      36.987  33.916  33.503  1.00  0.00     0.029 A 
ATOM     19  N   UNL A   1      38.669  32.443  33.517  1.00  0.00    -0.354 N 
ATOM     20  C   UNL A   1      39.385  29.844  30.146  1.00  0.00     0.074 A 
ATOM     21  C   UNL A   1      38.416  30.073  29.095  1.00  0.00     0.031 C 
ATOM     22  C   UNL A   1      37.642  34.068  34.662  1.00  0.00     0.029 A 
ATOM     23  C   UNL A   1      38.740  33.108  34.716  1.00  0.00     0.049 A 
ATOM     24  H   UNL A   1      39.288  31.721  33.262  1.00  0.00     0.167 HD
ATOM     25  C   UNL A   1      40.380  28.925  30.087  1.00  0.00     0.037 A 
ATOM     26  C   UNL A   1      39.592  32.960  35.747  1.00  0.00     0.037 A 
ATOM     27  C   UNL A   1      41.359  28.718  31.124  1.00  0.00     0.049 A 
ATOM     28  C   UNL A   1      40.680  31.929  35.659  1.00  0.00     0.074 A 
ATOM     29  C   UNL A   1      42.434  27.845  31.136  1.00  0.00     0.029 A 
ATOM     30  N   UNL A   1      41.379  29.390  32.337  1.00  0.00    -0.354 N 
ATOM     31  N   UNL A   1      40.974  31.120  34.670  1.00  0.00    -0.248 NA
ATOM     32  C   UNL A   1      41.553  31.790  36.832  1.00  0.00     0.031 C 
ATOM     33  C   UNL A   1      43.078  27.959  32.373  1.00  0.00     0.029 A 
ATOM     34  C   UNL A   1      42.434  28.936  33.114  1.00  0.00     0.049 A 
ATOM     35  H   UNL A   1      40.740  30.089  32.607  1.00  0.00     0.167 HD
ATOM     36  C   UNL A   1      42.078  30.393  35.090  1.00  0.00     0.074 A 
ATOM     37  C   UNL A   1      42.410  30.866  36.418  1.00  0.00     0.031 C 
ATOM     38  C   UNL A   1      42.756  29.421  34.433  1.00  0.00     0.037 A 
BRANCH  25  39
ATOM     39  C   UNL A   1      40.449  28.054  28.865  1.00  0.00     0.064 A 
ATOM     40  C   UNL A   1      41.219  28.405  27.747  1.00  0.00     0.173 A 
ATOM     41  C   UNL A   1      39.758  26.833  28.827  1.00  0.00     0.173 A 
ATOM     42  F   UNL A   1      41.890  29.566  27.727  1.00  0.00    -0.203 F 
ATOM     43  C   UNL A   1      41.271  27.581  26.624  1.00  0.00     0.198 A 
ATOM     44  C   UNL A   1      39.833  25.999  27.714  1.00  0.00     0.198 A 
ATOM     45  F   UNL A   1      39.011  26.445  29.872  1.00  0.00    -0.203 F 
ATOM     46  F   UNL A   1      41.974  27.962  25.549  1.00  0.00    -0.200 F 
ATOM     47  C   UNL A   1      40.583  26.378  26.611  1.00  0.00     0.200 A 
ATOM     48  F   UNL A   1      39.176  24.831  27.707  1.00  0.00    -0.200 F 
ATOM     49  F   UNL A   1      40.635  25.586  25.531  1.00  0.00    -0.200 F 
ENDBRANCH  25  39
BRANCH  26  50
ATOM     50  C   UNL A   1      39.456  33.833  36.939  1.00  0.00     0.064 A 
ATOM     51  C   UNL A   1      38.725  33.413  38.057  1.00  0.00     0.173 A 
ATOM     52  C   UNL A   1      40.078  35.090  36.997  1.00  0.00     0.173 A 
ATOM     53  F   UNL A   1      38.098  32.228  38.040  1.00  0.00    -0.203 F 
ATOM     54  C   UNL A   1      38.613  34.220  39.187  1.00  0.00     0.198 A 
ATOM     55  C   UNL A   1      39.988  35.884  38.137  1.00  0.00     0.198 A 
ATOM     56  F   UNL A   1      40.795  35.533  35.953  1.00  0.00    -0.203 F 
ATOM     57  F   UNL A   1      37.882  33.808  40.232  1.00  0.00    -0.200 F 
ATOM     58  C   UNL A   1      39.251  35.451  39.229  1.00  0.00     0.200 A 
ATOM     59  F   UNL A   1      40.620  37.064  38.180  1.00  0.00    -0.200 F 
ATOM     60  F   UNL A   1      39.156  36.221  40.322  1.00  0.00    -0.200 F 
ENDBRANCH  26  50
BRANCH  38  61
ATOM     61  C   UNL A   1      43.948  28.831  35.127  1.00  0.00     0.064 A 
ATOM     62  C   UNL A   1      45.236  29.360  34.955  1.00  0.00     0.173 A 
ATOM     63  C   UNL A   1      43.795  27.737  35.991  1.00  0.00     0.173 A 
ATOM     64  F   UNL A   1      45.435  30.396  34.126  1.00  0.00    -0.203 F 
ATOM     65  C   UNL A   1      46.332  28.796  35.603  1.00  0.00     0.198 A 
ATOM     66  C   UNL A   1      44.889  27.193  36.659  1.00  0.00     0.198 A 
ATOM     67  F   UNL A   1      42.584  27.198  36.193  1.00  0.00    -0.203 F 
ATOM     68  F   UNL A   1      47.561  29.287  35.387  1.00  0.00    -0.200 F 
ATOM     69  C   UNL A   1      46.157  27.718  36.458  1.00  0.00     0.200 A 
ATOM     70  F   UNL A   1      44.718  26.157  37.491  1.00  0.00    -0.200 F 
ATOM     71  F   UNL A   1      47.213  27.178  37.081  1.00  0.00    -0.200 F 
ENDBRANCH  38  61
ENDBRANCH  12  13
ENDBRANCH   5   7
ENDBRANCH   2   3
ENDBRANCH   1   2
BRANCH   1  72
ATOM     72  C   UNL A   1      31.526  30.890  26.146  1.00  0.00     0.023 C 
BRANCH  72  73
ATOM     73  C   UNL A   1      32.810  30.208  26.615  1.00  0.00     0.116 C 
BRANCH  73  74
ATOM     74  N   UNL A   1      33.577  29.652  25.514  1.00  0.00    -0.351 N 
ATOM     75  C   UNL A   1      33.440  28.437  24.883  1.00  0.00     0.271 C 
ATOM     76  H   UNL A   1      34.297  30.228  25.169  1.00  0.00     0.163 HD
ATOM     77  O   UNL A   1      34.257  28.103  24.030  1.00  0.00    -0.267 OA
BRANCH  75  78
ATOM     78  C   UNL A   1      32.301  27.552  25.217  1.00  0.00     0.147 A 
ATOM     79  C   UNL A   1      32.325  26.807  26.386  1.00  0.00     0.145 A 
ATOM     80  N   UNL A   1      31.258  27.528  24.348  1.00  0.00    -0.233 NA
ATOM     81  N   UNL A   1      31.316  25.975  26.728  1.00  0.00    -0.259 NA
ATOM     82  C   UNL A   1      30.219  26.738  24.702  1.00  0.00     0.122 A 
ATOM     83  C   UNL A   1      30.265  25.967  25.864  1.00  0.00     0.146 A 
BRANCH  82  84
ATOM     84  S   UNL A   1      28.793  26.628  23.642  1.00  0.00    -0.048 SA
BRANCH  84  85
ATOM     85  C   UNL A   1      28.630  28.288  23.029  1.00  0.00     0.102 A 
ATOM     86  C   UNL A   1      27.603  29.116  23.476  1.00  0.00     0.037 A 
ATOM     87  N   UNL A   1      29.599  28.720  22.186  1.00  0.00    -0.248 NA
ATOM     88  C   UNL A   1      27.545  30.433  23.023  1.00  0.00     0.025 A 
ATOM     89  C   UNL A   1      29.516  30.005  21.758  1.00  0.00     0.132 A 
ATOM     90  C   UNL A   1      28.521  30.888  22.146  1.00  0.00     0.059 A 
ATOM     91  Cl  UNL A   1      28.497  32.505  21.575  1.00  0.00    -0.083 Cl
ENDBRANCH  84  85
ENDBRANCH  82  84
ENDBRANCH  75  78
ENDBRANCH  73  74
ENDBRANCH  72  73
ENDBRANCH   1  72
TORSDOF 13
ENDMDL
MODEL 3
REMARK VINA RESULT:     -12.6      3.816      5.313
REMARK SMILES O=C(NCCCCNC(=O)c1cncc(Sc2ccc(Cl)cn2)n1)c1ccc(-c2c3nc(c(-c4c(F)c(F)c(F)c(F)c4F)c4ccc([nH]4)c(-c4c(F)c(F)c(F)c(F)c4F)c4nc(c(-c5c(F)c(F)c(F)c(F)c5F)c5ccc2[nH]5)C=C4)C=C3)cc1
REMARK SMILES IDX 5 1 4 2 3 3 1 4 2 5 25 7 26 8 87 9 27 10 86 11 28 12 29 13
REMARK SMILES IDX 30 14 80 15 31 16 85 17 79 18 81 19 32 20 84 21 78 22 77 23
REMARK SMILES IDX 33 25 65 26 45 27 64 28 46 29 49 30 63 31 82 32 47 33 48 34
REMARK SMILES IDX 62 36 83 37 50 38 34 39 35 40 43 41 36 42 37 43 41 44 44 45
REMARK SMILES IDX 38 46 39 47 42 48 40 49 66 50 67 51 75 52 68 53 69 54 73 55
REMARK SMILES IDX 76 56 70 57 71 58 74 59 72 60 51 61 52 62 60 63 53 64 54 65
REMARK SMILES IDX 58 66 61 67 55 68 56 69 59 70 57 71 6 72 7 73 8 74 9 75
REMARK SMILES IDX 10 77 11 78 12 79 24 80 13 81 15 82 14 83 16 84 17 85 18 86
REMARK SMILES IDX 23 87 19 88 22 89 20 90 21 91
REMARK H PARENT 3 6 81 24 49 35 8 76
REMARK Flexibility Score: inf
ROOT
ATOM      1  C   UNL A   1      31.524  28.246  25.652  1.00  0.00     0.023 C 
ENDROOT
BRANCH   1   2
ATOM      2  C   UNL A   1      32.767  29.073  25.958  1.00  0.00     0.116 C 
BRANCH   2   3
ATOM      3  N   UNL A   1      32.471  30.466  26.256  1.00  0.00    -0.352 N 
ATOM      4  O   UNL A   1      32.687  32.471  27.264  1.00  0.00    -0.269 OA
ATOM      5  C   UNL A   1      33.164  31.363  27.033  1.00  0.00     0.251 C 
ATOM      6  H   UNL A   1      31.653  30.819  25.839  1.00  0.00     0.163 HD
BRANCH   5   7
ATOM      7  C   UNL A   1      34.466  30.988  27.627  1.00  0.00     0.039 A 
ATOM      8  C   UNL A   1      34.746  29.665  27.972  1.00  0.00     0.014 A 
ATOM      9  C   UNL A   1      35.424  31.984  27.845  1.00  0.00     0.014 A 
ATOM     10  C   UNL A   1      35.904  29.366  28.683  1.00  0.00     0.010 A 
ATOM     11  C   UNL A   1      36.626  31.666  28.483  1.00  0.00     0.010 A 
ATOM     12  C   UNL A   1      36.856  30.364  28.950  1.00  0.00    -0.014 A 
BRANCH  12  13
ATOM     13  C   UNL A   1      38.089  30.015  29.702  1.00  0.00     0.031 A 
ATOM     14  C   UNL A   1      38.306  30.507  31.107  1.00  0.00     0.074 A 
ATOM     15  C   UNL A   1      39.003  29.214  29.122  1.00  0.00     0.049 A 
ATOM     16  N   UNL A   1      39.303  30.266  31.923  1.00  0.00    -0.248 NA
ATOM     17  C   UNL A   1      37.276  31.394  31.668  1.00  0.00     0.031 C 
ATOM     18  C   UNL A   1      38.909  28.679  27.763  1.00  0.00     0.029 A 
ATOM     19  N   UNL A   1      40.175  28.690  29.606  1.00  0.00    -0.354 N 
ATOM     20  C   UNL A   1      39.033  30.987  33.079  1.00  0.00     0.074 A 
ATOM     21  C   UNL A   1      37.791  31.694  32.852  1.00  0.00     0.031 C 
ATOM     22  C   UNL A   1      39.949  27.863  27.540  1.00  0.00     0.029 A 
ATOM     23  C   UNL A   1      40.810  27.859  28.718  1.00  0.00     0.049 A 
ATOM     24  H   UNL A   1      40.525  28.892  30.504  1.00  0.00     0.167 HD
ATOM     25  C   UNL A   1      39.753  31.046  34.227  1.00  0.00     0.037 A 
ATOM     26  C   UNL A   1      41.960  27.171  28.837  1.00  0.00     0.037 A 
ATOM     27  C   UNL A   1      40.974  30.318  34.459  1.00  0.00     0.049 A 
ATOM     28  C   UNL A   1      42.741  27.259  30.116  1.00  0.00     0.074 A 
ATOM     29  C   UNL A   1      41.750  30.275  35.606  1.00  0.00     0.029 A 
ATOM     30  N   UNL A   1      41.603  29.509  33.524  1.00  0.00    -0.354 N 
ATOM     31  N   UNL A   1      42.455  27.914  31.215  1.00  0.00    -0.248 NA
ATOM     32  C   UNL A   1      44.006  26.515  30.169  1.00  0.00     0.031 C 
ATOM     33  C   UNL A   1      42.869  29.474  35.350  1.00  0.00     0.029 A 
ATOM     34  C   UNL A   1      42.767  28.980  34.060  1.00  0.00     0.049 A 
ATOM     35  H   UNL A   1      41.270  29.334  32.613  1.00  0.00     0.167 HD
ATOM     36  C   UNL A   1      43.489  27.643  32.099  1.00  0.00     0.074 A 
ATOM     37  C   UNL A   1      44.403  26.754  31.411  1.00  0.00     0.031 C 
ATOM     38  C   UNL A   1      43.665  28.091  33.365  1.00  0.00     0.037 A 
BRANCH  25  39
ATOM     39  C   UNL A   1      39.247  31.946  35.317  1.00  0.00     0.064 A 
ATOM     40  C   UNL A   1      38.439  31.467  36.359  1.00  0.00     0.173 A 
ATOM     41  C   UNL A   1      39.603  33.303  35.336  1.00  0.00     0.173 A 
ATOM     42  F   UNL A   1      38.060  30.181  36.383  1.00  0.00    -0.203 F 
ATOM     43  C   UNL A   1      37.983  32.319  37.362  1.00  0.00     0.198 A 
ATOM     44  C   UNL A   1      39.168  34.147  36.355  1.00  0.00     0.198 A 
ATOM     45  F   UNL A   1      40.380  33.813  34.367  1.00  0.00    -0.203 F 
ATOM     46  F   UNL A   1      37.172  31.849  38.320  1.00  0.00    -0.200 F 
ATOM     47  C   UNL A   1      38.351  33.656  37.363  1.00  0.00     0.200 A 
ATOM     48  F   UNL A   1      39.535  35.436  36.360  1.00  0.00    -0.200 F 
ATOM     49  F   UNL A   1      37.913  34.474  38.329  1.00  0.00    -0.200 F 
ENDBRANCH  25  39
BRANCH  26  50
ATOM     50  C   UNL A   1      42.421  26.318  27.713  1.00  0.00     0.064 A 
ATOM     51  C   UNL A   1      41.913  25.024  27.539  1.00  0.00     0.173 A 
ATOM     52  C   UNL A   1      43.355  26.787  26.777  1.00  0.00     0.173 A 
ATOM     53  F   UNL A   1      41.031  24.527  28.419  1.00  0.00    -0.203 F 
ATOM     54  C   UNL A   1      42.326  24.227  26.474  1.00  0.00     0.198 A 
ATOM     55  C   UNL A   1      43.748  25.999  25.699  1.00  0.00     0.198 A 
ATOM     56  F   UNL A   1      43.866  28.021  26.900  1.00  0.00    -0.203 F 
ATOM     57  F   UNL A   1      41.848  22.983  26.346  1.00  0.00    -0.200 F 
ATOM     58  C   UNL A   1      43.237  24.718  25.550  1.00  0.00     0.200 A 
ATOM     59  F   UNL A   1      44.615  26.484  24.799  1.00  0.00    -0.200 F 
ATOM     60  F   UNL A   1      43.624  23.957  24.517  1.00  0.00    -0.200 F 
ENDBRANCH  26  50
BRANCH  38  61
ATOM     61  C   UNL A   1      44.874  27.595  34.103  1.00  0.00     0.064 A 
ATOM     62  C   UNL A   1      46.094  28.286  34.065  1.00  0.00     0.173 A 
ATOM     63  C   UNL A   1      44.802  26.427  34.875  1.00  0.00     0.173 A 
ATOM     64  F   UNL A   1      46.216  29.400  33.327  1.00  0.00    -0.203 F 
ATOM     65  C   UNL A   1      47.207  27.808  34.751  1.00  0.00     0.198 A 
ATOM     66  C   UNL A   1      45.909  25.966  35.582  1.00  0.00     0.198 A 
ATOM     67  F   UNL A   1      43.657  25.732  34.948  1.00  0.00    -0.203 F 
ATOM     68  F   UNL A   1      48.377  28.457  34.662  1.00  0.00    -0.200 F 
ATOM     69  C   UNL A   1      47.112  26.653  35.513  1.00  0.00     0.200 A 
ATOM     70  F   UNL A   1      45.815  24.856  36.325  1.00  0.00    -0.200 F 
ATOM     71  F   UNL A   1      48.184  26.196  36.174  1.00  0.00    -0.200 F 
ENDBRANCH  38  61
ENDBRANCH  12  13
ENDBRANCH   5   7
ENDBRANCH   2   3
ENDBRANCH   1   2
BRANCH   1  72
ATOM     72  C   UNL A   1      31.402  26.926  26.414  1.00  0.00     0.023 C 
BRANCH  72  73
ATOM     73  C   UNL A   1      30.667  25.808  25.676  1.00  0.00     0.116 C 
BRANCH  73  74
ATOM     74  N   UNL A   1      30.001  24.891  26.584  1.00  0.00    -0.351 N 
ATOM     75  C   UNL A   1      30.298  23.577  26.869  1.00  0.00     0.271 C 
ATOM     76  H   UNL A   1      29.226  25.261  27.065  1.00  0.00     0.163 HD
ATOM     77  O   UNL A   1      29.549  22.932  27.595  1.00  0.00    -0.267 OA
BRANCH  75  78
ATOM     78  C   UNL A   1      31.525  22.960  26.318  1.00  0.00     0.147 A 
ATOM     79  C   UNL A   1      32.734  23.119  26.978  1.00  0.00     0.145 A 
ATOM     80  N   UNL A   1      31.397  22.237  25.176  1.00  0.00    -0.233 NA
ATOM     81  N   UNL A   1      33.885  22.586  26.507  1.00  0.00    -0.259 NA
ATOM     82  C   UNL A   1      32.531  21.657  24.719  1.00  0.00     0.122 A 
ATOM     83  C   UNL A   1      33.749  21.848  25.372  1.00  0.00     0.146 A 
BRANCH  82  84
ATOM     84  S   UNL A   1      32.486  20.682  23.231  1.00  0.00    -0.048 SA
BRANCH  84  85
ATOM     85  C   UNL A   1      32.617  19.020  23.845  1.00  0.00     0.102 A 
ATOM     86  C   UNL A   1      33.060  17.988  23.020  1.00  0.00     0.037 A 
ATOM     87  N   UNL A   1      32.353  18.838  25.161  1.00  0.00    -0.248 NA
ATOM     88  C   UNL A   1      33.214  16.710  23.554  1.00  0.00     0.025 A 
ATOM     89  C   UNL A   1      32.508  17.583  25.653  1.00  0.00     0.132 A 
ATOM     90  C   UNL A   1      32.932  16.502  24.897  1.00  0.00     0.059 A 
ATOM     91  Cl  UNL A   1      33.122  14.948  25.600  1.00  0.00    -0.083 Cl
ENDBRANCH  84  85
ENDBRANCH  82  84
ENDBRANCH  75  78
ENDBRANCH  73  74
ENDBRANCH  72  73
ENDBRANCH   1  72
TORSDOF 13
ENDMDL
