MODEL 1
REMARK VINA RESULT:     -12.8      0.000      0.000
REMARK SMILES O=C(NCCCCNC(=O)c1ccc(-c2c3nc(c(-c4c(F)c(F)c(F)c(F)c4F)c4ccc([nH]4)c(-c4c(F)c(F)c(F)c(F)c4F)c4nc(c(-c5c(F)c(F)c(F)c(F)c5F)c5ccc2[nH]5)C=C4)C=C3)cc1)c1ccc(/N=C\c2ccccc2O)cc1
REMARK SMILES IDX 5 1 4 2 3 3 1 4 2 5 74 7 75 8 88 9 76 10 87 11 77 12 78 13
REMARK SMILES IDX 79 14 80 15 81 16 85 17 82 18 84 19 83 20 86 21 6 23 7 24
REMARK SMILES IDX 8 25 9 26 10 28 11 29 12 30 73 31 13 32 72 33 14 34 15 35
REMARK SMILES IDX 16 36 66 37 17 38 71 39 65 40 67 41 18 42 70 43 64 44 63 45
REMARK SMILES IDX 19 47 51 48 31 49 50 50 32 51 35 52 49 53 68 54 33 55 34 56
REMARK SMILES IDX 48 58 69 59 36 60 20 61 21 62 29 63 22 64 23 65 27 66 30 67
REMARK SMILES IDX 24 68 25 69 28 70 26 71 52 72 53 73 61 74 54 75 55 76 59 77
REMARK SMILES IDX 62 78 56 79 57 80 60 81 58 82 37 83 38 84 46 85 39 86 40 87
REMARK SMILES IDX 44 88 47 89 41 90 42 91 45 92 43 93
REMARK H PARENT 3 6 86 22 8 27 67 46 35 57
REMARK Flexibility Score: inf
ROOT
ATOM      1  C   UNL A   1      31.941  30.347  26.713  1.00  0.00     0.023 C 
ENDROOT
BRANCH   1   2
ATOM      2  C   UNL A   1      33.301  29.924  26.170  1.00  0.00     0.116 C 
BRANCH   2   3
ATOM      3  N   UNL A   1      33.323  29.713  24.731  1.00  0.00    -0.352 N 
ATOM      4  O   UNL A   1      33.169  28.615  22.774  1.00  0.00    -0.269 OA
ATOM      5  C   UNL A   1      33.025  28.592  23.994  1.00  0.00     0.251 C 
ATOM      6  H   UNL A   1      33.594  30.498  24.201  1.00  0.00     0.163 HD
BRANCH   5   7
ATOM      7  C   UNL A   1      32.600  27.339  24.660  1.00  0.00     0.039 A 
ATOM      8  C   UNL A   1      31.259  26.977  24.785  1.00  0.00     0.016 A 
ATOM      9  C   UNL A   1      33.586  26.504  25.188  1.00  0.00     0.016 A 
ATOM     10  C   UNL A   1      30.907  25.909  25.614  1.00  0.00     0.029 A 
ATOM     11  C   UNL A   1      33.221  25.391  25.951  1.00  0.00     0.029 A 
ATOM     12  C   UNL A   1      31.880  25.145  26.265  1.00  0.00     0.063 A 
BRANCH  12  13
ATOM     13  N   UNL A   1      31.410  24.178  27.167  1.00  0.00    -0.256 NA
ATOM     14  C   UNL A   1      31.788  22.936  27.224  1.00  0.00     0.123 C 
BRANCH  14  15
ATOM     15  C   UNL A   1      32.776  22.225  26.401  1.00  0.00     0.035 A 
ATOM     16  C   UNL A   1      32.309  21.727  25.179  1.00  0.00     0.013 A 
ATOM     17  C   UNL A   1      34.121  22.089  26.753  1.00  0.00     0.124 A 
ATOM     18  C   UNL A   1      33.204  21.147  24.282  1.00  0.00     0.001 A 
ATOM     19  C   UNL A   1      35.010  21.499  25.857  1.00  0.00     0.047 A 
ATOM     20  C   UNL A   1      34.555  21.043  24.617  1.00  0.00     0.004 A 
BRANCH  17  21
ATOM     21  O   UNL A   1      34.641  22.528  27.937  1.00  0.00    -0.507 OA
ATOM     22  H   UNL A   1      35.478  22.218  28.225  1.00  0.00     0.293 HD
ENDBRANCH  17  21
ENDBRANCH  14  15
ENDBRANCH  12  13
ENDBRANCH   5   7
ENDBRANCH   2   3
ENDBRANCH   1   2
BRANCH   1  23
ATOM     23  C   UNL A   1      31.680  31.848  26.775  1.00  0.00     0.023 C 
BRANCH  23  24
ATOM     24  C   UNL A   1      32.800  32.691  27.373  1.00  0.00     0.116 C 
BRANCH  24  25
ATOM     25  N   UNL A   1      32.406  34.059  27.670  1.00  0.00    -0.352 N 
ATOM     26  C   UNL A   1      32.962  34.946  28.565  1.00  0.00     0.251 C 
ATOM     27  H   UNL A   1      31.635  34.398  27.160  1.00  0.00     0.163 HD
ATOM     28  O   UNL A   1      32.453  36.042  28.755  1.00  0.00    -0.269 OA
BRANCH  26  29
ATOM     29  C   UNL A   1      34.160  34.544  29.332  1.00  0.00     0.039 A 
ATOM     30  C   UNL A   1      33.991  33.894  30.557  1.00  0.00     0.014 A 
ATOM     31  C   UNL A   1      35.441  34.763  28.820  1.00  0.00     0.014 A 
ATOM     32  C   UNL A   1      35.105  33.378  31.227  1.00  0.00     0.010 A 
ATOM     33  C   UNL A   1      36.540  34.189  29.451  1.00  0.00     0.010 A 
ATOM     34  C   UNL A   1      36.382  33.481  30.655  1.00  0.00    -0.014 A 
BRANCH  34  35
ATOM     35  C   UNL A   1      37.576  32.858  31.280  1.00  0.00     0.031 A 
ATOM     36  C   UNL A   1      38.249  31.696  30.603  1.00  0.00     0.074 A 
ATOM     37  C   UNL A   1      37.984  33.256  32.502  1.00  0.00     0.049 A 
ATOM     38  N   UNL A   1      39.179  30.896  31.058  1.00  0.00    -0.248 NA
ATOM     39  C   UNL A   1      37.788  31.370  29.243  1.00  0.00     0.031 C 
ATOM     40  C   UNL A   1      37.390  34.343  33.282  1.00  0.00     0.029 A 
ATOM     41  N   UNL A   1      38.977  32.770  33.317  1.00  0.00    -0.354 N 
ATOM     42  C   UNL A   1      39.384  29.952  30.061  1.00  0.00     0.074 A 
ATOM     43  C   UNL A   1      38.465  30.261  28.986  1.00  0.00     0.031 C 
ATOM     44  C   UNL A   1      38.030  34.443  34.459  1.00  0.00     0.029 A 
ATOM     45  C   UNL A   1      39.050  33.401  34.535  1.00  0.00     0.049 A 
ATOM     46  H   UNL A   1      39.580  32.039  33.052  1.00  0.00     0.167 HD
ATOM     47  C   UNL A   1      40.267  28.927  30.042  1.00  0.00     0.037 A 
ATOM     48  C   UNL A   1      39.834  33.151  35.602  1.00  0.00     0.037 A 
ATOM     49  C   UNL A   1      41.221  28.659  31.084  1.00  0.00     0.049 A 
ATOM     50  C   UNL A   1      40.826  32.020  35.538  1.00  0.00     0.074 A 
ATOM     51  C   UNL A   1      42.216  27.699  31.114  1.00  0.00     0.029 A 
ATOM     52  N   UNL A   1      41.302  29.359  32.277  1.00  0.00    -0.354 N 
ATOM     53  N   UNL A   1      41.056  31.175  34.563  1.00  0.00    -0.248 NA
ATOM     54  C   UNL A   1      41.670  31.808  36.724  1.00  0.00     0.031 C 
ATOM     55  C   UNL A   1      42.880  27.795  32.340  1.00  0.00     0.029 A 
ATOM     56  C   UNL A   1      42.323  28.842  33.057  1.00  0.00     0.049 A 
ATOM     57  H   UNL A   1      40.722  30.112  32.533  1.00  0.00     0.167 HD
ATOM     58  C   UNL A   1      42.091  30.360  35.001  1.00  0.00     0.074 A 
ATOM     59  C   UNL A   1      42.450  30.812  36.328  1.00  0.00     0.031 C 
ATOM     60  C   UNL A   1      42.690  29.328  34.360  1.00  0.00     0.037 A 
BRANCH  47  61
ATOM     61  C   UNL A   1      40.257  28.014  28.854  1.00  0.00     0.064 A 
ATOM     62  C   UNL A   1      40.986  28.308  27.693  1.00  0.00     0.173 A 
ATOM     63  C   UNL A   1      39.566  26.793  28.906  1.00  0.00     0.173 A 
ATOM     64  F   UNL A   1      41.654  29.467  27.592  1.00  0.00    -0.203 F 
ATOM     65  C   UNL A   1      41.013  27.421  26.621  1.00  0.00     0.198 A 
ATOM     66  C   UNL A   1      39.614  25.897  27.842  1.00  0.00     0.198 A 
ATOM     67  F   UNL A   1      38.857  26.463  29.996  1.00  0.00    -0.203 F 
ATOM     68  F   UNL A   1      41.691  27.735  25.509  1.00  0.00    -0.200 F 
ATOM     69  C   UNL A   1      40.335  26.212  26.700  1.00  0.00     0.200 A 
ATOM     70  F   UNL A   1      38.971  24.725  27.925  1.00  0.00    -0.200 F 
ATOM     71  F   UNL A   1      40.376  25.352  25.673  1.00  0.00    -0.200 F 
ENDBRANCH  47  61
BRANCH  48  72
ATOM     72  C   UNL A   1      39.723  33.984  36.828  1.00  0.00     0.064 A 
ATOM     73  C   UNL A   1      38.908  33.582  37.898  1.00  0.00     0.173 A 
ATOM     74  C   UNL A   1      40.393  35.209  36.943  1.00  0.00     0.173 A 
ATOM     75  F   UNL A   1      38.229  32.428  37.823  1.00  0.00    -0.203 F 
ATOM     76  C   UNL A   1      38.745  34.388  39.021  1.00  0.00     0.198 A 
ATOM     77  C   UNL A   1      40.250  36.003  38.081  1.00  0.00     0.198 A 
ATOM     78  F   UNL A   1      41.185  35.638  35.951  1.00  0.00    -0.203 F 
ATOM     79  F   UNL A   1      37.917  34.007  40.003  1.00  0.00    -0.200 F 
ATOM     80  C   UNL A   1      39.419  35.598  39.113  1.00  0.00     0.200 A 
ATOM     81  F   UNL A   1      40.910  37.166  38.171  1.00  0.00    -0.200 F 
ATOM     82  F   UNL A   1      39.256  36.377  40.191  1.00  0.00    -0.200 F 
ENDBRANCH  48  72
BRANCH  60  83
ATOM     83  C   UNL A   1      43.835  28.653  35.051  1.00  0.00     0.064 A 
ATOM     84  C   UNL A   1      43.644  27.523  35.859  1.00  0.00     0.173 A 
ATOM     85  C   UNL A   1      45.148  29.107  34.849  1.00  0.00     0.173 A 
ATOM     86  F   UNL A   1      42.406  27.062  36.093  1.00  0.00    -0.203 F 
ATOM     87  C   UNL A   1      44.727  26.878  36.450  1.00  0.00     0.198 A 
ATOM     88  C   UNL A   1      46.229  28.445  35.421  1.00  0.00     0.198 A 
ATOM     89  F   UNL A   1      45.380  30.181  34.080  1.00  0.00    -0.203 F 
ATOM     90  F   UNL A   1      44.522  25.819  37.244  1.00  0.00    -0.200 F 
ATOM     91  C   UNL A   1      46.018  27.334  36.224  1.00  0.00     0.200 A 
ATOM     92  F   UNL A   1      47.477  28.879  35.192  1.00  0.00    -0.200 F 
ATOM     93  F   UNL A   1      47.060  26.703  36.783  1.00  0.00    -0.200 F 
ENDBRANCH  60  83
ENDBRANCH  34  35
ENDBRANCH  26  29
ENDBRANCH  24  25
ENDBRANCH  23  24
ENDBRANCH   1  23
TORSDOF 14
ENDMDL
MODEL 2
REMARK VINA RESULT:     -12.7      1.769      2.774
REMARK SMILES O=C(NCCCCNC(=O)c1ccc(-c2c3nc(c(-c4c(F)c(F)c(F)c(F)c4F)c4ccc([nH]4)c(-c4c(F)c(F)c(F)c(F)c4F)c4nc(c(-c5c(F)c(F)c(F)c(F)c5F)c5ccc2[nH]5)C=C4)C=C3)cc1)c1ccc(/N=C\c2ccccc2O)cc1
REMARK SMILES IDX 5 1 4 2 3 3 1 4 2 5 74 7 75 8 88 9 76 10 87 11 77 12 78 13
REMARK SMILES IDX 79 14 80 15 81 16 85 17 82 18 84 19 83 20 86 21 6 23 7 24
REMARK SMILES IDX 8 25 9 26 10 28 11 29 12 30 73 31 13 32 72 33 14 34 15 35
REMARK SMILES IDX 16 36 66 37 17 38 71 39 65 40 67 41 18 42 70 43 64 44 63 45
REMARK SMILES IDX 19 47 51 48 31 49 50 50 32 51 35 52 49 53 68 54 33 55 34 56
REMARK SMILES IDX 48 58 69 59 36 60 20 61 21 62 29 63 22 64 23 65 27 66 30 67
REMARK SMILES IDX 24 68 25 69 28 70 26 71 52 72 53 73 61 74 54 75 55 76 59 77
REMARK SMILES IDX 62 78 56 79 57 80 60 81 58 82 37 83 38 84 46 85 39 86 40 87
REMARK SMILES IDX 44 88 47 89 41 90 42 91 45 92 43 93
REMARK H PARENT 3 6 86 22 8 27 67 46 35 57
REMARK Flexibility Score: inf
ROOT
ATOM      1  C   UNL A   1      31.830  29.011  23.543  1.00  0.00     0.023 C 
ENDROOT
BRANCH   1   2
ATOM      2  C   UNL A   1      33.232  28.909  22.954  1.00  0.00     0.116 C 
BRANCH   2   3
ATOM      3  N   UNL A   1      33.405  27.801  22.028  1.00  0.00    -0.352 N 
ATOM      4  O   UNL A   1      33.561  25.674  21.315  1.00  0.00    -0.269 OA
ATOM      5  C   UNL A   1      33.317  26.446  22.239  1.00  0.00     0.251 C 
ATOM      6  H   UNL A   1      33.617  28.064  21.103  1.00  0.00     0.163 HD
BRANCH   5   7
ATOM      7  C   UNL A   1      33.000  25.908  23.582  1.00  0.00     0.039 A 
ATOM      8  C   UNL A   1      33.902  25.964  24.642  1.00  0.00     0.016 A 
ATOM      9  C   UNL A   1      31.750  25.317  23.777  1.00  0.00     0.016 A 
ATOM     10  C   UNL A   1      33.639  25.246  25.811  1.00  0.00     0.029 A 
ATOM     11  C   UNL A   1      31.468  24.669  24.983  1.00  0.00     0.029 A 
ATOM     12  C   UNL A   1      32.449  24.530  25.970  1.00  0.00     0.063 A 
BRANCH  12  13
ATOM     13  N   UNL A   1      32.345  23.747  27.131  1.00  0.00    -0.256 NA
ATOM     14  C   UNL A   1      32.852  22.564  27.304  1.00  0.00     0.123 C 
BRANCH  14  15
ATOM     15  C   UNL A   1      33.649  21.748  26.378  1.00  0.00     0.035 A 
ATOM     16  C   UNL A   1      35.026  21.996  26.373  1.00  0.00     0.013 A 
ATOM     17  C   UNL A   1      33.110  20.734  25.581  1.00  0.00     0.124 A 
ATOM     18  C   UNL A   1      35.872  21.187  25.617  1.00  0.00     0.001 A 
ATOM     19  C   UNL A   1      33.958  19.934  24.819  1.00  0.00     0.047 A 
ATOM     20  C   UNL A   1      35.338  20.151  24.849  1.00  0.00     0.004 A 
BRANCH  17  21
ATOM     21  O   UNL A   1      31.775  20.452  25.517  1.00  0.00    -0.507 OA
ATOM     22  H   UNL A   1      31.394  19.845  26.122  1.00  0.00     0.293 HD
ENDBRANCH  17  21
ENDBRANCH  14  15
ENDBRANCH  12  13
ENDBRANCH   5   7
ENDBRANCH   2   3
ENDBRANCH   1   2
BRANCH   1  23
ATOM     23  C   UNL A   1      31.737  28.982  25.065  1.00  0.00     0.023 C 
BRANCH  23  24
ATOM     24  C   UNL A   1      32.828  29.741  25.810  1.00  0.00     0.116 C 
BRANCH  24  25
ATOM     25  N   UNL A   1      32.407  31.048  26.290  1.00  0.00    -0.352 N 
ATOM     26  C   UNL A   1      33.044  31.895  27.168  1.00  0.00     0.251 C 
ATOM     27  H   UNL A   1      31.546  31.370  25.938  1.00  0.00     0.163 HD
ATOM     28  O   UNL A   1      32.508  32.932  27.535  1.00  0.00    -0.269 OA
BRANCH  26  29
ATOM     29  C   UNL A   1      34.371  31.520  27.702  1.00  0.00     0.039 A 
ATOM     30  C   UNL A   1      35.337  32.515  27.871  1.00  0.00     0.014 A 
ATOM     31  C   UNL A   1      34.641  30.203  28.080  1.00  0.00     0.014 A 
ATOM     32  C   UNL A   1      36.543  32.208  28.507  1.00  0.00     0.010 A 
ATOM     33  C   UNL A   1      35.811  29.914  28.775  1.00  0.00     0.010 A 
ATOM     34  C   UNL A   1      36.769  30.915  29.006  1.00  0.00    -0.014 A 
BRANCH  34  35
ATOM     35  C   UNL A   1      37.990  30.574  29.778  1.00  0.00     0.031 A 
ATOM     36  C   UNL A   1      38.983  29.600  29.207  1.00  0.00     0.074 A 
ATOM     37  C   UNL A   1      38.150  31.045  31.031  1.00  0.00     0.049 A 
ATOM     38  N   UNL A   1      40.009  29.029  29.782  1.00  0.00    -0.248 NA
ATOM     39  C   UNL A   1      38.771  29.188  27.809  1.00  0.00     0.031 C 
ATOM     40  C   UNL A   1      37.238  31.964  31.715  1.00  0.00     0.029 A 
ATOM     41  N   UNL A   1      39.124  30.791  31.965  1.00  0.00    -0.354 N 
ATOM     42  C   UNL A   1      40.539  28.163  28.834  1.00  0.00     0.074 A 
ATOM     43  C   UNL A   1      39.707  28.264  27.654  1.00  0.00     0.031 C 
ATOM     44  C   UNL A   1      37.696  32.197  32.957  1.00  0.00     0.029 A 
ATOM     45  C   UNL A   1      38.909  31.412  33.172  1.00  0.00     0.049 A 
ATOM     46  H   UNL A   1      39.905  30.218  31.787  1.00  0.00     0.167 HD
ATOM     47  C   UNL A   1      41.627  27.365  28.938  1.00  0.00     0.037 A 
ATOM     48  C   UNL A   1      39.598  31.339  34.327  1.00  0.00     0.037 A 
ATOM     49  C   UNL A   1      42.486  27.312  30.089  1.00  0.00     0.049 A 
ATOM     50  C   UNL A   1      40.820  30.463  34.401  1.00  0.00     0.074 A 
ATOM     51  C   UNL A   1      43.663  26.602  30.254  1.00  0.00     0.029 A 
ATOM     52  N   UNL A   1      42.266  28.004  31.270  1.00  0.00    -0.354 N 
ATOM     53  N   UNL A   1      41.349  29.699  33.476  1.00  0.00    -0.248 NA
ATOM     54  C   UNL A   1      41.545  30.439  35.682  1.00  0.00     0.031 C 
ATOM     55  C   UNL A   1      44.138  26.837  31.547  1.00  0.00     0.029 A 
ATOM     56  C   UNL A   1      43.279  27.725  32.173  1.00  0.00     0.049 A 
ATOM     57  H   UNL A   1      41.505  28.604  31.442  1.00  0.00     0.167 HD
ATOM     58  C   UNL A   1      42.482  29.137  34.047  1.00  0.00     0.074 A 
ATOM     59  C   UNL A   1      42.570  29.648  35.398  1.00  0.00     0.031 C 
ATOM     60  C   UNL A   1      43.370  28.272  33.501  1.00  0.00     0.037 A 
BRANCH  47  61
ATOM     61  C   UNL A   1      41.963  26.482  27.775  1.00  0.00     0.064 A 
ATOM     62  C   UNL A   1      42.934  26.846  26.831  1.00  0.00     0.173 A 
ATOM     63  C   UNL A   1      41.356  25.223  27.644  1.00  0.00     0.173 A 
ATOM     64  F   UNL A   1      43.534  28.043  26.909  1.00  0.00    -0.203 F 
ATOM     65  C   UNL A   1      43.277  25.988  25.791  1.00  0.00     0.198 A 
ATOM     66  C   UNL A   1      41.718  24.357  26.616  1.00  0.00     0.198 A 
ATOM     67  F   UNL A   1      40.425  24.826  28.524  1.00  0.00    -0.203 F 
ATOM     68  F   UNL A   1      44.186  26.368  24.882  1.00  0.00    -0.200 F 
ATOM     69  C   UNL A   1      42.676  24.741  25.689  1.00  0.00     0.200 A 
ATOM     70  F   UNL A   1      41.148  23.148  26.527  1.00  0.00    -0.200 F 
ATOM     71  F   UNL A   1      43.019  23.910  24.696  1.00  0.00    -0.200 F 
ENDBRANCH  47  61
BRANCH  48  72
ATOM     72  C   UNL A   1      39.158  32.116  35.516  1.00  0.00     0.064 A 
ATOM     73  C   UNL A   1      39.549  33.454  35.683  1.00  0.00     0.173 A 
ATOM     74  C   UNL A   1      38.376  31.535  36.521  1.00  0.00     0.173 A 
ATOM     75  F   UNL A   1      40.317  34.046  34.757  1.00  0.00    -0.203 F 
ATOM     76  C   UNL A   1      39.199  34.168  36.825  1.00  0.00     0.198 A 
ATOM     77  C   UNL A   1      38.003  32.260  37.653  1.00  0.00     0.198 A 
ATOM     78  F   UNL A   1      37.974  30.261  36.409  1.00  0.00    -0.203 F 
ATOM     79  F   UNL A   1      39.633  35.425  36.986  1.00  0.00    -0.200 F 
ATOM     80  C   UNL A   1      38.423  33.571  37.809  1.00  0.00     0.200 A 
ATOM     81  F   UNL A   1      37.245  31.683  38.596  1.00  0.00    -0.200 F 
ATOM     82  F   UNL A   1      38.093  34.257  38.912  1.00  0.00    -0.200 F 
ENDBRANCH  48  72
BRANCH  60  83
ATOM     83  C   UNL A   1      44.548  27.869  34.334  1.00  0.00     0.064 A 
ATOM     84  C   UNL A   1      44.522  26.721  35.137  1.00  0.00     0.173 A 
ATOM     85  C   UNL A   1      45.740  28.608  34.275  1.00  0.00     0.173 A 
ATOM     86  F   UNL A   1      43.401  25.991  35.237  1.00  0.00    -0.203 F 
ATOM     87  C   UNL A   1      45.646  26.334  35.863  1.00  0.00     0.198 A 
ATOM     88  C   UNL A   1      46.867  28.204  34.982  1.00  0.00     0.198 A 
ATOM     89  F   UNL A   1      45.813  29.711  33.515  1.00  0.00    -0.203 F 
ATOM     90  F   UNL A   1      45.592  25.251  36.651  1.00  0.00    -0.200 F 
ATOM     91  C   UNL A   1      46.819  27.070  35.778  1.00  0.00     0.200 A 
ATOM     92  F   UNL A   1      48.004  28.910  34.889  1.00  0.00    -0.200 F 
ATOM     93  F   UNL A   1      47.903  26.688  36.467  1.00  0.00    -0.200 F 
ENDBRANCH  60  83
ENDBRANCH  34  35
ENDBRANCH  26  29
ENDBRANCH  24  25
ENDBRANCH  23  24
ENDBRANCH   1  23
TORSDOF 14
ENDMDL
MODEL 3
REMARK VINA RESULT:     -12.6      5.347     10.714
REMARK SMILES O=C(NCCCCNC(=O)c1ccc(-c2c3nc(c(-c4c(F)c(F)c(F)c(F)c4F)c4ccc([nH]4)c(-c4c(F)c(F)c(F)c(F)c4F)c4nc(c(-c5c(F)c(F)c(F)c(F)c5F)c5ccc2[nH]5)C=C4)C=C3)cc1)c1ccc(/N=C\c2ccccc2O)cc1
REMARK SMILES IDX 5 1 4 2 3 3 1 4 2 5 74 7 75 8 88 9 76 10 87 11 77 12 78 13
REMARK SMILES IDX 79 14 80 15 81 16 85 17 82 18 84 19 83 20 86 21 6 23 7 24
REMARK SMILES IDX 8 25 9 26 10 28 11 29 12 30 73 31 13 32 72 33 14 34 15 35
REMARK SMILES IDX 16 36 66 37 17 38 71 39 65 40 67 41 18 42 70 43 64 44 63 45
REMARK SMILES IDX 19 47 51 48 31 49 50 50 32 51 35 52 49 53 68 54 33 55 34 56
REMARK SMILES IDX 48 58 69 59 36 60 20 61 21 62 29 63 22 64 23 65 27 66 30 67
REMARK SMILES IDX 24 68 25 69 28 70 26 71 52 72 53 73 61 74 54 75 55 76 59 77
REMARK SMILES IDX 62 78 56 79 57 80 60 81 58 82 37 83 38 84 46 85 39 86 40 87
REMARK SMILES IDX 44 88 47 89 41 90 42 91 45 92 43 93
REMARK H PARENT 3 6 86 22 8 27 67 46 35 57
REMARK Flexibility Score: inf
ROOT
ATOM      1  C   UNL A   1      36.819  21.500  24.925  1.00  0.00     0.023 C 
ENDROOT
BRANCH   1   2
ATOM      2  C   UNL A   1      35.686  21.509  25.945  1.00  0.00     0.116 C 
BRANCH   2   3
ATOM      3  N   UNL A   1      34.695  20.466  25.736  1.00  0.00    -0.352 N 
ATOM      4  O   UNL A   1      32.668  19.526  25.479  1.00  0.00    -0.269 OA
ATOM      5  C   UNL A   1      33.331  20.554  25.589  1.00  0.00     0.251 C 
ATOM      6  H   UNL A   1      35.059  19.552  25.692  1.00  0.00     0.163 HD
BRANCH   5   7
ATOM      7  C   UNL A   1      32.649  21.868  25.630  1.00  0.00     0.039 A 
ATOM      8  C   UNL A   1      32.414  22.551  26.822  1.00  0.00     0.016 A 
ATOM      9  C   UNL A   1      32.222  22.428  24.425  1.00  0.00     0.016 A 
ATOM     10  C   UNL A   1      31.574  23.667  26.824  1.00  0.00     0.029 A 
ATOM     11  C   UNL A   1      31.447  23.591  24.433  1.00  0.00     0.029 A 
ATOM     12  C   UNL A   1      31.021  24.161  25.638  1.00  0.00     0.063 A 
BRANCH  12  13
ATOM     13  N   UNL A   1      30.096  25.208  25.771  1.00  0.00    -0.256 NA
ATOM     14  C   UNL A   1      30.381  26.460  25.971  1.00  0.00     0.123 C 
BRANCH  14  15
ATOM     15  C   UNL A   1      31.693  27.107  26.100  1.00  0.00     0.035 A 
ATOM     16  C   UNL A   1      32.513  27.061  24.966  1.00  0.00     0.013 A 
ATOM     17  C   UNL A   1      32.109  27.790  27.246  1.00  0.00     0.124 A 
ATOM     18  C   UNL A   1      33.722  27.754  24.959  1.00  0.00     0.001 A 
ATOM     19  C   UNL A   1      33.324  28.472  27.238  1.00  0.00     0.047 A 
ATOM     20  C   UNL A   1      34.121  28.466  26.091  1.00  0.00     0.004 A 
BRANCH  17  21
ATOM     21  O   UNL A   1      31.373  27.856  28.395  1.00  0.00    -0.507 OA
ATOM     22  H   UNL A   1      31.327  27.114  28.966  1.00  0.00     0.293 HD
ENDBRANCH  17  21
ENDBRANCH  14  15
ENDBRANCH  12  13
ENDBRANCH   5   7
ENDBRANCH   2   3
ENDBRANCH   1   2
BRANCH   1  23
ATOM     23  C   UNL A   1      37.776  20.314  24.994  1.00  0.00     0.023 C 
BRANCH  23  24
ATOM     24  C   UNL A   1      39.055  20.540  25.790  1.00  0.00     0.116 C 
BRANCH  24  25
ATOM     25  N   UNL A   1      39.957  19.399  25.782  1.00  0.00    -0.352 N 
ATOM     26  C   UNL A   1      41.300  19.354  26.081  1.00  0.00     0.251 C 
ATOM     27  H   UNL A   1      39.550  18.539  25.528  1.00  0.00     0.163 HD
ATOM     28  O   UNL A   1      41.936  18.317  25.944  1.00  0.00    -0.269 OA
BRANCH  26  29
ATOM     29  C   UNL A   1      41.983  20.586  26.530  1.00  0.00     0.039 A 
ATOM     30  C   UNL A   1      42.452  21.486  25.569  1.00  0.00     0.014 A 
ATOM     31  C   UNL A   1      42.113  20.874  27.890  1.00  0.00     0.014 A 
ATOM     32  C   UNL A   1      42.970  22.721  25.971  1.00  0.00     0.010 A 
ATOM     33  C   UNL A   1      42.563  22.130  28.286  1.00  0.00     0.010 A 
ATOM     34  C   UNL A   1      42.985  23.070  27.331  1.00  0.00    -0.014 A 
BRANCH  34  35
ATOM     35  C   UNL A   1      43.428  24.410  27.793  1.00  0.00     0.031 A 
ATOM     36  C   UNL A   1      42.403  25.453  28.142  1.00  0.00     0.074 A 
ATOM     37  C   UNL A   1      44.739  24.726  27.788  1.00  0.00     0.049 A 
ATOM     38  N   UNL A   1      42.567  26.727  28.387  1.00  0.00    -0.248 NA
ATOM     39  C   UNL A   1      41.000  25.006  28.189  1.00  0.00     0.031 C 
ATOM     40  C   UNL A   1      45.829  23.817  27.431  1.00  0.00     0.029 A 
ATOM     41  N   UNL A   1      45.374  25.912  28.065  1.00  0.00    -0.354 N 
ATOM     42  C   UNL A   1      41.290  27.241  28.575  1.00  0.00     0.074 A 
ATOM     43  C   UNL A   1      40.360  26.148  28.393  1.00  0.00     0.031 C 
ATOM     44  C   UNL A   1      46.998  24.477  27.512  1.00  0.00     0.029 A 
ATOM     45  C   UNL A   1      46.736  25.864  27.885  1.00  0.00     0.049 A 
ATOM     46  H   UNL A   1      44.900  26.719  28.367  1.00  0.00     0.167 HD
ATOM     47  C   UNL A   1      40.931  28.509  28.883  1.00  0.00     0.037 A 
ATOM     48  C   UNL A   1      47.664  26.834  27.986  1.00  0.00     0.037 A 
ATOM     49  C   UNL A   1      41.860  29.579  29.124  1.00  0.00     0.049 A 
ATOM     50  C   UNL A   1      47.234  28.229  28.357  1.00  0.00     0.074 A 
ATOM     51  C   UNL A   1      41.595  30.875  29.530  1.00  0.00     0.029 A 
ATOM     52  N   UNL A   1      43.236  29.474  28.989  1.00  0.00    -0.354 N 
ATOM     53  N   UNL A   1      46.031  28.688  28.597  1.00  0.00    -0.248 NA
ATOM     54  C   UNL A   1      48.295  29.243  28.473  1.00  0.00     0.031 C 
ATOM     55  C   UNL A   1      42.807  31.565  29.609  1.00  0.00     0.029 A 
ATOM     56  C   UNL A   1      43.831  30.688  29.291  1.00  0.00     0.049 A 
ATOM     57  H   UNL A   1      43.718  28.659  28.720  1.00  0.00     0.167 HD
ATOM     58  C   UNL A   1      46.191  30.027  28.928  1.00  0.00     0.074 A 
ATOM     59  C   UNL A   1      47.609  30.309  28.863  1.00  0.00     0.031 C 
ATOM     60  C   UNL A   1      45.247  30.941  29.256  1.00  0.00     0.037 A 
BRANCH  47  61
ATOM     61  C   UNL A   1      39.469  28.818  28.986  1.00  0.00     0.064 A 
ATOM     62  C   UNL A   1      38.779  28.718  30.204  1.00  0.00     0.173 A 
ATOM     63  C   UNL A   1      38.764  29.290  27.867  1.00  0.00     0.173 A 
ATOM     64  F   UNL A   1      39.407  28.263  31.298  1.00  0.00    -0.203 F 
ATOM     65  C   UNL A   1      37.435  29.066  30.295  1.00  0.00     0.198 A 
ATOM     66  C   UNL A   1      37.427  29.660  27.967  1.00  0.00     0.198 A 
ATOM     67  F   UNL A   1      39.380  29.408  26.681  1.00  0.00    -0.203 F 
ATOM     68  F   UNL A   1      36.788  28.935  31.460  1.00  0.00    -0.200 F 
ATOM     69  C   UNL A   1      36.762  29.546  29.179  1.00  0.00     0.200 A 
ATOM     70  F   UNL A   1      36.782  30.136  26.893  1.00  0.00    -0.200 F 
ATOM     71  F   UNL A   1      35.472  29.896  29.273  1.00  0.00    -0.200 F 
ENDBRANCH  47  61
BRANCH  48  72
ATOM     72  C   UNL A   1      49.099  26.533  27.735  1.00  0.00     0.064 A 
ATOM     73  C   UNL A   1      49.977  26.289  28.802  1.00  0.00     0.173 A 
ATOM     74  C   UNL A   1      49.627  26.518  26.438  1.00  0.00     0.173 A 
ATOM     75  F   UNL A   1      49.521  26.316  30.063  1.00  0.00    -0.203 F 
ATOM     76  C   UNL A   1      51.335  26.074  28.581  1.00  0.00     0.198 A 
ATOM     77  C   UNL A   1      50.983  26.275  26.217  1.00  0.00     0.198 A 
ATOM     78  F   UNL A   1      48.830  26.742  25.384  1.00  0.00    -0.203 F 
ATOM     79  F   UNL A   1      52.162  25.901  29.621  1.00  0.00    -0.200 F 
ATOM     80  C   UNL A   1      51.836  26.063  27.288  1.00  0.00     0.200 A 
ATOM     81  F   UNL A   1      51.461  26.255  24.965  1.00  0.00    -0.200 F 
ATOM     82  F   UNL A   1      53.144  25.863  27.076  1.00  0.00    -0.200 F 
ENDBRANCH  48  72
BRANCH  60  83
ATOM     83  C   UNL A   1      45.712  32.315  29.630  1.00  0.00     0.064 A 
ATOM     84  C   UNL A   1      45.810  33.342  28.681  1.00  0.00     0.173 A 
ATOM     85  C   UNL A   1      46.002  32.621  30.969  1.00  0.00     0.173 A 
ATOM     86  F   UNL A   1      45.558  33.093  27.387  1.00  0.00    -0.203 F 
ATOM     87  C   UNL A   1      46.194  34.626  29.059  1.00  0.00     0.198 A 
ATOM     88  C   UNL A   1      46.360  33.911  31.345  1.00  0.00     0.198 A 
ATOM     89  F   UNL A   1      45.916  31.672  31.913  1.00  0.00    -0.203 F 
ATOM     90  F   UNL A   1      46.312  35.587  28.132  1.00  0.00    -0.200 F 
ATOM     91  C   UNL A   1      46.460  34.912  30.390  1.00  0.00     0.200 A 
ATOM     92  F   UNL A   1      46.605  34.189  32.634  1.00  0.00    -0.200 F 
ATOM     93  F   UNL A   1      46.815  36.152  30.753  1.00  0.00    -0.200 F 
ENDBRANCH  60  83
ENDBRANCH  34  35
ENDBRANCH  26  29
ENDBRANCH  24  25
ENDBRANCH  23  24
ENDBRANCH   1  23
TORSDOF 14
ENDMDL
