MODEL 1
REMARK VINA RESULT:     -12.2      0.000      0.000
REMARK SMILES N#Cc1cc2c(nc1N(CC(=O)NCCCCNC(=O)c1ccc(-c3c4nc(c(-c5c(F)c(F)c(F)c(F)c5F)c5ccc([nH]5)c(-c5c(F)c(F)c(F)c(F)c5F)c5nc(c(-c6c(F)c(F)c(F)c(F)c6F)c6ccc3[nH]6)C=C5)C=C4)cc1)CC(F)(F)F)CCC2
REMARK SMILES IDX 15 1 14 2 13 3 11 4 12 5 10 7 9 8 8 9 3 10 4 11 5 12 7 13
REMARK SMILES IDX 6 14 91 15 89 16 90 17 2 18 1 19 84 20 85 21 86 22 87 23
REMARK SMILES IDX 88 24 16 25 17 26 18 27 19 28 20 30 21 31 22 32 83 33 23 34
REMARK SMILES IDX 82 35 24 36 25 37 26 38 76 39 27 40 81 41 75 42 77 43 28 44
REMARK SMILES IDX 80 45 74 46 73 47 29 49 61 50 41 51 60 52 42 53 45 54 59 55
REMARK SMILES IDX 78 56 43 57 44 58 58 60 79 61 46 62 30 63 31 64 39 65 32 66
REMARK SMILES IDX 33 67 37 68 40 69 34 70 35 71 38 72 36 73 62 74 63 75 71 76
REMARK SMILES IDX 64 77 65 78 69 79 72 80 66 81 67 82 70 83 68 84 47 85 48 86
REMARK SMILES IDX 56 87 49 88 50 89 54 90 57 91 51 92 52 93 55 94 53 95
REMARK H PARENT 13 6 18 29 77 48 45 59
REMARK Flexibility Score: inf
ROOT
ATOM      1  C   UNL A   1      31.691  30.697  26.374  1.00  0.00     0.023 C 
ENDROOT
BRANCH   1   2
ATOM      2  C   UNL A   1      33.149  30.270  26.518  1.00  0.00     0.116 C 
BRANCH   2   3
ATOM      3  N   UNL A   1      33.672  29.706  25.291  1.00  0.00    -0.355 N 
ATOM      4  C   UNL A   1      33.823  28.388  24.969  1.00  0.00     0.239 C 
ATOM      5  O   UNL A   1      34.342  28.101  23.887  1.00  0.00    -0.273 OA
ATOM      6  H   UNL A   1      33.953  30.354  24.604  1.00  0.00     0.163 HD
BRANCH   4   7
ATOM      7  C   UNL A   1      33.362  27.296  25.945  1.00  0.00     0.218 C 
BRANCH   7   8
ATOM      8  N   UNL A   1      32.961  26.038  25.254  1.00  0.00    -0.337 N 
BRANCH   8   9
ATOM      9  C   UNL A   1      33.657  24.876  25.558  1.00  0.00     0.147 A 
ATOM     10  C   UNL A   1      33.151  23.722  26.199  1.00  0.00     0.095 A 
ATOM     11  C   UNL A   1      33.938  22.552  26.304  1.00  0.00     0.029 A 
ATOM     12  C   UNL A   1      35.230  22.579  25.839  1.00  0.00    -0.025 A 
ATOM     13  N   UNL A   1      34.960  24.866  25.153  1.00  0.00    -0.234 NA
ATOM     14  C   UNL A   1      35.700  23.754  25.305  1.00  0.00     0.046 A 
ATOM     15  C   UNL A   1      36.259  21.502  25.783  1.00  0.00     0.038 C 
ATOM     16  C   UNL A   1      37.128  23.612  24.858  1.00  0.00     0.057 C 
ATOM     17  C   UNL A   1      37.539  22.332  25.603  1.00  0.00     0.011 C 
BRANCH  10  18
ATOM     18  C   UNL A   1      31.865  23.644  26.823  1.00  0.00     0.103 C 
ATOM     19  N   UNL A   1      30.817  23.567  27.308  1.00  0.00    -0.192 NA
ENDBRANCH  10  18
ENDBRANCH   8   9
BRANCH   8  20
ATOM     20  C   UNL A   1      31.779  26.167  24.352  1.00  0.00     0.234 C 
BRANCH  20  21
ATOM     21  C   UNL A   1      30.493  26.770  24.953  1.00  0.00     0.405 C 
ATOM     22  F   UNL A   1      30.360  28.089  24.688  1.00  0.00    -0.169 F 
ATOM     23  F   UNL A   1      29.400  26.148  24.453  1.00  0.00    -0.169 F 
ATOM     24  F   UNL A   1      30.448  26.628  26.297  1.00  0.00    -0.169 F 
ENDBRANCH  20  21
ENDBRANCH   8  20
ENDBRANCH   7   8
ENDBRANCH   4   7
ENDBRANCH   2   3
ENDBRANCH   1   2
BRANCH   1  25
ATOM     25  C   UNL A   1      31.440  32.157  26.743  1.00  0.00     0.023 C 
BRANCH  25  26
ATOM     26  C   UNL A   1      32.664  32.858  27.309  1.00  0.00     0.116 C 
BRANCH  26  27
ATOM     27  N   UNL A   1      32.387  34.240  27.686  1.00  0.00    -0.352 N 
ATOM     28  C   UNL A   1      32.995  34.997  28.657  1.00  0.00     0.251 C 
ATOM     29  H   UNL A   1      31.672  34.687  27.180  1.00  0.00     0.163 HD
ATOM     30  O   UNL A   1      32.544  36.087  28.986  1.00  0.00    -0.269 OA
BRANCH  28  31
ATOM     31  C   UNL A   1      34.192  34.448  29.317  1.00  0.00     0.039 A 
ATOM     32  C   UNL A   1      34.041  33.682  30.472  1.00  0.00     0.014 A 
ATOM     33  C   UNL A   1      35.449  34.627  28.733  1.00  0.00     0.014 A 
ATOM     34  C   UNL A   1      35.154  33.042  31.009  1.00  0.00     0.010 A 
ATOM     35  C   UNL A   1      36.531  33.900  29.206  1.00  0.00     0.010 A 
ATOM     36  C   UNL A   1      36.401  33.119  30.362  1.00  0.00    -0.014 A 
BRANCH  36  37
ATOM     37  C   UNL A   1      37.586  32.429  30.922  1.00  0.00     0.031 A 
ATOM     38  C   UNL A   1      38.081  32.800  32.292  1.00  0.00     0.074 A 
ATOM     39  C   UNL A   1      38.214  31.481  30.200  1.00  0.00     0.049 A 
ATOM     40  N   UNL A   1      39.070  32.285  32.978  1.00  0.00    -0.248 NA
ATOM     41  C   UNL A   1      37.393  33.907  32.977  1.00  0.00     0.031 C 
ATOM     42  C   UNL A   1      37.856  31.080  28.839  1.00  0.00     0.029 A 
ATOM     43  N   UNL A   1      39.278  30.671  30.516  1.00  0.00    -0.354 N 
ATOM     44  C   UNL A   1      39.111  33.000  34.167  1.00  0.00     0.074 A 
ATOM     45  C   UNL A   1      38.113  34.040  34.079  1.00  0.00     0.031 C 
ATOM     46  C   UNL A   1      38.647  30.064  28.458  1.00  0.00     0.029 A 
ATOM     47  C   UNL A   1      39.592  29.766  29.532  1.00  0.00     0.049 A 
ATOM     48  H   UNL A   1      39.768  30.735  31.367  1.00  0.00     0.167 HD
ATOM     49  C   UNL A   1      39.878  32.775  35.257  1.00  0.00     0.037 A 
ATOM     50  C   UNL A   1      40.529  28.798  29.506  1.00  0.00     0.037 A 
ATOM     51  C   UNL A   1      40.847  31.721  35.349  1.00  0.00     0.049 A 
ATOM     52  C   UNL A   1      41.401  28.596  30.718  1.00  0.00     0.074 A 
ATOM     53  C   UNL A   1      41.640  31.376  36.427  1.00  0.00     0.029 A 
ATOM     54  N   UNL A   1      41.157  30.843  34.321  1.00  0.00    -0.354 N 
ATOM     55  N   UNL A   1      41.367  29.216  31.873  1.00  0.00    -0.248 NA
ATOM     56  C   UNL A   1      42.442  27.561  30.626  1.00  0.00     0.031 C 
ATOM     57  C   UNL A   1      42.473  30.326  36.033  1.00  0.00     0.029 A 
ATOM     58  C   UNL A   1      42.159  29.980  34.728  1.00  0.00     0.049 A 
ATOM     59  H   UNL A   1      40.728  30.834  33.435  1.00  0.00     0.167 HD
ATOM     60  C   UNL A   1      42.362  28.638  32.649  1.00  0.00     0.074 A 
ATOM     61  C   UNL A   1      42.970  27.601  31.842  1.00  0.00     0.031 C 
ATOM     62  C   UNL A   1      42.744  28.946  33.912  1.00  0.00     0.037 A 
BRANCH  49  63
ATOM     63  C   UNL A   1      39.678  33.665  36.448  1.00  0.00     0.064 A 
ATOM     64  C   UNL A   1      40.279  34.930  36.523  1.00  0.00     0.173 A 
ATOM     65  C   UNL A   1      38.826  33.278  37.493  1.00  0.00     0.173 A 
ATOM     66  F   UNL A   1      41.113  35.341  35.556  1.00  0.00    -0.203 F 
ATOM     67  C   UNL A   1      40.051  35.768  37.611  1.00  0.00     0.198 A 
ATOM     68  C   UNL A   1      38.574  34.132  38.563  1.00  0.00     0.198 A 
ATOM     69  F   UNL A   1      38.224  32.080  37.469  1.00  0.00    -0.203 F 
ATOM     70  F   UNL A   1      40.669  36.955  37.681  1.00  0.00    -0.200 F 
ATOM     71  C   UNL A   1      39.190  35.374  38.624  1.00  0.00     0.200 A 
ATOM     72  F   UNL A   1      37.730  33.756  39.534  1.00  0.00    -0.200 F 
ATOM     73  F   UNL A   1      38.956  36.190  39.660  1.00  0.00    -0.200 F 
ENDBRANCH  49  63
BRANCH  50  74
ATOM     74  C   UNL A   1      40.660  27.922  28.311  1.00  0.00     0.064 A 
ATOM     75  C   UNL A   1      41.444  28.310  27.216  1.00  0.00     0.173 A 
ATOM     76  C   UNL A   1      40.020  26.675  28.243  1.00  0.00     0.173 A 
ATOM     77  F   UNL A   1      42.061  29.502  27.224  1.00  0.00    -0.203 F 
ATOM     78  C   UNL A   1      41.574  27.493  26.094  1.00  0.00     0.198 A 
ATOM     79  C   UNL A   1      40.175  25.845  27.133  1.00  0.00     0.198 A 
ATOM     80  F   UNL A   1      39.259  26.253  29.263  1.00  0.00    -0.203 F 
ATOM     81  F   UNL A   1      42.298  27.907  25.046  1.00  0.00    -0.200 F 
ATOM     82  C   UNL A   1      40.946  26.257  26.057  1.00  0.00     0.200 A 
ATOM     83  F   UNL A   1      39.579  24.646  27.109  1.00  0.00    -0.200 F 
ATOM     84  F   UNL A   1      41.080  25.467  24.984  1.00  0.00    -0.200 F 
ENDBRANCH  50  74
BRANCH  62  85
ATOM     85  C   UNL A   1      43.872  28.165  34.518  1.00  0.00     0.064 A 
ATOM     86  C   UNL A   1      45.191  28.641  34.470  1.00  0.00     0.173 A 
ATOM     87  C   UNL A   1      43.615  27.008  35.269  1.00  0.00     0.173 A 
ATOM     88  F   UNL A   1      45.487  29.737  33.756  1.00  0.00    -0.203 F 
ATOM     89  C   UNL A   1      46.210  27.988  35.156  1.00  0.00     0.198 A 
ATOM     90  C   UNL A   1      44.632  26.376  35.980  1.00  0.00     0.198 A 
ATOM     91  F   UNL A   1      42.368  26.521  35.357  1.00  0.00    -0.203 F 
ATOM     92  F   UNL A   1      47.466  28.451  35.084  1.00  0.00    -0.200 F 
ATOM     93  C   UNL A   1      45.927  26.867  35.922  1.00  0.00     0.200 A 
ATOM     94  F   UNL A   1      44.353  25.308  36.739  1.00  0.00    -0.200 F 
ATOM     95  F   UNL A   1      46.904  26.262  36.613  1.00  0.00    -0.200 F 
ENDBRANCH  62  85
ENDBRANCH  36  37
ENDBRANCH  28  31
ENDBRANCH  26  27
ENDBRANCH  25  26
ENDBRANCH   1  25
TORSDOF 16
ENDMDL
MODEL 2
REMARK VINA RESULT:     -12.0      5.248     10.577
REMARK SMILES N#Cc1cc2c(nc1N(CC(=O)NCCCCNC(=O)c1ccc(-c3c4nc(c(-c5c(F)c(F)c(F)c(F)c5F)c5ccc([nH]5)c(-c5c(F)c(F)c(F)c(F)c5F)c5nc(c(-c6c(F)c(F)c(F)c(F)c6F)c6ccc3[nH]6)C=C5)C=C4)cc1)CC(F)(F)F)CCC2
REMARK SMILES IDX 15 1 14 2 13 3 11 4 12 5 10 7 9 8 8 9 3 10 4 11 5 12 7 13
REMARK SMILES IDX 6 14 91 15 89 16 90 17 2 18 1 19 84 20 85 21 86 22 87 23
REMARK SMILES IDX 88 24 16 25 17 26 18 27 19 28 20 30 21 31 22 32 83 33 23 34
REMARK SMILES IDX 82 35 24 36 25 37 26 38 76 39 27 40 81 41 75 42 77 43 28 44
REMARK SMILES IDX 80 45 74 46 73 47 29 49 61 50 41 51 60 52 42 53 45 54 59 55
REMARK SMILES IDX 78 56 43 57 44 58 58 60 79 61 46 62 30 63 31 64 39 65 32 66
REMARK SMILES IDX 33 67 37 68 40 69 34 70 35 71 38 72 36 73 62 74 63 75 71 76
REMARK SMILES IDX 64 77 65 78 69 79 72 80 66 81 67 82 70 83 68 84 47 85 48 86
REMARK SMILES IDX 56 87 49 88 50 89 54 90 57 91 51 92 52 93 55 94 53 95
REMARK H PARENT 13 6 18 29 77 48 45 59
REMARK Flexibility Score: inf
ROOT
ATOM      1  C   UNL A   1      37.301  20.884  24.611  1.00  0.00     0.023 C 
ENDROOT
BRANCH   1   2
ATOM      2  C   UNL A   1      37.409  22.105  25.522  1.00  0.00     0.116 C 
BRANCH   2   3
ATOM      3  N   UNL A   1      36.279  22.211  26.422  1.00  0.00    -0.355 N 
ATOM      4  C   UNL A   1      35.306  23.169  26.439  1.00  0.00     0.239 C 
ATOM      5  O   UNL A   1      34.448  23.121  27.324  1.00  0.00    -0.273 OA
ATOM      6  H   UNL A   1      36.203  21.505  27.105  1.00  0.00     0.163 HD
BRANCH   4   7
ATOM      7  C   UNL A   1      35.298  24.282  25.382  1.00  0.00     0.218 C 
BRANCH   7   8
ATOM      8  N   UNL A   1      33.922  24.655  24.949  1.00  0.00    -0.337 N 
BRANCH   8   9
ATOM      9  C   UNL A   1      33.595  26.003  24.903  1.00  0.00     0.147 A 
ATOM     10  C   UNL A   1      33.260  26.761  23.757  1.00  0.00     0.095 A 
ATOM     11  C   UNL A   1      32.797  28.090  23.882  1.00  0.00     0.029 A 
ATOM     12  C   UNL A   1      32.750  28.661  25.130  1.00  0.00    -0.025 A 
ATOM     13  N   UNL A   1      33.572  26.630  26.115  1.00  0.00    -0.234 NA
ATOM     14  C   UNL A   1      33.171  27.909  26.200  1.00  0.00     0.046 A 
ATOM     15  C   UNL A   1      32.276  30.007  25.559  1.00  0.00     0.038 C 
ATOM     16  C   UNL A   1      33.063  28.685  27.483  1.00  0.00     0.057 C 
ATOM     17  C   UNL A   1      32.934  30.119  26.943  1.00  0.00     0.011 C 
BRANCH  10  18
ATOM     18  C   UNL A   1      33.398  26.292  22.412  1.00  0.00     0.103 C 
ATOM     19  N   UNL A   1      33.486  25.906  21.323  1.00  0.00    -0.192 NA
ENDBRANCH  10  18
ENDBRANCH   8   9
BRANCH   8  20
ATOM     20  C   UNL A   1      33.063  23.507  24.534  1.00  0.00     0.234 C 
BRANCH  20  21
ATOM     21  C   UNL A   1      33.583  22.611  23.391  1.00  0.00     0.405 C 
ATOM     22  F   UNL A   1      34.605  23.174  22.709  1.00  0.00    -0.169 F 
ATOM     23  F   UNL A   1      34.029  21.431  23.880  1.00  0.00    -0.169 F 
ATOM     24  F   UNL A   1      32.614  22.324  22.493  1.00  0.00    -0.169 F 
ENDBRANCH  20  21
ENDBRANCH   8  20
ENDBRANCH   7   8
ENDBRANCH   4   7
ENDBRANCH   2   3
ENDBRANCH   1   2
BRANCH   1  25
ATOM     25  C   UNL A   1      38.167  19.708  25.055  1.00  0.00     0.023 C 
BRANCH  25  26
ATOM     26  C   UNL A   1      39.407  20.127  25.830  1.00  0.00     0.116 C 
BRANCH  26  27
ATOM     27  N   UNL A   1      40.422  19.080  25.861  1.00  0.00    -0.352 N 
ATOM     28  C   UNL A   1      41.770  19.206  26.084  1.00  0.00     0.251 C 
ATOM     29  H   UNL A   1      40.097  18.165  25.701  1.00  0.00     0.163 HD
ATOM     30  O   UNL A   1      42.533  18.263  25.909  1.00  0.00    -0.269 OA
BRANCH  28  31
ATOM     31  C   UNL A   1      42.284  20.518  26.513  1.00  0.00     0.039 A 
ATOM     32  C   UNL A   1      42.744  21.416  25.551  1.00  0.00     0.014 A 
ATOM     33  C   UNL A   1      42.221  20.880  27.862  1.00  0.00     0.014 A 
ATOM     34  C   UNL A   1      43.089  22.707  25.942  1.00  0.00     0.010 A 
ATOM     35  C   UNL A   1      42.458  22.196  28.228  1.00  0.00     0.010 A 
ATOM     36  C   UNL A   1      42.918  23.117  27.276  1.00  0.00    -0.014 A 
BRANCH  36  37
ATOM     37  C   UNL A   1      43.270  24.494  27.695  1.00  0.00     0.031 A 
ATOM     38  C   UNL A   1      44.713  24.911  27.729  1.00  0.00     0.074 A 
ATOM     39  C   UNL A   1      42.298  25.358  28.046  1.00  0.00     0.049 A 
ATOM     40  N   UNL A   1      45.226  26.080  28.021  1.00  0.00    -0.248 NA
ATOM     41  C   UNL A   1      45.717  23.881  27.416  1.00  0.00     0.031 C 
ATOM     42  C   UNL A   1      40.869  25.045  28.103  1.00  0.00     0.029 A 
ATOM     43  N   UNL A   1      42.362  26.682  28.406  1.00  0.00    -0.354 N 
ATOM     44  C   UNL A   1      46.600  25.919  27.919  1.00  0.00     0.074 A 
ATOM     45  C   UNL A   1      46.851  24.528  27.627  1.00  0.00     0.031 C 
ATOM     46  C   UNL A   1      40.189  26.158  28.422  1.00  0.00     0.029 A 
ATOM     47  C   UNL A   1      41.133  27.253  28.626  1.00  0.00     0.049 A 
ATOM     48  H   UNL A   1      43.210  27.173  28.498  1.00  0.00     0.167 HD
ATOM     49  C   UNL A   1      47.565  26.862  28.008  1.00  0.00     0.037 A 
ATOM     50  C   UNL A   1      40.807  28.521  28.946  1.00  0.00     0.037 A 
ATOM     51  C   UNL A   1      47.307  28.249  28.269  1.00  0.00     0.049 A 
ATOM     52  C   UNL A   1      41.906  29.543  29.083  1.00  0.00     0.074 A 
ATOM     53  C   UNL A   1      48.210  29.294  28.329  1.00  0.00     0.029 A 
ATOM     54  N   UNL A   1      46.051  28.784  28.515  1.00  0.00    -0.354 N 
ATOM     55  N   UNL A   1      43.195  29.401  28.891  1.00  0.00    -0.248 NA
ATOM     56  C   UNL A   1      41.507  30.902  29.481  1.00  0.00     0.031 C 
ATOM     57  C   UNL A   1      47.509  30.452  28.670  1.00  0.00     0.029 A 
ATOM     58  C   UNL A   1      46.161  30.140  28.767  1.00  0.00     0.049 A 
ATOM     59  H   UNL A   1      45.208  28.276  28.511  1.00  0.00     0.167 HD
ATOM     60  C   UNL A   1      43.758  30.649  29.124  1.00  0.00     0.074 A 
ATOM     61  C   UNL A   1      42.668  31.543  29.451  1.00  0.00     0.031 C 
ATOM     62  C   UNL A   1      45.061  31.016  29.080  1.00  0.00     0.037 A 
BRANCH  49  63
ATOM     63  C   UNL A   1      48.986  26.430  27.792  1.00  0.00     0.064 A 
ATOM     64  C   UNL A   1      49.515  26.283  26.500  1.00  0.00     0.173 A 
ATOM     65  C   UNL A   1      49.844  26.226  28.882  1.00  0.00     0.173 A 
ATOM     66  F   UNL A   1      48.732  26.453  25.425  1.00  0.00    -0.203 F 
ATOM     67  C   UNL A   1      50.847  25.927  26.309  1.00  0.00     0.198 A 
ATOM     68  C   UNL A   1      51.184  25.903  28.686  1.00  0.00     0.198 A 
ATOM     69  F   UNL A   1      49.389  26.356  30.137  1.00  0.00    -0.203 F 
ATOM     70  F   UNL A   1      51.320  25.751  25.068  1.00  0.00    -0.200 F 
ATOM     71  C   UNL A   1      51.684  25.748  27.401  1.00  0.00     0.200 A 
ATOM     72  F   UNL A   1      51.995  25.746  29.742  1.00  0.00    -0.200 F 
ATOM     73  F   UNL A   1      52.971  25.426  27.215  1.00  0.00    -0.200 F 
ENDBRANCH  49  63
BRANCH  50  74
ATOM     74  C   UNL A   1      39.379  28.901  29.115  1.00  0.00     0.064 A 
ATOM     75  C   UNL A   1      38.752  28.808  30.365  1.00  0.00     0.173 A 
ATOM     76  C   UNL A   1      38.615  29.379  28.039  1.00  0.00     0.173 A 
ATOM     77  F   UNL A   1      39.433  28.339  31.422  1.00  0.00    -0.203 F 
ATOM     78  C   UNL A   1      37.415  29.166  30.531  1.00  0.00     0.198 A 
ATOM     79  C   UNL A   1      37.287  29.765  28.213  1.00  0.00     0.198 A 
ATOM     80  F   UNL A   1      39.165  29.490  26.821  1.00  0.00    -0.203 F 
ATOM     81  F   UNL A   1      36.831  29.029  31.729  1.00  0.00    -0.200 F 
ATOM     82  C   UNL A   1      36.686  29.651  29.457  1.00  0.00     0.200 A 
ATOM     83  F   UNL A   1      36.592  30.248  27.175  1.00  0.00    -0.200 F 
ATOM     84  F   UNL A   1      35.404  30.006  29.619  1.00  0.00    -0.200 F 
ENDBRANCH  50  74
BRANCH  62  85
ATOM     85  C   UNL A   1      45.402  32.443  29.394  1.00  0.00     0.064 A 
ATOM     86  C   UNL A   1      45.808  32.825  30.681  1.00  0.00     0.173 A 
ATOM     87  C   UNL A   1      45.459  33.403  28.372  1.00  0.00     0.173 A 
ATOM     88  F   UNL A   1      45.761  31.946  31.693  1.00  0.00    -0.203 F 
ATOM     89  C   UNL A   1      46.260  34.117  30.932  1.00  0.00     0.198 A 
ATOM     90  C   UNL A   1      45.943  34.685  28.620  1.00  0.00     0.198 A 
ATOM     91  F   UNL A   1      45.094  33.083  27.121  1.00  0.00    -0.203 F 
ATOM     92  F   UNL A   1      46.628  34.466  32.173  1.00  0.00    -0.200 F 
ATOM     93  C   UNL A   1      46.343  35.039  29.900  1.00  0.00     0.200 A 
ATOM     94  F   UNL A   1      46.045  35.567  27.617  1.00  0.00    -0.200 F 
ATOM     95  F   UNL A   1      46.815  36.271  30.136  1.00  0.00    -0.200 F 
ENDBRANCH  62  85
ENDBRANCH  36  37
ENDBRANCH  28  31
ENDBRANCH  26  27
ENDBRANCH  25  26
ENDBRANCH   1  25
TORSDOF 16
ENDMDL
MODEL 3
REMARK VINA RESULT:     -12.0      0.516      7.340
REMARK SMILES N#Cc1cc2c(nc1N(CC(=O)NCCCCNC(=O)c1ccc(-c3c4nc(c(-c5c(F)c(F)c(F)c(F)c5F)c5ccc([nH]5)c(-c5c(F)c(F)c(F)c(F)c5F)c5nc(c(-c6c(F)c(F)c(F)c(F)c6F)c6ccc3[nH]6)C=C5)C=C4)cc1)CC(F)(F)F)CCC2
REMARK SMILES IDX 15 1 14 2 13 3 11 4 12 5 10 7 9 8 8 9 3 10 4 11 5 12 7 13
REMARK SMILES IDX 6 14 91 15 89 16 90 17 2 18 1 19 84 20 85 21 86 22 87 23
REMARK SMILES IDX 88 24 16 25 17 26 18 27 19 28 20 30 21 31 22 32 83 33 23 34
REMARK SMILES IDX 82 35 24 36 25 37 26 38 76 39 27 40 81 41 75 42 77 43 28 44
REMARK SMILES IDX 80 45 74 46 73 47 29 49 61 50 41 51 60 52 42 53 45 54 59 55
REMARK SMILES IDX 78 56 43 57 44 58 58 60 79 61 46 62 30 63 31 64 39 65 32 66
REMARK SMILES IDX 33 67 37 68 40 69 34 70 35 71 38 72 36 73 62 74 63 75 71 76
REMARK SMILES IDX 64 77 65 78 69 79 72 80 66 81 67 82 70 83 68 84 47 85 48 86
REMARK SMILES IDX 56 87 49 88 50 89 54 90 57 91 51 92 52 93 55 94 53 95
REMARK H PARENT 13 6 18 29 77 48 45 59
REMARK Flexibility Score: inf
ROOT
ATOM      1  C   UNL A   1      31.612  30.712  26.366  1.00  0.00     0.023 C 
ENDROOT
BRANCH   1   2
ATOM      2  C   UNL A   1      33.035  30.214  26.603  1.00  0.00     0.116 C 
BRANCH   2   3
ATOM      3  N   UNL A   1      33.626  29.669  25.399  1.00  0.00    -0.355 N 
ATOM      4  C   UNL A   1      33.666  28.364  24.998  1.00  0.00     0.239 C 
ATOM      5  O   UNL A   1      34.268  28.085  23.959  1.00  0.00    -0.273 OA
ATOM      6  H   UNL A   1      34.052  30.320  24.794  1.00  0.00     0.163 HD
BRANCH   4   7
ATOM      7  C   UNL A   1      32.983  27.276  25.839  1.00  0.00     0.218 C 
BRANCH   7   8
ATOM      8  N   UNL A   1      32.761  26.015  25.076  1.00  0.00    -0.337 N 
BRANCH   8   9
ATOM      9  C   UNL A   1      33.487  24.892  25.448  1.00  0.00     0.147 A 
ATOM     10  C   UNL A   1      33.009  23.759  26.147  1.00  0.00     0.095 A 
ATOM     11  C   UNL A   1      33.827  22.620  26.320  1.00  0.00     0.029 A 
ATOM     12  C   UNL A   1      35.122  22.659  25.863  1.00  0.00    -0.025 A 
ATOM     13  N   UNL A   1      34.794  24.897  25.052  1.00  0.00    -0.234 NA
ATOM     14  C   UNL A   1      35.563  23.817  25.270  1.00  0.00     0.046 A 
ATOM     15  C   UNL A   1      36.181  21.610  25.872  1.00  0.00     0.038 C 
ATOM     16  C   UNL A   1      36.998  23.693  24.840  1.00  0.00     0.057 C 
ATOM     17  C   UNL A   1      37.439  22.467  25.656  1.00  0.00     0.011 C 
BRANCH  10  18
ATOM     18  C   UNL A   1      31.721  23.678  26.765  1.00  0.00     0.103 C 
ATOM     19  N   UNL A   1      30.673  23.636  27.257  1.00  0.00    -0.192 NA
ENDBRANCH  10  18
ENDBRANCH   8   9
BRANCH   8  20
ATOM     20  C   UNL A   1      31.702  26.094  24.028  1.00  0.00     0.234 C 
BRANCH  20  21
ATOM     21  C   UNL A   1      30.330  26.659  24.450  1.00  0.00     0.405 C 
ATOM     22  F   UNL A   1      30.260  28.004  24.336  1.00  0.00    -0.169 F 
ATOM     23  F   UNL A   1      29.346  26.140  23.680  1.00  0.00    -0.169 F 
ATOM     24  F   UNL A   1      30.029  26.352  25.732  1.00  0.00    -0.169 F 
ENDBRANCH  20  21
ENDBRANCH   8  20
ENDBRANCH   7   8
ENDBRANCH   4   7
ENDBRANCH   2   3
ENDBRANCH   1   2
BRANCH   1  25
ATOM     25  C   UNL A   1      31.439  32.210  26.599  1.00  0.00     0.023 C 
BRANCH  25  26
ATOM     26  C   UNL A   1      32.580  32.837  27.385  1.00  0.00     0.116 C 
BRANCH  26  27
ATOM     27  N   UNL A   1      32.377  34.263  27.617  1.00  0.00    -0.352 N 
ATOM     28  C   UNL A   1      32.969  35.066  28.559  1.00  0.00     0.251 C 
ATOM     29  H   UNL A   1      31.732  34.706  27.020  1.00  0.00     0.163 HD
ATOM     30  O   UNL A   1      32.575  36.210  28.755  1.00  0.00    -0.269 OA
BRANCH  28  31
ATOM     31  C   UNL A   1      34.075  34.506  29.354  1.00  0.00     0.039 A 
ATOM     32  C   UNL A   1      33.788  33.843  30.546  1.00  0.00     0.014 A 
ATOM     33  C   UNL A   1      35.382  34.567  28.862  1.00  0.00     0.014 A 
ATOM     34  C   UNL A   1      34.816  33.186  31.218  1.00  0.00     0.010 A 
ATOM     35  C   UNL A   1      36.378  33.821  29.474  1.00  0.00     0.010 A 
ATOM     36  C   UNL A   1      36.110  33.143  30.671  1.00  0.00    -0.014 A 
BRANCH  36  37
ATOM     37  C   UNL A   1      37.205  32.434  31.375  1.00  0.00     0.031 A 
ATOM     38  C   UNL A   1      37.893  31.280  30.703  1.00  0.00     0.074 A 
ATOM     39  C   UNL A   1      37.570  32.824  32.612  1.00  0.00     0.049 A 
ATOM     40  N   UNL A   1      38.900  30.560  31.129  1.00  0.00    -0.248 NA
ATOM     41  C   UNL A   1      37.373  30.862  29.390  1.00  0.00     0.031 C 
ATOM     42  C   UNL A   1      36.937  33.895  33.382  1.00  0.00     0.029 A 
ATOM     43  N   UNL A   1      38.576  32.375  33.432  1.00  0.00    -0.354 N 
ATOM     44  C   UNL A   1      39.131  29.618  30.135  1.00  0.00     0.074 A 
ATOM     45  C   UNL A   1      38.111  29.795  29.129  1.00  0.00     0.031 C 
ATOM     46  C   UNL A   1      37.601  34.057  34.538  1.00  0.00     0.029 A 
ATOM     47  C   UNL A   1      38.685  33.080  34.606  1.00  0.00     0.049 A 
ATOM     48  H   UNL A   1      39.163  31.620  33.201  1.00  0.00     0.167 HD
ATOM     49  C   UNL A   1      40.137  28.720  30.046  1.00  0.00     0.037 A 
ATOM     50  C   UNL A   1      39.567  32.957  35.617  1.00  0.00     0.037 A 
ATOM     51  C   UNL A   1      41.165  28.570  31.036  1.00  0.00     0.049 A 
ATOM     52  C   UNL A   1      40.654  31.918  35.513  1.00  0.00     0.074 A 
ATOM     53  C   UNL A   1      42.258  27.724  31.017  1.00  0.00     0.029 A 
ATOM     54  N   UNL A   1      41.224  29.281  32.225  1.00  0.00    -0.354 N 
ATOM     55  N   UNL A   1      40.919  31.096  34.526  1.00  0.00    -0.248 NA
ATOM     56  C   UNL A   1      41.563  31.787  36.661  1.00  0.00     0.031 C 
ATOM     57  C   UNL A   1      42.948  27.881  32.221  1.00  0.00     0.029 A 
ATOM     58  C   UNL A   1      42.316  28.865  32.967  1.00  0.00     0.049 A 
ATOM     59  H   UNL A   1      40.585  29.978  32.501  1.00  0.00     0.167 HD
ATOM     60  C   UNL A   1      42.032  30.367  34.923  1.00  0.00     0.074 A 
ATOM     61  C   UNL A   1      42.407  30.857  36.232  1.00  0.00     0.031 C 
ATOM     62  C   UNL A   1      42.678  29.374  34.265  1.00  0.00     0.037 A 
BRANCH  49  63
ATOM     63  C   UNL A   1      40.193  27.852  28.824  1.00  0.00     0.064 A 
ATOM     64  C   UNL A   1      40.919  28.240  27.687  1.00  0.00     0.173 A 
ATOM     65  C   UNL A   1      39.572  26.595  28.811  1.00  0.00     0.173 A 
ATOM     66  F   UNL A   1      41.519  29.438  27.643  1.00  0.00    -0.203 F 
ATOM     67  C   UNL A   1      41.004  27.408  26.574  1.00  0.00     0.198 A 
ATOM     68  C   UNL A   1      39.687  25.752  27.709  1.00  0.00     0.198 A 
ATOM     69  F   UNL A   1      38.868  26.176  29.873  1.00  0.00    -0.203 F 
ATOM     70  F   UNL A   1      41.667  27.816  25.484  1.00  0.00    -0.200 F 
ATOM     71  C   UNL A   1      40.398  26.161  26.590  1.00  0.00     0.200 A 
ATOM     72  F   UNL A   1      39.114  24.540  27.732  1.00  0.00    -0.200 F 
ATOM     73  F   UNL A   1      40.498  25.353  25.526  1.00  0.00    -0.200 F 
ENDBRANCH  49  63
BRANCH  50  74
ATOM     74  C   UNL A   1      39.485  33.867  36.790  1.00  0.00     0.064 A 
ATOM     75  C   UNL A   1      38.762  33.504  37.935  1.00  0.00     0.173 A 
ATOM     76  C   UNL A   1      40.138  35.110  36.801  1.00  0.00     0.173 A 
ATOM     77  F   UNL A   1      38.105  32.335  37.968  1.00  0.00    -0.203 F 
ATOM     78  C   UNL A   1      38.684  34.351  39.040  1.00  0.00     0.198 A 
ATOM     79  C   UNL A   1      40.084  35.943  37.918  1.00  0.00     0.198 A 
ATOM     80  F   UNL A   1      40.845  35.507  35.734  1.00  0.00    -0.203 F 
ATOM     81  F   UNL A   1      37.954  33.994  40.104  1.00  0.00    -0.200 F 
ATOM     82  C   UNL A   1      39.351  35.566  39.033  1.00  0.00     0.200 A 
ATOM     83  F   UNL A   1      40.743  37.109  37.912  1.00  0.00    -0.200 F 
ATOM     84  F   UNL A   1      39.285  36.375  40.099  1.00  0.00    -0.200 F 
ENDBRANCH  50  74
BRANCH  62  85
ATOM     85  C   UNL A   1      43.859  28.736  34.934  1.00  0.00     0.064 A 
ATOM     86  C   UNL A   1      43.722  27.549  35.668  1.00  0.00     0.173 A 
ATOM     87  C   UNL A   1      45.153  29.237  34.726  1.00  0.00     0.173 A 
ATOM     88  F   UNL A   1      42.505  27.037  35.902  1.00  0.00    -0.203 F 
ATOM     89  C   UNL A   1      44.840  26.885  36.165  1.00  0.00     0.198 A 
ATOM     90  C   UNL A   1      46.270  28.553  35.197  1.00  0.00     0.198 A 
ATOM     91  F   UNL A   1      45.338  30.363  34.020  1.00  0.00    -0.203 F 
ATOM     92  F   UNL A   1      44.685  25.759  36.876  1.00  0.00    -0.200 F 
ATOM     93  C   UNL A   1      46.111  27.378  35.916  1.00  0.00     0.200 A 
ATOM     94  F   UNL A   1      47.499  29.018  34.935  1.00  0.00    -0.200 F 
ATOM     95  F   UNL A   1      47.188  26.715  36.363  1.00  0.00    -0.200 F 
ENDBRANCH  62  85
ENDBRANCH  36  37
ENDBRANCH  28  31
ENDBRANCH  26  27
ENDBRANCH  25  26
ENDBRANCH   1  25
TORSDOF 16
ENDMDL
