MODEL 1
REMARK VINA RESULT:     -12.4      0.000      0.000
REMARK SMILES Cc1n[nH]c(C(=O)N2CCC(CCC(=O)NCCCCNC(=O)c3ccc(-c4c5nc(c(-c6c(F)c(F)c(F)c(F)c6F)c6ccc([nH]6)c(-c6c(F)c(F)c(F)c(F)c6F)c6nc(c(-c7c(F)c(F)c(F)c(F)c7F)c7ccc4[nH]7)C=C6)C=C5)cc3)CC2)n1
REMARK SMILES IDX 18 1 17 2 16 3 14 4 15 5 13 7 12 8 11 9 6 10 7 11 8 12 9 13
REMARK SMILES IDX 88 14 10 15 87 16 5 17 1 18 2 19 3 20 89 21 4 22 19 24 20 25
REMARK SMILES IDX 21 26 22 27 23 29 24 30 25 31 86 32 26 33 85 34 27 35 28 36
REMARK SMILES IDX 29 37 79 38 30 39 84 40 78 41 80 42 31 43 83 44 77 45 76 46
REMARK SMILES IDX 32 48 64 49 44 50 63 51 45 52 48 53 62 54 81 55 46 56 47 57
REMARK SMILES IDX 61 59 82 60 49 61 33 62 34 63 42 64 35 65 36 66 40 67 43 68
REMARK SMILES IDX 37 69 38 70 41 71 39 72 65 73 66 74 74 75 67 76 68 77 72 78
REMARK SMILES IDX 75 79 69 80 70 81 73 82 71 83 50 84 51 85 59 86 52 87 53 88
REMARK SMILES IDX 57 89 60 90 54 91 55 92 58 93 56 94
REMARK H PARENT 16 6 4 23 21 28 80 47 48 58
REMARK Flexibility Score: inf
ROOT
ATOM      1  C   UNL A   1      40.493  21.422  26.865  1.00  0.00     0.023 C 
ENDROOT
BRANCH   1   2
ATOM      2  C   UNL A   1      39.466  22.184  26.000  1.00  0.00     0.116 C 
BRANCH   2   3
ATOM      3  N   UNL A   1      38.313  21.357  25.692  1.00  0.00    -0.356 N 
ATOM      4  C   UNL A   1      37.200  21.583  24.937  1.00  0.00     0.220 C 
ATOM      5  O   UNL A   1      36.340  20.697  24.933  1.00  0.00    -0.275 OA
ATOM      6  H   UNL A   1      38.339  20.464  26.108  1.00  0.00     0.163 HD
BRANCH   4   7
ATOM      7  C   UNL A   1      37.014  22.832  24.077  1.00  0.00     0.100 C 
BRANCH   7   8
ATOM      8  C   UNL A   1      35.769  22.870  23.162  1.00  0.00     0.013 C 
BRANCH   8   9
ATOM      9  C   UNL A   1      34.682  23.812  23.679  1.00  0.00    -0.007 C 
ATOM     10  C   UNL A   1      31.231  26.043  24.866  1.00  0.00     0.291 C 
ATOM     11  O   UNL A   1      30.235  25.859  24.164  1.00  0.00    -0.265 OA
ATOM     12  N   UNL A   1      32.402  25.325  24.565  1.00  0.00    -0.336 N 
ATOM     13  C   UNL A   1      32.799  25.354  23.158  1.00  0.00     0.120 C 
ATOM     14  C   UNL A   1      33.272  24.685  25.558  1.00  0.00     0.120 C 
ATOM     15  C   UNL A   1      33.562  24.121  22.687  1.00  0.00     0.025 C 
ATOM     16  C   UNL A   1      34.036  23.457  25.023  1.00  0.00     0.025 C 
BRANCH  10  17
ATOM     17  C   UNL A   1      31.289  27.098  25.869  1.00  0.00     0.214 A 
ATOM     18  C   UNL A   1      32.576  30.148  27.142  1.00  0.00     0.092 C 
ATOM     19  C   UNL A   1      31.908  28.851  26.903  1.00  0.00     0.148 A 
ATOM     20  N   UNL A   1      31.335  28.123  27.871  1.00  0.00    -0.159 NA
ATOM     21  N   UNL A   1      31.834  28.286  25.657  1.00  0.00    -0.207 NA
ATOM     22  N   UNL A   1      30.990  27.020  27.193  1.00  0.00    -0.255 N 
ATOM     23  H   UNL A   1      30.566  26.236  27.611  1.00  0.00     0.192 HD
ENDBRANCH  10  17
ENDBRANCH   8   9
ENDBRANCH   7   8
ENDBRANCH   4   7
ENDBRANCH   2   3
ENDBRANCH   1   2
BRANCH   1  24
ATOM     24  C   UNL A   1      41.285  20.277  26.240  1.00  0.00     0.023 C 
BRANCH  24  25
ATOM     25  C   UNL A   1      42.560  19.928  26.987  1.00  0.00     0.116 C 
BRANCH  25  26
ATOM     26  N   UNL A   1      43.691  19.547  26.123  1.00  0.00    -0.352 N 
ATOM     27  C   UNL A   1      44.317  20.336  25.156  1.00  0.00     0.251 C 
ATOM     28  H   UNL A   1      44.045  18.636  26.241  1.00  0.00     0.163 HD
ATOM     29  O   UNL A   1      44.986  19.897  24.251  1.00  0.00    -0.269 OA
BRANCH  27  30
ATOM     30  C   UNL A   1      44.205  21.779  25.360  1.00  0.00     0.039 A 
ATOM     31  C   UNL A   1      43.412  22.621  24.580  1.00  0.00     0.014 A 
ATOM     32  C   UNL A   1      44.811  22.196  26.535  1.00  0.00     0.014 A 
ATOM     33  C   UNL A   1      43.193  23.907  25.061  1.00  0.00     0.010 A 
ATOM     34  C   UNL A   1      44.302  23.294  27.138  1.00  0.00     0.010 A 
ATOM     35  C   UNL A   1      43.636  24.217  26.358  1.00  0.00    -0.014 A 
BRANCH  35  36
ATOM     36  C   UNL A   1      43.399  25.484  27.009  1.00  0.00     0.031 A 
ATOM     37  C   UNL A   1      44.365  26.537  26.654  1.00  0.00     0.074 A 
ATOM     38  C   UNL A   1      42.287  25.720  27.738  1.00  0.00     0.049 A 
ATOM     39  N   UNL A   1      45.374  26.906  27.364  1.00  0.00    -0.248 NA
ATOM     40  C   UNL A   1      44.334  27.114  25.305  1.00  0.00     0.031 C 
ATOM     41  C   UNL A   1      41.090  24.888  27.951  1.00  0.00     0.029 A 
ATOM     42  N   UNL A   1      41.992  26.838  28.444  1.00  0.00    -0.354 N 
ATOM     43  C   UNL A   1      45.988  27.924  26.654  1.00  0.00     0.074 A 
ATOM     44  C   UNL A   1      45.433  27.874  25.325  1.00  0.00     0.031 C 
ATOM     45  C   UNL A   1      40.128  25.611  28.567  1.00  0.00     0.029 A 
ATOM     46  C   UNL A   1      40.707  26.877  28.965  1.00  0.00     0.049 A 
ATOM     47  H   UNL A   1      42.640  27.566  28.577  1.00  0.00     0.167 HD
ATOM     48  C   UNL A   1      46.712  28.869  27.315  1.00  0.00     0.037 A 
ATOM     49  C   UNL A   1      40.179  27.881  29.704  1.00  0.00     0.037 A 
ATOM     50  C   UNL A   1      46.986  28.446  28.671  1.00  0.00     0.049 A 
ATOM     51  C   UNL A   1      41.329  28.611  30.302  1.00  0.00     0.074 A 
ATOM     52  C   UNL A   1      47.676  27.387  29.232  1.00  0.00     0.029 A 
ATOM     53  N   UNL A   1      46.155  28.911  29.664  1.00  0.00    -0.354 N 
ATOM     54  N   UNL A   1      42.130  28.076  31.185  1.00  0.00    -0.248 NA
ATOM     55  C   UNL A   1      41.890  29.718  29.539  1.00  0.00     0.031 C 
ATOM     56  C   UNL A   1      46.874  26.969  30.339  1.00  0.00     0.029 A 
ATOM     57  C   UNL A   1      45.788  27.840  30.442  1.00  0.00     0.049 A 
ATOM     58  H   UNL A   1      45.872  29.846  29.794  1.00  0.00     0.167 HD
ATOM     59  C   UNL A   1      43.403  28.482  30.806  1.00  0.00     0.074 A 
ATOM     60  C   UNL A   1      43.185  29.544  29.823  1.00  0.00     0.031 C 
ATOM     61  C   UNL A   1      44.505  27.728  31.100  1.00  0.00     0.037 A 
BRANCH  48  62
ATOM     62  C   UNL A   1      46.828  30.308  26.892  1.00  0.00     0.064 A 
ATOM     63  C   UNL A   1      48.093  30.926  26.936  1.00  0.00     0.173 A 
ATOM     64  C   UNL A   1      45.728  31.180  26.745  1.00  0.00     0.173 A 
ATOM     65  F   UNL A   1      49.207  30.190  27.076  1.00  0.00    -0.203 F 
ATOM     66  C   UNL A   1      48.234  32.314  26.936  1.00  0.00     0.198 A 
ATOM     67  C   UNL A   1      45.877  32.563  26.694  1.00  0.00     0.198 A 
ATOM     68  F   UNL A   1      44.462  30.746  26.765  1.00  0.00    -0.203 F 
ATOM     69  F   UNL A   1      49.446  32.859  27.117  1.00  0.00    -0.200 F 
ATOM     70  C   UNL A   1      47.126  33.132  26.826  1.00  0.00     0.200 A 
ATOM     71  F   UNL A   1      44.787  33.339  26.605  1.00  0.00    -0.200 F 
ATOM     72  F   UNL A   1      47.250  34.463  26.897  1.00  0.00    -0.200 F 
ENDBRANCH  48  62
BRANCH  49  73
ATOM     73  C   UNL A   1      38.816  28.449  29.594  1.00  0.00     0.064 A 
ATOM     74  C   UNL A   1      38.036  28.688  30.735  1.00  0.00     0.173 A 
ATOM     75  C   UNL A   1      38.366  29.032  28.392  1.00  0.00     0.173 A 
ATOM     76  F   UNL A   1      38.422  28.205  31.926  1.00  0.00    -0.203 F 
ATOM     77  C   UNL A   1      36.889  29.487  30.684  1.00  0.00     0.198 A 
ATOM     78  C   UNL A   1      37.222  29.828  28.342  1.00  0.00     0.198 A 
ATOM     79  F   UNL A   1      39.082  28.918  27.264  1.00  0.00    -0.203 F 
ATOM     80  F   UNL A   1      36.201  29.743  31.805  1.00  0.00    -0.200 F 
ATOM     81  C   UNL A   1      36.490  30.066  29.490  1.00  0.00     0.200 A 
ATOM     82  F   UNL A   1      36.870  30.415  27.189  1.00  0.00    -0.200 F 
ATOM     83  F   UNL A   1      35.428  30.884  29.453  1.00  0.00    -0.200 F 
ENDBRANCH  49  73
BRANCH  61  84
ATOM     84  C   UNL A   1      44.318  26.556  32.030  1.00  0.00     0.064 A 
ATOM     85  C   UNL A   1      44.175  25.224  31.600  1.00  0.00     0.173 A 
ATOM     86  C   UNL A   1      44.429  26.771  33.408  1.00  0.00     0.173 A 
ATOM     87  F   UNL A   1      44.156  24.919  30.299  1.00  0.00    -0.203 F 
ATOM     88  C   UNL A   1      44.108  24.166  32.508  1.00  0.00     0.198 A 
ATOM     89  C   UNL A   1      44.392  25.711  34.313  1.00  0.00     0.198 A 
ATOM     90  F   UNL A   1      44.623  28.013  33.878  1.00  0.00    -0.203 F 
ATOM     91  F   UNL A   1      43.965  22.908  32.066  1.00  0.00    -0.200 F 
ATOM     92  C   UNL A   1      44.222  24.412  33.864  1.00  0.00     0.200 A 
ATOM     93  F   UNL A   1      44.551  25.950  35.622  1.00  0.00    -0.200 F 
ATOM     94  F   UNL A   1      44.195  23.395  34.738  1.00  0.00    -0.200 F 
ENDBRANCH  61  84
ENDBRANCH  35  36
ENDBRANCH  27  30
ENDBRANCH  25  26
ENDBRANCH  24  25
ENDBRANCH   1  24
TORSDOF 14
ENDMDL
MODEL 2
REMARK VINA RESULT:     -12.4      1.211      1.719
REMARK SMILES Cc1n[nH]c(C(=O)N2CCC(CCC(=O)NCCCCNC(=O)c3ccc(-c4c5nc(c(-c6c(F)c(F)c(F)c(F)c6F)c6ccc([nH]6)c(-c6c(F)c(F)c(F)c(F)c6F)c6nc(c(-c7c(F)c(F)c(F)c(F)c7F)c7ccc4[nH]7)C=C6)C=C5)cc3)CC2)n1
REMARK SMILES IDX 18 1 17 2 16 3 14 4 15 5 13 7 12 8 11 9 6 10 7 11 8 12 9 13
REMARK SMILES IDX 88 14 10 15 87 16 5 17 1 18 2 19 3 20 89 21 4 22 19 24 20 25
REMARK SMILES IDX 21 26 22 27 23 29 24 30 25 31 86 32 26 33 85 34 27 35 28 36
REMARK SMILES IDX 29 37 79 38 30 39 84 40 78 41 80 42 31 43 83 44 77 45 76 46
REMARK SMILES IDX 32 48 64 49 44 50 63 51 45 52 48 53 62 54 81 55 46 56 47 57
REMARK SMILES IDX 61 59 82 60 49 61 33 62 34 63 42 64 35 65 36 66 40 67 43 68
REMARK SMILES IDX 37 69 38 70 41 71 39 72 65 73 66 74 74 75 67 76 68 77 72 78
REMARK SMILES IDX 75 79 69 80 70 81 73 82 71 83 50 84 51 85 59 86 52 87 53 88
REMARK SMILES IDX 57 89 60 90 54 91 55 92 58 93 56 94
REMARK H PARENT 16 6 4 23 21 28 80 47 48 58
REMARK Flexibility Score: inf
ROOT
ATOM      1  C   UNL A   1      40.855  21.071  27.403  1.00  0.00     0.023 C 
ENDROOT
BRANCH   1   2
ATOM      2  C   UNL A   1      40.230  21.740  26.160  1.00  0.00     0.116 C 
BRANCH   2   3
ATOM      3  N   UNL A   1      39.069  21.007  25.688  1.00  0.00    -0.356 N 
ATOM      4  C   UNL A   1      37.840  21.415  25.260  1.00  0.00     0.220 C 
ATOM      5  O   UNL A   1      37.020  20.532  24.995  1.00  0.00    -0.275 OA
ATOM      6  H   UNL A   1      39.193  20.030  25.674  1.00  0.00     0.163 HD
BRANCH   4   7
ATOM      7  C   UNL A   1      37.475  22.884  25.050  1.00  0.00     0.100 C 
BRANCH   7   8
ATOM      8  C   UNL A   1      36.468  23.501  26.047  1.00  0.00     0.013 C 
BRANCH   8   9
ATOM      9  C   UNL A   1      35.120  23.827  25.404  1.00  0.00    -0.007 C 
ATOM     10  C   UNL A   1      31.238  24.115  23.630  1.00  0.00     0.291 C 
ATOM     11  O   UNL A   1      30.856  23.089  23.063  1.00  0.00    -0.265 OA
ATOM     12  N   UNL A   1      32.492  24.098  24.267  1.00  0.00    -0.336 N 
ATOM     13  C   UNL A   1      33.587  23.563  23.461  1.00  0.00     0.120 C 
ATOM     14  C   UNL A   1      32.769  24.675  25.588  1.00  0.00     0.120 C 
ATOM     15  C   UNL A   1      34.703  22.902  24.261  1.00  0.00     0.025 C 
ATOM     16  C   UNL A   1      33.920  23.982  26.345  1.00  0.00     0.025 C 
BRANCH  10  17
ATOM     17  C   UNL A   1      30.527  25.380  23.508  1.00  0.00     0.214 A 
ATOM     18  C   UNL A   1      30.437  28.917  23.266  1.00  0.00     0.092 C 
ATOM     19  C   UNL A   1      30.158  27.473  23.411  1.00  0.00     0.148 A 
ATOM     20  N   UNL A   1      28.979  26.983  23.815  1.00  0.00    -0.159 NA
ATOM     21  N   UNL A   1      31.103  26.516  23.146  1.00  0.00    -0.207 NA
ATOM     22  N   UNL A   1      29.258  25.675  23.897  1.00  0.00    -0.255 N 
ATOM     23  H   UNL A   1      28.613  25.000  24.208  1.00  0.00     0.192 HD
ENDBRANCH  10  17
ENDBRANCH   8   9
ENDBRANCH   7   8
ENDBRANCH   4   7
ENDBRANCH   2   3
ENDBRANCH   1   2
BRANCH   1  24
ATOM     24  C   UNL A   1      42.194  20.354  27.264  1.00  0.00     0.023 C 
BRANCH  24  25
ATOM     25  C   UNL A   1      42.517  19.918  25.845  1.00  0.00     0.116 C 
BRANCH  25  26
ATOM     26  N   UNL A   1      43.930  19.566  25.620  1.00  0.00    -0.352 N 
ATOM     27  C   UNL A   1      44.934  20.393  25.112  1.00  0.00     0.251 C 
ATOM     28  H   UNL A   1      44.196  18.648  25.854  1.00  0.00     0.163 HD
ATOM     29  O   UNL A   1      45.963  19.990  24.625  1.00  0.00    -0.269 OA
BRANCH  27  30
ATOM     30  C   UNL A   1      44.718  21.826  25.301  1.00  0.00     0.039 A 
ATOM     31  C   UNL A   1      43.798  22.582  24.573  1.00  0.00     0.014 A 
ATOM     32  C   UNL A   1      45.375  22.318  26.417  1.00  0.00     0.014 A 
ATOM     33  C   UNL A   1      43.509  23.855  25.048  1.00  0.00     0.010 A 
ATOM     34  C   UNL A   1      44.824  23.385  27.040  1.00  0.00     0.010 A 
ATOM     35  C   UNL A   1      44.024  24.231  26.301  1.00  0.00    -0.014 A 
BRANCH  35  36
ATOM     36  C   UNL A   1      43.732  25.489  26.947  1.00  0.00     0.031 A 
ATOM     37  C   UNL A   1      44.661  26.577  26.600  1.00  0.00     0.074 A 
ATOM     38  C   UNL A   1      42.605  25.682  27.666  1.00  0.00     0.049 A 
ATOM     39  N   UNL A   1      45.648  26.986  27.319  1.00  0.00    -0.248 NA
ATOM     40  C   UNL A   1      44.620  27.152  25.250  1.00  0.00     0.031 C 
ATOM     41  C   UNL A   1      41.439  24.806  27.869  1.00  0.00     0.029 A 
ATOM     42  N   UNL A   1      42.261  26.788  28.367  1.00  0.00    -0.354 N 
ATOM     43  C   UNL A   1      46.229  28.026  26.613  1.00  0.00     0.074 A 
ATOM     44  C   UNL A   1      45.689  27.954  25.279  1.00  0.00     0.031 C 
ATOM     45  C   UNL A   1      40.444  25.491  28.475  1.00  0.00     0.029 A 
ATOM     46  C   UNL A   1      40.970  26.779  28.876  1.00  0.00     0.049 A 
ATOM     47  H   UNL A   1      42.879  27.541  28.505  1.00  0.00     0.167 HD
ATOM     48  C   UNL A   1      46.910  28.999  27.280  1.00  0.00     0.037 A 
ATOM     49  C   UNL A   1      40.397  27.762  29.609  1.00  0.00     0.037 A 
ATOM     50  C   UNL A   1      47.187  28.588  28.639  1.00  0.00     0.049 A 
ATOM     51  C   UNL A   1      41.513  28.537  30.216  1.00  0.00     0.074 A 
ATOM     52  C   UNL A   1      47.911  27.557  29.208  1.00  0.00     0.029 A 
ATOM     53  N   UNL A   1      46.329  29.022  29.623  1.00  0.00    -0.354 N 
ATOM     54  N   UNL A   1      42.325  28.035  31.108  1.00  0.00    -0.248 NA
ATOM     55  C   UNL A   1      42.038  29.664  29.457  1.00  0.00     0.031 C 
ATOM     56  C   UNL A   1      47.116  27.110  30.308  1.00  0.00     0.029 A 
ATOM     57  C   UNL A   1      45.996  27.938  30.399  1.00  0.00     0.049 A 
ATOM     58  H   UNL A   1      46.009  29.945  29.749  1.00  0.00     0.167 HD
ATOM     59  C   UNL A   1      43.585  28.488  30.741  1.00  0.00     0.074 A 
ATOM     60  C   UNL A   1      43.335  29.540  29.754  1.00  0.00     0.031 C 
ATOM     61  C   UNL A   1      44.712  27.777  31.045  1.00  0.00     0.037 A 
BRANCH  48  62
ATOM     62  C   UNL A   1      46.974  30.441  26.856  1.00  0.00     0.064 A 
ATOM     63  C   UNL A   1      48.214  31.107  26.911  1.00  0.00     0.173 A 
ATOM     64  C   UNL A   1      45.842  31.269  26.698  1.00  0.00     0.173 A 
ATOM     65  F   UNL A   1      49.354  30.415  27.062  1.00  0.00    -0.203 F 
ATOM     66  C   UNL A   1      48.302  32.500  26.910  1.00  0.00     0.198 A 
ATOM     67  C   UNL A   1      45.939  32.658  26.646  1.00  0.00     0.198 A 
ATOM     68  F   UNL A   1      44.594  30.787  26.707  1.00  0.00    -0.203 F 
ATOM     69  F   UNL A   1      49.489  33.090  27.101  1.00  0.00    -0.200 F 
ATOM     70  C   UNL A   1      47.163  33.274  26.789  1.00  0.00     0.200 A 
ATOM     71  F   UNL A   1      44.821  33.391  26.546  1.00  0.00    -0.200 F 
ATOM     72  F   UNL A   1      47.236  34.609  26.859  1.00  0.00    -0.200 F 
ENDBRANCH  48  62
BRANCH  49  73
ATOM     73  C   UNL A   1      39.014  28.277  29.486  1.00  0.00     0.064 A 
ATOM     74  C   UNL A   1      38.215  28.487  30.619  1.00  0.00     0.173 A 
ATOM     75  C   UNL A   1      38.554  28.841  28.278  1.00  0.00     0.173 A 
ATOM     76  F   UNL A   1      38.608  28.021  31.813  1.00  0.00    -0.203 F 
ATOM     77  C   UNL A   1      37.038  29.242  30.555  1.00  0.00     0.198 A 
ATOM     78  C   UNL A   1      37.380  29.593  28.216  1.00  0.00     0.198 A 
ATOM     79  F   UNL A   1      39.284  28.754  27.157  1.00  0.00    -0.203 F 
ATOM     80  F   UNL A   1      36.331  29.472  31.670  1.00  0.00    -0.200 F 
ATOM     81  C   UNL A   1      36.629  29.804  29.357  1.00  0.00     0.200 A 
ATOM     82  F   UNL A   1      37.017  30.165  27.059  1.00  0.00    -0.200 F 
ATOM     83  F   UNL A   1      35.537  30.581  29.309  1.00  0.00    -0.200 F 
ENDBRANCH  49  73
BRANCH  61  84
ATOM     84  C   UNL A   1      44.562  26.600  31.975  1.00  0.00     0.064 A 
ATOM     85  C   UNL A   1      44.411  26.712  33.369  1.00  0.00     0.173 A 
ATOM     86  C   UNL A   1      44.427  25.322  31.421  1.00  0.00     0.173 A 
ATOM     87  F   UNL A   1      44.431  27.905  33.970  1.00  0.00    -0.203 F 
ATOM     88  C   UNL A   1      44.173  25.594  34.170  1.00  0.00     0.198 A 
ATOM     89  C   UNL A   1      44.159  24.211  32.218  1.00  0.00     0.198 A 
ATOM     90  F   UNL A   1      44.505  25.158  30.091  1.00  0.00    -0.203 F 
ATOM     91  F   UNL A   1      44.039  25.733  35.498  1.00  0.00    -0.200 F 
ATOM     92  C   UNL A   1      44.042  24.344  33.592  1.00  0.00     0.200 A 
ATOM     93  F   UNL A   1      43.987  23.011  31.647  1.00  0.00    -0.200 F 
ATOM     94  F   UNL A   1      43.778  23.273  34.353  1.00  0.00    -0.200 F 
ENDBRANCH  61  84
ENDBRANCH  35  36
ENDBRANCH  27  30
ENDBRANCH  25  26
ENDBRANCH  24  25
ENDBRANCH   1  24
TORSDOF 14
ENDMDL
MODEL 3
REMARK VINA RESULT:     -12.3      5.050     10.514
REMARK SMILES Cc1n[nH]c(C(=O)N2CCC(CCC(=O)NCCCCNC(=O)c3ccc(-c4c5nc(c(-c6c(F)c(F)c(F)c(F)c6F)c6ccc([nH]6)c(-c6c(F)c(F)c(F)c(F)c6F)c6nc(c(-c7c(F)c(F)c(F)c(F)c7F)c7ccc4[nH]7)C=C6)C=C5)cc3)CC2)n1
REMARK SMILES IDX 18 1 17 2 16 3 14 4 15 5 13 7 12 8 11 9 6 10 7 11 8 12 9 13
REMARK SMILES IDX 88 14 10 15 87 16 5 17 1 18 2 19 3 20 89 21 4 22 19 24 20 25
REMARK SMILES IDX 21 26 22 27 23 29 24 30 25 31 86 32 26 33 85 34 27 35 28 36
REMARK SMILES IDX 29 37 79 38 30 39 84 40 78 41 80 42 31 43 83 44 77 45 76 46
REMARK SMILES IDX 32 48 64 49 44 50 63 51 45 52 48 53 62 54 81 55 46 56 47 57
REMARK SMILES IDX 61 59 82 60 49 61 33 62 34 63 42 64 35 65 36 66 40 67 43 68
REMARK SMILES IDX 37 69 38 70 41 71 39 72 65 73 66 74 74 75 67 76 68 77 72 78
REMARK SMILES IDX 75 79 69 80 70 81 73 82 71 83 50 84 51 85 59 86 52 87 53 88
REMARK SMILES IDX 57 89 60 90 54 91 55 92 58 93 56 94
REMARK H PARENT 16 6 4 23 21 28 80 47 48 58
REMARK Flexibility Score: inf
ROOT
ATOM      1  C   UNL A   1      44.451  31.518  26.549  1.00  0.00     0.023 C 
ENDROOT
BRANCH   1   2
ATOM      2  C   UNL A   1      43.526  30.423  27.124  1.00  0.00     0.116 C 
BRANCH   2   3
ATOM      3  N   UNL A   1      42.908  29.641  26.069  1.00  0.00    -0.356 N 
ATOM      4  C   UNL A   1      42.976  28.317  25.750  1.00  0.00     0.220 C 
ATOM      5  O   UNL A   1      42.389  27.959  24.725  1.00  0.00    -0.275 OA
ATOM      6  H   UNL A   1      42.329  30.167  25.469  1.00  0.00     0.163 HD
BRANCH   4   7
ATOM      7  C   UNL A   1      43.685  27.284  26.625  1.00  0.00     0.100 C 
BRANCH   7   8
ATOM      8  C   UNL A   1      42.798  26.454  27.580  1.00  0.00     0.013 C 
BRANCH   8   9
ATOM      9  C   UNL A   1      42.810  24.960  27.253  1.00  0.00    -0.007 C 
ATOM     10  C   UNL A   1      42.214  20.812  26.398  1.00  0.00     0.291 C 
ATOM     11  O   UNL A   1      41.177  20.336  26.865  1.00  0.00    -0.265 OA
ATOM     12  N   UNL A   1      42.473  22.179  26.605  1.00  0.00    -0.336 N 
ATOM     13  C   UNL A   1      42.321  22.633  27.986  1.00  0.00     0.120 C 
ATOM     14  C   UNL A   1      42.986  23.100  25.584  1.00  0.00     0.120 C 
ATOM     15  C   UNL A   1      41.911  24.094  28.134  1.00  0.00     0.025 C 
ATOM     16  C   UNL A   1      42.559  24.567  25.793  1.00  0.00     0.025 C 
BRANCH  10  17
ATOM     17  C   UNL A   1      43.251  19.980  25.803  1.00  0.00     0.214 A 
ATOM     18  C   UNL A   1      45.194  18.879  23.049  1.00  0.00     0.092 C 
ATOM     19  C   UNL A   1      44.514  19.084  24.345  1.00  0.00     0.148 A 
ATOM     20  N   UNL A   1      44.524  18.184  25.338  1.00  0.00    -0.159 NA
ATOM     21  N   UNL A   1      43.805  20.222  24.626  1.00  0.00    -0.207 NA
ATOM     22  N   UNL A   1      43.697  18.764  26.218  1.00  0.00    -0.255 N 
ATOM     23  H   UNL A   1      43.439  18.352  27.074  1.00  0.00     0.192 HD
ENDBRANCH  10  17
ENDBRANCH   8   9
ENDBRANCH   7   8
ENDBRANCH   4   7
ENDBRANCH   2   3
ENDBRANCH   1   2
BRANCH   1  24
ATOM     24  C   UNL A   1      43.848  32.613  25.675  1.00  0.00     0.023 C 
BRANCH  24  25
ATOM     25  C   UNL A   1      43.895  33.997  26.299  1.00  0.00     0.116 C 
BRANCH  25  26
ATOM     26  N   UNL A   1      45.218  34.393  26.812  1.00  0.00    -0.352 N 
ATOM     27  C   UNL A   1      45.487  35.147  27.955  1.00  0.00     0.251 C 
ATOM     28  H   UNL A   1      45.998  34.091  26.293  1.00  0.00     0.163 HD
ATOM     29  O   UNL A   1      46.525  35.733  28.152  1.00  0.00    -0.269 OA
BRANCH  27  30
ATOM     30  C   UNL A   1      44.455  35.106  28.988  1.00  0.00     0.039 A 
ATOM     31  C   UNL A   1      43.471  36.082  29.152  1.00  0.00     0.014 A 
ATOM     32  C   UNL A   1      44.428  33.896  29.663  1.00  0.00     0.014 A 
ATOM     33  C   UNL A   1      42.405  35.772  29.987  1.00  0.00     0.010 A 
ATOM     34  C   UNL A   1      43.239  33.493  30.166  1.00  0.00     0.010 A 
ATOM     35  C   UNL A   1      42.301  34.457  30.473  1.00  0.00    -0.014 A 
BRANCH  35  36
ATOM     36  C   UNL A   1      41.201  33.980  31.278  1.00  0.00     0.031 A 
ATOM     37  C   UNL A   1      41.537  33.763  32.694  1.00  0.00     0.074 A 
ATOM     38  C   UNL A   1      39.939  33.912  30.801  1.00  0.00     0.049 A 
ATOM     39  N   UNL A   1      41.802  32.628  33.242  1.00  0.00    -0.248 NA
ATOM     40  C   UNL A   1      41.793  34.923  33.557  1.00  0.00     0.031 C 
ATOM     41  C   UNL A   1      39.378  34.361  29.516  1.00  0.00     0.029 A 
ATOM     42  N   UNL A   1      38.848  33.421  31.437  1.00  0.00    -0.354 N 
ATOM     43  C   UNL A   1      42.044  32.897  34.579  1.00  0.00     0.074 A 
ATOM     44  C   UNL A   1      42.218  34.324  34.673  1.00  0.00     0.031 C 
ATOM     45  C   UNL A   1      38.028  34.299  29.553  1.00  0.00     0.029 A 
ATOM     46  C   UNL A   1      37.646  33.625  30.777  1.00  0.00     0.049 A 
ATOM     47  H   UNL A   1      38.905  32.956  32.302  1.00  0.00     0.167 HD
ATOM     48  C   UNL A   1      41.823  31.932  35.514  1.00  0.00     0.037 A 
ATOM     49  C   UNL A   1      36.425  33.228  31.207  1.00  0.00     0.037 A 
ATOM     50  C   UNL A   1      41.668  30.638  34.886  1.00  0.00     0.049 A 
ATOM     51  C   UNL A   1      36.659  32.107  32.157  1.00  0.00     0.074 A 
ATOM     52  C   UNL A   1      42.485  29.836  34.111  1.00  0.00     0.029 A 
ATOM     53  N   UNL A   1      40.387  30.193  34.651  1.00  0.00    -0.354 N 
ATOM     54  N   UNL A   1      37.156  30.955  31.789  1.00  0.00    -0.248 NA
ATOM     55  C   UNL A   1      36.838  32.445  33.562  1.00  0.00     0.031 C 
ATOM     56  C   UNL A   1      41.629  29.303  33.099  1.00  0.00     0.029 A 
ATOM     57  C   UNL A   1      40.329  29.742  33.355  1.00  0.00     0.049 A 
ATOM     58  H   UNL A   1      39.644  30.197  35.298  1.00  0.00     0.167 HD
ATOM     59  C   UNL A   1      38.062  30.622  32.787  1.00  0.00     0.074 A 
ATOM     60  C   UNL A   1      37.775  31.547  33.884  1.00  0.00     0.031 C 
ATOM     61  C   UNL A   1      39.146  29.831  32.526  1.00  0.00     0.037 A 
BRANCH  48  62
ATOM     62  C   UNL A   1      41.355  32.195  36.920  1.00  0.00     0.064 A 
ATOM     63  C   UNL A   1      40.120  32.844  37.111  1.00  0.00     0.173 A 
ATOM     64  C   UNL A   1      42.189  32.120  38.056  1.00  0.00     0.173 A 
ATOM     65  F   UNL A   1      39.253  32.973  36.095  1.00  0.00    -0.203 F 
ATOM     66  C   UNL A   1      39.792  33.459  38.320  1.00  0.00     0.198 A 
ATOM     67  C   UNL A   1      41.834  32.691  39.276  1.00  0.00     0.198 A 
ATOM     68  F   UNL A   1      43.421  31.602  38.009  1.00  0.00    -0.203 F 
ATOM     69  F   UNL A   1      38.666  34.181  38.413  1.00  0.00    -0.200 F 
ATOM     70  C   UNL A   1      40.653  33.391  39.398  1.00  0.00     0.200 A 
ATOM     71  F   UNL A   1      42.692  32.628  40.305  1.00  0.00    -0.200 F 
ATOM     72  F   UNL A   1      40.374  34.039  40.536  1.00  0.00    -0.200 F 
ENDBRANCH  48  62
BRANCH  49  73
ATOM     73  C   UNL A   1      35.163  33.999  31.145  1.00  0.00     0.064 A 
ATOM     74  C   UNL A   1      34.869  34.987  32.096  1.00  0.00     0.173 A 
ATOM     75  C   UNL A   1      34.355  33.979  29.989  1.00  0.00     0.173 A 
ATOM     76  F   UNL A   1      35.620  35.100  33.201  1.00  0.00    -0.203 F 
ATOM     77  C   UNL A   1      33.845  35.919  31.891  1.00  0.00     0.198 A 
ATOM     78  C   UNL A   1      33.334  34.909  29.787  1.00  0.00     0.198 A 
ATOM     79  F   UNL A   1      34.604  33.117  28.992  1.00  0.00    -0.203 F 
ATOM     80  F   UNL A   1      33.631  36.886  32.794  1.00  0.00    -0.200 F 
ATOM     81  C   UNL A   1      33.088  35.887  30.732  1.00  0.00     0.200 A 
ATOM     82  F   UNL A   1      32.636  34.891  28.642  1.00  0.00    -0.200 F 
ATOM     83  F   UNL A   1      32.151  36.819  30.506  1.00  0.00    -0.200 F 
ENDBRANCH  49  73
BRANCH  61  84
ATOM     84  C   UNL A   1      39.210  29.161  31.178  1.00  0.00     0.064 A 
ATOM     85  C   UNL A   1      39.772  29.749  30.031  1.00  0.00     0.173 A 
ATOM     86  C   UNL A   1      38.813  27.822  31.077  1.00  0.00     0.173 A 
ATOM     87  F   UNL A   1      40.263  30.992  30.065  1.00  0.00    -0.203 F 
ATOM     88  C   UNL A   1      39.896  29.043  28.833  1.00  0.00     0.198 A 
ATOM     89  C   UNL A   1      38.965  27.109  29.889  1.00  0.00     0.198 A 
ATOM     90  F   UNL A   1      38.320  27.187  32.152  1.00  0.00    -0.203 F 
ATOM     91  F   UNL A   1      40.433  29.635  27.755  1.00  0.00    -0.200 F 
ATOM     92  C   UNL A   1      39.497  27.721  28.766  1.00  0.00     0.200 A 
ATOM     93  F   UNL A   1      38.620  25.815  29.843  1.00  0.00    -0.200 F 
ATOM     94  F   UNL A   1      39.648  27.028  27.628  1.00  0.00    -0.200 F 
ENDBRANCH  61  84
ENDBRANCH  35  36
ENDBRANCH  27  30
ENDBRANCH  25  26
ENDBRANCH  24  25
ENDBRANCH   1  24
TORSDOF 14
ENDMDL
