MODEL 1
REMARK VINA RESULT:     -11.7      0.000      0.000
REMARK SMILES CCC[C@@]1(C(=O)N[C@@](C)(C(=O)NCCCCNC(=O)c2ccc(-c3c4nc(c(-c5c(F)c(F)c(F)c(F)c5F)c5ccc([nH]5)c(-c5c(F)c(F)c(F)c(F)c5F)c5nc(c(-c6c(F)c(F)c(F)c(F)c6F)c6ccc3[nH]6)C=C5)C=C4)cc2)C(F)(F)F)CC[NH2+]C1
REMARK SMILES IDX 13 1 12 2 10 3 11 4 8 6 9 7 7 8 5 9 6 10 4 12 87 13 90 14
REMARK SMILES IDX 88 15 89 16 3 19 2 20 1 21 83 22 84 23 85 24 86 25 14 26
REMARK SMILES IDX 15 27 16 28 17 29 18 30 19 32 20 33 21 34 82 35 22 36 81 37
REMARK SMILES IDX 23 38 24 39 25 40 75 41 26 42 80 43 74 44 76 45 27 46 79 47
REMARK SMILES IDX 73 48 72 49 28 51 60 52 40 53 59 54 41 55 44 56 58 57 77 58
REMARK SMILES IDX 42 59 43 60 57 62 78 63 45 64 29 65 30 66 38 67 31 68 32 69
REMARK SMILES IDX 36 70 39 71 33 72 34 73 37 74 35 75 61 76 62 77 70 78 63 79
REMARK SMILES IDX 64 80 68 81 71 82 65 83 66 84 69 85 67 86 46 87 47 88 55 89
REMARK SMILES IDX 48 90 49 91 53 92 56 93 50 94 51 95 54 96 52 97
REMARK H PARENT 12 5 7 11 89 17 89 18 17 31 76 50 44 61
REMARK Flexibility Score: inf
ROOT
ATOM      1  C   UNL A   1      32.759  29.585  25.572  1.00  0.00     0.116 C 
ENDROOT
BRANCH   1   2
ATOM      2  N   UNL A   1      31.907  29.657  24.399  1.00  0.00    -0.354 N 
ATOM      3  C   UNL A   1      31.446  28.721  23.517  1.00  0.00     0.254 C 
ATOM      4  O   UNL A   1      30.470  29.082  22.853  1.00  0.00    -0.272 OA
ATOM      5  H   UNL A   1      31.597  30.570  24.197  1.00  0.00     0.163 HD
BRANCH   3   6
ATOM      6  C   UNL A   1      32.038  27.294  23.399  1.00  0.00     0.212 C 
ATOM      7  C   UNL A   1      31.245  26.484  22.344  1.00  0.00     0.056 C 
BRANCH   6   8
ATOM      8  N   UNL A   1      31.856  26.571  24.725  1.00  0.00    -0.334 N 
ATOM      9  C   UNL A   1      32.603  25.620  25.355  1.00  0.00     0.233 C 
ATOM     10  O   UNL A   1      33.177  26.006  26.378  1.00  0.00    -0.274 OA
ATOM     11  H   UNL A   1      31.050  26.842  25.220  1.00  0.00     0.164 HD
BRANCH   9  12
ATOM     12  C   UNL A   1      32.552  24.127  24.971  1.00  0.00     0.103 C 
ATOM     13  C   UNL A   1      31.095  23.671  24.678  1.00  0.00     0.084 C 
ATOM     14  C   UNL A   1      32.887  23.277  26.209  1.00  0.00     0.277 C 
ATOM     15  C   UNL A   1      30.612  23.054  25.975  1.00  0.00     0.261 C 
ATOM     16  N   UNL A   1      31.797  22.309  26.403  1.00  0.00    -0.345 N 
ATOM     17  H   UNL A   1      31.936  21.479  25.825  1.00  0.00     0.346 HD
ATOM     18  H   UNL A   1      31.730  21.965  27.360  1.00  0.00     0.346 HD
BRANCH  12  19
ATOM     19  C   UNL A   1      33.471  23.832  23.750  1.00  0.00     0.023 C 
BRANCH  19  20
ATOM     20  C   UNL A   1      34.988  24.046  23.936  1.00  0.00    -0.002 C 
ATOM     21  C   UNL A   1      35.880  22.929  23.421  1.00  0.00     0.004 C 
ENDBRANCH  19  20
ENDBRANCH  12  19
ENDBRANCH   9  12
ENDBRANCH   6   8
BRANCH   6  22
ATOM     22  C   UNL A   1      33.458  27.425  22.789  1.00  0.00     0.420 C 
ATOM     23  F   UNL A   1      33.682  28.542  22.079  1.00  0.00    -0.168 F 
ATOM     24  F   UNL A   1      34.390  27.391  23.779  1.00  0.00    -0.168 F 
ATOM     25  F   UNL A   1      33.747  26.380  21.970  1.00  0.00    -0.168 F 
ENDBRANCH   6  22
ENDBRANCH   3   6
ENDBRANCH   1   2
BRANCH   1  26
ATOM     26  C   UNL A   1      32.087  30.107  26.839  1.00  0.00     0.023 C 
BRANCH  26  27
ATOM     27  C   UNL A   1      31.779  31.604  26.860  1.00  0.00     0.023 C 
BRANCH  27  28
ATOM     28  C   UNL A   1      32.894  32.505  27.378  1.00  0.00     0.116 C 
BRANCH  28  29
ATOM     29  N   UNL A   1      32.468  33.875  27.622  1.00  0.00    -0.352 N 
ATOM     30  C   UNL A   1      32.987  34.800  28.500  1.00  0.00     0.251 C 
ATOM     31  H   UNL A   1      31.703  34.184  27.085  1.00  0.00     0.163 HD
ATOM     32  O   UNL A   1      32.453  35.889  28.647  1.00  0.00    -0.269 OA
BRANCH  30  33
ATOM     33  C   UNL A   1      34.180  34.445  29.299  1.00  0.00     0.039 A 
ATOM     34  C   UNL A   1      34.002  33.849  30.550  1.00  0.00     0.014 A 
ATOM     35  C   UNL A   1      35.462  34.649  28.785  1.00  0.00     0.014 A 
ATOM     36  C   UNL A   1      35.113  33.372  31.251  1.00  0.00     0.010 A 
ATOM     37  C   UNL A   1      36.560  34.117  29.455  1.00  0.00     0.010 A 
ATOM     38  C   UNL A   1      36.395  33.460  30.685  1.00  0.00    -0.014 A 
BRANCH  38  39
ATOM     39  C   UNL A   1      37.586  32.865  31.342  1.00  0.00     0.031 A 
ATOM     40  C   UNL A   1      38.280  31.696  30.704  1.00  0.00     0.074 A 
ATOM     41  C   UNL A   1      37.964  33.294  32.562  1.00  0.00     0.049 A 
ATOM     42  N   UNL A   1      39.204  30.911  31.196  1.00  0.00    -0.248 NA
ATOM     43  C   UNL A   1      37.852  31.342  29.342  1.00  0.00     0.031 C 
ATOM     44  C   UNL A   1      37.344  34.393  33.305  1.00  0.00     0.029 A 
ATOM     45  N   UNL A   1      38.943  32.833  33.409  1.00  0.00    -0.354 N 
ATOM     46  C   UNL A   1      39.438  29.950  30.222  1.00  0.00     0.074 A 
ATOM     47  C   UNL A   1      38.542  30.233  29.122  1.00  0.00     0.031 C 
ATOM     48  C   UNL A   1      37.952  34.517  34.497  1.00  0.00     0.029 A 
ATOM     49  C   UNL A   1      38.974  33.482  34.620  1.00  0.00     0.049 A 
ATOM     50  H   UNL A   1      39.562  32.105  33.172  1.00  0.00     0.167 HD
ATOM     51  C   UNL A   1      40.328  28.930  30.243  1.00  0.00     0.037 A 
ATOM     52  C   UNL A   1      39.723  33.250  35.715  1.00  0.00     0.037 A 
ATOM     53  C   UNL A   1      41.252  28.684  31.316  1.00  0.00     0.049 A 
ATOM     54  C   UNL A   1      40.724  32.126  35.699  1.00  0.00     0.074 A 
ATOM     55  C   UNL A   1      42.251  27.728  31.391  1.00  0.00     0.029 A 
ATOM     56  N   UNL A   1      41.295  29.404  32.501  1.00  0.00    -0.354 N 
ATOM     57  N   UNL A   1      40.980  31.261  34.748  1.00  0.00    -0.248 NA
ATOM     58  C   UNL A   1      41.541  31.944  36.909  1.00  0.00     0.031 C 
ATOM     59  C   UNL A   1      42.875  27.847  32.637  1.00  0.00     0.029 A 
ATOM     60  C   UNL A   1      42.293  28.902  33.320  1.00  0.00     0.049 A 
ATOM     61  H   UNL A   1      40.704  30.158  32.727  1.00  0.00     0.167 HD
ATOM     62  C   UNL A   1      42.004  30.456  35.230  1.00  0.00     0.074 A 
ATOM     63  C   UNL A   1      42.328  30.938  36.556  1.00  0.00     0.031 C 
ATOM     64  C   UNL A   1      42.618  29.410  34.627  1.00  0.00     0.037 A 
BRANCH  51  65
ATOM     65  C   UNL A   1      40.351  27.999  29.068  1.00  0.00     0.064 A 
ATOM     66  C   UNL A   1      39.586  26.825  29.045  1.00  0.00     0.173 A 
ATOM     67  C   UNL A   1      41.103  28.318  27.927  1.00  0.00     0.173 A 
ATOM     68  F   UNL A   1      38.860  26.471  30.115  1.00  0.00    -0.203 F 
ATOM     69  C   UNL A   1      39.588  25.993  27.929  1.00  0.00     0.198 A 
ATOM     70  C   UNL A   1      41.083  27.497  26.803  1.00  0.00     0.198 A 
ATOM     71  F   UNL A   1      41.849  29.433  27.898  1.00  0.00    -0.203 F 
ATOM     72  F   UNL A   1      38.879  24.856  27.941  1.00  0.00    -0.200 F 
ATOM     73  C   UNL A   1      40.330  26.333  26.806  1.00  0.00     0.200 A 
ATOM     74  F   UNL A   1      41.790  27.834  25.715  1.00  0.00    -0.200 F 
ATOM     75  F   UNL A   1      40.321  25.537  25.729  1.00  0.00    -0.200 F 
ENDBRANCH  51  65
BRANCH  52  76
ATOM     76  C   UNL A   1      39.559  34.098  36.925  1.00  0.00     0.064 A 
ATOM     77  C   UNL A   1      40.204  35.339  37.026  1.00  0.00     0.173 A 
ATOM     78  C   UNL A   1      38.772  33.680  38.008  1.00  0.00     0.173 A 
ATOM     79  F   UNL A   1      40.985  35.770  36.026  1.00  0.00    -0.203 F 
ATOM     80  C   UNL A   1      40.087  36.119  38.175  1.00  0.00     0.198 A 
ATOM     81  C   UNL A   1      38.635  34.474  39.145  1.00  0.00     0.198 A 
ATOM     82  F   UNL A   1      38.132  32.503  37.958  1.00  0.00    -0.203 F 
ATOM     83  F   UNL A   1      40.754  37.277  38.265  1.00  0.00    -0.200 F 
ATOM     84  C   UNL A   1      39.299  35.688  39.232  1.00  0.00     0.200 A 
ATOM     85  F   UNL A   1      37.863  34.060  40.159  1.00  0.00    -0.200 F 
ATOM     86  F   UNL A   1      39.188  36.438  40.337  1.00  0.00    -0.200 F 
ENDBRANCH  52  76
BRANCH  64  87
ATOM     87  C   UNL A   1      43.736  28.742  35.369  1.00  0.00     0.064 A 
ATOM     88  C   UNL A   1      45.070  29.138  35.198  1.00  0.00     0.173 A 
ATOM     89  C   UNL A   1      43.459  27.741  36.312  1.00  0.00     0.173 A 
ATOM     90  F   UNL A   1      45.384  30.080  34.297  1.00  0.00    -0.203 F 
ATOM     91  C   UNL A   1      46.089  28.545  35.937  1.00  0.00     0.198 A 
ATOM     92  C   UNL A   1      44.478  27.168  37.067  1.00  0.00     0.198 A 
ATOM     93  F   UNL A   1      42.197  27.333  36.513  1.00  0.00    -0.203 F 
ATOM     94  F   UNL A   1      47.362  28.916  35.738  1.00  0.00    -0.200 F 
ATOM     95  C   UNL A   1      45.792  27.569  36.878  1.00  0.00     0.200 A 
ATOM     96  F   UNL A   1      44.187  26.234  37.982  1.00  0.00    -0.200 F 
ATOM     97  F   UNL A   1      46.774  27.011  37.598  1.00  0.00    -0.200 F 
ENDBRANCH  64  87
ENDBRANCH  38  39
ENDBRANCH  30  33
ENDBRANCH  28  29
ENDBRANCH  27  28
ENDBRANCH  26  27
ENDBRANCH   1  26
TORSDOF 16
ENDMDL
MODEL 2
REMARK VINA RESULT:     -11.6      5.744     11.071
REMARK SMILES CCC[C@@]1(C(=O)N[C@@](C)(C(=O)NCCCCNC(=O)c2ccc(-c3c4nc(c(-c5c(F)c(F)c(F)c(F)c5F)c5ccc([nH]5)c(-c5c(F)c(F)c(F)c(F)c5F)c5nc(c(-c6c(F)c(F)c(F)c(F)c6F)c6ccc3[nH]6)C=C5)C=C4)cc2)C(F)(F)F)CC[NH2+]C1
REMARK SMILES IDX 13 1 12 2 10 3 11 4 8 6 9 7 7 8 5 9 6 10 4 12 87 13 90 14
REMARK SMILES IDX 88 15 89 16 3 19 2 20 1 21 83 22 84 23 85 24 86 25 14 26
REMARK SMILES IDX 15 27 16 28 17 29 18 30 19 32 20 33 21 34 82 35 22 36 81 37
REMARK SMILES IDX 23 38 24 39 25 40 75 41 26 42 80 43 74 44 76 45 27 46 79 47
REMARK SMILES IDX 73 48 72 49 28 51 60 52 40 53 59 54 41 55 44 56 58 57 77 58
REMARK SMILES IDX 42 59 43 60 57 62 78 63 45 64 29 65 30 66 38 67 31 68 32 69
REMARK SMILES IDX 36 70 39 71 33 72 34 73 37 74 35 75 61 76 62 77 70 78 63 79
REMARK SMILES IDX 64 80 68 81 71 82 65 83 66 84 69 85 67 86 46 87 47 88 55 89
REMARK SMILES IDX 48 90 49 91 53 92 56 93 50 94 51 95 54 96 52 97
REMARK H PARENT 12 5 7 11 89 17 89 18 17 31 76 50 44 61
REMARK Flexibility Score: inf
ROOT
ATOM      1  C   UNL A   1      35.534  21.173  24.979  1.00  0.00     0.116 C 
ENDROOT
BRANCH   1   2
ATOM      2  N   UNL A   1      34.267  20.529  25.277  1.00  0.00    -0.354 N 
ATOM      3  C   UNL A   1      32.979  20.980  25.342  1.00  0.00     0.254 C 
ATOM      4  O   UNL A   1      32.124  20.092  25.279  1.00  0.00    -0.272 OA
ATOM      5  H   UNL A   1      34.354  19.568  25.473  1.00  0.00     0.163 HD
BRANCH   3   6
ATOM      6  C   UNL A   1      32.603  22.481  25.412  1.00  0.00     0.212 C 
ATOM      7  C   UNL A   1      31.062  22.636  25.397  1.00  0.00     0.056 C 
BRANCH   6   8
ATOM      8  N   UNL A   1      33.118  23.180  24.163  1.00  0.00    -0.334 N 
ATOM      9  C   UNL A   1      33.650  24.420  23.965  1.00  0.00     0.233 C 
ATOM     10  O   UNL A   1      34.853  24.430  23.688  1.00  0.00    -0.274 OA
ATOM     11  H   UNL A   1      33.057  22.635  23.346  1.00  0.00     0.164 HD
BRANCH   9  12
ATOM     12  C   UNL A   1      32.785  25.693  23.856  1.00  0.00     0.103 C 
ATOM     13  C   UNL A   1      31.474  25.418  23.067  1.00  0.00     0.084 C 
ATOM     14  C   UNL A   1      33.486  26.700  22.928  1.00  0.00     0.277 C 
ATOM     15  C   UNL A   1      31.778  25.853  21.647  1.00  0.00     0.261 C 
ATOM     16  N   UNL A   1      32.534  27.084  21.874  1.00  0.00    -0.345 N 
ATOM     17  H   UNL A   1      31.923  27.838  22.190  1.00  0.00     0.346 HD
ATOM     18  H   UNL A   1      32.988  27.438  21.033  1.00  0.00     0.346 HD
BRANCH  12  19
ATOM     19  C   UNL A   1      32.460  26.271  25.265  1.00  0.00     0.023 C 
BRANCH  19  20
ATOM     20  C   UNL A   1      33.649  26.748  26.126  1.00  0.00    -0.002 C 
ATOM     21  C   UNL A   1      33.625  28.213  26.529  1.00  0.00     0.004 C 
ENDBRANCH  19  20
ENDBRANCH  12  19
ENDBRANCH   9  12
ENDBRANCH   6   8
BRANCH   6  22
ATOM     22  C   UNL A   1      33.025  23.006  26.809  1.00  0.00     0.420 C 
ATOM     23  F   UNL A   1      34.232  23.591  26.865  1.00  0.00    -0.168 F 
ATOM     24  F   UNL A   1      32.120  23.920  27.251  1.00  0.00    -0.168 F 
ATOM     25  F   UNL A   1      33.031  22.011  27.734  1.00  0.00    -0.168 F 
ENDBRANCH   6  22
ENDBRANCH   3   6
ENDBRANCH   1   2
BRANCH   1  26
ATOM     26  C   UNL A   1      36.722  20.217  25.025  1.00  0.00     0.023 C 
BRANCH  26  27
ATOM     27  C   UNL A   1      38.103  20.865  24.925  1.00  0.00     0.023 C 
BRANCH  27  28
ATOM     28  C   UNL A   1      39.021  20.661  26.125  1.00  0.00     0.116 C 
BRANCH  28  29
ATOM     29  N   UNL A   1      39.914  19.520  25.986  1.00  0.00    -0.352 N 
ATOM     30  C   UNL A   1      41.287  19.479  26.072  1.00  0.00     0.251 C 
ATOM     31  H   UNL A   1      39.475  18.657  25.804  1.00  0.00     0.163 HD
ATOM     32  O   UNL A   1      41.897  18.445  25.841  1.00  0.00    -0.269 OA
BRANCH  30  33
ATOM     33  C   UNL A   1      42.024  20.715  26.408  1.00  0.00     0.039 A 
ATOM     34  C   UNL A   1      42.409  21.575  25.376  1.00  0.00     0.014 A 
ATOM     35  C   UNL A   1      42.282  21.046  27.741  1.00  0.00     0.014 A 
ATOM     36  C   UNL A   1      42.973  22.816  25.685  1.00  0.00     0.010 A 
ATOM     37  C   UNL A   1      42.784  22.308  28.048  1.00  0.00     0.010 A 
ATOM     38  C   UNL A   1      43.119  23.210  27.025  1.00  0.00    -0.014 A 
BRANCH  38  39
ATOM     39  C   UNL A   1      43.606  24.562  27.397  1.00  0.00     0.031 A 
ATOM     40  C   UNL A   1      42.630  25.595  27.885  1.00  0.00     0.074 A 
ATOM     41  C   UNL A   1      44.893  24.895  27.180  1.00  0.00     0.049 A 
ATOM     42  N   UNL A   1      42.806  26.877  28.074  1.00  0.00    -0.248 NA
ATOM     43  C   UNL A   1      41.263  25.127  28.163  1.00  0.00     0.031 C 
ATOM     44  C   UNL A   1      45.929  23.995  26.671  1.00  0.00     0.029 A 
ATOM     45  N   UNL A   1      45.545  26.096  27.331  1.00  0.00    -0.354 N 
ATOM     46  C   UNL A   1      41.568  27.374  28.455  1.00  0.00     0.074 A 
ATOM     47  C   UNL A   1      40.641  26.262  28.444  1.00  0.00     0.031 C 
ATOM     48  C   UNL A   1      47.081  24.674  26.546  1.00  0.00     0.029 A 
ATOM     49  C   UNL A   1      46.856  26.065  26.925  1.00  0.00     0.049 A 
ATOM     50  H   UNL A   1      45.111  26.902  27.695  1.00  0.00     0.167 HD
ATOM     51  C   UNL A   1      41.237  28.643  28.792  1.00  0.00     0.037 A 
ATOM     52  C   UNL A   1      47.768  27.054  26.842  1.00  0.00     0.037 A 
ATOM     53  C   UNL A   1      42.171  29.734  28.851  1.00  0.00     0.049 A 
ATOM     54  C   UNL A   1      47.380  28.450  27.250  1.00  0.00     0.074 A 
ATOM     55  C   UNL A   1      41.950  31.037  29.266  1.00  0.00     0.029 A 
ATOM     56  N   UNL A   1      43.508  29.649  28.492  1.00  0.00    -0.354 N 
ATOM     57  N   UNL A   1      46.220  28.897  27.668  1.00  0.00    -0.248 NA
ATOM     58  C   UNL A   1      48.425  29.481  27.175  1.00  0.00     0.031 C 
ATOM     59  C   UNL A   1      43.145  31.749  29.122  1.00  0.00     0.029 A 
ATOM     60  C   UNL A   1      44.120  30.880  28.659  1.00  0.00     0.049 A 
ATOM     61  H   UNL A   1      43.955  28.835  28.165  1.00  0.00     0.167 HD
ATOM     62  C   UNL A   1      46.404  30.247  27.933  1.00  0.00     0.074 A 
ATOM     63  C   UNL A   1      47.789  30.548  27.636  1.00  0.00     0.031 C 
ATOM     64  C   UNL A   1      45.505  31.155  28.381  1.00  0.00     0.037 A 
BRANCH  51  65
ATOM     65  C   UNL A   1      39.804  28.926  29.127  1.00  0.00     0.064 A 
ATOM     66  C   UNL A   1      38.879  29.306  28.143  1.00  0.00     0.173 A 
ATOM     67  C   UNL A   1      39.337  28.757  30.439  1.00  0.00     0.173 A 
ATOM     68  F   UNL A   1      39.279  29.491  26.877  1.00  0.00    -0.203 F 
ATOM     69  C   UNL A   1      37.543  29.525  28.465  1.00  0.00     0.198 A 
ATOM     70  C   UNL A   1      37.994  28.952  30.752  1.00  0.00     0.198 A 
ATOM     71  F   UNL A   1      40.181  28.391  31.416  1.00  0.00    -0.203 F 
ATOM     72  F   UNL A   1      36.684  29.923  27.517  1.00  0.00    -0.200 F 
ATOM     73  C   UNL A   1      37.100  29.341  29.767  1.00  0.00     0.200 A 
ATOM     74  F   UNL A   1      37.566  28.762  32.008  1.00  0.00    -0.200 F 
ATOM     75  F   UNL A   1      35.811  29.541  30.072  1.00  0.00    -0.200 F 
ENDBRANCH  51  65
BRANCH  52  76
ATOM     76  C   UNL A   1      49.141  26.765  26.352  1.00  0.00     0.064 A 
ATOM     77  C   UNL A   1      49.474  26.938  25.002  1.00  0.00     0.173 A 
ATOM     78  C   UNL A   1      50.140  26.295  27.217  1.00  0.00     0.173 A 
ATOM     79  F   UNL A   1      48.545  27.364  24.133  1.00  0.00    -0.203 F 
ATOM     80  C   UNL A   1      50.748  26.628  24.530  1.00  0.00     0.198 A 
ATOM     81  C   UNL A   1      51.422  26.011  26.748  1.00  0.00     0.198 A 
ATOM     82  F   UNL A   1      49.873  26.117  28.519  1.00  0.00    -0.203 F 
ATOM     83  F   UNL A   1      51.024  26.756  23.225  1.00  0.00    -0.200 F 
ATOM     84  C   UNL A   1      51.722  26.169  25.403  1.00  0.00     0.200 A 
ATOM     85  F   UNL A   1      52.363  25.579  27.597  1.00  0.00    -0.200 F 
ATOM     86  F   UNL A   1      52.946  25.871  24.948  1.00  0.00    -0.200 F 
ENDBRANCH  52  76
BRANCH  64  87
ATOM     87  C   UNL A   1      45.994  32.551  28.627  1.00  0.00     0.064 A 
ATOM     88  C   UNL A   1      46.555  32.926  29.856  1.00  0.00     0.173 A 
ATOM     89  C   UNL A   1      45.962  33.502  27.597  1.00  0.00     0.173 A 
ATOM     90  F   UNL A   1      46.593  32.055  30.875  1.00  0.00    -0.203 F 
ATOM     91  C   UNL A   1      47.056  34.211  30.047  1.00  0.00     0.198 A 
ATOM     92  C   UNL A   1      46.487  34.777  27.784  1.00  0.00     0.198 A 
ATOM     93  F   UNL A   1      45.440  33.187  26.402  1.00  0.00    -0.203 F 
ATOM     94  F   UNL A   1      47.561  34.560  31.239  1.00  0.00    -0.200 F 
ATOM     95  C   UNL A   1      47.031  35.131  29.009  1.00  0.00     0.200 A 
ATOM     96  F   UNL A   1      46.472  35.661  26.777  1.00  0.00    -0.200 F 
ATOM     97  F   UNL A   1      47.527  36.362  29.192  1.00  0.00    -0.200 F 
ENDBRANCH  64  87
ENDBRANCH  38  39
ENDBRANCH  30  33
ENDBRANCH  28  29
ENDBRANCH  27  28
ENDBRANCH  26  27
ENDBRANCH   1  26
TORSDOF 16
ENDMDL
MODEL 3
REMARK VINA RESULT:     -11.6      0.311      1.225
REMARK SMILES CCC[C@@]1(C(=O)N[C@@](C)(C(=O)NCCCCNC(=O)c2ccc(-c3c4nc(c(-c5c(F)c(F)c(F)c(F)c5F)c5ccc([nH]5)c(-c5c(F)c(F)c(F)c(F)c5F)c5nc(c(-c6c(F)c(F)c(F)c(F)c6F)c6ccc3[nH]6)C=C5)C=C4)cc2)C(F)(F)F)CC[NH2+]C1
REMARK SMILES IDX 13 1 12 2 10 3 11 4 8 6 9 7 7 8 5 9 6 10 4 12 87 13 90 14
REMARK SMILES IDX 88 15 89 16 3 19 2 20 1 21 83 22 84 23 85 24 86 25 14 26
REMARK SMILES IDX 15 27 16 28 17 29 18 30 19 32 20 33 21 34 82 35 22 36 81 37
REMARK SMILES IDX 23 38 24 39 25 40 75 41 26 42 80 43 74 44 76 45 27 46 79 47
REMARK SMILES IDX 73 48 72 49 28 51 60 52 40 53 59 54 41 55 44 56 58 57 77 58
REMARK SMILES IDX 42 59 43 60 57 62 78 63 45 64 29 65 30 66 38 67 31 68 32 69
REMARK SMILES IDX 36 70 39 71 33 72 34 73 37 74 35 75 61 76 62 77 70 78 63 79
REMARK SMILES IDX 64 80 68 81 71 82 65 83 66 84 69 85 67 86 46 87 47 88 55 89
REMARK SMILES IDX 48 90 49 91 53 92 56 93 50 94 51 95 54 96 52 97
REMARK H PARENT 12 5 7 11 89 17 89 18 17 31 76 50 44 61
REMARK Flexibility Score: inf
ROOT
ATOM      1  C   UNL A   1      32.795  29.705  25.364  1.00  0.00     0.116 C 
ENDROOT
BRANCH   1   2
ATOM      2  N   UNL A   1      31.947  29.714  24.186  1.00  0.00    -0.354 N 
ATOM      3  C   UNL A   1      31.465  28.729  23.371  1.00  0.00     0.254 C 
ATOM      4  O   UNL A   1      30.499  29.066  22.680  1.00  0.00    -0.272 OA
ATOM      5  H   UNL A   1      31.660  30.617  23.919  1.00  0.00     0.163 HD
BRANCH   3   6
ATOM      6  C   UNL A   1      32.022  27.283  23.356  1.00  0.00     0.212 C 
ATOM      7  C   UNL A   1      31.272  26.444  22.294  1.00  0.00     0.056 C 
BRANCH   6   8
ATOM      8  N   UNL A   1      31.738  26.630  24.701  1.00  0.00    -0.334 N 
ATOM      9  C   UNL A   1      32.478  25.792  25.482  1.00  0.00     0.233 C 
ATOM     10  O   UNL A   1      32.887  26.291  26.534  1.00  0.00    -0.274 OA
ATOM     11  H   UNL A   1      30.857  26.855  25.077  1.00  0.00     0.164 HD
BRANCH   9  12
ATOM     12  C   UNL A   1      32.600  24.280  25.204  1.00  0.00     0.103 C 
ATOM     13  C   UNL A   1      31.238  23.678  24.759  1.00  0.00     0.084 C 
ATOM     14  C   UNL A   1      32.833  23.541  26.532  1.00  0.00     0.277 C 
ATOM     15  C   UNL A   1      30.636  23.101  26.025  1.00  0.00     0.261 C 
ATOM     16  N   UNL A   1      31.808  22.493  26.655  1.00  0.00    -0.345 N 
ATOM     17  H   UNL A   1      32.091  21.645  26.161  1.00  0.00     0.346 HD
ATOM     18  H   UNL A   1      31.642  22.204  27.618  1.00  0.00     0.346 HD
BRANCH  12  19
ATOM     19  C   UNL A   1      33.696  23.994  24.135  1.00  0.00     0.023 C 
BRANCH  19  20
ATOM     20  C   UNL A   1      35.167  24.185  24.560  1.00  0.00    -0.002 C 
ATOM     21  C   UNL A   1      36.073  22.982  24.358  1.00  0.00     0.004 C 
ENDBRANCH  19  20
ENDBRANCH  12  19
ENDBRANCH   9  12
ENDBRANCH   6   8
BRANCH   6  22
ATOM     22  C   UNL A   1      33.479  27.347  22.831  1.00  0.00     0.420 C 
ATOM     23  F   UNL A   1      34.431  27.403  23.776  1.00  0.00    -0.168 F 
ATOM     24  F   UNL A   1      33.743  26.254  22.067  1.00  0.00    -0.168 F 
ATOM     25  F   UNL A   1      33.671  28.422  22.023  1.00  0.00    -0.168 F 
ENDBRANCH   6  22
ENDBRANCH   3   6
ENDBRANCH   1   2
BRANCH   1  26
ATOM     26  C   UNL A   1      32.057  30.093  26.642  1.00  0.00     0.023 C 
BRANCH  26  27
ATOM     27  C   UNL A   1      31.722  31.577  26.791  1.00  0.00     0.023 C 
BRANCH  27  28
ATOM     28  C   UNL A   1      32.839  32.459  27.334  1.00  0.00     0.116 C 
BRANCH  28  29
ATOM     29  N   UNL A   1      32.425  33.831  27.589  1.00  0.00    -0.352 N 
ATOM     30  C   UNL A   1      32.970  34.754  28.454  1.00  0.00     0.251 C 
ATOM     31  H   UNL A   1      31.648  34.143  27.072  1.00  0.00     0.163 HD
ATOM     32  O   UNL A   1      32.444  35.845  28.615  1.00  0.00    -0.269 OA
BRANCH  30  33
ATOM     33  C   UNL A   1      34.180  34.394  29.223  1.00  0.00     0.039 A 
ATOM     34  C   UNL A   1      34.032  33.783  30.470  1.00  0.00     0.014 A 
ATOM     35  C   UNL A   1      35.451  34.610  28.684  1.00  0.00     0.014 A 
ATOM     36  C   UNL A   1      35.160  33.302  31.142  1.00  0.00     0.010 A 
ATOM     37  C   UNL A   1      36.565  34.073  29.323  1.00  0.00     0.010 A 
ATOM     38  C   UNL A   1      36.429  33.401  30.549  1.00  0.00    -0.014 A 
BRANCH  38  39
ATOM     39  C   UNL A   1      37.636  32.803  31.173  1.00  0.00     0.031 A 
ATOM     40  C   UNL A   1      38.313  31.636  30.512  1.00  0.00     0.074 A 
ATOM     41  C   UNL A   1      38.045  33.227  32.385  1.00  0.00     0.049 A 
ATOM     42  N   UNL A   1      39.249  30.849  30.978  1.00  0.00    -0.248 NA
ATOM     43  C   UNL A   1      37.849  31.288  29.160  1.00  0.00     0.031 C 
ATOM     44  C   UNL A   1      37.446  34.323  33.148  1.00  0.00     0.029 A 
ATOM     45  N   UNL A   1      39.045  32.762  33.205  1.00  0.00    -0.354 N 
ATOM     46  C   UNL A   1      39.457  29.892  29.994  1.00  0.00     0.074 A 
ATOM     47  C   UNL A   1      38.534  30.179  28.918  1.00  0.00     0.031 C 
ATOM     48  C   UNL A   1      38.084  34.442  34.324  1.00  0.00     0.029 A 
ATOM     49  C   UNL A   1      39.108  33.406  34.416  1.00  0.00     0.049 A 
ATOM     50  H   UNL A   1      39.658  32.035  32.948  1.00  0.00     0.167 HD
ATOM     51  C   UNL A   1      40.347  28.871  29.988  1.00  0.00     0.037 A 
ATOM     52  C   UNL A   1      39.885  33.170  35.491  1.00  0.00     0.037 A 
ATOM     53  C   UNL A   1      41.298  28.621  31.036  1.00  0.00     0.049 A 
ATOM     54  C   UNL A   1      40.884  32.045  35.445  1.00  0.00     0.074 A 
ATOM     55  C   UNL A   1      42.298  27.664  31.082  1.00  0.00     0.029 A 
ATOM     56  N   UNL A   1      41.372  29.335  32.222  1.00  0.00    -0.354 N 
ATOM     57  N   UNL A   1      41.116  31.184  34.484  1.00  0.00    -0.248 NA
ATOM     58  C   UNL A   1      41.732  31.858  36.633  1.00  0.00     0.031 C 
ATOM     59  C   UNL A   1      42.954  27.778  32.312  1.00  0.00     0.029 A 
ATOM     60  C   UNL A   1      42.390  28.830  33.014  1.00  0.00     0.049 A 
ATOM     61  H   UNL A   1      40.787  30.089  32.466  1.00  0.00     0.167 HD
ATOM     62  C   UNL A   1      42.151  30.376  34.937  1.00  0.00     0.074 A 
ATOM     63  C   UNL A   1      42.509  30.853  36.256  1.00  0.00     0.031 C 
ATOM     64  C   UNL A   1      42.749  29.333  34.314  1.00  0.00     0.037 A 
BRANCH  51  65
ATOM     65  C   UNL A   1      40.340  27.945  28.809  1.00  0.00     0.064 A 
ATOM     66  C   UNL A   1      41.084  28.219  27.654  1.00  0.00     0.173 A 
ATOM     67  C   UNL A   1      39.625  26.739  28.861  1.00  0.00     0.173 A 
ATOM     68  F   UNL A   1      41.775  29.364  27.552  1.00  0.00    -0.203 F 
ATOM     69  C   UNL A   1      41.099  27.329  26.584  1.00  0.00     0.198 A 
ATOM     70  C   UNL A   1      39.662  25.838  27.800  1.00  0.00     0.198 A 
ATOM     71  F   UNL A   1      38.900  26.428  29.946  1.00  0.00    -0.203 F 
ATOM     72  F   UNL A   1      41.787  27.628  25.474  1.00  0.00    -0.200 F 
ATOM     73  C   UNL A   1      40.394  26.135  26.661  1.00  0.00     0.200 A 
ATOM     74  F   UNL A   1      38.991  24.681  27.881  1.00  0.00    -0.200 F 
ATOM     75  F   UNL A   1      40.419  25.274  25.635  1.00  0.00    -0.200 F 
ENDBRANCH  51  65
BRANCH  52  76
ATOM     76  C   UNL A   1      39.752  34.013  36.708  1.00  0.00     0.064 A 
ATOM     77  C   UNL A   1      40.474  35.207  36.837  1.00  0.00     0.173 A 
ATOM     78  C   UNL A   1      38.918  33.635  37.771  1.00  0.00     0.173 A 
ATOM     79  F   UNL A   1      41.302  35.598  35.857  1.00  0.00    -0.203 F 
ATOM     80  C   UNL A   1      40.385  35.980  37.994  1.00  0.00     0.198 A 
ATOM     81  C   UNL A   1      38.810  34.423  38.915  1.00  0.00     0.198 A 
ATOM     82  F   UNL A   1      38.204  32.503  37.693  1.00  0.00    -0.203 F 
ATOM     83  F   UNL A   1      41.124  37.092  38.111  1.00  0.00    -0.200 F 
ATOM     84  C   UNL A   1      39.550  35.590  39.030  1.00  0.00     0.200 A 
ATOM     85  F   UNL A   1      37.994  34.049  39.909  1.00  0.00    -0.200 F 
ATOM     86  F   UNL A   1      39.467  36.333  40.141  1.00  0.00    -0.200 F 
ENDBRANCH  52  76
BRANCH  64  87
ATOM     87  C   UNL A   1      43.885  28.661  35.024  1.00  0.00     0.064 A 
ATOM     88  C   UNL A   1      45.201  29.129  34.909  1.00  0.00     0.173 A 
ATOM     89  C   UNL A   1      43.640  27.579  35.882  1.00  0.00     0.173 A 
ATOM     90  F   UNL A   1      45.485  30.151  34.089  1.00  0.00    -0.203 F 
ATOM     91  C   UNL A   1      46.235  28.528  35.621  1.00  0.00     0.198 A 
ATOM     92  C   UNL A   1      44.673  26.997  36.612  1.00  0.00     0.198 A 
ATOM     93  F   UNL A   1      42.396  27.100  36.028  1.00  0.00    -0.203 F 
ATOM     94  F   UNL A   1      47.492  28.971  35.475  1.00  0.00    -0.200 F 
ATOM     95  C   UNL A   1      45.970  27.470  36.479  1.00  0.00     0.200 A 
ATOM     96  F   UNL A   1      44.412  25.983  37.447  1.00  0.00    -0.200 F 
ATOM     97  F   UNL A   1      46.965  26.903  37.174  1.00  0.00    -0.200 F 
ENDBRANCH  64  87
ENDBRANCH  38  39
ENDBRANCH  30  33
ENDBRANCH  28  29
ENDBRANCH  27  28
ENDBRANCH  26  27
ENDBRANCH   1  26
TORSDOF 16
ENDMDL
