MODEL 1
REMARK VINA RESULT:     -10.0      0.000      0.000
REMARK SMILES CCSc1cccc(-c2ccc([C@@H](C)C(=O)NCCCCNC(=O)c3ccc(-c4c5nc(c(-c6c(F)c(F)c(F)c(F)c6F)c6ccc([nH]6)c(-c6c(F)c(F)c(F)c(F)c6F)c6nc(c(-c7c(F)c(F)c(F)c(F)c7F)c7ccc4[nH]7)C=C6)C=C5)cc3)cc2)c1
REMARK SMILES IDX 18 1 17 2 15 3 16 4 13 6 14 7 12 8 9 9 10 10 89 11 11 12
REMARK SMILES IDX 88 13 8 14 4 15 5 16 90 17 6 18 7 19 3 20 2 21 1 22 19 23
REMARK SMILES IDX 20 24 21 25 22 26 23 27 24 29 25 30 26 31 87 32 27 33 86 34
REMARK SMILES IDX 28 35 29 36 30 37 80 38 31 39 85 40 79 41 81 42 32 43 84 44
REMARK SMILES IDX 78 45 77 46 33 48 65 49 45 50 64 51 46 52 49 53 63 54 82 55
REMARK SMILES IDX 47 56 48 57 62 59 83 60 50 61 34 62 35 63 43 64 36 65 37 66
REMARK SMILES IDX 41 67 44 68 38 69 39 70 42 71 40 72 66 73 67 74 75 75 68 76
REMARK SMILES IDX 69 77 73 78 76 79 70 80 71 81 74 82 72 83 51 84 52 85 60 86
REMARK SMILES IDX 53 87 54 88 58 89 61 90 55 91 56 92 59 93 57 94
REMARK H PARENT 17 5 22 28 81 47 49 58
REMARK Flexibility Score: inf
ROOT
ATOM      1  C   UNL A   1      33.031  35.549  30.207  1.00  0.00     0.116 C 
ENDROOT
BRANCH   1   2
ATOM      2  N   UNL A   1      33.512  36.290  31.354  1.00  0.00    -0.356 N 
ATOM      3  C   UNL A   1      34.303  35.915  32.397  1.00  0.00     0.227 C 
ATOM      4  O   UNL A   1      34.494  36.766  33.274  1.00  0.00    -0.274 OA
ATOM      5  H   UNL A   1      33.215  37.228  31.385  1.00  0.00     0.163 HD
BRANCH   3   6
ATOM      6  C   UNL A   1      34.960  34.530  32.517  1.00  0.00     0.105 C 
ATOM      7  C   UNL A   1      34.790  33.881  33.891  1.00  0.00     0.023 C 
BRANCH   6   8
ATOM      8  C   UNL A   1      36.353  34.470  31.909  1.00  0.00    -0.036 A 
ATOM      9  C   UNL A   1      39.022  34.208  30.901  1.00  0.00    -0.018 A 
ATOM     10  C   UNL A   1      37.897  34.010  30.084  1.00  0.00     0.009 A 
ATOM     11  C   UNL A   1      38.773  34.578  32.232  1.00  0.00     0.009 A 
ATOM     12  C   UNL A   1      36.591  34.173  30.566  1.00  0.00     0.005 A 
ATOM     13  C   UNL A   1      37.467  34.686  32.732  1.00  0.00     0.005 A 
BRANCH   9  14
ATOM     14  C   UNL A   1      40.401  34.030  30.378  1.00  0.00    -0.017 A 
ATOM     15  C   UNL A   1      42.502  32.738  30.250  1.00  0.00     0.008 A 
ATOM     16  C   UNL A   1      43.033  33.695  29.388  1.00  0.00     0.015 A 
ATOM     17  C   UNL A   1      41.191  32.917  30.731  1.00  0.00     0.023 A 
ATOM     18  C   UNL A   1      42.273  34.799  29.006  1.00  0.00     0.002 A 
ATOM     19  C   UNL A   1      40.979  34.966  29.503  1.00  0.00     0.009 A 
BRANCH  15  20
ATOM     20  S   UNL A   1      43.398  31.309  30.851  1.00  0.00    -0.126 SA
BRANCH  20  21
ATOM     21  C   UNL A   1      44.049  30.514  29.343  1.00  0.00     0.071 C 
ATOM     22  C   UNL A   1      42.946  30.146  28.367  1.00  0.00     0.016 C 
ENDBRANCH  20  21
ENDBRANCH  15  20
ENDBRANCH   9  14
ENDBRANCH   6   8
ENDBRANCH   3   6
ENDBRANCH   1   2
BRANCH   1  23
ATOM     23  C   UNL A   1      33.710  35.985  28.909  1.00  0.00     0.023 C 
BRANCH  23  24
ATOM     24  C   UNL A   1      34.187  34.843  28.015  1.00  0.00     0.023 C 
BRANCH  24  25
ATOM     25  C   UNL A   1      33.974  33.441  28.574  1.00  0.00     0.116 C 
BRANCH  25  26
ATOM     26  N   UNL A   1      33.232  32.551  27.690  1.00  0.00    -0.352 N 
ATOM     27  C   UNL A   1      33.587  31.296  27.250  1.00  0.00     0.251 C 
ATOM     28  H   UNL A   1      32.366  32.891  27.367  1.00  0.00     0.163 HD
ATOM     29  O   UNL A   1      32.888  30.684  26.454  1.00  0.00    -0.269 OA
BRANCH  27  30
ATOM     30  C   UNL A   1      34.865  30.718  27.717  1.00  0.00     0.039 A 
ATOM     31  C   UNL A   1      36.001  31.532  27.746  1.00  0.00     0.014 A 
ATOM     32  C   UNL A   1      34.911  29.412  28.209  1.00  0.00     0.014 A 
ATOM     33  C   UNL A   1      37.161  31.069  28.370  1.00  0.00     0.010 A 
ATOM     34  C   UNL A   1      36.044  28.977  28.886  1.00  0.00     0.010 A 
ATOM     35  C   UNL A   1      37.170  29.810  28.992  1.00  0.00    -0.014 A 
BRANCH  35  36
ATOM     36  C   UNL A   1      38.325  29.351  29.804  1.00  0.00     0.031 A 
ATOM     37  C   UNL A   1      38.572  29.948  31.158  1.00  0.00     0.074 A 
ATOM     38  C   UNL A   1      39.206  28.483  29.273  1.00  0.00     0.049 A 
ATOM     39  N   UNL A   1      39.600  29.798  31.952  1.00  0.00    -0.248 NA
ATOM     40  C   UNL A   1      37.540  30.861  31.672  1.00  0.00     0.031 C 
ATOM     41  C   UNL A   1      39.100  27.870  27.947  1.00  0.00     0.029 A 
ATOM     42  N   UNL A   1      40.383  27.984  29.773  1.00  0.00    -0.354 N 
ATOM     43  C   UNL A   1      39.351  30.614  33.047  1.00  0.00     0.074 A 
ATOM     44  C   UNL A   1      38.095  31.287  32.798  1.00  0.00     0.031 C 
ATOM     45  C   UNL A   1      40.160  27.072  27.743  1.00  0.00     0.029 A 
ATOM     46  C   UNL A   1      41.042  27.148  28.903  1.00  0.00     0.049 A 
ATOM     47  H   UNL A   1      40.723  28.204  30.670  1.00  0.00     0.167 HD
ATOM     48  C   UNL A   1      40.097  30.770  34.165  1.00  0.00     0.037 A 
ATOM     49  C   UNL A   1      42.232  26.531  29.021  1.00  0.00     0.037 A 
ATOM     50  C   UNL A   1      41.325  30.069  34.426  1.00  0.00     0.049 A 
ATOM     51  C   UNL A   1      43.045  26.732  30.270  1.00  0.00     0.074 A 
ATOM     52  C   UNL A   1      42.104  30.089  35.570  1.00  0.00     0.029 A 
ATOM     53  N   UNL A   1      41.955  29.222  33.527  1.00  0.00    -0.354 N 
ATOM     54  N   UNL A   1      42.768  27.452  31.328  1.00  0.00    -0.248 NA
ATOM     55  C   UNL A   1      44.340  26.039  30.337  1.00  0.00     0.031 C 
ATOM     56  C   UNL A   1      43.226  29.282  35.348  1.00  0.00     0.029 A 
ATOM     57  C   UNL A   1      43.128  28.734  34.078  1.00  0.00     0.049 A 
ATOM     58  H   UNL A   1      41.617  29.000  32.628  1.00  0.00     0.167 HD
ATOM     59  C   UNL A   1      43.842  27.291  32.192  1.00  0.00     0.074 A 
ATOM     60  C   UNL A   1      44.771  26.391  31.541  1.00  0.00     0.031 C 
ATOM     61  C   UNL A   1      44.041  27.842  33.414  1.00  0.00     0.037 A 
BRANCH  48  62
ATOM     62  C   UNL A   1      39.598  31.735  35.199  1.00  0.00     0.064 A 
ATOM     63  C   UNL A   1      40.048  33.062  35.242  1.00  0.00     0.173 A 
ATOM     64  C   UNL A   1      38.634  31.335  36.137  1.00  0.00     0.173 A 
ATOM     65  F   UNL A   1      40.978  33.487  34.374  1.00  0.00    -0.203 F 
ATOM     66  C   UNL A   1      39.571  33.948  36.204  1.00  0.00     0.198 A 
ATOM     67  C   UNL A   1      38.140  32.232  37.081  1.00  0.00     0.198 A 
ATOM     68  F   UNL A   1      38.169  30.077  36.135  1.00  0.00    -0.203 F 
ATOM     69  F   UNL A   1      40.048  35.199  36.253  1.00  0.00    -0.200 F 
ATOM     70  C   UNL A   1      38.613  33.535  37.118  1.00  0.00     0.200 A 
ATOM     71  F   UNL A   1      37.209  31.834  37.958  1.00  0.00    -0.200 F 
ATOM     72  F   UNL A   1      38.152  34.391  38.039  1.00  0.00    -0.200 F 
ENDBRANCH  48  62
BRANCH  49  73
ATOM     73  C   UNL A   1      42.727  25.661  27.924  1.00  0.00     0.064 A 
ATOM     74  C   UNL A   1      43.588  26.169  26.941  1.00  0.00     0.173 A 
ATOM     75  C   UNL A   1      42.355  24.312  27.834  1.00  0.00     0.173 A 
ATOM     76  F   UNL A   1      43.953  27.460  26.975  1.00  0.00    -0.203 F 
ATOM     77  C   UNL A   1      44.048  25.364  25.903  1.00  0.00     0.198 A 
ATOM     78  C   UNL A   1      42.834  23.501  26.806  1.00  0.00     0.198 A 
ATOM     79  F   UNL A   1      41.534  23.779  28.751  1.00  0.00    -0.203 F 
ATOM     80  F   UNL A   1      44.842  25.884  24.956  1.00  0.00    -0.200 F 
ATOM     81  C   UNL A   1      43.676  24.029  25.839  1.00  0.00     0.200 A 
ATOM     82  F   UNL A   1      42.480  22.211  26.754  1.00  0.00    -0.200 F 
ATOM     83  F   UNL A   1      44.121  23.254  24.841  1.00  0.00    -0.200 F 
ENDBRANCH  49  73
BRANCH  61  84
ATOM     84  C   UNL A   1      45.307  27.483  34.130  1.00  0.00     0.064 A 
ATOM     85  C   UNL A   1      46.459  28.273  34.012  1.00  0.00     0.173 A 
ATOM     86  C   UNL A   1      45.351  26.373  34.987  1.00  0.00     0.173 A 
ATOM     87  F   UNL A   1      46.470  29.333  33.191  1.00  0.00    -0.203 F 
ATOM     88  C   UNL A   1      47.616  27.956  34.719  1.00  0.00     0.198 A 
ATOM     89  C   UNL A   1      46.502  26.074  35.709  1.00  0.00     0.198 A 
ATOM     90  F   UNL A   1      44.271  25.590  35.135  1.00  0.00    -0.203 F 
ATOM     91  F   UNL A   1      48.717  28.706  34.568  1.00  0.00    -0.200 F 
ATOM     92  C   UNL A   1      47.633  26.864  35.573  1.00  0.00     0.200 A 
ATOM     93  F   UNL A   1      46.514  25.023  36.542  1.00  0.00    -0.200 F 
ATOM     94  F   UNL A   1      48.745  26.567  36.261  1.00  0.00    -0.200 F 
ENDBRANCH  61  84
ENDBRANCH  35  36
ENDBRANCH  27  30
ENDBRANCH  25  26
ENDBRANCH  24  25
ENDBRANCH  23  24
ENDBRANCH   1  23
TORSDOF 15
ENDMDL
MODEL 2
REMARK VINA RESULT:      -9.8      4.732      7.883
REMARK SMILES CCSc1cccc(-c2ccc([C@@H](C)C(=O)NCCCCNC(=O)c3ccc(-c4c5nc(c(-c6c(F)c(F)c(F)c(F)c6F)c6ccc([nH]6)c(-c6c(F)c(F)c(F)c(F)c6F)c6nc(c(-c7c(F)c(F)c(F)c(F)c7F)c7ccc4[nH]7)C=C6)C=C5)cc3)cc2)c1
REMARK SMILES IDX 18 1 17 2 15 3 16 4 13 6 14 7 12 8 9 9 10 10 89 11 11 12
REMARK SMILES IDX 88 13 8 14 4 15 5 16 90 17 6 18 7 19 3 20 2 21 1 22 19 23
REMARK SMILES IDX 20 24 21 25 22 26 23 27 24 29 25 30 26 31 87 32 27 33 86 34
REMARK SMILES IDX 28 35 29 36 30 37 80 38 31 39 85 40 79 41 81 42 32 43 84 44
REMARK SMILES IDX 78 45 77 46 33 48 65 49 45 50 64 51 46 52 49 53 63 54 82 55
REMARK SMILES IDX 47 56 48 57 62 59 83 60 50 61 34 62 35 63 43 64 36 65 37 66
REMARK SMILES IDX 41 67 44 68 38 69 39 70 42 71 40 72 66 73 67 74 75 75 68 76
REMARK SMILES IDX 69 77 73 78 76 79 70 80 71 81 74 82 72 83 51 84 52 85 60 86
REMARK SMILES IDX 53 87 54 88 58 89 61 90 55 91 56 92 59 93 57 94
REMARK H PARENT 17 5 22 28 81 47 49 58
REMARK Flexibility Score: inf
ROOT
ATOM      1  C   UNL A   1      30.978  27.097  25.883  1.00  0.00     0.116 C 
ENDROOT
BRANCH   1   2
ATOM      2  N   UNL A   1      30.767  27.424  24.489  1.00  0.00    -0.356 N 
ATOM      3  C   UNL A   1      31.650  27.687  23.486  1.00  0.00     0.227 C 
ATOM      4  O   UNL A   1      31.161  28.003  22.394  1.00  0.00    -0.274 OA
ATOM      5  H   UNL A   1      29.821  27.464  24.220  1.00  0.00     0.163 HD
BRANCH   3   6
ATOM      6  C   UNL A   1      33.176  27.595  23.644  1.00  0.00     0.105 C 
ATOM      7  C   UNL A   1      33.954  28.485  22.674  1.00  0.00     0.023 C 
BRANCH   6   8
ATOM      8  C   UNL A   1      33.680  26.169  23.805  1.00  0.00    -0.036 A 
ATOM      9  C   UNL A   1      34.506  23.465  24.273  1.00  0.00    -0.018 A 
ATOM     10  C   UNL A   1      33.899  23.859  23.068  1.00  0.00     0.009 A 
ATOM     11  C   UNL A   1      34.722  24.475  25.224  1.00  0.00     0.009 A 
ATOM     12  C   UNL A   1      33.527  25.188  22.824  1.00  0.00     0.005 A 
ATOM     13  C   UNL A   1      34.299  25.793  25.005  1.00  0.00     0.005 A 
BRANCH   9  14
ATOM     14  C   UNL A   1      34.894  22.053  24.521  1.00  0.00    -0.017 A 
ATOM     15  C   UNL A   1      34.288  19.678  24.819  1.00  0.00     0.008 A 
ATOM     16  C   UNL A   1      35.633  19.362  25.001  1.00  0.00     0.015 A 
ATOM     17  C   UNL A   1      33.938  21.020  24.578  1.00  0.00     0.023 A 
ATOM     18  C   UNL A   1      36.606  20.358  24.934  1.00  0.00     0.002 A 
ATOM     19  C   UNL A   1      36.238  21.685  24.706  1.00  0.00     0.009 A 
BRANCH  15  20
ATOM     20  S   UNL A   1      32.946  18.497  24.934  1.00  0.00    -0.126 SA
BRANCH  20  21
ATOM     21  C   UNL A   1      32.906  17.695  23.295  1.00  0.00     0.071 C 
ATOM     22  C   UNL A   1      34.029  16.688  23.122  1.00  0.00     0.016 C 
ENDBRANCH  20  21
ENDBRANCH  15  20
ENDBRANCH   9  14
ENDBRANCH   6   8
ENDBRANCH   3   6
ENDBRANCH   1   2
BRANCH   1  23
ATOM     23  C   UNL A   1      31.428  28.306  26.701  1.00  0.00     0.023 C 
BRANCH  23  24
ATOM     24  C   UNL A   1      32.815  28.180  27.329  1.00  0.00     0.023 C 
BRANCH  24  25
ATOM     25  C   UNL A   1      33.841  29.206  26.862  1.00  0.00     0.116 C 
BRANCH  25  26
ATOM     26  N   UNL A   1      33.805  30.464  27.596  1.00  0.00    -0.352 N 
ATOM     27  C   UNL A   1      34.767  30.993  28.427  1.00  0.00     0.251 C 
ATOM     28  H   UNL A   1      32.990  31.004  27.483  1.00  0.00     0.163 HD
ATOM     29  O   UNL A   1      34.572  32.040  29.031  1.00  0.00    -0.269 OA
BRANCH  27  30
ATOM     30  C   UNL A   1      36.025  30.243  28.622  1.00  0.00     0.039 A 
ATOM     31  C   UNL A   1      36.994  30.281  27.616  1.00  0.00     0.014 A 
ATOM     32  C   UNL A   1      36.277  29.589  29.830  1.00  0.00     0.014 A 
ATOM     33  C   UNL A   1      38.261  29.751  27.864  1.00  0.00     0.010 A 
ATOM     34  C   UNL A   1      37.557  29.121  30.099  1.00  0.00     0.010 A 
ATOM     35  C   UNL A   1      38.567  29.219  29.126  1.00  0.00    -0.014 A 
BRANCH  35  36
ATOM     36  C   UNL A   1      39.944  28.797  29.482  1.00  0.00     0.031 A 
ATOM     37  C   UNL A   1      40.837  29.727  30.248  1.00  0.00     0.074 A 
ATOM     38  C   UNL A   1      40.421  27.627  29.017  1.00  0.00     0.049 A 
ATOM     39  N   UNL A   1      42.111  29.612  30.522  1.00  0.00    -0.248 NA
ATOM     40  C   UNL A   1      40.222  30.967  30.746  1.00  0.00     0.031 C 
ATOM     41  C   UNL A   1      39.664  26.659  28.220  1.00  0.00     0.029 A 
ATOM     42  N   UNL A   1      41.668  27.063  29.124  1.00  0.00    -0.354 N 
ATOM     43  C   UNL A   1      42.456  30.773  31.200  1.00  0.00     0.074 A 
ATOM     44  C   UNL A   1      41.268  31.597  31.264  1.00  0.00     0.031 C 
ATOM     45  C   UNL A   1      40.458  25.618  27.919  1.00  0.00     0.029 A 
ATOM     46  C   UNL A   1      41.789  25.863  28.464  1.00  0.00     0.049 A 
ATOM     47  H   UNL A   1      42.406  27.478  29.627  1.00  0.00     0.167 HD
ATOM     48  C   UNL A   1      43.651  31.109  31.737  1.00  0.00     0.037 A 
ATOM     49  C   UNL A   1      42.859  25.063  28.300  1.00  0.00     0.037 A 
ATOM     50  C   UNL A   1      44.819  30.270  31.707  1.00  0.00     0.049 A 
ATOM     51  C   UNL A   1      44.179  25.467  28.897  1.00  0.00     0.074 A 
ATOM     52  C   UNL A   1      46.049  30.481  32.303  1.00  0.00     0.029 A 
ATOM     53  N   UNL A   1      44.900  29.057  31.039  1.00  0.00    -0.354 N 
ATOM     54  N   UNL A   1      44.477  26.535  29.595  1.00  0.00    -0.248 NA
ATOM     55  C   UNL A   1      45.313  24.558  28.678  1.00  0.00     0.031 C 
ATOM     56  C   UNL A   1      46.888  29.413  31.966  1.00  0.00     0.029 A 
ATOM     57  C   UNL A   1      46.168  28.521  31.185  1.00  0.00     0.049 A 
ATOM     58  H   UNL A   1      44.164  28.639  30.535  1.00  0.00     0.167 HD
ATOM     59  C   UNL A   1      45.823  26.422  29.910  1.00  0.00     0.074 A 
ATOM     60  C   UNL A   1      46.283  25.173  29.340  1.00  0.00     0.031 C 
ATOM     61  C   UNL A   1      46.608  27.278  30.607  1.00  0.00     0.037 A 
BRANCH  48  62
ATOM     62  C   UNL A   1      43.755  32.444  32.413  1.00  0.00     0.064 A 
ATOM     63  C   UNL A   1      43.490  32.595  33.782  1.00  0.00     0.173 A 
ATOM     64  C   UNL A   1      44.156  33.577  31.690  1.00  0.00     0.173 A 
ATOM     65  F   UNL A   1      43.091  31.543  34.512  1.00  0.00    -0.203 F 
ATOM     66  C   UNL A   1      43.596  33.839  34.397  1.00  0.00     0.198 A 
ATOM     67  C   UNL A   1      44.286  34.814  32.315  1.00  0.00     0.198 A 
ATOM     68  F   UNL A   1      44.424  33.484  30.379  1.00  0.00    -0.203 F 
ATOM     69  F   UNL A   1      43.295  33.968  35.696  1.00  0.00    -0.200 F 
ATOM     70  C   UNL A   1      44.001  34.945  33.666  1.00  0.00     0.200 A 
ATOM     71  F   UNL A   1      44.685  35.881  31.609  1.00  0.00    -0.200 F 
ATOM     72  F   UNL A   1      44.107  36.141  34.262  1.00  0.00    -0.200 F 
ENDBRANCH  48  62
BRANCH  49  73
ATOM     73  C   UNL A   1      42.727  23.797  27.537  1.00  0.00     0.064 A 
ATOM     74  C   UNL A   1      43.037  23.748  26.170  1.00  0.00     0.173 A 
ATOM     75  C   UNL A   1      42.291  22.613  28.151  1.00  0.00     0.173 A 
ATOM     76  F   UNL A   1      43.436  24.861  25.536  1.00  0.00    -0.203 F 
ATOM     77  C   UNL A   1      42.905  22.567  25.444  1.00  0.00     0.198 A 
ATOM     78  C   UNL A   1      42.180  21.427  27.428  1.00  0.00     0.198 A 
ATOM     79  F   UNL A   1      41.983  22.608  29.456  1.00  0.00    -0.203 F 
ATOM     80  F   UNL A   1      43.174  22.557  24.132  1.00  0.00    -0.200 F 
ATOM     81  C   UNL A   1      42.483  21.406  26.075  1.00  0.00     0.200 A 
ATOM     82  F   UNL A   1      41.782  20.305  28.042  1.00  0.00    -0.200 F 
ATOM     83  F   UNL A   1      42.359  20.269  25.376  1.00  0.00    -0.200 F 
ENDBRANCH  49  73
BRANCH  61  84
ATOM     84  C   UNL A   1      48.043  26.892  30.799  1.00  0.00     0.064 A 
ATOM     85  C   UNL A   1      48.432  26.025  31.830  1.00  0.00     0.173 A 
ATOM     86  C   UNL A   1      49.029  27.347  29.910  1.00  0.00     0.173 A 
ATOM     87  F   UNL A   1      47.528  25.580  32.715  1.00  0.00    -0.203 F 
ATOM     88  C   UNL A   1      49.761  25.635  31.970  1.00  0.00     0.198 A 
ATOM     89  C   UNL A   1      50.352  26.935  30.040  1.00  0.00     0.198 A 
ATOM     90  F   UNL A   1      48.703  28.174  28.906  1.00  0.00    -0.203 F 
ATOM     91  F   UNL A   1      50.118  24.830  32.981  1.00  0.00    -0.200 F 
ATOM     92  C   UNL A   1      50.717  26.083  31.071  1.00  0.00     0.200 A 
ATOM     93  F   UNL A   1      51.273  27.362  29.164  1.00  0.00    -0.200 F 
ATOM     94  F   UNL A   1      51.994  25.697  31.202  1.00  0.00    -0.200 F 
ENDBRANCH  61  84
ENDBRANCH  35  36
ENDBRANCH  27  30
ENDBRANCH  25  26
ENDBRANCH  24  25
ENDBRANCH  23  24
ENDBRANCH   1  23
TORSDOF 15
ENDMDL
MODEL 3
REMARK VINA RESULT:      -9.8      5.875     10.359
REMARK SMILES CCSc1cccc(-c2ccc([C@@H](C)C(=O)NCCCCNC(=O)c3ccc(-c4c5nc(c(-c6c(F)c(F)c(F)c(F)c6F)c6ccc([nH]6)c(-c6c(F)c(F)c(F)c(F)c6F)c6nc(c(-c7c(F)c(F)c(F)c(F)c7F)c7ccc4[nH]7)C=C6)C=C5)cc3)cc2)c1
REMARK SMILES IDX 18 1 17 2 15 3 16 4 13 6 14 7 12 8 9 9 10 10 89 11 11 12
REMARK SMILES IDX 88 13 8 14 4 15 5 16 90 17 6 18 7 19 3 20 2 21 1 22 19 23
REMARK SMILES IDX 20 24 21 25 22 26 23 27 24 29 25 30 26 31 87 32 27 33 86 34
REMARK SMILES IDX 28 35 29 36 30 37 80 38 31 39 85 40 79 41 81 42 32 43 84 44
REMARK SMILES IDX 78 45 77 46 33 48 65 49 45 50 64 51 46 52 49 53 63 54 82 55
REMARK SMILES IDX 47 56 48 57 62 59 83 60 50 61 34 62 35 63 43 64 36 65 37 66
REMARK SMILES IDX 41 67 44 68 38 69 39 70 42 71 40 72 66 73 67 74 75 75 68 76
REMARK SMILES IDX 69 77 73 78 76 79 70 80 71 81 74 82 72 83 51 84 52 85 60 86
REMARK SMILES IDX 53 87 54 88 58 89 61 90 55 91 56 92 59 93 57 94
REMARK H PARENT 17 5 22 28 81 47 49 58
REMARK Flexibility Score: inf
ROOT
ATOM      1  C   UNL A   1      35.887  21.912  24.392  1.00  0.00     0.116 C 
ENDROOT
BRANCH   1   2
ATOM      2  N   UNL A   1      34.559  21.365  24.571  1.00  0.00    -0.356 N 
ATOM      3  C   UNL A   1      33.602  21.619  25.506  1.00  0.00     0.227 C 
ATOM      4  O   UNL A   1      32.573  20.936  25.437  1.00  0.00    -0.274 OA
ATOM      5  H   UNL A   1      34.304  20.690  23.901  1.00  0.00     0.163 HD
BRANCH   3   6
ATOM      6  C   UNL A   1      33.736  22.695  26.595  1.00  0.00     0.105 C 
ATOM      7  C   UNL A   1      33.323  22.220  27.990  1.00  0.00     0.023 C 
BRANCH   6   8
ATOM      8  C   UNL A   1      33.214  24.057  26.164  1.00  0.00    -0.036 A 
ATOM      9  C   UNL A   1      32.187  26.661  25.551  1.00  0.00    -0.018 A 
ATOM     10  C   UNL A   1      33.504  26.287  25.233  1.00  0.00     0.009 A 
ATOM     11  C   UNL A   1      31.386  25.679  26.154  1.00  0.00     0.009 A 
ATOM     12  C   UNL A   1      33.996  25.003  25.500  1.00  0.00     0.005 A 
ATOM     13  C   UNL A   1      31.893  24.411  26.473  1.00  0.00     0.005 A 
BRANCH   9  14
ATOM     14  C   UNL A   1      31.678  28.027  25.265  1.00  0.00    -0.017 A 
ATOM     15  C   UNL A   1      30.425  29.597  23.830  1.00  0.00     0.008 A 
ATOM     16  C   UNL A   1      30.715  30.633  24.716  1.00  0.00     0.015 A 
ATOM     17  C   UNL A   1      30.908  28.307  24.119  1.00  0.00     0.023 A 
ATOM     18  C   UNL A   1      31.460  30.386  25.868  1.00  0.00     0.002 A 
ATOM     19  C   UNL A   1      31.941  29.102  26.132  1.00  0.00     0.009 A 
BRANCH  15  20
ATOM     20  S   UNL A   1      29.525  29.801  22.295  1.00  0.00    -0.126 SA
BRANCH  20  21
ATOM     21  C   UNL A   1      27.782  29.973  22.811  1.00  0.00     0.071 C 
ATOM     22  C   UNL A   1      27.186  28.652  23.262  1.00  0.00     0.016 C 
ENDBRANCH  20  21
ENDBRANCH  15  20
ENDBRANCH   9  14
ENDBRANCH   6   8
ENDBRANCH   3   6
ENDBRANCH   1   2
BRANCH   1  23
ATOM     23  C   UNL A   1      36.846  21.481  25.500  1.00  0.00     0.023 C 
BRANCH  23  24
ATOM     24  C   UNL A   1      38.122  20.793  25.018  1.00  0.00     0.023 C 
BRANCH  24  25
ATOM     25  C   UNL A   1      39.247  20.706  26.043  1.00  0.00     0.116 C 
BRANCH  25  26
ATOM     26  N   UNL A   1      40.055  19.498  25.943  1.00  0.00    -0.352 N 
ATOM     27  C   UNL A   1      41.417  19.369  26.100  1.00  0.00     0.251 C 
ATOM     28  H   UNL A   1      39.565  18.670  25.737  1.00  0.00     0.163 HD
ATOM     29  O   UNL A   1      41.973  18.293  25.925  1.00  0.00    -0.269 OA
BRANCH  27  30
ATOM     30  C   UNL A   1      42.209  20.571  26.432  1.00  0.00     0.039 A 
ATOM     31  C   UNL A   1      42.686  21.371  25.390  1.00  0.00     0.014 A 
ATOM     32  C   UNL A   1      42.392  20.950  27.764  1.00  0.00     0.014 A 
ATOM     33  C   UNL A   1      43.257  22.611  25.684  1.00  0.00     0.010 A 
ATOM     34  C   UNL A   1      42.901  22.211  28.051  1.00  0.00     0.010 A 
ATOM     35  C   UNL A   1      43.317  23.061  27.013  1.00  0.00    -0.014 A 
BRANCH  35  36
ATOM     36  C   UNL A   1      43.764  24.435  27.350  1.00  0.00     0.031 A 
ATOM     37  C   UNL A   1      42.771  25.445  27.847  1.00  0.00     0.074 A 
ATOM     38  C   UNL A   1      45.036  24.799  27.102  1.00  0.00     0.049 A 
ATOM     39  N   UNL A   1      42.927  26.728  28.049  1.00  0.00    -0.248 NA
ATOM     40  C   UNL A   1      41.413  24.951  28.122  1.00  0.00     0.031 C 
ATOM     41  C   UNL A   1      46.082  23.921  26.575  1.00  0.00     0.029 A 
ATOM     42  N   UNL A   1      45.662  26.014  27.236  1.00  0.00    -0.354 N 
ATOM     43  C   UNL A   1      41.684  27.198  28.450  1.00  0.00     0.074 A 
ATOM     44  C   UNL A   1      40.775  26.072  28.426  1.00  0.00     0.031 C 
ATOM     45  C   UNL A   1      47.219  24.621  26.439  1.00  0.00     0.029 A 
ATOM     46  C   UNL A   1      46.974  26.006  26.828  1.00  0.00     0.049 A 
ATOM     47  H   UNL A   1      45.213  26.815  27.591  1.00  0.00     0.167 HD
ATOM     48  C   UNL A   1      41.341  28.453  28.823  1.00  0.00     0.037 A 
ATOM     49  C   UNL A   1      47.871  27.007  26.757  1.00  0.00     0.037 A 
ATOM     50  C   UNL A   1      42.257  29.560  28.884  1.00  0.00     0.049 A 
ATOM     51  C   UNL A   1      47.459  28.395  27.167  1.00  0.00     0.074 A 
ATOM     52  C   UNL A   1      42.026  30.846  29.338  1.00  0.00     0.029 A 
ATOM     53  N   UNL A   1      43.580  29.511  28.474  1.00  0.00    -0.354 N 
ATOM     54  N   UNL A   1      46.300  28.814  27.609  1.00  0.00    -0.248 NA
ATOM     55  C   UNL A   1      48.478  29.448  27.059  1.00  0.00     0.031 C 
ATOM     56  C   UNL A   1      43.201  31.587  29.168  1.00  0.00     0.029 A 
ATOM     57  C   UNL A   1      44.173  30.751  28.639  1.00  0.00     0.049 A 
ATOM     58  H   UNL A   1      44.032  28.711  28.119  1.00  0.00     0.167 HD
ATOM     59  C   UNL A   1      46.451  30.173  27.847  1.00  0.00     0.074 A 
ATOM     60  C   UNL A   1      47.820  30.506  27.513  1.00  0.00     0.031 C 
ATOM     61  C   UNL A   1      45.536  31.064  28.298  1.00  0.00     0.037 A 
BRANCH  48  62
ATOM     62  C   UNL A   1      39.911  28.694  29.203  1.00  0.00     0.064 A 
ATOM     63  C   UNL A   1      38.959  29.104  28.258  1.00  0.00     0.173 A 
ATOM     64  C   UNL A   1      39.480  28.480  30.521  1.00  0.00     0.173 A 
ATOM     65  F   UNL A   1      39.325  29.333  26.988  1.00  0.00    -0.203 F 
ATOM     66  C   UNL A   1      37.634  29.318  28.624  1.00  0.00     0.198 A 
ATOM     67  C   UNL A   1      38.148  28.670  30.878  1.00  0.00     0.198 A 
ATOM     68  F   UNL A   1      40.351  28.084  31.462  1.00  0.00    -0.203 F 
ATOM     69  F   UNL A   1      36.752  29.753  27.714  1.00  0.00    -0.200 F 
ATOM     70  C   UNL A   1      37.228  29.095  29.932  1.00  0.00     0.200 A 
ATOM     71  F   UNL A   1      37.755  28.446  32.139  1.00  0.00    -0.200 F 
ATOM     72  F   UNL A   1      35.950  29.297  30.280  1.00  0.00    -0.200 F 
ENDBRANCH  48  62
BRANCH  49  73
ATOM     73  C   UNL A   1      49.250  26.734  26.280  1.00  0.00     0.064 A 
ATOM     74  C   UNL A   1      50.237  26.279  27.166  1.00  0.00     0.173 A 
ATOM     75  C   UNL A   1      49.611  26.919  24.938  1.00  0.00     0.173 A 
ATOM     76  F   UNL A   1      49.943  26.109  28.464  1.00  0.00    -0.203 F 
ATOM     77  C   UNL A   1      51.536  26.031  26.730  1.00  0.00     0.198 A 
ATOM     78  C   UNL A   1      50.906  26.650  24.498  1.00  0.00     0.198 A 
ATOM     79  F   UNL A   1      48.702  27.352  24.052  1.00  0.00    -0.203 F 
ATOM     80  F   UNL A   1      52.469  25.631  27.604  1.00  0.00    -0.200 F 
ATOM     81  C   UNL A   1      51.868  26.211  25.395  1.00  0.00     0.200 A 
ATOM     82  F   UNL A   1      51.220  26.815  23.206  1.00  0.00    -0.200 F 
ATOM     83  F   UNL A   1      53.118  25.969  24.975  1.00  0.00    -0.200 F 
ENDBRANCH  49  73
BRANCH  61  84
ATOM     84  C   UNL A   1      45.985  32.484  28.464  1.00  0.00     0.064 A 
ATOM     85  C   UNL A   1      45.836  33.421  27.431  1.00  0.00     0.173 A 
ATOM     86  C   UNL A   1      46.516  32.925  29.686  1.00  0.00     0.173 A 
ATOM     87  F   UNL A   1      45.351  33.040  26.240  1.00  0.00    -0.203 F 
ATOM     88  C   UNL A   1      46.214  34.748  27.613  1.00  0.00     0.198 A 
ATOM     89  C   UNL A   1      46.871  34.258  29.870  1.00  0.00     0.198 A 
ATOM     90  F   UNL A   1      46.674  32.066  30.704  1.00  0.00    -0.203 F 
ATOM     91  F   UNL A   1      46.092  35.621  26.602  1.00  0.00    -0.200 F 
ATOM     92  C   UNL A   1      46.722  35.167  28.833  1.00  0.00     0.200 A 
ATOM     93  F   UNL A   1      47.353  34.664  31.053  1.00  0.00    -0.200 F 
ATOM     94  F   UNL A   1      47.075  36.448  29.009  1.00  0.00    -0.200 F 
ENDBRANCH  61  84
ENDBRANCH  35  36
ENDBRANCH  27  30
ENDBRANCH  25  26
ENDBRANCH  24  25
ENDBRANCH  23  24
ENDBRANCH   1  23
TORSDOF 15
ENDMDL
