MODEL 1
REMARK VINA RESULT:     -13.0      0.000      0.000
REMARK SMILES Cc1cc(C)c(C(N)=O)c(N[C@H]2C=C[C@H](C(=O)NCCCCNC(=O)c3ccc(-c4c5nc(c(-c6c(F)c(F)c(F)c(F)c6F)c6ccc([nH]6)c(-c6c(F)c(F)c(F)c(F)c6F)c6nc(c(-c7c(F)c(F)c(F)c(F)c7F)c7ccc4[nH]7)C=C6)C=C5)cc3)C2)n1
REMARK SMILES IDX 20 1 19 2 18 3 16 4 17 5 15 7 12 8 13 9 89 10 14 11 11 12
REMARK SMILES IDX 10 14 1 15 2 16 3 17 90 18 4 19 5 20 6 21 7 22 8 23 9 24
REMARK SMILES IDX 21 27 22 28 23 29 24 30 25 32 26 33 27 34 88 35 28 36 87 37
REMARK SMILES IDX 29 38 30 39 31 40 81 41 32 42 86 43 80 44 82 45 33 46 85 47
REMARK SMILES IDX 79 48 78 49 34 51 66 52 46 53 65 54 47 55 50 56 64 57 83 58
REMARK SMILES IDX 48 59 49 60 63 62 84 63 51 64 35 65 36 66 44 67 37 68 38 69
REMARK SMILES IDX 42 70 45 71 39 72 40 73 43 74 41 75 67 76 68 77 76 78 69 79
REMARK SMILES IDX 70 80 74 81 77 82 71 83 72 84 75 85 73 86 52 87 53 88 61 89
REMARK SMILES IDX 54 90 55 91 59 92 62 93 56 94 57 95 60 96 58 97
REMARK H PARENT 18 6 11 13 8 25 8 26 23 31 82 50 50 61
REMARK Flexibility Score: inf
ROOT
ATOM      1  C   UNL A   1      32.063  30.278  26.616  1.00  0.00     0.023 C 
ENDROOT
BRANCH   1   2
ATOM      2  C   UNL A   1      31.758  29.742  25.220  1.00  0.00     0.116 C 
BRANCH   2   3
ATOM      3  N   UNL A   1      32.951  29.583  24.410  1.00  0.00    -0.356 N 
ATOM      4  C   UNL A   1      33.479  28.436  23.888  1.00  0.00     0.227 C 
ATOM      5  O   UNL A   1      34.423  28.540  23.102  1.00  0.00    -0.274 OA
ATOM      6  H   UNL A   1      33.445  30.411  24.211  1.00  0.00     0.163 HD
BRANCH   4   7
ATOM      7  C   UNL A   1      32.874  27.093  24.299  1.00  0.00     0.103 C 
ATOM      8  C   UNL A   1      34.322  25.313  25.167  1.00  0.00     0.104 C 
ATOM      9  C   UNL A   1      33.978  25.084  23.736  1.00  0.00    -0.006 C 
ATOM     10  C   UNL A   1      33.500  26.534  25.588  1.00  0.00     0.046 C 
ATOM     11  C   UNL A   1      33.190  26.053  23.260  1.00  0.00    -0.016 C 
BRANCH   8  12
ATOM     12  N   UNL A   1      34.083  24.139  25.987  1.00  0.00    -0.363 N 
ATOM     13  H   UNL A   1      33.724  24.280  26.893  1.00  0.00     0.162 HD
BRANCH  12  14
ATOM     14  C   UNL A   1      34.326  22.828  25.582  1.00  0.00     0.139 A 
ATOM     15  C   UNL A   1      37.344  20.789  25.000  1.00  0.00     0.067 C 
ATOM     16  C   UNL A   1      35.897  21.161  25.107  1.00  0.00     0.040 A 
ATOM     17  C   UNL A   1      34.909  20.251  24.773  1.00  0.00     0.028 A 
ATOM     18  N   UNL A   1      35.613  22.415  25.513  1.00  0.00    -0.236 NA
ATOM     19  C   UNL A   1      33.564  20.628  24.874  1.00  0.00    -0.033 A 
ATOM     20  C   UNL A   1      32.529  19.605  24.496  1.00  0.00     0.045 C 
ATOM     21  C   UNL A   1      33.266  21.948  25.278  1.00  0.00     0.084 A 
BRANCH  21  22
ATOM     22  C   UNL A   1      31.851  22.415  25.335  1.00  0.00     0.252 C 
ATOM     23  N   UNL A   1      31.169  22.203  26.502  1.00  0.00    -0.365 N 
ATOM     24  O   UNL A   1      31.304  22.974  24.391  1.00  0.00    -0.269 OA
ATOM     25  H   UNL A   1      31.613  21.754  27.257  1.00  0.00     0.159 HD
ATOM     26  H   UNL A   1      30.235  22.501  26.587  1.00  0.00     0.159 HD
ENDBRANCH  21  22
ENDBRANCH  12  14
ENDBRANCH   8  12
ENDBRANCH   4   7
ENDBRANCH   2   3
ENDBRANCH   1   2
BRANCH   1  27
ATOM     27  C   UNL A   1      31.752  31.759  26.830  1.00  0.00     0.023 C 
BRANCH  27  28
ATOM     28  C   UNL A   1      32.912  32.608  27.339  1.00  0.00     0.116 C 
BRANCH  28  29
ATOM     29  N   UNL A   1      32.530  33.981  27.631  1.00  0.00    -0.352 N 
ATOM     30  C   UNL A   1      33.041  34.862  28.557  1.00  0.00     0.251 C 
ATOM     31  H   UNL A   1      31.792  34.333  27.082  1.00  0.00     0.163 HD
ATOM     32  O   UNL A   1      32.496  35.940  28.749  1.00  0.00    -0.269 OA
BRANCH  30  33
ATOM     33  C   UNL A   1      34.229  34.483  29.353  1.00  0.00     0.039 A 
ATOM     34  C   UNL A   1      34.038  33.964  30.637  1.00  0.00     0.014 A 
ATOM     35  C   UNL A   1      35.517  34.608  28.829  1.00  0.00     0.014 A 
ATOM     36  C   UNL A   1      35.131  33.474  31.353  1.00  0.00     0.010 A 
ATOM     37  C   UNL A   1      36.596  34.053  29.513  1.00  0.00     0.010 A 
ATOM     38  C   UNL A   1      36.409  33.462  30.772  1.00  0.00    -0.014 A 
BRANCH  38  39
ATOM     39  C   UNL A   1      37.550  32.778  31.431  1.00  0.00     0.031 A 
ATOM     40  C   UNL A   1      38.215  31.601  30.781  1.00  0.00     0.074 A 
ATOM     41  C   UNL A   1      37.925  33.167  32.666  1.00  0.00     0.049 A 
ATOM     42  N   UNL A   1      39.161  30.824  31.247  1.00  0.00    -0.248 NA
ATOM     43  C   UNL A   1      37.739  31.234  29.441  1.00  0.00     0.031 C 
ATOM     44  C   UNL A   1      37.329  34.271  33.421  1.00  0.00     0.029 A 
ATOM     45  N   UNL A   1      38.886  32.669  33.510  1.00  0.00    -0.354 N 
ATOM     46  C   UNL A   1      39.385  29.871  30.262  1.00  0.00     0.074 A 
ATOM     47  C   UNL A   1      38.441  30.138  29.196  1.00  0.00     0.031 C 
ATOM     48  C   UNL A   1      37.951  34.381  34.604  1.00  0.00     0.029 A 
ATOM     49  C   UNL A   1      38.956  33.328  34.713  1.00  0.00     0.049 A 
ATOM     50  H   UNL A   1      39.471  31.912  33.276  1.00  0.00     0.167 HD
ATOM     51  C   UNL A   1      40.307  28.879  30.241  1.00  0.00     0.037 A 
ATOM     52  C   UNL A   1      39.732  33.101  35.789  1.00  0.00     0.037 A 
ATOM     53  C   UNL A   1      41.249  28.625  31.301  1.00  0.00     0.049 A 
ATOM     54  C   UNL A   1      40.710  31.961  35.764  1.00  0.00     0.074 A 
ATOM     55  C   UNL A   1      42.273  27.695  31.341  1.00  0.00     0.029 A 
ATOM     56  N   UNL A   1      41.271  29.296  32.516  1.00  0.00    -0.354 N 
ATOM     57  N   UNL A   1      40.968  31.115  34.797  1.00  0.00    -0.248 NA
ATOM     58  C   UNL A   1      41.498  31.738  36.984  1.00  0.00     0.031 C 
ATOM     59  C   UNL A   1      42.878  27.765  32.602  1.00  0.00     0.029 A 
ATOM     60  C   UNL A   1      42.262  28.770  33.330  1.00  0.00     0.049 A 
ATOM     61  H   UNL A   1      40.670  30.035  32.764  1.00  0.00     0.167 HD
ATOM     62  C   UNL A   1      41.955  30.268  35.284  1.00  0.00     0.074 A 
ATOM     63  C   UNL A   1      42.263  30.716  36.626  1.00  0.00     0.031 C 
ATOM     64  C   UNL A   1      42.548  29.213  34.672  1.00  0.00     0.037 A 
BRANCH  51  65
ATOM     65  C   UNL A   1      40.333  27.988  29.033  1.00  0.00     0.064 A 
ATOM     66  C   UNL A   1      39.616  26.782  28.993  1.00  0.00     0.173 A 
ATOM     67  C   UNL A   1      41.068  28.350  27.895  1.00  0.00     0.173 A 
ATOM     68  F   UNL A   1      38.903  26.383  30.057  1.00  0.00    -0.203 F 
ATOM     69  C   UNL A   1      39.668  25.953  27.874  1.00  0.00     0.198 A 
ATOM     70  C   UNL A   1      41.093  27.535  26.767  1.00  0.00     0.198 A 
ATOM     71  F   UNL A   1      41.765  29.496  27.877  1.00  0.00    -0.203 F 
ATOM     72  F   UNL A   1      39.023  24.779  27.883  1.00  0.00    -0.200 F 
ATOM     73  C   UNL A   1      40.402  26.333  26.761  1.00  0.00     0.200 A 
ATOM     74  F   UNL A   1      41.793  27.909  25.686  1.00  0.00    -0.200 F 
ATOM     75  F   UNL A   1      40.452  25.535  25.686  1.00  0.00    -0.200 F 
ENDBRANCH  51  65
BRANCH  52  76
ATOM     76  C   UNL A   1      39.620  33.986  36.977  1.00  0.00     0.064 A 
ATOM     77  C   UNL A   1      40.307  35.207  37.026  1.00  0.00     0.173 A 
ATOM     78  C   UNL A   1      38.810  33.647  38.071  1.00  0.00     0.173 A 
ATOM     79  F   UNL A   1      41.109  35.562  36.013  1.00  0.00    -0.203 F 
ATOM     80  C   UNL A   1      40.193  36.052  38.128  1.00  0.00     0.198 A 
ATOM     81  C   UNL A   1      38.677  34.505  39.161  1.00  0.00     0.198 A 
ATOM     82  F   UNL A   1      38.130  32.491  38.071  1.00  0.00    -0.203 F 
ATOM     83  F   UNL A   1      40.884  37.200  38.161  1.00  0.00    -0.200 F 
ATOM     84  C   UNL A   1      39.373  35.705  39.190  1.00  0.00     0.200 A 
ATOM     85  F   UNL A   1      37.872  34.173  40.179  1.00  0.00    -0.200 F 
ATOM     86  F   UNL A   1      39.253  36.524  40.243  1.00  0.00    -0.200 F 
ENDBRANCH  52  76
BRANCH  64  87
ATOM     87  C   UNL A   1      43.592  28.468  35.450  1.00  0.00     0.064 A 
ATOM     88  C   UNL A   1      44.949  28.814  35.368  1.00  0.00     0.173 A 
ATOM     89  C   UNL A   1      43.230  27.426  36.318  1.00  0.00     0.173 A 
ATOM     90  F   UNL A   1      45.348  29.789  34.537  1.00  0.00    -0.203 F 
ATOM     91  C   UNL A   1      45.907  28.133  36.114  1.00  0.00     0.198 A 
ATOM     92  C   UNL A   1      44.188  26.767  37.083  1.00  0.00     0.198 A 
ATOM     93  F   UNL A   1      41.946  27.058  36.434  1.00  0.00    -0.203 F 
ATOM     94  F   UNL A   1      47.203  28.454  35.989  1.00  0.00    -0.200 F 
ATOM     95  C   UNL A   1      45.525  27.117  36.977  1.00  0.00     0.200 A 
ATOM     96  F   UNL A   1      43.816  25.793  37.926  1.00  0.00    -0.200 F 
ATOM     97  F   UNL A   1      46.448  26.470  37.703  1.00  0.00    -0.200 F 
ENDBRANCH  64  87
ENDBRANCH  38  39
ENDBRANCH  30  33
ENDBRANCH  28  29
ENDBRANCH  27  28
ENDBRANCH   1  27
TORSDOF 14
ENDMDL
MODEL 2
REMARK VINA RESULT:     -12.9      1.094      1.733
REMARK SMILES Cc1cc(C)c(C(N)=O)c(N[C@H]2C=C[C@H](C(=O)NCCCCNC(=O)c3ccc(-c4c5nc(c(-c6c(F)c(F)c(F)c(F)c6F)c6ccc([nH]6)c(-c6c(F)c(F)c(F)c(F)c6F)c6nc(c(-c7c(F)c(F)c(F)c(F)c7F)c7ccc4[nH]7)C=C6)C=C5)cc3)C2)n1
REMARK SMILES IDX 20 1 19 2 18 3 16 4 17 5 15 7 12 8 13 9 89 10 14 11 11 12
REMARK SMILES IDX 10 14 1 15 2 16 3 17 90 18 4 19 5 20 6 21 7 22 8 23 9 24
REMARK SMILES IDX 21 27 22 28 23 29 24 30 25 32 26 33 27 34 88 35 28 36 87 37
REMARK SMILES IDX 29 38 30 39 31 40 81 41 32 42 86 43 80 44 82 45 33 46 85 47
REMARK SMILES IDX 79 48 78 49 34 51 66 52 46 53 65 54 47 55 50 56 64 57 83 58
REMARK SMILES IDX 48 59 49 60 63 62 84 63 51 64 35 65 36 66 44 67 37 68 38 69
REMARK SMILES IDX 42 70 45 71 39 72 40 73 43 74 41 75 67 76 68 77 76 78 69 79
REMARK SMILES IDX 70 80 74 81 77 82 71 83 72 84 75 85 73 86 52 87 53 88 61 89
REMARK SMILES IDX 54 90 55 91 59 92 62 93 56 94 57 95 60 96 58 97
REMARK H PARENT 18 6 11 13 8 25 8 26 23 31 82 50 50 61
REMARK Flexibility Score: inf
ROOT
ATOM      1  C   UNL A   1      31.959  30.229  26.772  1.00  0.00     0.023 C 
ENDROOT
BRANCH   1   2
ATOM      2  C   UNL A   1      32.818  29.723  25.618  1.00  0.00     0.116 C 
BRANCH   2   3
ATOM      3  N   UNL A   1      32.106  29.714  24.354  1.00  0.00    -0.356 N 
ATOM      4  C   UNL A   1      31.315  28.731  23.829  1.00  0.00     0.227 C 
ATOM      5  O   UNL A   1      30.682  28.986  22.803  1.00  0.00    -0.274 OA
ATOM      6  H   UNL A   1      32.207  30.523  23.801  1.00  0.00     0.163 HD
BRANCH   4   7
ATOM      7  C   UNL A   1      31.251  27.379  24.539  1.00  0.00     0.103 C 
ATOM      8  C   UNL A   1      31.372  25.304  23.234  1.00  0.00     0.104 C 
ATOM      9  C   UNL A   1      29.969  25.624  23.618  1.00  0.00    -0.006 C 
ATOM     10  C   UNL A   1      32.233  26.354  23.944  1.00  0.00     0.046 C 
ATOM     11  C   UNL A   1      29.900  26.755  24.327  1.00  0.00    -0.016 C 
BRANCH   8  12
ATOM     12  N   UNL A   1      31.735  23.937  23.560  1.00  0.00    -0.363 N 
ATOM     13  H   UNL A   1      31.125  23.221  23.269  1.00  0.00     0.162 HD
BRANCH  12  14
ATOM     14  C   UNL A   1      32.886  23.567  24.253  1.00  0.00     0.139 A 
ATOM     15  C   UNL A   1      36.404  22.950  23.335  1.00  0.00     0.067 C 
ATOM     16  C   UNL A   1      35.175  23.093  24.180  1.00  0.00     0.040 A 
ATOM     17  C   UNL A   1      35.216  22.820  25.536  1.00  0.00     0.028 A 
ATOM     18  N   UNL A   1      34.041  23.469  23.555  1.00  0.00    -0.236 NA
ATOM     19  C   UNL A   1      34.050  22.952  26.300  1.00  0.00    -0.033 A 
ATOM     20  C   UNL A   1      34.145  22.641  27.767  1.00  0.00     0.045 C 
ATOM     21  C   UNL A   1      32.857  23.325  25.643  1.00  0.00     0.084 A 
BRANCH  21  22
ATOM     22  C   UNL A   1      31.577  23.414  26.403  1.00  0.00     0.252 C 
ATOM     23  N   UNL A   1      30.856  22.261  26.551  1.00  0.00    -0.365 N 
ATOM     24  O   UNL A   1      31.172  24.464  26.889  1.00  0.00    -0.269 OA
ATOM     25  H   UNL A   1      31.186  21.421  26.158  1.00  0.00     0.159 HD
ATOM     26  H   UNL A   1      30.008  22.272  27.051  1.00  0.00     0.159 HD
ENDBRANCH  21  22
ENDBRANCH  12  14
ENDBRANCH   8  12
ENDBRANCH   4   7
ENDBRANCH   2   3
ENDBRANCH   1   2
BRANCH   1  27
ATOM     27  C   UNL A   1      31.735  31.741  26.807  1.00  0.00     0.023 C 
BRANCH  27  28
ATOM     28  C   UNL A   1      32.876  32.561  27.399  1.00  0.00     0.116 C 
BRANCH  28  29
ATOM     29  N   UNL A   1      32.503  33.940  27.676  1.00  0.00    -0.352 N 
ATOM     30  C   UNL A   1      33.029  34.832  28.584  1.00  0.00     0.251 C 
ATOM     31  H   UNL A   1      31.761  34.289  27.130  1.00  0.00     0.163 HD
ATOM     32  O   UNL A   1      32.492  35.915  28.766  1.00  0.00    -0.269 OA
BRANCH  30  33
ATOM     33  C   UNL A   1      34.224  34.459  29.372  1.00  0.00     0.039 A 
ATOM     34  C   UNL A   1      34.044  33.925  30.651  1.00  0.00     0.014 A 
ATOM     35  C   UNL A   1      35.509  34.603  28.844  1.00  0.00     0.014 A 
ATOM     36  C   UNL A   1      35.145  33.440  31.358  1.00  0.00     0.010 A 
ATOM     37  C   UNL A   1      36.597  34.054  29.518  1.00  0.00     0.010 A 
ATOM     38  C   UNL A   1      36.421  33.448  30.772  1.00  0.00    -0.014 A 
BRANCH  38  39
ATOM     39  C   UNL A   1      37.572  32.771  31.421  1.00  0.00     0.031 A 
ATOM     40  C   UNL A   1      38.227  31.587  30.772  1.00  0.00     0.074 A 
ATOM     41  C   UNL A   1      37.966  33.172  32.646  1.00  0.00     0.049 A 
ATOM     42  N   UNL A   1      39.180  30.814  31.231  1.00  0.00    -0.248 NA
ATOM     43  C   UNL A   1      37.730  31.207  29.443  1.00  0.00     0.031 C 
ATOM     44  C   UNL A   1      37.382  34.284  33.398  1.00  0.00     0.029 A 
ATOM     45  N   UNL A   1      38.940  32.682  33.479  1.00  0.00    -0.354 N 
ATOM     46  C   UNL A   1      39.388  29.852  30.253  1.00  0.00     0.074 A 
ATOM     47  C   UNL A   1      38.428  30.108  29.199  1.00  0.00     0.031 C 
ATOM     48  C   UNL A   1      38.022  34.405  34.571  1.00  0.00     0.029 A 
ATOM     49  C   UNL A   1      39.029  33.353  34.675  1.00  0.00     0.049 A 
ATOM     50  H   UNL A   1      39.521  31.923  33.244  1.00  0.00     0.167 HD
ATOM     51  C   UNL A   1      40.310  28.859  30.227  1.00  0.00     0.037 A 
ATOM     52  C   UNL A   1      39.821  33.137  35.741  1.00  0.00     0.037 A 
ATOM     53  C   UNL A   1      41.268  28.616  31.275  1.00  0.00     0.049 A 
ATOM     54  C   UNL A   1      40.798  31.996  35.712  1.00  0.00     0.074 A 
ATOM     55  C   UNL A   1      42.293  27.686  31.309  1.00  0.00     0.029 A 
ATOM     56  N   UNL A   1      41.309  29.299  32.483  1.00  0.00    -0.354 N 
ATOM     57  N   UNL A   1      41.041  31.140  34.750  1.00  0.00    -0.248 NA
ATOM     58  C   UNL A   1      41.605  31.785  36.922  1.00  0.00     0.031 C 
ATOM     59  C   UNL A   1      42.917  27.769  32.559  1.00  0.00     0.029 A 
ATOM     60  C   UNL A   1      42.313  28.781  33.286  1.00  0.00     0.049 A 
ATOM     61  H   UNL A   1      40.712  30.041  32.732  1.00  0.00     0.167 HD
ATOM     62  C   UNL A   1      42.035  30.298  35.229  1.00  0.00     0.074 A 
ATOM     63  C   UNL A   1      42.364  30.760  36.563  1.00  0.00     0.031 C 
ATOM     64  C   UNL A   1      42.619  29.238  34.619  1.00  0.00     0.037 A 
BRANCH  51  65
ATOM     65  C   UNL A   1      40.317  27.956  29.028  1.00  0.00     0.064 A 
ATOM     66  C   UNL A   1      41.062  28.264  27.879  1.00  0.00     0.173 A 
ATOM     67  C   UNL A   1      39.584  26.760  29.032  1.00  0.00     0.173 A 
ATOM     68  F   UNL A   1      41.774  29.399  27.820  1.00  0.00    -0.203 F 
ATOM     69  C   UNL A   1      41.040  27.428  26.765  1.00  0.00     0.198 A 
ATOM     70  C   UNL A   1      39.589  25.912  27.928  1.00  0.00     0.198 A 
ATOM     71  F   UNL A   1      38.861  26.413  30.107  1.00  0.00    -0.203 F 
ATOM     72  F   UNL A   1      41.713  27.773  25.658  1.00  0.00    -0.200 F 
ATOM     73  C   UNL A   1      40.308  26.251  26.793  1.00  0.00     0.200 A 
ATOM     74  F   UNL A   1      38.892  24.767  27.960  1.00  0.00    -0.200 F 
ATOM     75  F   UNL A   1      40.288  25.449  25.719  1.00  0.00    -0.200 F 
ENDBRANCH  51  65
BRANCH  52  76
ATOM     76  C   UNL A   1      39.727  34.034  36.921  1.00  0.00     0.064 A 
ATOM     77  C   UNL A   1      40.430  35.246  36.956  1.00  0.00     0.173 A 
ATOM     78  C   UNL A   1      38.920  33.715  38.024  1.00  0.00     0.173 A 
ATOM     79  F   UNL A   1      41.231  35.582  35.934  1.00  0.00    -0.203 F 
ATOM     80  C   UNL A   1      40.334  36.102  38.050  1.00  0.00     0.198 A 
ATOM     81  C   UNL A   1      38.805  34.584  39.106  1.00  0.00     0.198 A 
ATOM     82  F   UNL A   1      38.225  32.568  38.038  1.00  0.00    -0.203 F 
ATOM     83  F   UNL A   1      41.039  37.242  38.069  1.00  0.00    -0.200 F 
ATOM     84  C   UNL A   1      39.515  35.776  39.120  1.00  0.00     0.200 A 
ATOM     85  F   UNL A   1      38.001  34.272  40.132  1.00  0.00    -0.200 F 
ATOM     86  F   UNL A   1      39.413  36.606  40.167  1.00  0.00    -0.200 F 
ENDBRANCH  52  76
BRANCH  64  87
ATOM     87  C   UNL A   1      43.675  28.500  35.389  1.00  0.00     0.064 A 
ATOM     88  C   UNL A   1      45.036  28.804  35.236  1.00  0.00     0.173 A 
ATOM     89  C   UNL A   1      43.323  27.509  36.318  1.00  0.00     0.173 A 
ATOM     90  F   UNL A   1      45.425  29.729  34.345  1.00  0.00    -0.203 F 
ATOM     91  C   UNL A   1      46.006  28.132  35.974  1.00  0.00     0.198 A 
ATOM     92  C   UNL A   1      44.294  26.859  37.074  1.00  0.00     0.198 A 
ATOM     93  F   UNL A   1      42.035  27.183  36.503  1.00  0.00    -0.203 F 
ATOM     94  F   UNL A   1      47.304  28.411  35.782  1.00  0.00    -0.200 F 
ATOM     95  C   UNL A   1      45.634  27.167  36.898  1.00  0.00     0.200 A 
ATOM     96  F   UNL A   1      43.932  25.936  37.975  1.00  0.00    -0.200 F 
ATOM     97  F   UNL A   1      46.570  26.529  37.615  1.00  0.00    -0.200 F 
ENDBRANCH  64  87
ENDBRANCH  38  39
ENDBRANCH  30  33
ENDBRANCH  28  29
ENDBRANCH  27  28
ENDBRANCH   1  27
TORSDOF 14
ENDMDL
MODEL 3
REMARK VINA RESULT:     -12.9      5.549     11.349
REMARK SMILES Cc1cc(C)c(C(N)=O)c(N[C@H]2C=C[C@H](C(=O)NCCCCNC(=O)c3ccc(-c4c5nc(c(-c6c(F)c(F)c(F)c(F)c6F)c6ccc([nH]6)c(-c6c(F)c(F)c(F)c(F)c6F)c6nc(c(-c7c(F)c(F)c(F)c(F)c7F)c7ccc4[nH]7)C=C6)C=C5)cc3)C2)n1
REMARK SMILES IDX 20 1 19 2 18 3 16 4 17 5 15 7 12 8 13 9 89 10 14 11 11 12
REMARK SMILES IDX 10 14 1 15 2 16 3 17 90 18 4 19 5 20 6 21 7 22 8 23 9 24
REMARK SMILES IDX 21 27 22 28 23 29 24 30 25 32 26 33 27 34 88 35 28 36 87 37
REMARK SMILES IDX 29 38 30 39 31 40 81 41 32 42 86 43 80 44 82 45 33 46 85 47
REMARK SMILES IDX 79 48 78 49 34 51 66 52 46 53 65 54 47 55 50 56 64 57 83 58
REMARK SMILES IDX 48 59 49 60 63 62 84 63 51 64 35 65 36 66 44 67 37 68 38 69
REMARK SMILES IDX 42 70 45 71 39 72 40 73 43 74 41 75 67 76 68 77 76 78 69 79
REMARK SMILES IDX 70 80 74 81 77 82 71 83 72 84 75 85 73 86 52 87 53 88 61 89
REMARK SMILES IDX 54 90 55 91 59 92 62 93 56 94 57 95 60 96 58 97
REMARK H PARENT 18 6 11 13 8 25 8 26 23 31 82 50 50 61
REMARK Flexibility Score: inf
ROOT
ATOM      1  C   UNL A   1      37.038  21.262  24.854  1.00  0.00     0.023 C 
ENDROOT
BRANCH   1   2
ATOM      2  C   UNL A   1      35.586  20.980  25.227  1.00  0.00     0.116 C 
BRANCH   2   3
ATOM      3  N   UNL A   1      35.236  21.492  26.538  1.00  0.00    -0.356 N 
ATOM      4  C   UNL A   1      34.332  22.466  26.860  1.00  0.00     0.227 C 
ATOM      5  O   UNL A   1      34.079  22.647  28.052  1.00  0.00    -0.274 OA
ATOM      6  H   UNL A   1      35.712  21.083  27.298  1.00  0.00     0.163 HD
BRANCH   4   7
ATOM      7  C   UNL A   1      33.685  23.270  25.733  1.00  0.00     0.103 C 
ATOM      8  C   UNL A   1      33.906  25.714  25.688  1.00  0.00     0.104 C 
ATOM      9  C   UNL A   1      32.578  25.298  26.219  1.00  0.00    -0.006 C 
ATOM     10  C   UNL A   1      34.582  24.416  25.235  1.00  0.00     0.046 C 
ATOM     11  C   UNL A   1      32.455  23.967  26.246  1.00  0.00    -0.016 C 
BRANCH   8  12
ATOM     12  N   UNL A   1      33.794  26.710  24.639  1.00  0.00    -0.363 N 
ATOM     13  H   UNL A   1      34.474  26.702  23.926  1.00  0.00     0.162 HD
BRANCH  12  14
ATOM     14  C   UNL A   1      32.793  27.676  24.567  1.00  0.00     0.139 A 
ATOM     15  C   UNL A   1      32.000  30.758  26.431  1.00  0.00     0.067 C 
ATOM     16  C   UNL A   1      31.898  29.665  25.412  1.00  0.00     0.040 A 
ATOM     17  C   UNL A   1      30.843  29.633  24.516  1.00  0.00     0.028 A 
ATOM     18  N   UNL A   1      32.856  28.717  25.430  1.00  0.00    -0.236 NA
ATOM     19  C   UNL A   1      30.767  28.595  23.580  1.00  0.00    -0.033 A 
ATOM     20  C   UNL A   1      29.601  28.602  22.632  1.00  0.00     0.045 C 
ATOM     21  C   UNL A   1      31.759  27.589  23.612  1.00  0.00     0.084 A 
BRANCH  21  22
ATOM     22  C   UNL A   1      31.682  26.429  22.679  1.00  0.00     0.252 C 
ATOM     23  N   UNL A   1      32.165  26.612  21.412  1.00  0.00    -0.365 N 
ATOM     24  O   UNL A   1      31.218  25.345  23.014  1.00  0.00    -0.269 OA
ATOM     25  H   UNL A   1      32.537  27.484  21.148  1.00  0.00     0.159 HD
ATOM     26  H   UNL A   1      32.141  25.871  20.764  1.00  0.00     0.159 HD
ENDBRANCH  21  22
ENDBRANCH  12  14
ENDBRANCH   8  12
ENDBRANCH   4   7
ENDBRANCH   2   3
ENDBRANCH   1   2
BRANCH   1  27
ATOM     27  C   UNL A   1      37.998  20.086  25.029  1.00  0.00     0.023 C 
BRANCH  27  28
ATOM     28  C   UNL A   1      39.276  20.390  25.805  1.00  0.00     0.116 C 
BRANCH  28  29
ATOM     29  N   UNL A   1      40.181  19.254  25.881  1.00  0.00    -0.352 N 
ATOM     30  C   UNL A   1      41.533  19.217  26.133  1.00  0.00     0.251 C 
ATOM     31  H   UNL A   1      39.760  18.376  25.729  1.00  0.00     0.163 HD
ATOM     32  O   UNL A   1      42.153  18.169  26.025  1.00  0.00    -0.269 OA
BRANCH  30  33
ATOM     33  C   UNL A   1      42.247  20.462  26.496  1.00  0.00     0.039 A 
ATOM     34  C   UNL A   1      42.903  21.175  25.489  1.00  0.00     0.014 A 
ATOM     35  C   UNL A   1      42.241  20.939  27.808  1.00  0.00     0.014 A 
ATOM     36  C   UNL A   1      43.466  22.419  25.778  1.00  0.00     0.010 A 
ATOM     37  C   UNL A   1      42.739  22.211  28.080  1.00  0.00     0.010 A 
ATOM     38  C   UNL A   1      43.336  22.971  27.063  1.00  0.00    -0.014 A 
BRANCH  38  39
ATOM     39  C   UNL A   1      43.757  24.367  27.349  1.00  0.00     0.031 A 
ATOM     40  C   UNL A   1      42.762  25.382  27.828  1.00  0.00     0.074 A 
ATOM     41  C   UNL A   1      45.025  24.738  27.085  1.00  0.00     0.049 A 
ATOM     42  N   UNL A   1      42.925  26.664  28.040  1.00  0.00    -0.248 NA
ATOM     43  C   UNL A   1      41.398  24.898  28.080  1.00  0.00     0.031 C 
ATOM     44  C   UNL A   1      46.075  23.853  26.576  1.00  0.00     0.029 A 
ATOM     45  N   UNL A   1      45.643  25.959  27.193  1.00  0.00    -0.354 N 
ATOM     46  C   UNL A   1      41.684  27.141  28.440  1.00  0.00     0.074 A 
ATOM     47  C   UNL A   1      40.767  26.021  28.391  1.00  0.00     0.031 C 
ATOM     48  C   UNL A   1      47.211  24.554  26.437  1.00  0.00     0.029 A 
ATOM     49  C   UNL A   1      46.960  25.945  26.801  1.00  0.00     0.049 A 
ATOM     50  H   UNL A   1      45.187  26.768  27.520  1.00  0.00     0.167 HD
ATOM     51  C   UNL A   1      41.347  28.394  28.831  1.00  0.00     0.037 A 
ATOM     52  C   UNL A   1      47.860  26.943  26.728  1.00  0.00     0.037 A 
ATOM     53  C   UNL A   1      42.266  29.501  28.885  1.00  0.00     0.049 A 
ATOM     54  C   UNL A   1      47.447  28.335  27.115  1.00  0.00     0.074 A 
ATOM     55  C   UNL A   1      42.041  30.788  29.341  1.00  0.00     0.029 A 
ATOM     56  N   UNL A   1      43.585  29.455  28.454  1.00  0.00    -0.354 N 
ATOM     57  N   UNL A   1      46.292  28.760  27.566  1.00  0.00    -0.248 NA
ATOM     58  C   UNL A   1      48.461  29.389  26.973  1.00  0.00     0.031 C 
ATOM     59  C   UNL A   1      43.207  31.536  29.134  1.00  0.00     0.029 A 
ATOM     60  C   UNL A   1      44.172  30.703  28.593  1.00  0.00     0.049 A 
ATOM     61  H   UNL A   1      44.036  28.654  28.101  1.00  0.00     0.167 HD
ATOM     62  C   UNL A   1      46.442  30.124  27.775  1.00  0.00     0.074 A 
ATOM     63  C   UNL A   1      47.807  30.453  27.420  1.00  0.00     0.031 C 
ATOM     64  C   UNL A   1      45.528  31.022  28.219  1.00  0.00     0.037 A 
BRANCH  51  65
ATOM     65  C   UNL A   1      39.917  28.631  29.222  1.00  0.00     0.064 A 
ATOM     66  C   UNL A   1      38.968  29.094  28.296  1.00  0.00     0.173 A 
ATOM     67  C   UNL A   1      39.484  28.379  30.531  1.00  0.00     0.173 A 
ATOM     68  F   UNL A   1      39.331  29.360  27.032  1.00  0.00    -0.203 F 
ATOM     69  C   UNL A   1      37.650  29.333  28.679  1.00  0.00     0.198 A 
ATOM     70  C   UNL A   1      38.159  28.588  30.903  1.00  0.00     0.198 A 
ATOM     71  F   UNL A   1      40.347  27.928  31.454  1.00  0.00    -0.203 F 
ATOM     72  F   UNL A   1      36.777  29.831  27.792  1.00  0.00    -0.200 F 
ATOM     73  C   UNL A   1      37.246  29.075  29.980  1.00  0.00     0.200 A 
ATOM     74  F   UNL A   1      37.766  28.327  32.158  1.00  0.00    -0.200 F 
ATOM     75  F   UNL A   1      35.978  29.306  30.346  1.00  0.00    -0.200 F 
ENDBRANCH  51  65
BRANCH  52  76
ATOM     76  C   UNL A   1      49.245  26.653  26.280  1.00  0.00     0.064 A 
ATOM     77  C   UNL A   1      49.623  26.856  24.945  1.00  0.00     0.173 A 
ATOM     78  C   UNL A   1      50.224  26.193  27.174  1.00  0.00     0.173 A 
ATOM     79  F   UNL A   1      48.716  27.274  24.051  1.00  0.00    -0.203 F 
ATOM     80  C   UNL A   1      50.926  26.604  24.521  1.00  0.00     0.198 A 
ATOM     81  C   UNL A   1      51.533  25.966  26.752  1.00  0.00     0.198 A 
ATOM     82  F   UNL A   1      49.914  25.985  28.462  1.00  0.00    -0.203 F 
ATOM     83  F   UNL A   1      51.252  26.780  23.233  1.00  0.00    -0.200 F 
ATOM     84  C   UNL A   1      51.881  26.168  25.425  1.00  0.00     0.200 A 
ATOM     85  F   UNL A   1      52.457  25.559  27.633  1.00  0.00    -0.200 F 
ATOM     86  F   UNL A   1      53.137  25.939  25.019  1.00  0.00    -0.200 F 
ENDBRANCH  52  76
BRANCH  64  87
ATOM     87  C   UNL A   1      45.973  32.449  28.344  1.00  0.00     0.064 A 
ATOM     88  C   UNL A   1      45.804  33.362  27.292  1.00  0.00     0.173 A 
ATOM     89  C   UNL A   1      46.535  32.921  29.541  1.00  0.00     0.173 A 
ATOM     90  F   UNL A   1      45.290  32.954  26.122  1.00  0.00    -0.203 F 
ATOM     91  C   UNL A   1      46.197  34.690  27.428  1.00  0.00     0.198 A 
ATOM     92  C   UNL A   1      46.901  34.257  29.681  1.00  0.00     0.198 A 
ATOM     93  F   UNL A   1      46.716  32.090  30.577  1.00  0.00    -0.203 F 
ATOM     94  F   UNL A   1      46.063  35.535  26.395  1.00  0.00    -0.200 F 
ATOM     95  C   UNL A   1      46.736  35.139  28.625  1.00  0.00     0.200 A 
ATOM     96  F   UNL A   1      47.410  34.691  30.842  1.00  0.00    -0.200 F 
ATOM     97  F   UNL A   1      47.103  36.421  28.756  1.00  0.00    -0.200 F 
ENDBRANCH  64  87
ENDBRANCH  38  39
ENDBRANCH  30  33
ENDBRANCH  28  29
ENDBRANCH  27  28
ENDBRANCH   1  27
TORSDOF 14
ENDMDL
