MODEL 1
REMARK VINA RESULT:     -12.2      0.000      0.000
REMARK SMILES CC[C@](C)([NH3+])C(=O)N1CC[NH+]([C@H](C)C(=O)NCCCCNC(=O)c2ccc(-c3c4nc(c(-c5c(F)c(F)c(F)c(F)c5F)c5ccc([nH]5)c(-c5c(F)c(F)c(F)c(F)c5F)c5nc(c(-c6c(F)c(F)c(F)c(F)c6F)c6ccc3[nH]6)C=C5)C=C4)cc2)CC1
REMARK SMILES IDX 18 1 17 2 16 3 14 4 15 5 12 7 13 8 11 9 6 10 7 11 8 12 9 13
REMARK SMILES IDX 88 14 10 15 87 16 3 18 4 19 2 20 1 21 5 22 19 26 20 27 21 28
REMARK SMILES IDX 22 29 23 31 24 32 25 33 86 34 26 35 85 36 27 37 28 38 29 39
REMARK SMILES IDX 79 40 30 41 84 42 78 43 80 44 31 45 83 46 77 47 76 48 32 50
REMARK SMILES IDX 64 51 44 52 63 53 45 54 48 55 62 56 81 57 46 58 47 59 61 61
REMARK SMILES IDX 82 62 49 63 33 64 34 65 42 66 35 67 36 68 40 69 43 70 37 71
REMARK SMILES IDX 38 72 41 73 39 74 65 75 66 76 74 77 67 78 68 79 72 80 75 81
REMARK SMILES IDX 69 82 70 83 73 84 71 85 50 86 51 87 59 88 52 89 53 90 57 91
REMARK SMILES IDX 60 92 54 93 55 94 58 95 56 96
REMARK H PARENT 16 6 11 17 5 23 5 24 5 25 21 30 80 49 48 60
REMARK Flexibility Score: inf
ROOT
ATOM      1  C   UNL A   1      31.807  30.501  26.901  1.00  0.00     0.023 C 
ENDROOT
BRANCH   1   2
ATOM      2  C   UNL A   1      32.262  29.896  25.580  1.00  0.00     0.116 C 
BRANCH   2   3
ATOM      3  N   UNL A   1      31.367  30.152  24.471  1.00  0.00    -0.351 N 
ATOM      4  C   UNL A   1      30.466  29.329  23.852  1.00  0.00     0.278 C 
ATOM      5  O   UNL A   1      29.655  29.876  23.095  1.00  0.00    -0.268 OA
ATOM      6  H   UNL A   1      31.413  31.065  24.104  1.00  0.00     0.163 HD
BRANCH   4   7
ATOM      7  C   UNL A   1      30.452  27.791  24.053  1.00  0.00     0.271 C 
ATOM      8  C   UNL A   1      29.156  27.136  23.558  1.00  0.00     0.086 C 
BRANCH   7   9
ATOM      9  N   UNL A   1      31.743  27.118  23.719  1.00  0.00    -0.322 N 
ATOM     10  C   UNL A   1      33.120  23.619  22.165  1.00  0.00     0.283 C 
ATOM     11  O   UNL A   1      33.424  23.535  20.965  1.00  0.00    -0.268 OA
ATOM     12  N   UNL A   1      33.279  24.837  22.807  1.00  0.00    -0.326 N 
ATOM     13  C   UNL A   1      33.262  26.048  21.997  1.00  0.00     0.181 C 
ATOM     14  C   UNL A   1      33.287  25.161  24.232  1.00  0.00     0.181 C 
ATOM     15  C   UNL A   1      31.943  26.792  22.295  1.00  0.00     0.284 C 
ATOM     16  C   UNL A   1      32.025  25.965  24.608  1.00  0.00     0.284 C 
ATOM     17  H   UNL A   1      32.445  27.834  23.904  1.00  0.00     0.348 HD
BRANCH  10  18
ATOM     18  C   UNL A   1      32.341  22.416  22.818  1.00  0.00     0.171 C 
ATOM     19  C   UNL A   1      31.031  22.943  23.436  1.00  0.00     0.090 C 
BRANCH  18  20
ATOM     20  C   UNL A   1      33.236  21.756  23.900  1.00  0.00     0.075 C 
ATOM     21  C   UNL A   1      32.945  20.286  24.190  1.00  0.00     0.011 C 
ENDBRANCH  18  20
BRANCH  18  22
ATOM     22  N   UNL A   1      31.951  21.373  21.839  1.00  0.00    -0.345 N 
ATOM     23  H   UNL A   1      32.789  20.940  21.452  1.00  0.00     0.345 HD
ATOM     24  H   UNL A   1      31.409  21.798  21.087  1.00  0.00     0.345 HD
ATOM     25  H   UNL A   1      31.386  20.664  22.306  1.00  0.00     0.345 HD
ENDBRANCH  18  22
ENDBRANCH  10  18
ENDBRANCH   7   9
ENDBRANCH   4   7
ENDBRANCH   2   3
ENDBRANCH   1   2
BRANCH   1  26
ATOM     26  C   UNL A   1      31.595  32.013  26.887  1.00  0.00     0.023 C 
BRANCH  26  27
ATOM     27  C   UNL A   1      32.812  32.859  27.252  1.00  0.00     0.116 C 
BRANCH  27  28
ATOM     28  N   UNL A   1      32.477  34.215  27.665  1.00  0.00    -0.352 N 
ATOM     29  C   UNL A   1      33.030  34.999  28.651  1.00  0.00     0.251 C 
ATOM     30  H   UNL A   1      31.744  34.635  27.160  1.00  0.00     0.163 HD
ATOM     31  O   UNL A   1      32.538  36.087  28.925  1.00  0.00    -0.269 OA
BRANCH  29  32
ATOM     32  C   UNL A   1      34.190  34.501  29.419  1.00  0.00     0.039 A 
ATOM     33  C   UNL A   1      33.962  33.860  30.639  1.00  0.00     0.014 A 
ATOM     34  C   UNL A   1      35.488  34.624  28.918  1.00  0.00     0.014 A 
ATOM     35  C   UNL A   1      35.026  33.246  31.304  1.00  0.00     0.010 A 
ATOM     36  C   UNL A   1      36.529  33.941  29.537  1.00  0.00     0.010 A 
ATOM     37  C   UNL A   1      36.306  33.232  30.728  1.00  0.00    -0.014 A 
BRANCH  37  38
ATOM     38  C   UNL A   1      37.418  32.456  31.334  1.00  0.00     0.031 A 
ATOM     39  C   UNL A   1      37.937  32.815  32.697  1.00  0.00     0.074 A 
ATOM     40  C   UNL A   1      38.018  31.485  30.618  1.00  0.00     0.049 A 
ATOM     41  N   UNL A   1      38.960  32.324  33.349  1.00  0.00    -0.248 NA
ATOM     42  C   UNL A   1      37.230  33.892  33.409  1.00  0.00     0.031 C 
ATOM     43  C   UNL A   1      37.645  31.079  29.261  1.00  0.00     0.029 A 
ATOM     44  N   UNL A   1      39.081  30.672  30.925  1.00  0.00    -0.354 N 
ATOM     45  C   UNL A   1      39.031  33.043  34.534  1.00  0.00     0.074 A 
ATOM     46  C   UNL A   1      37.980  34.037  34.491  1.00  0.00     0.031 C 
ATOM     47  C   UNL A   1      38.451  30.082  28.862  1.00  0.00     0.029 A 
ATOM     48  C   UNL A   1      39.422  29.805  29.915  1.00  0.00     0.049 A 
ATOM     49  H   UNL A   1      39.555  30.708  31.787  1.00  0.00     0.167 HD
ATOM     50  C   UNL A   1      39.882  32.875  35.574  1.00  0.00     0.037 A 
ATOM     51  C   UNL A   1      40.412  28.895  29.844  1.00  0.00     0.037 A 
ATOM     52  C   UNL A   1      40.905  31.865  35.629  1.00  0.00     0.049 A 
ATOM     53  C   UNL A   1      41.339  28.724  31.015  1.00  0.00     0.074 A 
ATOM     54  C   UNL A   1      41.769  31.566  36.669  1.00  0.00     0.029 A 
ATOM     55  N   UNL A   1      41.203  30.986  34.597  1.00  0.00    -0.354 N 
ATOM     56  N   UNL A   1      41.352  29.361  32.160  1.00  0.00    -0.248 NA
ATOM     57  C   UNL A   1      42.390  27.704  30.885  1.00  0.00     0.031 C 
ATOM     58  C   UNL A   1      42.616  30.535  36.252  1.00  0.00     0.029 A 
ATOM     59  C   UNL A   1      42.251  30.160  34.968  1.00  0.00     0.049 A 
ATOM     60  H   UNL A   1      40.738  30.956  33.730  1.00  0.00     0.167 HD
ATOM     61  C   UNL A   1      42.390  28.806  32.896  1.00  0.00     0.074 A 
ATOM     62  C   UNL A   1      42.976  27.768  32.072  1.00  0.00     0.031 C 
ATOM     63  C   UNL A   1      42.819  29.127  34.140  1.00  0.00     0.037 A 
BRANCH  50  64
ATOM     64  C   UNL A   1      39.735  33.802  36.745  1.00  0.00     0.064 A 
ATOM     65  C   UNL A   1      40.386  35.044  36.784  1.00  0.00     0.173 A 
ATOM     66  C   UNL A   1      38.906  33.460  37.825  1.00  0.00     0.173 A 
ATOM     67  F   UNL A   1      41.198  35.413  35.782  1.00  0.00    -0.203 F 
ATOM     68  C   UNL A   1      40.237  35.897  37.875  1.00  0.00     0.198 A 
ATOM     69  C   UNL A   1      38.737  34.328  38.900  1.00  0.00     0.198 A 
ATOM     70  F   UNL A   1      38.256  32.287  37.833  1.00  0.00    -0.203 F 
ATOM     71  F   UNL A   1      40.907  37.056  37.913  1.00  0.00    -0.200 F 
ATOM     72  C   UNL A   1      39.407  35.542  38.928  1.00  0.00     0.200 A 
ATOM     73  F   UNL A   1      37.925  33.989  39.911  1.00  0.00    -0.200 F 
ATOM     74  F   UNL A   1      39.260  36.367  39.973  1.00  0.00    -0.200 F 
ENDBRANCH  50  64
BRANCH  51  75
ATOM     75  C   UNL A   1      40.563  28.056  28.626  1.00  0.00     0.064 A 
ATOM     76  C   UNL A   1      39.922  26.814  28.528  1.00  0.00     0.173 A 
ATOM     77  C   UNL A   1      41.348  28.475  27.542  1.00  0.00     0.173 A 
ATOM     78  F   UNL A   1      39.177  26.362  29.548  1.00  0.00    -0.203 F 
ATOM     79  C   UNL A   1      40.075  26.012  27.399  1.00  0.00     0.198 A 
ATOM     80  C   UNL A   1      41.480  27.683  26.403  1.00  0.00     0.198 A 
ATOM     81  F   UNL A   1      41.978  29.657  27.585  1.00  0.00    -0.203 F 
ATOM     82  F   UNL A   1      39.484  24.810  27.348  1.00  0.00    -0.200 F 
ATOM     83  C   UNL A   1      40.849  26.450  26.335  1.00  0.00     0.200 A 
ATOM     84  F   UNL A   1      42.216  28.116  25.370  1.00  0.00    -0.200 F 
ATOM     85  F   UNL A   1      40.992  25.681  25.247  1.00  0.00    -0.200 F 
ENDBRANCH  51  75
BRANCH  63  86
ATOM     86  C   UNL A   1      43.960  28.331  34.701  1.00  0.00     0.064 A 
ATOM     87  C   UNL A   1      45.289  28.757  34.567  1.00  0.00     0.173 A 
ATOM     88  C   UNL A   1      43.715  27.150  35.419  1.00  0.00     0.173 A 
ATOM     89  F   UNL A   1      45.575  29.870  33.875  1.00  0.00    -0.203 F 
ATOM     90  C   UNL A   1      46.334  28.018  35.115  1.00  0.00     0.198 A 
ATOM     91  C   UNL A   1      44.760  26.430  35.989  1.00  0.00     0.198 A 
ATOM     92  F   UNL A   1      42.460  26.704  35.579  1.00  0.00    -0.203 F 
ATOM     93  F   UNL A   1      47.600  28.420  34.940  1.00  0.00    -0.200 F 
ATOM     94  C   UNL A   1      46.069  26.860  35.831  1.00  0.00     0.200 A 
ATOM     95  F   UNL A   1      44.501  25.318  36.691  1.00  0.00    -0.200 F 
ATOM     96  F   UNL A   1      47.076  26.156  36.366  1.00  0.00    -0.200 F 
ENDBRANCH  63  86
ENDBRANCH  37  38
ENDBRANCH  29  32
ENDBRANCH  27  28
ENDBRANCH  26  27
ENDBRANCH   1  26
TORSDOF 15
ENDMDL
MODEL 2
REMARK VINA RESULT:     -12.2      1.006      7.358
REMARK SMILES CC[C@](C)([NH3+])C(=O)N1CC[NH+]([C@H](C)C(=O)NCCCCNC(=O)c2ccc(-c3c4nc(c(-c5c(F)c(F)c(F)c(F)c5F)c5ccc([nH]5)c(-c5c(F)c(F)c(F)c(F)c5F)c5nc(c(-c6c(F)c(F)c(F)c(F)c6F)c6ccc3[nH]6)C=C5)C=C4)cc2)CC1
REMARK SMILES IDX 18 1 17 2 16 3 14 4 15 5 12 7 13 8 11 9 6 10 7 11 8 12 9 13
REMARK SMILES IDX 88 14 10 15 87 16 3 18 4 19 2 20 1 21 5 22 19 26 20 27 21 28
REMARK SMILES IDX 22 29 23 31 24 32 25 33 86 34 26 35 85 36 27 37 28 38 29 39
REMARK SMILES IDX 79 40 30 41 84 42 78 43 80 44 31 45 83 46 77 47 76 48 32 50
REMARK SMILES IDX 64 51 44 52 63 53 45 54 48 55 62 56 81 57 46 58 47 59 61 61
REMARK SMILES IDX 82 62 49 63 33 64 34 65 42 66 35 67 36 68 40 69 43 70 37 71
REMARK SMILES IDX 38 72 41 73 39 74 65 75 66 76 74 77 67 78 68 79 72 80 75 81
REMARK SMILES IDX 69 82 70 83 73 84 71 85 50 86 51 87 59 88 52 89 53 90 57 91
REMARK SMILES IDX 60 92 54 93 55 94 58 95 56 96
REMARK H PARENT 16 6 11 17 5 23 5 24 5 25 21 30 80 49 48 60
REMARK Flexibility Score: inf
ROOT
ATOM      1  C   UNL A   1      32.000  30.283  26.843  1.00  0.00     0.023 C 
ENDROOT
BRANCH   1   2
ATOM      2  C   UNL A   1      33.305  29.876  26.172  1.00  0.00     0.116 C 
BRANCH   2   3
ATOM      3  N   UNL A   1      33.216  29.755  24.731  1.00  0.00    -0.351 N 
ATOM      4  C   UNL A   1      32.763  28.723  23.956  1.00  0.00     0.278 C 
ATOM      5  O   UNL A   1      32.567  28.981  22.762  1.00  0.00    -0.268 OA
ATOM      6  H   UNL A   1      33.533  30.541  24.230  1.00  0.00     0.163 HD
BRANCH   4   7
ATOM      7  C   UNL A   1      32.518  27.295  24.510  1.00  0.00     0.271 C 
ATOM      8  C   UNL A   1      31.084  27.088  25.013  1.00  0.00     0.086 C 
BRANCH   7   9
ATOM      9  N   UNL A   1      33.132  26.207  23.693  1.00  0.00    -0.322 N 
ATOM     10  C   UNL A   1      33.034  22.156  23.323  1.00  0.00     0.283 C 
ATOM     11  O   UNL A   1      32.318  21.615  22.467  1.00  0.00    -0.268 OA
ATOM     12  N   UNL A   1      33.556  23.412  23.056  1.00  0.00    -0.326 N 
ATOM     13  C   UNL A   1      32.856  24.258  22.098  1.00  0.00     0.181 C 
ATOM     14  C   UNL A   1      34.631  24.150  23.717  1.00  0.00     0.181 C 
ATOM     15  C   UNL A   1      32.192  25.407  22.886  1.00  0.00     0.284 C 
ATOM     16  C   UNL A   1      34.060  25.362  24.483  1.00  0.00     0.284 C 
ATOM     17  H   UNL A   1      33.683  26.708  22.996  1.00  0.00     0.348 HD
BRANCH  10  18
ATOM     18  C   UNL A   1      33.103  21.501  24.753  1.00  0.00     0.171 C 
ATOM     19  C   UNL A   1      32.376  20.142  24.718  1.00  0.00     0.090 C 
BRANCH  18  20
ATOM     20  C   UNL A   1      32.443  22.454  25.784  1.00  0.00     0.075 C 
ATOM     21  C   UNL A   1      30.981  22.806  25.516  1.00  0.00     0.011 C 
ENDBRANCH  18  20
BRANCH  18  22
ATOM     22  N   UNL A   1      34.489  21.221  25.201  1.00  0.00    -0.345 N 
ATOM     23  H   UNL A   1      34.858  20.423  24.684  1.00  0.00     0.345 HD
ATOM     24  H   UNL A   1      34.486  21.008  26.199  1.00  0.00     0.345 HD
ATOM     25  H   UNL A   1      35.073  22.038  25.029  1.00  0.00     0.345 HD
ENDBRANCH  18  22
ENDBRANCH  10  18
ENDBRANCH   7   9
ENDBRANCH   4   7
ENDBRANCH   2   3
ENDBRANCH   1   2
BRANCH   1  26
ATOM     26  C   UNL A   1      31.724  31.784  26.878  1.00  0.00     0.023 C 
BRANCH  26  27
ATOM     27  C   UNL A   1      32.879  32.663  27.351  1.00  0.00     0.116 C 
BRANCH  27  28
ATOM     28  N   UNL A   1      32.485  34.031  27.655  1.00  0.00    -0.352 N 
ATOM     29  C   UNL A   1      33.009  34.918  28.567  1.00  0.00     0.251 C 
ATOM     30  H   UNL A   1      31.727  34.373  27.128  1.00  0.00     0.163 HD
ATOM     31  O   UNL A   1      32.469  36.001  28.757  1.00  0.00    -0.269 OA
BRANCH  29  32
ATOM     32  C   UNL A   1      34.198  34.540  29.357  1.00  0.00     0.039 A 
ATOM     33  C   UNL A   1      34.015  34.035  30.647  1.00  0.00     0.014 A 
ATOM     34  C   UNL A   1      35.482  34.638  28.814  1.00  0.00     0.014 A 
ATOM     35  C   UNL A   1      35.109  33.527  31.350  1.00  0.00     0.010 A 
ATOM     36  C   UNL A   1      36.555  34.056  29.481  1.00  0.00     0.010 A 
ATOM     37  C   UNL A   1      36.377  33.481  30.748  1.00  0.00    -0.014 A 
BRANCH  37  38
ATOM     38  C   UNL A   1      37.522  32.806  31.411  1.00  0.00     0.031 A 
ATOM     39  C   UNL A   1      38.193  31.633  30.756  1.00  0.00     0.074 A 
ATOM     40  C   UNL A   1      37.898  33.196  32.645  1.00  0.00     0.049 A 
ATOM     41  N   UNL A   1      39.137  30.854  31.219  1.00  0.00    -0.248 NA
ATOM     42  C   UNL A   1      37.717  31.267  29.412  1.00  0.00     0.031 C 
ATOM     43  C   UNL A   1      37.290  34.284  33.413  1.00  0.00     0.029 A 
ATOM     44  N   UNL A   1      38.874  32.710  33.480  1.00  0.00    -0.354 N 
ATOM     45  C   UNL A   1      39.353  29.899  30.237  1.00  0.00     0.074 A 
ATOM     46  C   UNL A   1      38.409  30.163  29.172  1.00  0.00     0.031 C 
ATOM     47  C   UNL A   1      37.918  34.396  34.594  1.00  0.00     0.029 A 
ATOM     48  C   UNL A   1      38.946  33.365  34.686  1.00  0.00     0.049 A 
ATOM     49  H   UNL A   1      39.466  31.961  33.238  1.00  0.00     0.167 HD
ATOM     50  C   UNL A   1      40.271  28.903  30.214  1.00  0.00     0.037 A 
ATOM     51  C   UNL A   1      39.745  33.151  35.748  1.00  0.00     0.037 A 
ATOM     52  C   UNL A   1      41.231  28.661  31.258  1.00  0.00     0.049 A 
ATOM     53  C   UNL A   1      40.760  32.044  35.694  1.00  0.00     0.074 A 
ATOM     54  C   UNL A   1      42.250  27.725  31.294  1.00  0.00     0.029 A 
ATOM     55  N   UNL A   1      41.290  29.364  32.453  1.00  0.00    -0.354 N 
ATOM     56  N   UNL A   1      41.003  31.191  34.729  1.00  0.00    -0.248 NA
ATOM     57  C   UNL A   1      41.614  31.869  36.878  1.00  0.00     0.031 C 
ATOM     58  C   UNL A   1      42.900  27.833  32.528  1.00  0.00     0.029 A 
ATOM     59  C   UNL A   1      42.315  28.867  33.242  1.00  0.00     0.049 A 
ATOM     60  H   UNL A   1      40.692  30.105  32.702  1.00  0.00     0.167 HD
ATOM     61  C   UNL A   1      42.051  30.398  35.176  1.00  0.00     0.074 A 
ATOM     62  C   UNL A   1      42.408  30.880  36.494  1.00  0.00     0.031 C 
ATOM     63  C   UNL A   1      42.661  29.363  34.549  1.00  0.00     0.037 A 
BRANCH  50  64
ATOM     64  C   UNL A   1      40.287  28.004  29.012  1.00  0.00     0.064 A 
ATOM     65  C   UNL A   1      41.036  28.319  27.869  1.00  0.00     0.173 A 
ATOM     66  C   UNL A   1      39.573  26.796  29.017  1.00  0.00     0.173 A 
ATOM     67  F   UNL A   1      41.728  29.467  27.810  1.00  0.00    -0.203 F 
ATOM     68  C   UNL A   1      41.046  27.472  26.763  1.00  0.00     0.198 A 
ATOM     69  C   UNL A   1      39.609  25.938  27.921  1.00  0.00     0.198 A 
ATOM     70  F   UNL A   1      38.846  26.444  30.089  1.00  0.00    -0.203 F 
ATOM     71  F   UNL A   1      41.730  27.818  25.664  1.00  0.00    -0.200 F 
ATOM     72  C   UNL A   1      40.339  26.280  26.793  1.00  0.00     0.200 A 
ATOM     73  F   UNL A   1      38.934  24.781  27.956  1.00  0.00    -0.200 F 
ATOM     74  F   UNL A   1      40.355  25.464  25.730  1.00  0.00    -0.200 F 
ENDBRANCH  50  64
BRANCH  51  75
ATOM     75  C   UNL A   1      39.633  34.023  36.947  1.00  0.00     0.064 A 
ATOM     76  C   UNL A   1      38.845  33.639  38.040  1.00  0.00     0.173 A 
ATOM     77  C   UNL A   1      40.305  35.251  37.024  1.00  0.00     0.173 A 
ATOM     78  F   UNL A   1      38.167  32.483  38.005  1.00  0.00    -0.203 F 
ATOM     79  C   UNL A   1      38.718  34.461  39.159  1.00  0.00     0.198 A 
ATOM     80  C   UNL A   1      40.198  36.060  38.153  1.00  0.00     0.198 A 
ATOM     81  F   UNL A   1      41.075  35.661  36.005  1.00  0.00    -0.203 F 
ATOM     82  F   UNL A   1      37.925  34.089  40.174  1.00  0.00    -0.200 F 
ATOM     83  C   UNL A   1      39.399  35.667  39.217  1.00  0.00     0.200 A 
ATOM     84  F   UNL A   1      40.868  37.218  38.212  1.00  0.00    -0.200 F 
ATOM     85  F   UNL A   1      39.280  36.454  40.296  1.00  0.00    -0.200 F 
ENDBRANCH  51  75
BRANCH  63  86
ATOM     86  C   UNL A   1      43.798  28.698  35.269  1.00  0.00     0.064 A 
ATOM     87  C   UNL A   1      45.115  29.166  35.152  1.00  0.00     0.173 A 
ATOM     88  C   UNL A   1      43.559  27.608  36.120  1.00  0.00     0.173 A 
ATOM     89  F   UNL A   1      45.397  30.194  34.338  1.00  0.00    -0.203 F 
ATOM     90  C   UNL A   1      46.155  28.553  35.846  1.00  0.00     0.198 A 
ATOM     91  C   UNL A   1      44.597  27.016  36.833  1.00  0.00     0.198 A 
ATOM     92  F   UNL A   1      42.316  27.128  36.269  1.00  0.00    -0.203 F 
ATOM     93  F   UNL A   1      47.412  28.989  35.687  1.00  0.00    -0.200 F 
ATOM     94  C   UNL A   1      45.895  27.484  36.690  1.00  0.00     0.200 A 
ATOM     95  F   UNL A   1      44.342  25.992  37.658  1.00  0.00    -0.200 F 
ATOM     96  F   UNL A   1      46.896  26.901  37.364  1.00  0.00    -0.200 F 
ENDBRANCH  63  86
ENDBRANCH  37  38
ENDBRANCH  29  32
ENDBRANCH  27  28
ENDBRANCH  26  27
ENDBRANCH   1  26
TORSDOF 15
ENDMDL
MODEL 3
REMARK VINA RESULT:     -12.2      1.277      7.528
REMARK SMILES CC[C@](C)([NH3+])C(=O)N1CC[NH+]([C@H](C)C(=O)NCCCCNC(=O)c2ccc(-c3c4nc(c(-c5c(F)c(F)c(F)c(F)c5F)c5ccc([nH]5)c(-c5c(F)c(F)c(F)c(F)c5F)c5nc(c(-c6c(F)c(F)c(F)c(F)c6F)c6ccc3[nH]6)C=C5)C=C4)cc2)CC1
REMARK SMILES IDX 18 1 17 2 16 3 14 4 15 5 12 7 13 8 11 9 6 10 7 11 8 12 9 13
REMARK SMILES IDX 88 14 10 15 87 16 3 18 4 19 2 20 1 21 5 22 19 26 20 27 21 28
REMARK SMILES IDX 22 29 23 31 24 32 25 33 86 34 26 35 85 36 27 37 28 38 29 39
REMARK SMILES IDX 79 40 30 41 84 42 78 43 80 44 31 45 83 46 77 47 76 48 32 50
REMARK SMILES IDX 64 51 44 52 63 53 45 54 48 55 62 56 81 57 46 58 47 59 61 61
REMARK SMILES IDX 82 62 49 63 33 64 34 65 42 66 35 67 36 68 40 69 43 70 37 71
REMARK SMILES IDX 38 72 41 73 39 74 65 75 66 76 74 77 67 78 68 79 72 80 75 81
REMARK SMILES IDX 69 82 70 83 73 84 71 85 50 86 51 87 59 88 52 89 53 90 57 91
REMARK SMILES IDX 60 92 54 93 55 94 58 95 56 96
REMARK H PARENT 16 6 11 17 5 23 5 24 5 25 21 30 80 49 48 60
REMARK Flexibility Score: inf
ROOT
ATOM      1  C   UNL A   1      31.992  30.356  26.846  1.00  0.00     0.023 C 
ENDROOT
BRANCH   1   2
ATOM      2  C   UNL A   1      32.259  29.747  25.476  1.00  0.00     0.116 C 
BRANCH   2   3
ATOM      3  N   UNL A   1      31.211  29.990  24.507  1.00  0.00    -0.351 N 
ATOM      4  C   UNL A   1      30.704  29.177  23.529  1.00  0.00     0.278 C 
ATOM      5  O   UNL A   1      29.645  29.545  23.006  1.00  0.00    -0.268 OA
ATOM      6  H   UNL A   1      30.797  30.882  24.559  1.00  0.00     0.163 HD
BRANCH   4   7
ATOM      7  C   UNL A   1      31.405  27.873  23.068  1.00  0.00     0.271 C 
ATOM      8  C   UNL A   1      32.933  28.001  23.023  1.00  0.00     0.086 C 
BRANCH   7   9
ATOM      9  N   UNL A   1      30.829  26.627  23.657  1.00  0.00    -0.322 N 
ATOM     10  C   UNL A   1      31.777  23.727  26.349  1.00  0.00     0.283 C 
ATOM     11  O   UNL A   1      31.364  23.788  27.517  1.00  0.00    -0.268 OA
ATOM     12  N   UNL A   1      31.001  24.275  25.340  1.00  0.00    -0.326 N 
ATOM     13  C   UNL A   1      30.060  25.331  25.693  1.00  0.00     0.181 C 
ATOM     14  C   UNL A   1      31.075  24.105  23.891  1.00  0.00     0.181 C 
ATOM     15  C   UNL A   1      30.604  26.654  25.113  1.00  0.00     0.284 C 
ATOM     16  C   UNL A   1      31.553  25.409  23.219  1.00  0.00     0.284 C 
ATOM     17  H   UNL A   1      29.887  26.587  23.267  1.00  0.00     0.348 HD
BRANCH  10  18
ATOM     18  C   UNL A   1      33.262  23.260  26.111  1.00  0.00     0.171 C 
ATOM     19  C   UNL A   1      33.790  22.591  27.395  1.00  0.00     0.090 C 
BRANCH  18  20
ATOM     20  C   UNL A   1      34.130  24.491  25.733  1.00  0.00     0.075 C 
ATOM     21  C   UNL A   1      34.931  24.360  24.440  1.00  0.00     0.011 C 
ENDBRANCH  18  20
BRANCH  18  22
ATOM     22  N   UNL A   1      33.392  22.252  25.031  1.00  0.00    -0.345 N 
ATOM     23  H   UNL A   1      32.966  22.613  24.178  1.00  0.00     0.345 HD
ATOM     24  H   UNL A   1      32.919  21.393  25.310  1.00  0.00     0.345 HD
ATOM     25  H   UNL A   1      34.379  22.058  24.864  1.00  0.00     0.345 HD
ENDBRANCH  18  22
ENDBRANCH  10  18
ENDBRANCH   7   9
ENDBRANCH   4   7
ENDBRANCH   2   3
ENDBRANCH   1   2
BRANCH   1  26
ATOM     26  C   UNL A   1      31.736  31.861  26.853  1.00  0.00     0.023 C 
BRANCH  26  27
ATOM     27  C   UNL A   1      32.884  32.729  27.360  1.00  0.00     0.116 C 
BRANCH  27  28
ATOM     28  N   UNL A   1      32.487  34.094  27.677  1.00  0.00    -0.352 N 
ATOM     29  C   UNL A   1      33.009  34.974  28.597  1.00  0.00     0.251 C 
ATOM     30  H   UNL A   1      31.730  34.441  27.151  1.00  0.00     0.163 HD
ATOM     31  O   UNL A   1      32.466  36.055  28.796  1.00  0.00    -0.269 OA
BRANCH  29  32
ATOM     32  C   UNL A   1      34.197  34.591  29.385  1.00  0.00     0.039 A 
ATOM     33  C   UNL A   1      34.014  34.094  30.678  1.00  0.00     0.014 A 
ATOM     34  C   UNL A   1      35.480  34.675  28.838  1.00  0.00     0.014 A 
ATOM     35  C   UNL A   1      35.106  33.581  31.381  1.00  0.00     0.010 A 
ATOM     36  C   UNL A   1      36.550  34.088  29.504  1.00  0.00     0.010 A 
ATOM     37  C   UNL A   1      36.371  33.521  30.775  1.00  0.00    -0.014 A 
BRANCH  37  38
ATOM     38  C   UNL A   1      37.513  32.841  31.438  1.00  0.00     0.031 A 
ATOM     39  C   UNL A   1      38.185  31.671  30.778  1.00  0.00     0.074 A 
ATOM     40  C   UNL A   1      37.885  33.222  32.677  1.00  0.00     0.049 A 
ATOM     41  N   UNL A   1      39.126  30.888  31.241  1.00  0.00    -0.248 NA
ATOM     42  C   UNL A   1      37.715  31.315  29.430  1.00  0.00     0.031 C 
ATOM     43  C   UNL A   1      37.274  34.306  33.449  1.00  0.00     0.029 A 
ATOM     44  N   UNL A   1      38.856  32.729  33.512  1.00  0.00    -0.354 N 
ATOM     45  C   UNL A   1      39.345  29.939  30.252  1.00  0.00     0.074 A 
ATOM     46  C   UNL A   1      38.406  30.212  29.186  1.00  0.00     0.031 C 
ATOM     47  C   UNL A   1      37.898  34.410  34.633  1.00  0.00     0.029 A 
ATOM     48  C   UNL A   1      38.924  33.376  34.723  1.00  0.00     0.049 A 
ATOM     49  H   UNL A   1      39.448  31.982  33.268  1.00  0.00     0.167 HD
ATOM     50  C   UNL A   1      40.262  28.943  30.227  1.00  0.00     0.037 A 
ATOM     51  C   UNL A   1      39.718  33.155  35.787  1.00  0.00     0.037 A 
ATOM     52  C   UNL A   1      41.218  28.692  31.273  1.00  0.00     0.049 A 
ATOM     53  C   UNL A   1      40.733  32.046  35.730  1.00  0.00     0.074 A 
ATOM     54  C   UNL A   1      42.235  27.755  31.308  1.00  0.00     0.029 A 
ATOM     55  N   UNL A   1      41.273  29.387  32.473  1.00  0.00    -0.354 N 
ATOM     56  N   UNL A   1      40.978  31.200  34.760  1.00  0.00    -0.248 NA
ATOM     57  C   UNL A   1      41.582  31.863  36.916  1.00  0.00     0.031 C 
ATOM     58  C   UNL A   1      42.880  27.854  32.545  1.00  0.00     0.029 A 
ATOM     59  C   UNL A   1      42.293  28.884  33.263  1.00  0.00     0.049 A 
ATOM     60  H   UNL A   1      40.675  30.128  32.725  1.00  0.00     0.167 HD
ATOM     61  C   UNL A   1      42.024  30.402  35.206  1.00  0.00     0.074 A 
ATOM     62  C   UNL A   1      42.376  30.875  36.529  1.00  0.00     0.031 C 
ATOM     63  C   UNL A   1      42.635  29.371  34.575  1.00  0.00     0.037 A 
BRANCH  50  64
ATOM     64  C   UNL A   1      40.282  28.051  29.020  1.00  0.00     0.064 A 
ATOM     65  C   UNL A   1      41.026  28.379  27.877  1.00  0.00     0.173 A 
ATOM     66  C   UNL A   1      39.577  26.837  29.018  1.00  0.00     0.173 A 
ATOM     67  F   UNL A   1      41.709  29.533  27.823  1.00  0.00    -0.203 F 
ATOM     68  C   UNL A   1      41.039  27.540  26.765  1.00  0.00     0.198 A 
ATOM     69  C   UNL A   1      39.616  25.987  27.917  1.00  0.00     0.198 A 
ATOM     70  F   UNL A   1      38.855  26.474  30.089  1.00  0.00    -0.203 F 
ATOM     71  F   UNL A   1      41.718  27.897  25.667  1.00  0.00    -0.200 F 
ATOM     72  C   UNL A   1      40.341  26.342  26.789  1.00  0.00     0.200 A 
ATOM     73  F   UNL A   1      38.950  24.825  27.946  1.00  0.00    -0.200 F 
ATOM     74  F   UNL A   1      40.361  25.533  25.721  1.00  0.00    -0.200 F 
ENDBRANCH  50  64
BRANCH  51  75
ATOM     75  C   UNL A   1      39.603  34.018  36.991  1.00  0.00     0.064 A 
ATOM     76  C   UNL A   1      38.815  33.626  38.081  1.00  0.00     0.173 A 
ATOM     77  C   UNL A   1      40.271  35.248  37.076  1.00  0.00     0.173 A 
ATOM     78  F   UNL A   1      38.140  32.468  38.037  1.00  0.00    -0.203 F 
ATOM     79  C   UNL A   1      38.684  34.440  39.205  1.00  0.00     0.198 A 
ATOM     80  C   UNL A   1      40.160  36.050  38.211  1.00  0.00     0.198 A 
ATOM     81  F   UNL A   1      41.042  35.667  36.061  1.00  0.00    -0.203 F 
ATOM     82  F   UNL A   1      37.890  34.060  40.216  1.00  0.00    -0.200 F 
ATOM     83  C   UNL A   1      39.361  35.648  39.271  1.00  0.00     0.200 A 
ATOM     84  F   UNL A   1      40.828  37.209  38.278  1.00  0.00    -0.200 F 
ATOM     85  F   UNL A   1      39.239  36.428  40.354  1.00  0.00    -0.200 F 
ENDBRANCH  51  75
BRANCH  63  86
ATOM     86  C   UNL A   1      43.769  28.700  35.295  1.00  0.00     0.064 A 
ATOM     87  C   UNL A   1      43.547  27.644  36.191  1.00  0.00     0.173 A 
ATOM     88  C   UNL A   1      45.094  29.089  35.050  1.00  0.00     0.173 A 
ATOM     89  F   UNL A   1      42.297  27.247  36.471  1.00  0.00    -0.203 F 
ATOM     90  C   UNL A   1      44.612  27.016  36.832  1.00  0.00     0.198 A 
ATOM     91  C   UNL A   1      46.157  28.441  35.671  1.00  0.00     0.198 A 
ATOM     92  F   UNL A   1      45.358  30.091  34.197  1.00  0.00    -0.203 F 
ATOM     93  F   UNL A   1      44.376  26.038  37.717  1.00  0.00    -0.200 F 
ATOM     94  C   UNL A   1      45.915  27.410  36.567  1.00  0.00     0.200 A 
ATOM     95  F   UNL A   1      47.416  28.815  35.405  1.00  0.00    -0.200 F 
ATOM     96  F   UNL A   1      46.939  26.798  37.178  1.00  0.00    -0.200 F 
ENDBRANCH  63  86
ENDBRANCH  37  38
ENDBRANCH  29  32
ENDBRANCH  27  28
ENDBRANCH  26  27
ENDBRANCH   1  26
TORSDOF 15
ENDMDL
