MODEL 1
REMARK VINA RESULT:     -12.2      0.000      0.000
REMARK SMILES CCOc1cc(NC(=O)c2c(C(=O)NCCCCNC(=O)c3ccc(-c4c5nc(c(-c6c(F)c(F)c(F)c(F)c6F)c6ccc([nH]6)c(-c6c(F)c(F)c(F)c(F)c6F)c6nc(c(-c7c(F)c(F)c(F)c(F)c7F)c7ccc4[nH]7)C=C6)C=C5)cc3)cnn2C)ccc1OC(F)F
REMARK SMILES IDX 15 1 14 2 12 3 13 4 11 6 10 7 87 8 85 9 86 10 88 11 8 12
REMARK SMILES IDX 7 13 9 15 6 16 4 17 5 18 91 19 90 20 89 21 3 22 2 23 1 24
REMARK SMILES IDX 92 25 93 26 94 27 95 28 16 29 17 30 18 31 19 32 20 33 21 35
REMARK SMILES IDX 22 36 23 37 84 38 24 39 83 40 25 41 26 42 27 43 77 44 28 45
REMARK SMILES IDX 82 46 76 47 78 48 29 49 81 50 75 51 74 52 30 54 62 55 42 56
REMARK SMILES IDX 61 57 43 58 46 59 60 60 79 61 44 62 45 63 59 65 80 66 47 67
REMARK SMILES IDX 31 68 32 69 40 70 33 71 34 72 38 73 41 74 35 75 36 76 39 77
REMARK SMILES IDX 37 78 63 79 64 80 72 81 65 82 66 83 70 84 73 85 67 86 68 87
REMARK SMILES IDX 71 88 69 89 48 90 49 91 57 92 50 93 51 94 55 95 58 96 52 97
REMARK SMILES IDX 53 98 56 99 54 100
REMARK H PARENT 14 5 7 14 19 34 78 53 46 64
REMARK Flexibility Score: inf
ROOT
ATOM      1  C   UNL A   1      34.349  24.780  23.916  1.00  0.00     0.116 C 
ENDROOT
BRANCH   1   2
ATOM      2  N   UNL A   1      34.023  25.158  22.562  1.00  0.00    -0.352 N 
ATOM      3  C   UNL A   1      33.471  26.294  22.036  1.00  0.00     0.255 C 
ATOM      4  O   UNL A   1      33.280  26.280  20.818  1.00  0.00    -0.269 OA
ATOM      5  H   UNL A   1      34.238  24.470  21.892  1.00  0.00     0.163 HD
BRANCH   3   6
ATOM      6  C   UNL A   1      33.053  27.444  22.823  1.00  0.00     0.090 A 
ATOM      7  C   UNL A   1      31.823  28.041  23.096  1.00  0.00     0.138 A 
ATOM      8  N   UNL A   1      32.079  28.995  24.057  1.00  0.00    -0.262 N 
ATOM      9  C   UNL A   1      33.966  28.199  23.610  1.00  0.00     0.149 A 
ATOM     10  N   UNL A   1      33.387  29.179  24.301  1.00  0.00    -0.180 NA
ATOM     11  C   UNL A   1      31.130  29.808  24.784  1.00  0.00     0.174 C 
BRANCH   7  12
ATOM     12  C   UNL A   1      30.500  27.707  22.679  1.00  0.00     0.274 C 
ATOM     13  N   UNL A   1      29.898  26.536  23.078  1.00  0.00    -0.321 N 
ATOM     14  H   UNL A   1      29.021  26.396  22.652  1.00  0.00     0.170 HD
ATOM     15  O   UNL A   1      29.841  28.458  21.950  1.00  0.00    -0.267 OA
BRANCH  13  16
ATOM     16  C   UNL A   1      30.249  25.488  23.956  1.00  0.00     0.045 A 
ATOM     17  C   UNL A   1      31.063  23.260  24.549  1.00  0.00     0.163 A 
ATOM     18  C   UNL A   1      30.769  24.247  23.589  1.00  0.00     0.076 A 
ATOM     19  C   UNL A   1      30.924  23.548  25.909  1.00  0.00     0.168 A 
ATOM     20  C   UNL A   1      30.450  24.806  26.285  1.00  0.00     0.053 A 
ATOM     21  C   UNL A   1      30.089  25.753  25.321  1.00  0.00     0.030 A 
BRANCH  17  22
ATOM     22  O   UNL A   1      31.574  22.047  24.171  1.00  0.00    -0.490 OA
BRANCH  22  23
ATOM     23  C   UNL A   1      32.240  22.062  22.901  1.00  0.00     0.226 C 
ATOM     24  C   UNL A   1      31.943  20.755  22.185  1.00  0.00     0.049 C 
ENDBRANCH  22  23
ENDBRANCH  17  22
BRANCH  19  25
ATOM     25  O   UNL A   1      31.265  22.744  26.958  1.00  0.00    -0.431 OA
BRANCH  25  26
ATOM     26  C   UNL A   1      32.651  22.559  27.230  1.00  0.00     0.542 C 
ATOM     27  F   UNL A   1      33.359  23.688  26.986  1.00  0.00    -0.167 F 
ATOM     28  F   UNL A   1      32.830  22.187  28.517  1.00  0.00    -0.167 F 
ENDBRANCH  25  26
ENDBRANCH  19  25
ENDBRANCH  13  16
ENDBRANCH   7  12
ENDBRANCH   3   6
ENDBRANCH   1   2
BRANCH   1  29
ATOM     29  C   UNL A   1      35.603  23.913  24.044  1.00  0.00     0.023 C 
BRANCH  29  30
ATOM     30  C   UNL A   1      35.399  22.468  24.510  1.00  0.00     0.023 C 
BRANCH  30  31
ATOM     31  C   UNL A   1      36.073  22.072  25.822  1.00  0.00     0.116 C 
BRANCH  31  32
ATOM     32  N   UNL A   1      37.157  21.121  25.651  1.00  0.00    -0.352 N 
ATOM     33  C   UNL A   1      38.514  21.242  25.826  1.00  0.00     0.251 C 
ATOM     34  H   UNL A   1      36.867  20.228  25.356  1.00  0.00     0.163 HD
ATOM     35  O   UNL A   1      39.244  20.313  25.484  1.00  0.00    -0.269 OA
BRANCH  33  36
ATOM     36  C   UNL A   1      39.129  22.474  26.378  1.00  0.00     0.039 A 
ATOM     37  C   UNL A   1      40.178  22.337  27.295  1.00  0.00     0.014 A 
ATOM     38  C   UNL A   1      38.665  23.752  26.056  1.00  0.00     0.014 A 
ATOM     39  C   UNL A   1      40.819  23.468  27.810  1.00  0.00     0.010 A 
ATOM     40  C   UNL A   1      39.345  24.881  26.518  1.00  0.00     0.010 A 
ATOM     41  C   UNL A   1      40.441  24.750  27.384  1.00  0.00    -0.014 A 
BRANCH  41  42
ATOM     42  C   UNL A   1      41.207  25.958  27.790  1.00  0.00     0.031 A 
ATOM     43  C   UNL A   1      40.549  27.064  28.564  1.00  0.00     0.074 A 
ATOM     44  C   UNL A   1      42.484  26.100  27.383  1.00  0.00     0.049 A 
ATOM     45  N   UNL A   1      41.008  28.257  28.852  1.00  0.00    -0.248 NA
ATOM     46  C   UNL A   1      39.190  26.804  29.060  1.00  0.00     0.031 C 
ATOM     47  C   UNL A   1      43.238  25.119  26.601  1.00  0.00     0.029 A 
ATOM     48  N   UNL A   1      43.368  27.137  27.556  1.00  0.00    -0.354 N 
ATOM     49  C   UNL A   1      39.979  28.906  29.520  1.00  0.00     0.074 A 
ATOM     50  C   UNL A   1      38.874  27.973  29.603  1.00  0.00     0.031 C 
ATOM     51  C   UNL A   1      44.474  25.593  26.375  1.00  0.00     0.029 A 
ATOM     52  C   UNL A   1      44.585  26.926  26.958  1.00  0.00     0.049 A 
ATOM     53  H   UNL A   1      43.149  27.954  28.060  1.00  0.00     0.167 HD
ATOM     54  C   UNL A   1      39.956  30.167  30.015  1.00  0.00     0.037 A 
ATOM     55  C   UNL A   1      45.666  27.723  26.871  1.00  0.00     0.037 A 
ATOM     56  C   UNL A   1      41.066  31.081  29.988  1.00  0.00     0.049 A 
ATOM     57  C   UNL A   1      45.634  29.094  27.477  1.00  0.00     0.074 A 
ATOM     58  C   UNL A   1      41.146  32.360  30.515  1.00  0.00     0.029 A 
ATOM     59  N   UNL A   1      42.298  30.810  29.413  1.00  0.00    -0.354 N 
ATOM     60  N   UNL A   1      44.653  29.696  28.101  1.00  0.00    -0.248 NA
ATOM     61  C   UNL A   1      46.857  29.901  27.354  1.00  0.00     0.031 C 
ATOM     62  C   UNL A   1      42.425  32.866  30.250  1.00  0.00     0.029 A 
ATOM     63  C   UNL A   1      43.143  31.896  29.570  1.00  0.00     0.049 A 
ATOM     64  H   UNL A   1      42.536  29.969  28.959  1.00  0.00     0.167 HD
ATOM     65  C   UNL A   1      45.137  30.948  28.449  1.00  0.00     0.074 A 
ATOM     66  C   UNL A   1      46.505  31.019  27.976  1.00  0.00     0.031 C 
ATOM     67  C   UNL A   1      44.501  31.951  29.098  1.00  0.00     0.037 A 
BRANCH  54  68
ATOM     68  C   UNL A   1      38.674  30.642  30.623  1.00  0.00     0.064 A 
ATOM     69  C   UNL A   1      38.469  30.619  32.009  1.00  0.00     0.173 A 
ATOM     70  C   UNL A   1      37.659  31.166  29.807  1.00  0.00     0.173 A 
ATOM     71  F   UNL A   1      39.410  30.116  32.822  1.00  0.00    -0.203 F 
ATOM     72  C   UNL A   1      37.282  31.094  32.559  1.00  0.00     0.198 A 
ATOM     73  C   UNL A   1      36.479  31.651  30.362  1.00  0.00     0.198 A 
ATOM     74  F   UNL A   1      37.815  31.209  28.476  1.00  0.00    -0.203 F 
ATOM     75  F   UNL A   1      37.092  31.041  33.885  1.00  0.00    -0.200 F 
ATOM     76  C   UNL A   1      36.291  31.613  31.737  1.00  0.00     0.200 A 
ATOM     77  F   UNL A   1      35.523  32.156  29.568  1.00  0.00    -0.200 F 
ATOM     78  F   UNL A   1      35.150  32.071  32.270  1.00  0.00    -0.200 F 
ENDBRANCH  54  68
BRANCH  55  79
ATOM     79  C   UNL A   1      46.879  27.232  26.174  1.00  0.00     0.064 A 
ATOM     80  C   UNL A   1      47.082  27.512  24.817  1.00  0.00     0.173 A 
ATOM     81  C   UNL A   1      47.859  26.499  26.855  1.00  0.00     0.173 A 
ATOM     82  F   UNL A   1      46.156  28.195  24.128  1.00  0.00    -0.203 F 
ATOM     83  C   UNL A   1      48.227  27.070  24.160  1.00  0.00     0.198 A 
ATOM     84  C   UNL A   1      49.011  26.069  26.200  1.00  0.00     0.198 A 
ATOM     85  F   UNL A   1      47.702  26.211  28.155  1.00  0.00    -0.203 F 
ATOM     86  F   UNL A   1      48.393  27.332  22.856  1.00  0.00    -0.200 F 
ATOM     87  C   UNL A   1      49.192  26.354  24.854  1.00  0.00     0.200 A 
ATOM     88  F   UNL A   1      49.944  25.381  26.872  1.00  0.00    -0.200 F 
ATOM     89  F   UNL A   1      50.296  25.933  24.222  1.00  0.00    -0.200 F 
ENDBRANCH  55  79
BRANCH  67  90
ATOM     90  C   UNL A   1      45.280  33.202  29.347  1.00  0.00     0.064 A 
ATOM     91  C   UNL A   1      46.063  33.350  30.502  1.00  0.00     0.173 A 
ATOM     92  C   UNL A   1      45.266  34.248  28.413  1.00  0.00     0.173 A 
ATOM     93  F   UNL A   1      46.090  32.379  31.427  1.00  0.00    -0.203 F 
ATOM     94  C   UNL A   1      46.801  34.510  30.715  1.00  0.00     0.198 A 
ATOM     95  C   UNL A   1      46.013  35.403  28.626  1.00  0.00     0.198 A 
ATOM     96  F   UNL A   1      44.526  34.148  27.299  1.00  0.00    -0.203 F 
ATOM     97  F   UNL A   1      47.527  34.643  31.835  1.00  0.00    -0.200 F 
ATOM     98  C   UNL A   1      46.778  35.533  29.777  1.00  0.00     0.200 A 
ATOM     99  F   UNL A   1      45.990  36.392  27.722  1.00  0.00    -0.200 F 
ATOM    100  F   UNL A   1      47.489  36.649  29.987  1.00  0.00    -0.200 F 
ENDBRANCH  67  90
ENDBRANCH  41  42
ENDBRANCH  33  36
ENDBRANCH  31  32
ENDBRANCH  30  31
ENDBRANCH  29  30
ENDBRANCH   1  29
TORSDOF 17
ENDMDL
MODEL 2
REMARK VINA RESULT:     -12.0      2.727      7.504
REMARK SMILES CCOc1cc(NC(=O)c2c(C(=O)NCCCCNC(=O)c3ccc(-c4c5nc(c(-c6c(F)c(F)c(F)c(F)c6F)c6ccc([nH]6)c(-c6c(F)c(F)c(F)c(F)c6F)c6nc(c(-c7c(F)c(F)c(F)c(F)c7F)c7ccc4[nH]7)C=C6)C=C5)cc3)cnn2C)ccc1OC(F)F
REMARK SMILES IDX 15 1 14 2 12 3 13 4 11 6 10 7 87 8 85 9 86 10 88 11 8 12
REMARK SMILES IDX 7 13 9 15 6 16 4 17 5 18 91 19 90 20 89 21 3 22 2 23 1 24
REMARK SMILES IDX 92 25 93 26 94 27 95 28 16 29 17 30 18 31 19 32 20 33 21 35
REMARK SMILES IDX 22 36 23 37 84 38 24 39 83 40 25 41 26 42 27 43 77 44 28 45
REMARK SMILES IDX 82 46 76 47 78 48 29 49 81 50 75 51 74 52 30 54 62 55 42 56
REMARK SMILES IDX 61 57 43 58 46 59 60 60 79 61 44 62 45 63 59 65 80 66 47 67
REMARK SMILES IDX 31 68 32 69 40 70 33 71 34 72 38 73 41 74 35 75 36 76 39 77
REMARK SMILES IDX 37 78 63 79 64 80 72 81 65 82 66 83 70 84 73 85 67 86 68 87
REMARK SMILES IDX 71 88 69 89 48 90 49 91 57 92 50 93 51 94 55 95 58 96 52 97
REMARK SMILES IDX 53 98 56 99 54 100
REMARK H PARENT 14 5 7 14 19 34 78 53 46 64
REMARK Flexibility Score: inf
ROOT
ATOM      1  C   UNL A   1      34.333  24.783  23.941  1.00  0.00     0.116 C 
ENDROOT
BRANCH   1   2
ATOM      2  N   UNL A   1      33.994  25.170  22.593  1.00  0.00    -0.352 N 
ATOM      3  C   UNL A   1      33.445  26.313  22.078  1.00  0.00     0.255 C 
ATOM      4  O   UNL A   1      33.239  26.306  20.863  1.00  0.00    -0.269 OA
ATOM      5  H   UNL A   1      34.195  24.483  21.917  1.00  0.00     0.163 HD
BRANCH   3   6
ATOM      6  C   UNL A   1      33.047  27.463  22.876  1.00  0.00     0.090 A 
ATOM      7  C   UNL A   1      31.824  28.054  23.188  1.00  0.00     0.138 A 
ATOM      8  N   UNL A   1      32.106  29.012  24.137  1.00  0.00    -0.262 N 
ATOM      9  C   UNL A   1      33.982  28.226  23.630  1.00  0.00     0.149 A 
ATOM     10  N   UNL A   1      33.420  29.204  24.337  1.00  0.00    -0.180 NA
ATOM     11  C   UNL A   1      31.177  29.822  24.893  1.00  0.00     0.174 C 
BRANCH   7  12
ATOM     12  C   UNL A   1      30.490  27.710  22.816  1.00  0.00     0.274 C 
ATOM     13  N   UNL A   1      29.895  26.555  23.268  1.00  0.00    -0.321 N 
ATOM     14  H   UNL A   1      29.006  26.405  22.870  1.00  0.00     0.170 HD
ATOM     15  O   UNL A   1      29.814  28.440  22.080  1.00  0.00    -0.267 OA
BRANCH  13  16
ATOM     16  C   UNL A   1      30.265  25.535  24.171  1.00  0.00     0.045 A 
ATOM     17  C   UNL A   1      31.084  23.323  24.815  1.00  0.00     0.163 A 
ATOM     18  C   UNL A   1      30.767  24.279  23.831  1.00  0.00     0.076 A 
ATOM     19  C   UNL A   1      30.987  23.659  26.168  1.00  0.00     0.168 A 
ATOM     20  C   UNL A   1      30.532  24.932  26.515  1.00  0.00     0.053 A 
ATOM     21  C   UNL A   1      30.148  25.848  25.530  1.00  0.00     0.030 A 
BRANCH  17  22
ATOM     22  O   UNL A   1      31.575  22.094  24.463  1.00  0.00    -0.490 OA
BRANCH  22  23
ATOM     23  C   UNL A   1      31.911  21.973  23.074  1.00  0.00     0.226 C 
ATOM     24  C   UNL A   1      32.180  20.510  22.768  1.00  0.00     0.049 C 
ENDBRANCH  22  23
ENDBRANCH  17  22
BRANCH  19  25
ATOM     25  O   UNL A   1      31.355  22.888  27.234  1.00  0.00    -0.431 OA
BRANCH  25  26
ATOM     26  C   UNL A   1      32.745  22.781  27.527  1.00  0.00     0.542 C 
ATOM     27  F   UNL A   1      33.243  21.585  27.132  1.00  0.00    -0.167 F 
ATOM     28  F   UNL A   1      33.428  23.775  26.917  1.00  0.00    -0.167 F 
ENDBRANCH  25  26
ENDBRANCH  19  25
ENDBRANCH  13  16
ENDBRANCH   7  12
ENDBRANCH   3   6
ENDBRANCH   1   2
BRANCH   1  29
ATOM     29  C   UNL A   1      35.059  23.441  24.048  1.00  0.00     0.023 C 
BRANCH  29  30
ATOM     30  C   UNL A   1      36.554  23.488  24.376  1.00  0.00     0.023 C 
BRANCH  30  31
ATOM     31  C   UNL A   1      36.940  23.277  25.839  1.00  0.00     0.116 C 
BRANCH  31  32
ATOM     32  N   UNL A   1      38.177  22.535  26.009  1.00  0.00    -0.352 N 
ATOM     33  C   UNL A   1      39.416  22.915  26.463  1.00  0.00     0.251 C 
ATOM     34  H   UNL A   1      38.116  21.587  25.752  1.00  0.00     0.163 HD
ATOM     35  O   UNL A   1      40.349  22.118  26.387  1.00  0.00    -0.269 OA
BRANCH  33  36
ATOM     36  C   UNL A   1      39.672  24.272  27.004  1.00  0.00     0.039 A 
ATOM     37  C   UNL A   1      39.260  24.551  28.313  1.00  0.00     0.014 A 
ATOM     38  C   UNL A   1      40.255  25.286  26.241  1.00  0.00     0.014 A 
ATOM     39  C   UNL A   1      39.518  25.801  28.884  1.00  0.00     0.010 A 
ATOM     40  C   UNL A   1      40.571  26.513  26.830  1.00  0.00     0.010 A 
ATOM     41  C   UNL A   1      40.223  26.776  28.163  1.00  0.00    -0.014 A 
BRANCH  41  42
ATOM     42  C   UNL A   1      40.650  28.051  28.797  1.00  0.00     0.031 A 
ATOM     43  C   UNL A   1      42.059  28.236  29.283  1.00  0.00     0.074 A 
ATOM     44  C   UNL A   1      39.739  29.020  29.015  1.00  0.00     0.049 A 
ATOM     45  N   UNL A   1      42.562  29.205  30.009  1.00  0.00    -0.248 NA
ATOM     46  C   UNL A   1      43.023  27.186  28.926  1.00  0.00     0.031 C 
ATOM     47  C   UNL A   1      38.330  28.962  28.623  1.00  0.00     0.029 A 
ATOM     48  N   UNL A   1      39.859  30.237  29.640  1.00  0.00    -0.354 N 
ATOM     49  C   UNL A   1      43.887  28.858  30.235  1.00  0.00     0.074 A 
ATOM     50  C   UNL A   1      44.113  27.594  29.564  1.00  0.00     0.031 C 
ATOM     51  C   UNL A   1      37.721  30.097  29.001  1.00  0.00     0.029 A 
ATOM     52  C   UNL A   1      38.684  30.943  29.698  1.00  0.00     0.049 A 
ATOM     53  H   UNL A   1      40.709  30.571  30.010  1.00  0.00     0.167 HD
ATOM     54  C   UNL A   1      44.826  29.529  30.943  1.00  0.00     0.037 A 
ATOM     55  C   UNL A   1      38.404  32.130  30.267  1.00  0.00     0.037 A 
ATOM     56  C   UNL A   1      44.627  30.810  31.566  1.00  0.00     0.049 A 
ATOM     57  C   UNL A   1      39.478  32.880  30.997  1.00  0.00     0.074 A 
ATOM     58  C   UNL A   1      45.543  31.588  32.257  1.00  0.00     0.029 A 
ATOM     59  N   UNL A   1      43.432  31.513  31.561  1.00  0.00    -0.354 N 
ATOM     60  N   UNL A   1      40.725  32.538  31.208  1.00  0.00    -0.248 NA
ATOM     61  C   UNL A   1      39.102  34.177  31.580  1.00  0.00     0.031 C 
ATOM     62  C   UNL A   1      44.897  32.756  32.679  1.00  0.00     0.029 A 
ATOM     63  C   UNL A   1      43.586  32.712  32.239  1.00  0.00     0.049 A 
ATOM     64  H   UNL A   1      42.598  31.204  31.140  1.00  0.00     0.167 HD
ATOM     65  C   UNL A   1      41.283  33.573  31.942  1.00  0.00     0.074 A 
ATOM     66  C   UNL A   1      40.244  34.565  32.133  1.00  0.00     0.031 C 
ATOM     67  C   UNL A   1      42.545  33.688  32.418  1.00  0.00     0.037 A 
BRANCH  54  68
ATOM     68  C   UNL A   1      46.165  28.879  31.095  1.00  0.00     0.064 A 
ATOM     69  C   UNL A   1      47.202  29.115  30.182  1.00  0.00     0.173 A 
ATOM     70  C   UNL A   1      46.423  28.044  32.194  1.00  0.00     0.173 A 
ATOM     71  F   UNL A   1      46.993  29.897  29.112  1.00  0.00    -0.203 F 
ATOM     72  C   UNL A   1      48.450  28.525  30.356  1.00  0.00     0.198 A 
ATOM     73  C   UNL A   1      47.676  27.466  32.371  1.00  0.00     0.198 A 
ATOM     74  F   UNL A   1      45.459  27.793  33.093  1.00  0.00    -0.203 F 
ATOM     75  F   UNL A   1      49.423  28.742  29.459  1.00  0.00    -0.200 F 
ATOM     76  C   UNL A   1      48.687  27.707  31.451  1.00  0.00     0.200 A 
ATOM     77  F   UNL A   1      47.906  26.678  33.432  1.00  0.00    -0.200 F 
ATOM     78  F   UNL A   1      49.891  27.142  31.617  1.00  0.00    -0.200 F 
ENDBRANCH  54  68
BRANCH  55  79
ATOM     79  C   UNL A   1      37.033  32.683  30.163  1.00  0.00     0.064 A 
ATOM     80  C   UNL A   1      36.093  32.450  31.175  1.00  0.00     0.173 A 
ATOM     81  C   UNL A   1      36.649  33.468  29.068  1.00  0.00     0.173 A 
ATOM     82  F   UNL A   1      36.420  31.687  32.229  1.00  0.00    -0.203 F 
ATOM     83  C   UNL A   1      34.809  32.981  31.094  1.00  0.00     0.198 A 
ATOM     84  C   UNL A   1      35.368  34.010  28.995  1.00  0.00     0.198 A 
ATOM     85  F   UNL A   1      37.520  33.715  28.080  1.00  0.00    -0.203 F 
ATOM     86  F   UNL A   1      33.919  32.729  32.064  1.00  0.00    -0.200 F 
ATOM     87  C   UNL A   1      34.450  33.764  30.006  1.00  0.00     0.200 A 
ATOM     88  F   UNL A   1      35.024  34.770  27.946  1.00  0.00    -0.200 F 
ATOM     89  F   UNL A   1      33.215  34.278  29.931  1.00  0.00    -0.200 F 
ENDBRANCH  55  79
BRANCH  67  90
ATOM     90  C   UNL A   1      42.874  34.932  33.179  1.00  0.00     0.064 A 
ATOM     91  C   UNL A   1      42.738  34.985  34.574  1.00  0.00     0.173 A 
ATOM     92  C   UNL A   1      43.355  36.069  32.512  1.00  0.00     0.173 A 
ATOM     93  F   UNL A   1      42.266  33.924  35.246  1.00  0.00    -0.203 F 
ATOM     94  C   UNL A   1      43.067  36.140  35.276  1.00  0.00     0.198 A 
ATOM     95  C   UNL A   1      43.691  37.219  33.220  1.00  0.00     0.198 A 
ATOM     96  F   UNL A   1      43.495  36.061  31.179  1.00  0.00    -0.203 F 
ATOM     97  F   UNL A   1      42.910  36.180  36.607  1.00  0.00    -0.200 F 
ATOM     98  C   UNL A   1      43.545  37.254  34.600  1.00  0.00     0.200 A 
ATOM     99  F   UNL A   1      44.151  38.296  32.567  1.00  0.00    -0.200 F 
ATOM    100  F   UNL A   1      43.859  38.366  35.279  1.00  0.00    -0.200 F 
ENDBRANCH  67  90
ENDBRANCH  41  42
ENDBRANCH  33  36
ENDBRANCH  31  32
ENDBRANCH  30  31
ENDBRANCH  29  30
ENDBRANCH   1  29
TORSDOF 17
ENDMDL
MODEL 3
REMARK VINA RESULT:     -11.9      0.646      2.011
REMARK SMILES CCOc1cc(NC(=O)c2c(C(=O)NCCCCNC(=O)c3ccc(-c4c5nc(c(-c6c(F)c(F)c(F)c(F)c6F)c6ccc([nH]6)c(-c6c(F)c(F)c(F)c(F)c6F)c6nc(c(-c7c(F)c(F)c(F)c(F)c7F)c7ccc4[nH]7)C=C6)C=C5)cc3)cnn2C)ccc1OC(F)F
REMARK SMILES IDX 15 1 14 2 12 3 13 4 11 6 10 7 87 8 85 9 86 10 88 11 8 12
REMARK SMILES IDX 7 13 9 15 6 16 4 17 5 18 91 19 90 20 89 21 3 22 2 23 1 24
REMARK SMILES IDX 92 25 93 26 94 27 95 28 16 29 17 30 18 31 19 32 20 33 21 35
REMARK SMILES IDX 22 36 23 37 84 38 24 39 83 40 25 41 26 42 27 43 77 44 28 45
REMARK SMILES IDX 82 46 76 47 78 48 29 49 81 50 75 51 74 52 30 54 62 55 42 56
REMARK SMILES IDX 61 57 43 58 46 59 60 60 79 61 44 62 45 63 59 65 80 66 47 67
REMARK SMILES IDX 31 68 32 69 40 70 33 71 34 72 38 73 41 74 35 75 36 76 39 77
REMARK SMILES IDX 37 78 63 79 64 80 72 81 65 82 66 83 70 84 73 85 67 86 68 87
REMARK SMILES IDX 71 88 69 89 48 90 49 91 57 92 50 93 51 94 55 95 58 96 52 97
REMARK SMILES IDX 53 98 56 99 54 100
REMARK H PARENT 14 5 7 14 19 34 78 53 46 64
REMARK Flexibility Score: inf
ROOT
ATOM      1  C   UNL A   1      34.292  24.311  23.550  1.00  0.00     0.116 C 
ENDROOT
BRANCH   1   2
ATOM      2  N   UNL A   1      33.837  24.749  22.253  1.00  0.00    -0.352 N 
ATOM      3  C   UNL A   1      33.278  25.922  21.825  1.00  0.00     0.255 C 
ATOM      4  O   UNL A   1      32.957  25.958  20.635  1.00  0.00    -0.269 OA
ATOM      5  H   UNL A   1      33.950  24.077  21.542  1.00  0.00     0.163 HD
BRANCH   3   6
ATOM      6  C   UNL A   1      32.996  27.059  22.688  1.00  0.00     0.090 A 
ATOM      7  C   UNL A   1      31.831  27.619  23.210  1.00  0.00     0.138 A 
ATOM      8  N   UNL A   1      32.249  28.580  24.105  1.00  0.00    -0.262 N 
ATOM      9  C   UNL A   1      34.028  27.841  23.278  1.00  0.00     0.149 A 
ATOM     10  N   UNL A   1      33.573  28.802  24.078  1.00  0.00    -0.180 NA
ATOM     11  C   UNL A   1      31.444  29.364  25.015  1.00  0.00     0.174 C 
BRANCH   7  12
ATOM     12  C   UNL A   1      30.461  27.245  23.068  1.00  0.00     0.274 C 
ATOM     13  N   UNL A   1      29.951  26.139  23.708  1.00  0.00    -0.321 N 
ATOM     14  H   UNL A   1      29.016  25.953  23.459  1.00  0.00     0.170 HD
ATOM     15  O   UNL A   1      29.678  27.903  22.372  1.00  0.00    -0.267 OA
BRANCH  13  16
ATOM     16  C   UNL A   1      30.459  25.208  24.640  1.00  0.00     0.045 A 
ATOM     17  C   UNL A   1      31.158  23.001  25.425  1.00  0.00     0.163 A 
ATOM     18  C   UNL A   1      30.667  23.848  24.414  1.00  0.00     0.076 A 
ATOM     19  C   UNL A   1      31.538  23.537  26.658  1.00  0.00     0.168 A 
ATOM     20  C   UNL A   1      31.379  24.907  26.874  1.00  0.00     0.053 A 
ATOM     21  C   UNL A   1      30.819  25.727  25.889  1.00  0.00     0.030 A 
BRANCH  17  22
ATOM     22  O   UNL A   1      31.356  21.667  25.185  1.00  0.00    -0.490 OA
BRANCH  22  23
ATOM     23  C   UNL A   1      32.045  21.388  23.958  1.00  0.00     0.226 C 
ATOM     24  C   UNL A   1      32.531  19.949  23.994  1.00  0.00     0.049 C 
ENDBRANCH  22  23
ENDBRANCH  17  22
BRANCH  19  25
ATOM     25  O   UNL A   1      32.127  22.872  27.696  1.00  0.00    -0.431 OA
BRANCH  25  26
ATOM     26  C   UNL A   1      33.526  22.619  27.614  1.00  0.00     0.542 C 
ATOM     27  F   UNL A   1      33.779  21.406  27.069  1.00  0.00    -0.167 F 
ATOM     28  F   UNL A   1      34.131  23.577  26.876  1.00  0.00    -0.167 F 
ENDBRANCH  25  26
ENDBRANCH  19  25
ENDBRANCH  13  16
ENDBRANCH   7  12
ENDBRANCH   3   6
ENDBRANCH   1   2
BRANCH   1  29
ATOM     29  C   UNL A   1      34.905  22.910  23.564  1.00  0.00     0.023 C 
BRANCH  29  30
ATOM     30  C   UNL A   1      36.350  22.794  24.058  1.00  0.00     0.023 C 
BRANCH  30  31
ATOM     31  C   UNL A   1      36.546  22.308  25.492  1.00  0.00     0.116 C 
BRANCH  31  32
ATOM     32  N   UNL A   1      37.597  21.314  25.628  1.00  0.00    -0.352 N 
ATOM     33  C   UNL A   1      38.906  21.418  26.030  1.00  0.00     0.251 C 
ATOM     34  H   UNL A   1      37.320  20.400  25.389  1.00  0.00     0.163 HD
ATOM     35  O   UNL A   1      39.639  20.436  25.931  1.00  0.00    -0.269 OA
BRANCH  33  36
ATOM     36  C   UNL A   1      39.473  22.690  26.540  1.00  0.00     0.039 A 
ATOM     37  C   UNL A   1      40.468  22.624  27.523  1.00  0.00     0.014 A 
ATOM     38  C   UNL A   1      39.013  23.939  26.116  1.00  0.00     0.014 A 
ATOM     39  C   UNL A   1      41.065  23.793  28.004  1.00  0.00     0.010 A 
ATOM     40  C   UNL A   1      39.652  25.104  26.547  1.00  0.00     0.010 A 
ATOM     41  C   UNL A   1      40.697  25.042  27.481  1.00  0.00    -0.014 A 
BRANCH  41  42
ATOM     42  C   UNL A   1      41.423  26.284  27.856  1.00  0.00     0.031 A 
ATOM     43  C   UNL A   1      40.733  27.382  28.612  1.00  0.00     0.074 A 
ATOM     44  C   UNL A   1      42.692  26.461  27.436  1.00  0.00     0.049 A 
ATOM     45  N   UNL A   1      41.152  28.596  28.873  1.00  0.00    -0.248 NA
ATOM     46  C   UNL A   1      39.388  27.086  29.124  1.00  0.00     0.031 C 
ATOM     47  C   UNL A   1      43.474  25.491  26.669  1.00  0.00     0.029 A 
ATOM     48  N   UNL A   1      43.540  27.531  27.581  1.00  0.00    -0.354 N 
ATOM     49  C   UNL A   1      40.106  29.223  29.535  1.00  0.00     0.074 A 
ATOM     50  C   UNL A   1      39.035  28.254  29.645  1.00  0.00     0.031 C 
ATOM     51  C   UNL A   1      44.691  26.002  26.423  1.00  0.00     0.029 A 
ATOM     52  C   UNL A   1      44.760  27.350  26.978  1.00  0.00     0.049 A 
ATOM     53  H   UNL A   1      43.297  28.350  28.070  1.00  0.00     0.167 HD
ATOM     54  C   UNL A   1      40.044  30.492  30.004  1.00  0.00     0.037 A 
ATOM     55  C   UNL A   1      45.812  28.181  26.866  1.00  0.00     0.037 A 
ATOM     56  C   UNL A   1      41.121  31.443  29.950  1.00  0.00     0.049 A 
ATOM     57  C   UNL A   1      45.737  29.563  27.444  1.00  0.00     0.074 A 
ATOM     58  C   UNL A   1      41.161  32.735  30.451  1.00  0.00     0.029 A 
ATOM     59  N   UNL A   1      42.358  31.203  29.371  1.00  0.00    -0.354 N 
ATOM     60  N   UNL A   1      44.741  30.144  28.064  1.00  0.00    -0.248 NA
ATOM     61  C   UNL A   1      46.930  30.410  27.296  1.00  0.00     0.031 C 
ATOM     62  C   UNL A   1      42.419  33.278  30.165  1.00  0.00     0.029 A 
ATOM     63  C   UNL A   1      43.166  32.321  29.500  1.00  0.00     0.049 A 
ATOM     64  H   UNL A   1      42.621  30.362  28.932  1.00  0.00     0.167 HD
ATOM     65  C   UNL A   1      45.183  31.419  28.382  1.00  0.00     0.074 A 
ATOM     66  C   UNL A   1      46.544  31.527  27.898  1.00  0.00     0.031 C 
ATOM     67  C   UNL A   1      44.517  32.412  29.016  1.00  0.00     0.037 A 
BRANCH  54  68
ATOM     68  C   UNL A   1      38.750  30.935  30.612  1.00  0.00     0.064 A 
ATOM     69  C   UNL A   1      37.681  31.374  29.819  1.00  0.00     0.173 A 
ATOM     70  C   UNL A   1      38.569  30.877  32.002  1.00  0.00     0.173 A 
ATOM     71  F   UNL A   1      37.817  31.455  28.487  1.00  0.00    -0.203 F 
ATOM     72  C   UNL A   1      36.474  31.754  30.401  1.00  0.00     0.198 A 
ATOM     73  C   UNL A   1      37.357  31.245  32.579  1.00  0.00     0.198 A 
ATOM     74  F   UNL A   1      39.566  30.462  32.798  1.00  0.00    -0.203 F 
ATOM     75  F   UNL A   1      35.470  32.195  29.630  1.00  0.00    -0.200 F 
ATOM     76  C   UNL A   1      36.313  31.685  31.778  1.00  0.00     0.200 A 
ATOM     77  F   UNL A   1      37.200  31.175  33.909  1.00  0.00    -0.200 F 
ATOM     78  F   UNL A   1      35.149  32.049  32.334  1.00  0.00    -0.200 F 
ENDBRANCH  54  68
BRANCH  55  79
ATOM     79  C   UNL A   1      47.036  27.719  26.171  1.00  0.00     0.064 A 
ATOM     80  C   UNL A   1      48.126  27.225  26.900  1.00  0.00     0.173 A 
ATOM     81  C   UNL A   1      47.129  27.742  24.773  1.00  0.00     0.173 A 
ATOM     82  F   UNL A   1      48.080  27.206  28.240  1.00  0.00    -0.203 F 
ATOM     83  C   UNL A   1      49.272  26.772  26.253  1.00  0.00     0.198 A 
ATOM     84  C   UNL A   1      48.271  27.276  24.127  1.00  0.00     0.198 A 
ATOM     85  F   UNL A   1      46.107  28.207  24.039  1.00  0.00    -0.203 F 
ATOM     86  F   UNL A   1      50.311  26.322  26.971  1.00  0.00    -0.200 F 
ATOM     87  C   UNL A   1      49.341  26.794  24.867  1.00  0.00     0.200 A 
ATOM     88  F   UNL A   1      48.335  27.293  22.788  1.00  0.00    -0.200 F 
ATOM     89  F   UNL A   1      50.444  26.353  24.245  1.00  0.00    -0.200 F 
ENDBRANCH  55  79
BRANCH  67  90
ATOM     90  C   UNL A   1      45.254  33.694  29.234  1.00  0.00     0.064 A 
ATOM     91  C   UNL A   1      45.198  34.731  28.291  1.00  0.00     0.173 A 
ATOM     92  C   UNL A   1      45.999  33.899  30.405  1.00  0.00     0.173 A 
ATOM     93  F   UNL A   1      44.510  34.568  27.151  1.00  0.00    -0.203 F 
ATOM     94  C   UNL A   1      45.870  35.929  28.511  1.00  0.00     0.198 A 
ATOM     95  C   UNL A   1      46.662  35.103  30.625  1.00  0.00     0.198 A 
ATOM     96  F   UNL A   1      46.082  32.931  31.330  1.00  0.00    -0.203 F 
ATOM     97  F   UNL A   1      45.823  36.901  27.588  1.00  0.00    -0.200 F 
ATOM     98  C   UNL A   1      46.598  36.115  29.678  1.00  0.00     0.200 A 
ATOM     99  F   UNL A   1      47.367  35.282  31.751  1.00  0.00    -0.200 F 
ATOM    100  F   UNL A   1      47.246  37.269  29.886  1.00  0.00    -0.200 F 
ENDBRANCH  67  90
ENDBRANCH  41  42
ENDBRANCH  33  36
ENDBRANCH  31  32
ENDBRANCH  30  31
ENDBRANCH  29  30
ENDBRANCH   1  29
TORSDOF 17
ENDMDL
