MODEL 1
REMARK VINA RESULT:     -12.7      0.000      0.000
REMARK SMILES O=C(NCCCCNC(=O)c1cccnc1Nc1cccc(C(F)(F)F)c1)c1ccc(-c2c3nc(c(-c4c(F)c(F)c(F)c(F)c4F)c4ccc([nH]4)c(-c4c(F)c(F)c(F)c(F)c4F)c4nc(c(-c5c(F)c(F)c(F)c(F)c5F)c5ccc2[nH]5)C=C4)C=C3)cc1
REMARK SMILES IDX 6 1 5 2 4 3 3 4 1 5 2 6 28 8 29 9 90 10 30 11 89 12 31 13
REMARK SMILES IDX 32 14 33 15 83 16 34 17 88 18 82 19 84 20 35 21 87 22 81 23
REMARK SMILES IDX 80 24 36 26 68 27 48 28 67 29 49 30 52 31 66 32 85 33 50 34
REMARK SMILES IDX 51 35 65 37 86 38 53 39 37 40 38 41 46 42 39 43 40 44 44 45
REMARK SMILES IDX 47 46 41 47 42 48 45 49 43 50 69 51 70 52 78 53 71 54 72 55
REMARK SMILES IDX 76 56 79 57 73 58 74 59 77 60 75 61 54 62 55 63 63 64 56 65
REMARK SMILES IDX 57 66 61 67 64 68 58 69 59 70 62 71 60 72 7 73 8 74 9 75
REMARK SMILES IDX 10 77 11 78 12 79 16 80 13 81 15 82 14 83 17 84 18 86 19 87
REMARK SMILES IDX 27 88 20 89 22 90 21 91 23 92 24 93 25 94 26 95
REMARK H PARENT 3 7 84 25 52 36 8 76 17 85
REMARK Flexibility Score: inf
ROOT
ATOM      1  C   UNL A   1      31.488  30.493  26.049  1.00  0.00     0.023 C 
ENDROOT
BRANCH   1   2
ATOM      2  C   UNL A   1      31.378  31.956  26.480  1.00  0.00     0.023 C 
BRANCH   2   3
ATOM      3  C   UNL A   1      32.608  32.519  27.180  1.00  0.00     0.116 C 
BRANCH   3   4
ATOM      4  N   UNL A   1      32.449  33.910  27.576  1.00  0.00    -0.352 N 
ATOM      5  O   UNL A   1      32.784  35.765  28.814  1.00  0.00    -0.269 OA
ATOM      6  C   UNL A   1      33.144  34.631  28.516  1.00  0.00     0.251 C 
ATOM      7  H   UNL A   1      31.744  34.405  27.101  1.00  0.00     0.163 HD
BRANCH   6   8
ATOM      8  C   UNL A   1      34.311  34.025  29.192  1.00  0.00     0.039 A 
ATOM      9  C   UNL A   1      35.609  34.429  28.871  1.00  0.00     0.014 A 
ATOM     10  C   UNL A   1      34.100  33.041  30.161  1.00  0.00     0.014 A 
ATOM     11  C   UNL A   1      36.696  33.753  29.413  1.00  0.00     0.010 A 
ATOM     12  C   UNL A   1      35.194  32.419  30.769  1.00  0.00     0.010 A 
ATOM     13  C   UNL A   1      36.501  32.751  30.378  1.00  0.00    -0.014 A 
BRANCH  13  14
ATOM     14  C   UNL A   1      37.680  32.113  31.013  1.00  0.00     0.031 A 
ATOM     15  C   UNL A   1      38.119  32.489  32.399  1.00  0.00     0.074 A 
ATOM     16  C   UNL A   1      38.347  31.168  30.323  1.00  0.00     0.049 A 
ATOM     17  N   UNL A   1      39.124  32.026  33.099  1.00  0.00    -0.248 NA
ATOM     18  C   UNL A   1      37.331  33.520  33.091  1.00  0.00     0.031 C 
ATOM     19  C   UNL A   1      38.017  30.730  28.965  1.00  0.00     0.029 A 
ATOM     20  N   UNL A   1      39.426  30.395  30.668  1.00  0.00    -0.354 N 
ATOM     21  C   UNL A   1      39.102  32.718  34.303  1.00  0.00     0.074 A 
ATOM     22  C   UNL A   1      37.997  33.651  34.231  1.00  0.00     0.031 C 
ATOM     23  C   UNL A   1      38.848  29.740  28.608  1.00  0.00     0.029 A 
ATOM     24  C   UNL A   1      39.807  29.518  29.684  1.00  0.00     0.049 A 
ATOM     25  H   UNL A   1      39.883  30.465  31.537  1.00  0.00     0.167 HD
ATOM     26  C   UNL A   1      39.925  32.578  35.370  1.00  0.00     0.037 A 
ATOM     27  C   UNL A   1      40.828  28.643  29.643  1.00  0.00     0.037 A 
ATOM     28  C   UNL A   1      41.015  31.637  35.438  1.00  0.00     0.049 A 
ATOM     29  C   UNL A   1      41.741  28.533  30.829  1.00  0.00     0.074 A 
ATOM     30  C   UNL A   1      41.882  31.395  36.490  1.00  0.00     0.029 A 
ATOM     31  N   UNL A   1      41.390  30.786  34.408  1.00  0.00    -0.354 N 
ATOM     32  N   UNL A   1      41.689  29.169  31.972  1.00  0.00    -0.248 NA
ATOM     33  C   UNL A   1      42.858  27.586  30.714  1.00  0.00     0.031 C 
ATOM     34  C   UNL A   1      42.810  30.431  36.081  1.00  0.00     0.029 A 
ATOM     35  C   UNL A   1      42.492  30.036  34.791  1.00  0.00     0.049 A 
ATOM     36  H   UNL A   1      40.940  30.724  33.535  1.00  0.00     0.167 HD
ATOM     37  C   UNL A   1      42.755  28.693  32.721  1.00  0.00     0.074 A 
ATOM     38  C   UNL A   1      43.424  27.697  31.908  1.00  0.00     0.031 C 
ATOM     39  C   UNL A   1      43.147  29.052  33.968  1.00  0.00     0.037 A 
BRANCH  26  40
ATOM     40  C   UNL A   1      39.693  33.473  36.555  1.00  0.00     0.064 A 
ATOM     41  C   UNL A   1      40.298  34.734  36.656  1.00  0.00     0.173 A 
ATOM     42  C   UNL A   1      38.809  33.086  37.574  1.00  0.00     0.173 A 
ATOM     43  F   UNL A   1      41.158  35.147  35.714  1.00  0.00    -0.203 F 
ATOM     44  C   UNL A   1      40.043  35.565  37.744  1.00  0.00     0.198 A 
ATOM     45  C   UNL A   1      38.537  33.930  38.647  1.00  0.00     0.198 A 
ATOM     46  F   UNL A   1      38.198  31.892  37.523  1.00  0.00    -0.203 F 
ATOM     47  F   UNL A   1      40.662  36.750  37.839  1.00  0.00    -0.200 F 
ATOM     48  C   UNL A   1      39.158  35.166  38.735  1.00  0.00     0.200 A 
ATOM     49  F   UNL A   1      37.672  33.547  39.597  1.00  0.00    -0.200 F 
ATOM     50  F   UNL A   1      38.907  35.972  39.776  1.00  0.00    -0.200 F 
ENDBRANCH  26  40
BRANCH  27  51
ATOM     51  C   UNL A   1      41.034  27.812  28.430  1.00  0.00     0.064 A 
ATOM     52  C   UNL A   1      40.384  26.580  28.282  1.00  0.00     0.173 A 
ATOM     53  C   UNL A   1      41.863  28.244  27.385  1.00  0.00     0.173 A 
ATOM     54  F   UNL A   1      39.595  26.116  29.262  1.00  0.00    -0.203 F 
ATOM     55  C   UNL A   1      40.567  25.806  27.138  1.00  0.00     0.198 A 
ATOM     56  C   UNL A   1      42.021  27.484  26.229  1.00  0.00     0.198 A 
ATOM     57  F   UNL A   1      42.501  29.421  27.477  1.00  0.00    -0.203 F 
ATOM     58  F   UNL A   1      39.962  24.613  27.035  1.00  0.00    -0.200 F 
ATOM     59  C   UNL A   1      41.378  26.262  26.109  1.00  0.00     0.200 A 
ATOM     60  F   UNL A   1      42.792  27.938  25.232  1.00  0.00    -0.200 F 
ATOM     61  F   UNL A   1      41.543  25.522  25.005  1.00  0.00    -0.200 F 
ENDBRANCH  27  51
BRANCH  39  62
ATOM     62  C   UNL A   1      44.342  28.346  34.535  1.00  0.00     0.064 A 
ATOM     63  C   UNL A   1      44.217  27.133  35.228  1.00  0.00     0.173 A 
ATOM     64  C   UNL A   1      45.630  28.877  34.361  1.00  0.00     0.173 A 
ATOM     65  F   UNL A   1      43.005  26.597  35.437  1.00  0.00    -0.203 F 
ATOM     66  C   UNL A   1      45.336  26.489  35.747  1.00  0.00     0.198 A 
ATOM     67  C   UNL A   1      46.749  28.215  34.857  1.00  0.00     0.198 A 
ATOM     68  F   UNL A   1      45.802  30.032  33.703  1.00  0.00    -0.203 F 
ATOM     69  F   UNL A   1      45.190  25.355  36.448  1.00  0.00    -0.200 F 
ATOM     70  C   UNL A   1      46.602  27.025  35.556  1.00  0.00     0.200 A 
ATOM     71  F   UNL A   1      47.971  28.730  34.663  1.00  0.00    -0.200 F 
ATOM     72  F   UNL A   1      47.678  26.401  36.053  1.00  0.00    -0.200 F 
ENDBRANCH  39  62
ENDBRANCH  13  14
ENDBRANCH   6   8
ENDBRANCH   3   4
ENDBRANCH   2   3
ENDBRANCH   1   2
BRANCH   1  73
ATOM     73  C   UNL A   1      32.910  29.944  25.976  1.00  0.00     0.116 C 
BRANCH  73  74
ATOM     74  N   UNL A   1      33.356  29.762  24.605  1.00  0.00    -0.352 N 
ATOM     75  C   UNL A   1      33.586  28.592  23.924  1.00  0.00     0.255 C 
ATOM     76  H   UNL A   1      33.515  30.588  24.095  1.00  0.00     0.163 HD
ATOM     77  O   UNL A   1      34.214  28.612  22.869  1.00  0.00    -0.269 OA
BRANCH  75  78
ATOM     78  C   UNL A   1      33.105  27.308  24.465  1.00  0.00     0.082 A 
ATOM     79  C   UNL A   1      33.818  26.671  25.489  1.00  0.00     0.019 A 
ATOM     80  C   UNL A   1      31.906  26.751  24.005  1.00  0.00     0.143 A 
ATOM     81  C   UNL A   1      33.383  25.439  25.957  1.00  0.00     0.021 A 
ATOM     82  N   UNL A   1      31.497  25.539  24.462  1.00  0.00    -0.238 NA
ATOM     83  C   UNL A   1      32.234  24.911  25.404  1.00  0.00     0.113 A 
BRANCH  80  84
ATOM     84  N   UNL A   1      31.151  27.385  22.995  1.00  0.00    -0.340 N 
ATOM     85  H   UNL A   1      31.511  27.326  22.081  1.00  0.00     0.168 HD
BRANCH  84  86
ATOM     86  C   UNL A   1      29.944  28.092  23.143  1.00  0.00     0.040 A 
ATOM     87  C   UNL A   1      28.746  27.388  23.295  1.00  0.00     0.026 A 
ATOM     88  C   UNL A   1      29.895  29.489  23.057  1.00  0.00     0.039 A 
ATOM     89  C   UNL A   1      27.530  28.065  23.409  1.00  0.00     0.003 A 
ATOM     90  C   UNL A   1      28.681  30.185  23.147  1.00  0.00     0.058 A 
ATOM     91  C   UNL A   1      27.497  29.457  23.336  1.00  0.00     0.013 A 
BRANCH  90  92
ATOM     92  C   UNL A   1      28.644  31.686  23.032  1.00  0.00     0.416 C 
ATOM     93  F   UNL A   1      27.374  32.179  23.085  1.00  0.00    -0.166 F 
ATOM     94  F   UNL A   1      29.324  32.305  24.038  1.00  0.00    -0.166 F 
ATOM     95  F   UNL A   1      29.176  32.167  21.873  1.00  0.00    -0.166 F 
ENDBRANCH  90  92
ENDBRANCH  84  86
ENDBRANCH  80  84
ENDBRANCH  75  78
ENDBRANCH  73  74
ENDBRANCH   1  73
TORSDOF 14
ENDMDL
MODEL 2
REMARK VINA RESULT:     -12.7      0.147      1.591
REMARK SMILES O=C(NCCCCNC(=O)c1cccnc1Nc1cccc(C(F)(F)F)c1)c1ccc(-c2c3nc(c(-c4c(F)c(F)c(F)c(F)c4F)c4ccc([nH]4)c(-c4c(F)c(F)c(F)c(F)c4F)c4nc(c(-c5c(F)c(F)c(F)c(F)c5F)c5ccc2[nH]5)C=C4)C=C3)cc1
REMARK SMILES IDX 6 1 5 2 4 3 3 4 1 5 2 6 28 8 29 9 90 10 30 11 89 12 31 13
REMARK SMILES IDX 32 14 33 15 83 16 34 17 88 18 82 19 84 20 35 21 87 22 81 23
REMARK SMILES IDX 80 24 36 26 68 27 48 28 67 29 49 30 52 31 66 32 85 33 50 34
REMARK SMILES IDX 51 35 65 37 86 38 53 39 37 40 38 41 46 42 39 43 40 44 44 45
REMARK SMILES IDX 47 46 41 47 42 48 45 49 43 50 69 51 70 52 78 53 71 54 72 55
REMARK SMILES IDX 76 56 79 57 73 58 74 59 77 60 75 61 54 62 55 63 63 64 56 65
REMARK SMILES IDX 57 66 61 67 64 68 58 69 59 70 62 71 60 72 7 73 8 74 9 75
REMARK SMILES IDX 10 77 11 78 12 79 16 80 13 81 15 82 14 83 17 84 18 86 19 87
REMARK SMILES IDX 27 88 20 89 22 90 21 91 23 92 24 93 25 94 26 95
REMARK H PARENT 3 7 84 25 52 36 8 76 17 85
REMARK Flexibility Score: inf
ROOT
ATOM      1  C   UNL A   1      31.505  30.465  26.043  1.00  0.00     0.023 C 
ENDROOT
BRANCH   1   2
ATOM      2  C   UNL A   1      31.351  31.915  26.499  1.00  0.00     0.023 C 
BRANCH   2   3
ATOM      3  C   UNL A   1      32.598  32.536  27.117  1.00  0.00     0.116 C 
BRANCH   3   4
ATOM      4  N   UNL A   1      32.399  33.916  27.533  1.00  0.00    -0.352 N 
ATOM      5  O   UNL A   1      32.675  35.760  28.802  1.00  0.00    -0.269 OA
ATOM      6  C   UNL A   1      33.067  34.640  28.490  1.00  0.00     0.251 C 
ATOM      7  H   UNL A   1      31.685  34.400  27.059  1.00  0.00     0.163 HD
BRANCH   6   8
ATOM      8  C   UNL A   1      34.243  34.056  29.167  1.00  0.00     0.039 A 
ATOM      9  C   UNL A   1      35.537  34.442  28.808  1.00  0.00     0.014 A 
ATOM     10  C   UNL A   1      34.045  33.108  30.175  1.00  0.00     0.014 A 
ATOM     11  C   UNL A   1      36.631  33.782  29.356  1.00  0.00     0.010 A 
ATOM     12  C   UNL A   1      35.149  32.505  30.785  1.00  0.00     0.010 A 
ATOM     13  C   UNL A   1      36.450  32.817  30.361  1.00  0.00    -0.014 A 
BRANCH  13  14
ATOM     14  C   UNL A   1      37.638  32.199  30.997  1.00  0.00     0.031 A 
ATOM     15  C   UNL A   1      38.079  32.596  32.377  1.00  0.00     0.074 A 
ATOM     16  C   UNL A   1      38.310  31.250  30.317  1.00  0.00     0.049 A 
ATOM     17  N   UNL A   1      39.093  32.152  33.078  1.00  0.00    -0.248 NA
ATOM     18  C   UNL A   1      37.286  33.629  33.059  1.00  0.00     0.031 C 
ATOM     19  C   UNL A   1      37.977  30.791  28.966  1.00  0.00     0.029 A 
ATOM     20  N   UNL A   1      39.397  30.492  30.667  1.00  0.00    -0.354 N 
ATOM     21  C   UNL A   1      39.069  32.859  34.272  1.00  0.00     0.074 A 
ATOM     22  C   UNL A   1      37.956  33.781  34.194  1.00  0.00     0.031 C 
ATOM     23  C   UNL A   1      38.815  29.805  28.618  1.00  0.00     0.029 A 
ATOM     24  C   UNL A   1      39.782  29.605  29.692  1.00  0.00     0.049 A 
ATOM     25  H   UNL A   1      39.858  30.577  31.532  1.00  0.00     0.167 HD
ATOM     26  C   UNL A   1      39.899  32.740  35.337  1.00  0.00     0.037 A 
ATOM     27  C   UNL A   1      40.810  28.739  29.657  1.00  0.00     0.037 A 
ATOM     28  C   UNL A   1      40.998  31.810  35.412  1.00  0.00     0.049 A 
ATOM     29  C   UNL A   1      41.730  28.653  30.840  1.00  0.00     0.074 A 
ATOM     30  C   UNL A   1      41.872  31.590  36.462  1.00  0.00     0.029 A 
ATOM     31  N   UNL A   1      41.376  30.949  34.391  1.00  0.00    -0.354 N 
ATOM     32  N   UNL A   1      41.678  29.304  31.975  1.00  0.00    -0.248 NA
ATOM     33  C   UNL A   1      42.855  27.715  30.732  1.00  0.00     0.031 C 
ATOM     34  C   UNL A   1      42.807  30.628  36.061  1.00  0.00     0.029 A 
ATOM     35  C   UNL A   1      42.486  30.215  34.778  1.00  0.00     0.049 A 
ATOM     36  H   UNL A   1      40.922  30.872  33.521  1.00  0.00     0.167 HD
ATOM     37  C   UNL A   1      42.752  28.847  32.724  1.00  0.00     0.074 A 
ATOM     38  C   UNL A   1      43.426  27.847  31.921  1.00  0.00     0.031 C 
ATOM     39  C   UNL A   1      43.146  29.225  33.964  1.00  0.00     0.037 A 
BRANCH  26  40
ATOM     40  C   UNL A   1      39.665  33.648  36.511  1.00  0.00     0.064 A 
ATOM     41  C   UNL A   1      38.854  33.265  37.589  1.00  0.00     0.173 A 
ATOM     42  C   UNL A   1      40.305  34.895  36.583  1.00  0.00     0.173 A 
ATOM     43  F   UNL A   1      38.212  32.088  37.565  1.00  0.00    -0.203 F 
ATOM     44  C   UNL A   1      38.677  34.105  38.686  1.00  0.00     0.198 A 
ATOM     45  C   UNL A   1      40.146  35.721  37.693  1.00  0.00     0.198 A 
ATOM     46  F   UNL A   1      41.097  35.307  35.582  1.00  0.00    -0.203 F 
ATOM     47  F   UNL A   1      37.867  33.734  39.688  1.00  0.00    -0.200 F 
ATOM     48  C   UNL A   1      39.328  35.328  38.741  1.00  0.00     0.200 A 
ATOM     49  F   UNL A   1      40.786  36.897  37.748  1.00  0.00    -0.200 F 
ATOM     50  F   UNL A   1      39.164  36.130  39.802  1.00  0.00    -0.200 F 
ENDBRANCH  26  40
BRANCH  27  51
ATOM     51  C   UNL A   1      41.017  27.895  28.454  1.00  0.00     0.064 A 
ATOM     52  C   UNL A   1      40.392  26.647  28.333  1.00  0.00     0.173 A 
ATOM     53  C   UNL A   1      41.824  28.328  27.391  1.00  0.00     0.173 A 
ATOM     54  F   UNL A   1      39.626  26.182  29.330  1.00  0.00    -0.203 F 
ATOM     55  C   UNL A   1      40.576  25.860  27.198  1.00  0.00     0.198 A 
ATOM     56  C   UNL A   1      41.983  27.554  26.246  1.00  0.00     0.198 A 
ATOM     57  F   UNL A   1      42.438  29.519  27.458  1.00  0.00    -0.203 F 
ATOM     58  F   UNL A   1      39.996  24.653  27.121  1.00  0.00    -0.200 F 
ATOM     59  C   UNL A   1      41.364  26.317  26.152  1.00  0.00     0.200 A 
ATOM     60  F   UNL A   1      42.730  28.009  25.231  1.00  0.00    -0.200 F 
ATOM     61  F   UNL A   1      41.530  25.564  25.057  1.00  0.00    -0.200 F 
ENDBRANCH  27  51
BRANCH  39  62
ATOM     62  C   UNL A   1      44.351  28.538  34.535  1.00  0.00     0.064 A 
ATOM     63  C   UNL A   1      45.640  29.069  34.376  1.00  0.00     0.173 A 
ATOM     64  C   UNL A   1      44.212  27.351  35.269  1.00  0.00     0.173 A 
ATOM     65  F   UNL A   1      45.825  30.192  33.666  1.00  0.00    -0.203 F 
ATOM     66  C   UNL A   1      46.749  28.422  34.914  1.00  0.00     0.198 A 
ATOM     67  C   UNL A   1      45.320  26.722  35.829  1.00  0.00     0.198 A 
ATOM     68  F   UNL A   1      43.000  26.807  35.451  1.00  0.00    -0.203 F 
ATOM     69  F   UNL A   1      47.977  28.920  34.711  1.00  0.00    -0.200 F 
ATOM     70  C   UNL A   1      46.589  27.253  35.645  1.00  0.00     0.200 A 
ATOM     71  F   UNL A   1      45.162  25.600  36.543  1.00  0.00    -0.200 F 
ATOM     72  F   UNL A   1      47.657  26.634  36.165  1.00  0.00    -0.200 F 
ENDBRANCH  39  62
ENDBRANCH  13  14
ENDBRANCH   6   8
ENDBRANCH   3   4
ENDBRANCH   2   3
ENDBRANCH   1   2
BRANCH   1  73
ATOM     73  C   UNL A   1      32.945  29.970  25.930  1.00  0.00     0.116 C 
BRANCH  73  74
ATOM     74  N   UNL A   1      33.349  29.774  24.548  1.00  0.00    -0.352 N 
ATOM     75  C   UNL A   1      33.536  28.599  23.866  1.00  0.00     0.255 C 
ATOM     76  H   UNL A   1      33.512  30.596  24.031  1.00  0.00     0.163 HD
ATOM     77  O   UNL A   1      34.136  28.602  22.794  1.00  0.00    -0.269 OA
BRANCH  75  78
ATOM     78  C   UNL A   1      33.042  27.327  24.424  1.00  0.00     0.082 A 
ATOM     79  C   UNL A   1      33.758  26.689  25.446  1.00  0.00     0.019 A 
ATOM     80  C   UNL A   1      31.831  26.782  23.982  1.00  0.00     0.143 A 
ATOM     81  C   UNL A   1      33.312  25.468  25.931  1.00  0.00     0.021 A 
ATOM     82  N   UNL A   1      31.410  25.581  24.456  1.00  0.00    -0.238 NA
ATOM     83  C   UNL A   1      32.148  24.951  25.396  1.00  0.00     0.113 A 
BRANCH  80  84
ATOM     84  N   UNL A   1      31.073  27.417  22.975  1.00  0.00    -0.340 N 
ATOM     85  H   UNL A   1      31.424  27.346  22.058  1.00  0.00     0.168 HD
BRANCH  84  86
ATOM     86  C   UNL A   1      29.877  28.140  23.129  1.00  0.00     0.040 A 
ATOM     87  C   UNL A   1      28.669  27.451  23.275  1.00  0.00     0.026 A 
ATOM     88  C   UNL A   1      29.847  29.537  23.055  1.00  0.00     0.039 A 
ATOM     89  C   UNL A   1      27.463  28.144  23.395  1.00  0.00     0.003 A 
ATOM     90  C   UNL A   1      28.643  30.250  23.151  1.00  0.00     0.058 A 
ATOM     91  C   UNL A   1      27.449  29.537  23.334  1.00  0.00     0.013 A 
BRANCH  90  92
ATOM     92  C   UNL A   1      28.628  31.752  23.049  1.00  0.00     0.416 C 
ATOM     93  F   UNL A   1      27.384  32.273  23.256  1.00  0.00    -0.166 F 
ATOM     94  F   UNL A   1      29.436  32.348  23.969  1.00  0.00    -0.166 F 
ATOM     95  F   UNL A   1      29.028  32.230  21.837  1.00  0.00    -0.166 F 
ENDBRANCH  90  92
ENDBRANCH  84  86
ENDBRANCH  80  84
ENDBRANCH  75  78
ENDBRANCH  73  74
ENDBRANCH   1  73
TORSDOF 14
ENDMDL
MODEL 3
REMARK VINA RESULT:     -12.6      0.140      1.635
REMARK SMILES O=C(NCCCCNC(=O)c1cccnc1Nc1cccc(C(F)(F)F)c1)c1ccc(-c2c3nc(c(-c4c(F)c(F)c(F)c(F)c4F)c4ccc([nH]4)c(-c4c(F)c(F)c(F)c(F)c4F)c4nc(c(-c5c(F)c(F)c(F)c(F)c5F)c5ccc2[nH]5)C=C4)C=C3)cc1
REMARK SMILES IDX 6 1 5 2 4 3 3 4 1 5 2 6 28 8 29 9 90 10 30 11 89 12 31 13
REMARK SMILES IDX 32 14 33 15 83 16 34 17 88 18 82 19 84 20 35 21 87 22 81 23
REMARK SMILES IDX 80 24 36 26 68 27 48 28 67 29 49 30 52 31 66 32 85 33 50 34
REMARK SMILES IDX 51 35 65 37 86 38 53 39 37 40 38 41 46 42 39 43 40 44 44 45
REMARK SMILES IDX 47 46 41 47 42 48 45 49 43 50 69 51 70 52 78 53 71 54 72 55
REMARK SMILES IDX 76 56 79 57 73 58 74 59 77 60 75 61 54 62 55 63 63 64 56 65
REMARK SMILES IDX 57 66 61 67 64 68 58 69 59 70 62 71 60 72 7 73 8 74 9 75
REMARK SMILES IDX 10 77 11 78 12 79 16 80 13 81 15 82 14 83 17 84 18 86 19 87
REMARK SMILES IDX 27 88 20 89 22 90 21 91 23 92 24 93 25 94 26 95
REMARK H PARENT 3 7 84 25 52 36 8 76 17 85
REMARK Flexibility Score: inf
ROOT
ATOM      1  C   UNL A   1      31.428  30.602  25.751  1.00  0.00     0.023 C 
ENDROOT
BRANCH   1   2
ATOM      2  C   UNL A   1      31.248  31.890  26.553  1.00  0.00     0.023 C 
BRANCH   2   3
ATOM      3  C   UNL A   1      32.534  32.503  27.092  1.00  0.00     0.116 C 
BRANCH   3   4
ATOM      4  N   UNL A   1      32.377  33.893  27.492  1.00  0.00    -0.352 N 
ATOM      5  O   UNL A   1      32.712  35.743  28.737  1.00  0.00    -0.269 OA
ATOM      6  C   UNL A   1      33.070  34.609  28.437  1.00  0.00     0.251 C 
ATOM      7  H   UNL A   1      31.673  34.391  27.017  1.00  0.00     0.163 HD
BRANCH   6   8
ATOM      8  C   UNL A   1      34.234  33.999  29.113  1.00  0.00     0.039 A 
ATOM      9  C   UNL A   1      35.533  34.408  28.804  1.00  0.00     0.014 A 
ATOM     10  C   UNL A   1      34.018  33.005  30.072  1.00  0.00     0.014 A 
ATOM     11  C   UNL A   1      36.618  33.729  29.347  1.00  0.00     0.010 A 
ATOM     12  C   UNL A   1      35.110  32.380  30.680  1.00  0.00     0.010 A 
ATOM     13  C   UNL A   1      36.419  32.717  30.301  1.00  0.00    -0.014 A 
BRANCH  13  14
ATOM     14  C   UNL A   1      37.595  32.076  30.937  1.00  0.00     0.031 A 
ATOM     15  C   UNL A   1      38.031  32.447  32.325  1.00  0.00     0.074 A 
ATOM     16  C   UNL A   1      38.262  31.130  30.247  1.00  0.00     0.049 A 
ATOM     17  N   UNL A   1      39.035  31.981  33.026  1.00  0.00    -0.248 NA
ATOM     18  C   UNL A   1      37.245  33.479  33.018  1.00  0.00     0.031 C 
ATOM     19  C   UNL A   1      37.934  30.696  28.887  1.00  0.00     0.029 A 
ATOM     20  N   UNL A   1      39.338  30.355  30.593  1.00  0.00    -0.354 N 
ATOM     21  C   UNL A   1      39.010  32.670  34.232  1.00  0.00     0.074 A 
ATOM     22  C   UNL A   1      37.908  33.606  34.159  1.00  0.00     0.031 C 
ATOM     23  C   UNL A   1      38.763  29.705  28.530  1.00  0.00     0.029 A 
ATOM     24  C   UNL A   1      39.720  29.479  29.607  1.00  0.00     0.049 A 
ATOM     25  H   UNL A   1      39.794  30.421  31.463  1.00  0.00     0.167 HD
ATOM     26  C   UNL A   1      39.831  32.526  35.300  1.00  0.00     0.037 A 
ATOM     27  C   UNL A   1      40.738  28.602  29.566  1.00  0.00     0.037 A 
ATOM     28  C   UNL A   1      40.919  31.582  35.369  1.00  0.00     0.049 A 
ATOM     29  C   UNL A   1      41.649  28.487  30.754  1.00  0.00     0.074 A 
ATOM     30  C   UNL A   1      41.783  31.336  36.422  1.00  0.00     0.029 A 
ATOM     31  N   UNL A   1      41.295  30.733  34.338  1.00  0.00    -0.354 N 
ATOM     32  N   UNL A   1      41.596  29.121  31.899  1.00  0.00    -0.248 NA
ATOM     33  C   UNL A   1      42.764  27.538  30.640  1.00  0.00     0.031 C 
ATOM     34  C   UNL A   1      42.709  30.370  36.012  1.00  0.00     0.029 A 
ATOM     35  C   UNL A   1      42.393  29.980  34.721  1.00  0.00     0.049 A 
ATOM     36  H   UNL A   1      40.847  30.673  33.463  1.00  0.00     0.167 HD
ATOM     37  C   UNL A   1      42.659  28.641  32.648  1.00  0.00     0.074 A 
ATOM     38  C   UNL A   1      43.328  27.645  31.835  1.00  0.00     0.031 C 
ATOM     39  C   UNL A   1      43.048  28.995  33.897  1.00  0.00     0.037 A 
BRANCH  26  40
ATOM     40  C   UNL A   1      39.598  33.418  36.486  1.00  0.00     0.064 A 
ATOM     41  C   UNL A   1      38.750  33.041  37.537  1.00  0.00     0.173 A 
ATOM     42  C   UNL A   1      40.276  34.642  36.598  1.00  0.00     0.173 A 
ATOM     43  F   UNL A   1      38.072  31.886  37.476  1.00  0.00    -0.203 F 
ATOM     44  C   UNL A   1      38.574  33.865  38.647  1.00  0.00     0.198 A 
ATOM     45  C   UNL A   1      40.118  35.451  37.720  1.00  0.00     0.198 A 
ATOM     46  F   UNL A   1      41.104  35.047  35.623  1.00  0.00    -0.203 F 
ATOM     47  F   UNL A   1      37.730  33.502  39.622  1.00  0.00    -0.200 F 
ATOM     48  C   UNL A   1      39.264  35.065  38.741  1.00  0.00     0.200 A 
ATOM     49  F   UNL A   1      40.794  36.605  37.813  1.00  0.00    -0.200 F 
ATOM     50  F   UNL A   1      39.100  35.852  39.813  1.00  0.00    -0.200 F 
ENDBRANCH  26  40
BRANCH  27  51
ATOM     51  C   UNL A   1      40.945  27.773  28.352  1.00  0.00     0.064 A 
ATOM     52  C   UNL A   1      41.757  28.222  27.303  1.00  0.00     0.173 A 
ATOM     53  C   UNL A   1      40.355  26.507  28.227  1.00  0.00     0.173 A 
ATOM     54  F   UNL A   1      42.328  29.434  27.369  1.00  0.00    -0.203 F 
ATOM     55  C   UNL A   1      41.962  27.440  26.169  1.00  0.00     0.198 A 
ATOM     56  C   UNL A   1      40.585  25.713  27.107  1.00  0.00     0.198 A 
ATOM     57  F   UNL A   1      39.575  26.029  29.208  1.00  0.00    -0.203 F 
ATOM     58  F   UNL A   1      42.715  27.907  25.162  1.00  0.00    -0.200 F 
ATOM     59  C   UNL A   1      41.383  26.183  26.074  1.00  0.00     0.200 A 
ATOM     60  F   UNL A   1      40.038  24.492  27.029  1.00  0.00    -0.200 F 
ATOM     61  F   UNL A   1      41.591  25.427  24.989  1.00  0.00    -0.200 F 
ENDBRANCH  27  51
BRANCH  39  62
ATOM     62  C   UNL A   1      44.241  28.286  34.465  1.00  0.00     0.064 A 
ATOM     63  C   UNL A   1      44.112  27.070  35.152  1.00  0.00     0.173 A 
ATOM     64  C   UNL A   1      45.529  28.816  34.299  1.00  0.00     0.173 A 
ATOM     65  F   UNL A   1      42.899  26.533  35.353  1.00  0.00    -0.203 F 
ATOM     66  C   UNL A   1      45.229  26.421  35.672  1.00  0.00     0.198 A 
ATOM     67  C   UNL A   1      46.646  28.151  34.796  1.00  0.00     0.198 A 
ATOM     68  F   UNL A   1      45.705  29.975  33.648  1.00  0.00    -0.203 F 
ATOM     69  F   UNL A   1      45.078  25.284  36.366  1.00  0.00    -0.200 F 
ATOM     70  C   UNL A   1      46.495  26.958  35.489  1.00  0.00     0.200 A 
ATOM     71  F   UNL A   1      47.869  28.666  34.610  1.00  0.00    -0.200 F 
ATOM     72  F   UNL A   1      47.569  26.330  35.986  1.00  0.00    -0.200 F 
ENDBRANCH  39  62
ENDBRANCH  13  14
ENDBRANCH   6   8
ENDBRANCH   3   4
ENDBRANCH   2   3
ENDBRANCH   1   2
BRANCH   1  73
ATOM     73  C   UNL A   1      32.838  30.017  25.772  1.00  0.00     0.116 C 
BRANCH  73  74
ATOM     74  N   UNL A   1      33.338  29.748  24.434  1.00  0.00    -0.352 N 
ATOM     75  C   UNL A   1      33.570  28.538  23.830  1.00  0.00     0.255 C 
ATOM     76  H   UNL A   1      33.539  30.541  23.887  1.00  0.00     0.163 HD
ATOM     77  O   UNL A   1      34.244  28.485  22.805  1.00  0.00    -0.269 OA
BRANCH  75  78
ATOM     78  C   UNL A   1      33.036  27.296  24.419  1.00  0.00     0.082 A 
ATOM     79  C   UNL A   1      33.732  26.661  25.457  1.00  0.00     0.019 A 
ATOM     80  C   UNL A   1      31.807  26.781  23.992  1.00  0.00     0.143 A 
ATOM     81  C   UNL A   1      33.246  25.467  25.971  1.00  0.00     0.021 A 
ATOM     82  N   UNL A   1      31.348  25.606  24.494  1.00  0.00    -0.238 NA
ATOM     83  C   UNL A   1      32.066  24.976  25.449  1.00  0.00     0.113 A 
BRANCH  80  84
ATOM     84  N   UNL A   1      31.070  27.415  22.969  1.00  0.00    -0.340 N 
ATOM     85  H   UNL A   1      31.431  27.333  22.057  1.00  0.00     0.168 HD
BRANCH  84  86
ATOM     86  C   UNL A   1      29.879  28.153  23.102  1.00  0.00     0.040 A 
ATOM     87  C   UNL A   1      28.667  27.479  23.281  1.00  0.00     0.026 A 
ATOM     88  C   UNL A   1      29.860  29.547  22.974  1.00  0.00     0.039 A 
ATOM     89  C   UNL A   1      27.467  28.185  23.380  1.00  0.00     0.003 A 
ATOM     90  C   UNL A   1      28.661  30.271  23.048  1.00  0.00     0.058 A 
ATOM     91  C   UNL A   1      27.463  29.575  23.265  1.00  0.00     0.013 A 
BRANCH  90  92
ATOM     92  C   UNL A   1      28.656  31.768  22.888  1.00  0.00     0.416 C 
ATOM     93  F   UNL A   1      29.272  32.403  23.926  1.00  0.00    -0.166 F 
ATOM     94  F   UNL A   1      29.311  32.177  21.764  1.00  0.00    -0.166 F 
ATOM     95  F   UNL A   1      27.410  32.314  22.811  1.00  0.00    -0.166 F 
ENDBRANCH  90  92
ENDBRANCH  84  86
ENDBRANCH  80  84
ENDBRANCH  75  78
ENDBRANCH  73  74
ENDBRANCH   1  73
TORSDOF 14
ENDMDL
