MODEL 1
REMARK VINA RESULT:     -12.1      0.000      0.000
REMARK SMILES CCNC(=O)NC(=O)[C@@H](C)[NH2+][C@](C)(C(=O)NCCCCNC(=O)c1ccc(-c2c3nc(c(-c4c(F)c(F)c(F)c(F)c4F)c4ccc([nH]4)c(-c4c(F)c(F)c(F)c(F)c4F)c4nc(c(-c5c(F)c(F)c(F)c(F)c5F)c5ccc2[nH]5)C=C4)C=C3)cc1)C(F)(F)F
REMARK SMILES IDX 17 1 16 2 14 3 15 4 12 6 13 7 11 8 9 11 10 12 7 13 3 14 4 15
REMARK SMILES IDX 5 17 6 18 8 20 2 21 1 22 87 23 88 24 89 25 90 26 18 27 19 28
REMARK SMILES IDX 20 29 21 30 22 31 23 33 24 34 25 35 86 36 26 37 85 38 27 39
REMARK SMILES IDX 28 40 29 41 79 42 30 43 84 44 78 45 80 46 31 47 83 48 77 49
REMARK SMILES IDX 76 50 32 52 64 53 44 54 63 55 45 56 48 57 62 58 81 59 46 60
REMARK SMILES IDX 47 61 61 63 82 64 49 65 33 66 34 67 42 68 35 69 36 70 40 71
REMARK SMILES IDX 43 72 37 73 38 74 41 75 39 76 65 77 66 78 74 79 67 80 68 81
REMARK SMILES IDX 72 82 75 83 69 84 70 85 73 86 71 87 50 88 51 89 59 90 52 91
REMARK SMILES IDX 53 92 57 93 60 94 54 95 55 96 58 97 56 98
REMARK H PARENT 16 5 11 9 11 10 3 16 6 19 21 32 80 51 48 62
REMARK Flexibility Score: inf
ROOT
ATOM      1  C   UNL A   1      31.810  29.762  25.535  1.00  0.00     0.116 C 
ENDROOT
BRANCH   1   2
ATOM      2  N   UNL A   1      32.976  29.679  24.698  1.00  0.00    -0.350 N 
ATOM      3  C   UNL A   1      33.188  28.885  23.601  1.00  0.00     0.290 C 
ATOM      4  O   UNL A   1      34.070  29.284  22.836  1.00  0.00    -0.267 OA
ATOM      5  H   UNL A   1      33.722  30.272  24.945  1.00  0.00     0.163 HD
BRANCH   3   6
ATOM      6  C   UNL A   1      32.389  27.578  23.343  1.00  0.00     0.269 C 
ATOM      7  C   UNL A   1      33.058  26.699  22.270  1.00  0.00     0.101 C 
BRANCH   6   8
ATOM      8  N   UNL A   1      31.964  26.869  24.605  1.00  0.00    -0.316 N 
ATOM      9  H   UNL A   1      32.713  27.049  25.273  1.00  0.00     0.348 HD
ATOM     10  H   UNL A   1      31.022  27.248  24.698  1.00  0.00     0.348 HD
BRANCH   8  11
ATOM     11  C   UNL A   1      31.660  25.438  24.753  1.00  0.00     0.271 C 
ATOM     12  C   UNL A   1      30.598  24.682  23.934  1.00  0.00     0.086 C 
BRANCH  11  13
ATOM     13  C   UNL A   1      31.268  25.226  26.221  1.00  0.00     0.285 C 
ATOM     14  N   UNL A   1      33.196  22.383  26.229  1.00  0.00    -0.338 N 
ATOM     15  C   UNL A   1      32.449  23.008  27.135  1.00  0.00     0.321 C 
ATOM     16  H   UNL A   1      33.689  21.633  26.631  1.00  0.00     0.165 HD
ATOM     17  O   UNL A   1      32.437  22.497  28.265  1.00  0.00    -0.248 OA
ATOM     18  N   UNL A   1      31.708  24.148  26.991  1.00  0.00    -0.273 N 
ATOM     19  H   UNL A   1      31.265  24.268  27.862  1.00  0.00     0.175 HD
ATOM     20  O   UNL A   1      30.517  26.043  26.771  1.00  0.00    -0.268 OA
BRANCH  14  21
ATOM     21  C   UNL A   1      33.482  22.498  24.821  1.00  0.00     0.114 C 
ATOM     22  C   UNL A   1      32.666  21.530  23.983  1.00  0.00     0.027 C 
ENDBRANCH  14  21
ENDBRANCH  11  13
ENDBRANCH   8  11
ENDBRANCH   6   8
BRANCH   6  23
ATOM     23  C   UNL A   1      31.063  28.087  22.651  1.00  0.00     0.453 C 
ATOM     24  F   UNL A   1      30.022  28.181  23.505  1.00  0.00    -0.164 F 
ATOM     25  F   UNL A   1      31.255  29.337  22.140  1.00  0.00    -0.164 F 
ATOM     26  F   UNL A   1      30.700  27.314  21.600  1.00  0.00    -0.164 F 
ENDBRANCH   6  23
ENDBRANCH   3   6
ENDBRANCH   1   2
BRANCH   1  27
ATOM     27  C   UNL A   1      31.995  30.467  26.866  1.00  0.00     0.023 C 
BRANCH  27  28
ATOM     28  C   UNL A   1      31.678  31.954  26.866  1.00  0.00     0.023 C 
BRANCH  28  29
ATOM     29  C   UNL A   1      32.819  32.870  27.284  1.00  0.00     0.116 C 
BRANCH  29  30
ATOM     30  N   UNL A   1      32.408  34.211  27.676  1.00  0.00    -0.352 N 
ATOM     31  C   UNL A   1      32.984  35.020  28.628  1.00  0.00     0.251 C 
ATOM     32  H   UNL A   1      31.627  34.582  27.203  1.00  0.00     0.163 HD
ATOM     33  O   UNL A   1      32.511  36.120  28.896  1.00  0.00    -0.269 OA
BRANCH  31  34
ATOM     34  C   UNL A   1      34.155  34.508  29.367  1.00  0.00     0.039 A 
ATOM     35  C   UNL A   1      33.946  33.785  30.543  1.00  0.00     0.014 A 
ATOM     36  C   UNL A   1      35.437  34.643  28.829  1.00  0.00     0.014 A 
ATOM     37  C   UNL A   1      35.020  33.124  31.137  1.00  0.00     0.010 A 
ATOM     38  C   UNL A   1      36.486  33.912  29.372  1.00  0.00     0.010 A 
ATOM     39  C   UNL A   1      36.288  33.147  30.533  1.00  0.00    -0.014 A 
BRANCH  39  40
ATOM     40  C   UNL A   1      37.433  32.399  31.111  1.00  0.00     0.031 A 
ATOM     41  C   UNL A   1      37.927  32.747  32.487  1.00  0.00     0.074 A 
ATOM     42  C   UNL A   1      38.064  31.459  30.380  1.00  0.00     0.049 A 
ATOM     43  N   UNL A   1      38.953  32.271  33.145  1.00  0.00    -0.248 NA
ATOM     44  C   UNL A   1      37.190  33.799  33.205  1.00  0.00     0.031 C 
ATOM     45  C   UNL A   1      37.716  31.071  29.011  1.00  0.00     0.029 A 
ATOM     46  N   UNL A   1      39.138  30.663  30.686  1.00  0.00    -0.354 N 
ATOM     47  C   UNL A   1      38.993  32.977  34.339  1.00  0.00     0.074 A 
ATOM     48  C   UNL A   1      37.932  33.958  34.290  1.00  0.00     0.031 C 
ATOM     49  C   UNL A   1      38.541  30.090  28.609  1.00  0.00     0.029 A 
ATOM     50  C   UNL A   1      39.493  29.801  29.677  1.00  0.00     0.049 A 
ATOM     51  H   UNL A   1      39.612  30.705  31.549  1.00  0.00     0.167 HD
ATOM     52  C   UNL A   1      39.820  32.802  35.397  1.00  0.00     0.037 A 
ATOM     53  C   UNL A   1      40.473  28.879  29.625  1.00  0.00     0.037 A 
ATOM     54  C   UNL A   1      40.848  31.801  35.460  1.00  0.00     0.049 A 
ATOM     55  C   UNL A   1      41.362  28.687  30.826  1.00  0.00     0.074 A 
ATOM     56  C   UNL A   1      41.710  31.511  36.503  1.00  0.00     0.029 A 
ATOM     57  N   UNL A   1      41.147  30.916  34.434  1.00  0.00    -0.354 N 
ATOM     58  N   UNL A   1      41.351  29.319  31.974  1.00  0.00    -0.248 NA
ATOM     59  C   UNL A   1      42.391  27.642  30.727  1.00  0.00     0.031 C 
ATOM     60  C   UNL A   1      42.549  30.467  36.098  1.00  0.00     0.029 A 
ATOM     61  C   UNL A   1      42.182  30.080  34.819  1.00  0.00     0.049 A 
ATOM     62  H   UNL A   1      40.690  30.886  33.562  1.00  0.00     0.167 HD
ATOM     63  C   UNL A   1      42.342  28.727  32.745  1.00  0.00     0.074 A 
ATOM     64  C   UNL A   1      42.928  27.677  31.938  1.00  0.00     0.031 C 
ATOM     65  C   UNL A   1      42.732  29.025  34.009  1.00  0.00     0.037 A 
BRANCH  52  66
ATOM     66  C   UNL A   1      39.625  33.707  36.578  1.00  0.00     0.064 A 
ATOM     67  C   UNL A   1      38.818  33.329  37.663  1.00  0.00     0.173 A 
ATOM     68  C   UNL A   1      40.261  34.955  36.636  1.00  0.00     0.173 A 
ATOM     69  F   UNL A   1      38.174  32.153  37.649  1.00  0.00    -0.203 F 
ATOM     70  C   UNL A   1      38.630  34.182  38.747  1.00  0.00     0.198 A 
ATOM     71  C   UNL A   1      40.096  35.792  37.737  1.00  0.00     0.198 A 
ATOM     72  F   UNL A   1      41.045  35.363  35.627  1.00  0.00    -0.203 F 
ATOM     73  F   UNL A   1      37.812  33.823  39.745  1.00  0.00    -0.200 F 
ATOM     74  C   UNL A   1      39.274  35.409  38.787  1.00  0.00     0.200 A 
ATOM     75  F   UNL A   1      40.727  36.974  37.779  1.00  0.00    -0.200 F 
ATOM     76  F   UNL A   1      39.097  36.228  39.833  1.00  0.00    -0.200 F 
ENDBRANCH  52  66
BRANCH  53  77
ATOM     77  C   UNL A   1      40.639  28.029  28.418  1.00  0.00     0.064 A 
ATOM     78  C   UNL A   1      40.023  26.772  28.337  1.00  0.00     0.173 A 
ATOM     79  C   UNL A   1      41.424  28.442  27.332  1.00  0.00     0.173 A 
ATOM     80  F   UNL A   1      39.278  26.326  29.360  1.00  0.00    -0.203 F 
ATOM     81  C   UNL A   1      40.208  25.948  27.229  1.00  0.00     0.198 A 
ATOM     82  C   UNL A   1      41.586  27.627  26.212  1.00  0.00     0.198 A 
ATOM     83  F   UNL A   1      42.029  29.638  27.357  1.00  0.00    -0.203 F 
ATOM     84  F   UNL A   1      39.648  24.731  27.201  1.00  0.00    -0.200 F 
ATOM     85  C   UNL A   1      40.986  26.378  26.166  1.00  0.00     0.200 A 
ATOM     86  F   UNL A   1      42.330  28.051  25.181  1.00  0.00    -0.200 F 
ATOM     87  F   UNL A   1      41.165  25.586  25.101  1.00  0.00    -0.200 F 
ENDBRANCH  53  77
BRANCH  65  88
ATOM     88  C   UNL A   1      43.804  28.169  34.616  1.00  0.00     0.064 A 
ATOM     89  C   UNL A   1      43.505  26.970  35.277  1.00  0.00     0.173 A 
ATOM     90  C   UNL A   1      45.152  28.539  34.499  1.00  0.00     0.173 A 
ATOM     91  F   UNL A   1      42.229  26.581  35.427  1.00  0.00    -0.203 F 
ATOM     92  C   UNL A   1      44.516  26.183  35.821  1.00  0.00     0.198 A 
ATOM     93  C   UNL A   1      46.162  27.736  35.020  1.00  0.00     0.198 A 
ATOM     94  F   UNL A   1      45.489  29.675  33.869  1.00  0.00    -0.203 F 
ATOM     95  F   UNL A   1      44.205  25.063  36.490  1.00  0.00    -0.200 F 
ATOM     96  C   UNL A   1      45.843  26.564  35.687  1.00  0.00     0.200 A 
ATOM     97  F   UNL A   1      47.444  28.100  34.878  1.00  0.00    -0.200 F 
ATOM     98  F   UNL A   1      46.816  25.802  36.207  1.00  0.00    -0.200 F 
ENDBRANCH  65  88
ENDBRANCH  39  40
ENDBRANCH  31  34
ENDBRANCH  29  30
ENDBRANCH  28  29
ENDBRANCH  27  28
ENDBRANCH   1  27
TORSDOF 16
ENDMDL
MODEL 2
REMARK VINA RESULT:     -11.9      0.316      1.966
REMARK SMILES CCNC(=O)NC(=O)[C@@H](C)[NH2+][C@](C)(C(=O)NCCCCNC(=O)c1ccc(-c2c3nc(c(-c4c(F)c(F)c(F)c(F)c4F)c4ccc([nH]4)c(-c4c(F)c(F)c(F)c(F)c4F)c4nc(c(-c5c(F)c(F)c(F)c(F)c5F)c5ccc2[nH]5)C=C4)C=C3)cc1)C(F)(F)F
REMARK SMILES IDX 17 1 16 2 14 3 15 4 12 6 13 7 11 8 9 11 10 12 7 13 3 14 4 15
REMARK SMILES IDX 5 17 6 18 8 20 2 21 1 22 87 23 88 24 89 25 90 26 18 27 19 28
REMARK SMILES IDX 20 29 21 30 22 31 23 33 24 34 25 35 86 36 26 37 85 38 27 39
REMARK SMILES IDX 28 40 29 41 79 42 30 43 84 44 78 45 80 46 31 47 83 48 77 49
REMARK SMILES IDX 76 50 32 52 64 53 44 54 63 55 45 56 48 57 62 58 81 59 46 60
REMARK SMILES IDX 47 61 61 63 82 64 49 65 33 66 34 67 42 68 35 69 36 70 40 71
REMARK SMILES IDX 43 72 37 73 38 74 41 75 39 76 65 77 66 78 74 79 67 80 68 81
REMARK SMILES IDX 72 82 75 83 69 84 70 85 73 86 71 87 50 88 51 89 59 90 52 91
REMARK SMILES IDX 53 92 57 93 60 94 54 95 55 96 58 97 56 98
REMARK H PARENT 16 5 11 9 11 10 3 16 6 19 21 32 80 51 48 62
REMARK Flexibility Score: inf
ROOT
ATOM      1  C   UNL A   1      32.503  29.358  25.757  1.00  0.00     0.116 C 
ENDROOT
BRANCH   1   2
ATOM      2  N   UNL A   1      33.541  29.233  24.770  1.00  0.00    -0.350 N 
ATOM      3  C   UNL A   1      33.525  28.529  23.594  1.00  0.00     0.290 C 
ATOM      4  O   UNL A   1      34.348  28.904  22.755  1.00  0.00    -0.267 OA
ATOM      5  H   UNL A   1      34.376  29.717  24.965  1.00  0.00     0.163 HD
BRANCH   3   6
ATOM      6  C   UNL A   1      32.553  27.345  23.337  1.00  0.00     0.269 C 
ATOM      7  C   UNL A   1      32.993  26.491  22.134  1.00  0.00     0.101 C 
BRANCH   6   8
ATOM      8  N   UNL A   1      32.183  26.583  24.586  1.00  0.00    -0.316 N 
ATOM      9  H   UNL A   1      33.044  26.538  25.131  1.00  0.00     0.348 HD
ATOM     10  H   UNL A   1      31.364  27.119  24.870  1.00  0.00     0.348 HD
BRANCH   8  11
ATOM     11  C   UNL A   1      31.617  25.228  24.658  1.00  0.00     0.271 C 
ATOM     12  C   UNL A   1      30.444  24.725  23.797  1.00  0.00     0.086 C 
BRANCH  11  13
ATOM     13  C   UNL A   1      31.173  25.018  26.112  1.00  0.00     0.285 C 
ATOM     14  N   UNL A   1      33.400  22.411  26.318  1.00  0.00    -0.338 N 
ATOM     15  C   UNL A   1      32.541  22.976  27.164  1.00  0.00     0.321 C 
ATOM     16  H   UNL A   1      33.951  21.735  26.772  1.00  0.00     0.165 HD
ATOM     17  O   UNL A   1      32.525  22.502  28.309  1.00  0.00    -0.248 OA
ATOM     18  N   UNL A   1      31.687  24.020  26.941  1.00  0.00    -0.273 N 
ATOM     19  H   UNL A   1      31.188  24.117  27.784  1.00  0.00     0.175 HD
ATOM     20  O   UNL A   1      30.308  25.762  26.594  1.00  0.00    -0.268 OA
BRANCH  14  21
ATOM     21  C   UNL A   1      33.746  22.515  24.924  1.00  0.00     0.114 C 
ATOM     22  C   UNL A   1      32.798  21.733  24.032  1.00  0.00     0.027 C 
ENDBRANCH  14  21
ENDBRANCH  11  13
ENDBRANCH   8  11
ENDBRANCH   6   8
BRANCH   6  23
ATOM     23  C   UNL A   1      31.231  28.053  22.842  1.00  0.00     0.453 C 
ATOM     24  F   UNL A   1      30.321  28.228  23.825  1.00  0.00    -0.164 F 
ATOM     25  F   UNL A   1      31.520  29.297  22.362  1.00  0.00    -0.164 F 
ATOM     26  F   UNL A   1      30.644  27.393  21.815  1.00  0.00    -0.164 F 
ENDBRANCH   6  23
ENDBRANCH   3   6
ENDBRANCH   1   2
BRANCH   1  27
ATOM     27  C   UNL A   1      31.735  30.667  25.752  1.00  0.00     0.023 C 
BRANCH  27  28
ATOM     28  C   UNL A   1      31.762  31.444  27.059  1.00  0.00     0.023 C 
BRANCH  28  29
ATOM     29  C   UNL A   1      32.900  32.444  27.205  1.00  0.00     0.116 C 
BRANCH  29  30
ATOM     30  N   UNL A   1      32.478  33.797  27.545  1.00  0.00    -0.352 N 
ATOM     31  C   UNL A   1      33.040  34.642  28.475  1.00  0.00     0.251 C 
ATOM     32  H   UNL A   1      31.701  34.147  27.052  1.00  0.00     0.163 HD
ATOM     33  O   UNL A   1      32.559  35.748  28.699  1.00  0.00    -0.269 OA
BRANCH  31  34
ATOM     34  C   UNL A   1      34.205  34.161  29.244  1.00  0.00     0.039 A 
ATOM     35  C   UNL A   1      33.990  33.331  30.345  1.00  0.00     0.014 A 
ATOM     36  C   UNL A   1      35.500  34.438  28.799  1.00  0.00     0.014 A 
ATOM     37  C   UNL A   1      35.079  32.707  30.953  1.00  0.00     0.010 A 
ATOM     38  C   UNL A   1      36.572  33.748  29.350  1.00  0.00     0.010 A 
ATOM     39  C   UNL A   1      36.373  32.878  30.433  1.00  0.00    -0.014 A 
BRANCH  39  40
ATOM     40  C   UNL A   1      37.540  32.175  31.021  1.00  0.00     0.031 A 
ATOM     41  C   UNL A   1      38.018  32.554  32.395  1.00  0.00     0.074 A 
ATOM     42  C   UNL A   1      38.205  31.249  30.302  1.00  0.00     0.049 A 
ATOM     43  N   UNL A   1      39.058  32.119  33.061  1.00  0.00    -0.248 NA
ATOM     44  C   UNL A   1      37.244  33.588  33.100  1.00  0.00     0.031 C 
ATOM     45  C   UNL A   1      37.875  30.836  28.937  1.00  0.00     0.029 A 
ATOM     46  N   UNL A   1      39.305  30.493  30.620  1.00  0.00    -0.354 N 
ATOM     47  C   UNL A   1      39.070  32.838  34.248  1.00  0.00     0.074 A 
ATOM     48  C   UNL A   1      37.976  33.783  34.186  1.00  0.00     0.031 C 
ATOM     49  C   UNL A   1      38.733  29.879  28.547  1.00  0.00     0.029 A 
ATOM     50  C   UNL A   1      39.692  29.633  29.621  1.00  0.00     0.049 A 
ATOM     51  H   UNL A   1      39.774  30.560  31.484  1.00  0.00     0.167 HD
ATOM     52  C   UNL A   1      39.899  32.703  35.310  1.00  0.00     0.037 A 
ATOM     53  C   UNL A   1      40.703  28.744  29.582  1.00  0.00     0.037 A 
ATOM     54  C   UNL A   1      40.960  31.737  35.387  1.00  0.00     0.049 A 
ATOM     55  C   UNL A   1      41.593  28.595  30.787  1.00  0.00     0.074 A 
ATOM     56  C   UNL A   1      41.828  31.488  36.435  1.00  0.00     0.029 A 
ATOM     57  N   UNL A   1      41.292  30.853  34.371  1.00  0.00    -0.354 N 
ATOM     58  N   UNL A   1      41.558  29.238  31.928  1.00  0.00    -0.248 NA
ATOM     59  C   UNL A   1      42.657  27.584  30.702  1.00  0.00     0.031 C 
ATOM     60  C   UNL A   1      42.703  30.469  36.043  1.00  0.00     0.029 A 
ATOM     61  C   UNL A   1      42.353  30.056  34.768  1.00  0.00     0.049 A 
ATOM     62  H   UNL A   1      40.839  30.798  33.498  1.00  0.00     0.167 HD
ATOM     63  C   UNL A   1      42.565  28.688  32.708  1.00  0.00     0.074 A 
ATOM     64  C   UNL A   1      43.189  27.650  31.913  1.00  0.00     0.031 C 
ATOM     65  C   UNL A   1      42.941  29.012  33.970  1.00  0.00     0.037 A 
BRANCH  52  66
ATOM     66  C   UNL A   1      39.669  33.613  36.481  1.00  0.00     0.064 A 
ATOM     67  C   UNL A   1      40.268  34.881  36.551  1.00  0.00     0.173 A 
ATOM     68  C   UNL A   1      38.832  33.223  37.537  1.00  0.00     0.173 A 
ATOM     69  F   UNL A   1      41.091  35.293  35.576  1.00  0.00    -0.203 F 
ATOM     70  C   UNL A   1      40.062  35.710  37.649  1.00  0.00     0.198 A 
ATOM     71  C   UNL A   1      38.604  34.068  38.619  1.00  0.00     0.198 A 
ATOM     72  F   UNL A   1      38.234  32.022  37.518  1.00  0.00    -0.203 F 
ATOM     73  F   UNL A   1      40.688  36.893  37.720  1.00  0.00    -0.200 F 
ATOM     74  C   UNL A   1      39.225  35.307  38.679  1.00  0.00     0.200 A 
ATOM     75  F   UNL A   1      37.787  33.682  39.609  1.00  0.00    -0.200 F 
ATOM     76  F   UNL A   1      39.024  36.108  39.734  1.00  0.00    -0.200 F 
ENDBRANCH  52  66
BRANCH  53  77
ATOM     77  C   UNL A   1      40.900  27.888  28.384  1.00  0.00     0.064 A 
ATOM     78  C   UNL A   1      41.691  28.327  27.312  1.00  0.00     0.173 A 
ATOM     79  C   UNL A   1      40.295  26.628  28.275  1.00  0.00     0.173 A 
ATOM     80  F   UNL A   1      42.274  29.534  27.362  1.00  0.00    -0.203 F 
ATOM     81  C   UNL A   1      41.847  27.550  26.165  1.00  0.00     0.198 A 
ATOM     82  C   UNL A   1      40.474  25.841  27.138  1.00  0.00     0.198 A 
ATOM     83  F   UNL A   1      39.535  26.159  29.275  1.00  0.00    -0.203 F 
ATOM     84  F   UNL A   1      42.567  28.016  25.136  1.00  0.00    -0.200 F 
ATOM     85  C   UNL A   1      41.242  26.306  26.081  1.00  0.00     0.200 A 
ATOM     86  F   UNL A   1      39.897  24.633  27.066  1.00  0.00    -0.200 F 
ATOM     87  F   UNL A   1      41.390  25.560  24.979  1.00  0.00    -0.200 F 
ENDBRANCH  53  77
BRANCH  65  88
ATOM     88  C   UNL A   1      44.039  28.199  34.590  1.00  0.00     0.064 A 
ATOM     89  C   UNL A   1      45.380  28.603  34.529  1.00  0.00     0.173 A 
ATOM     90  C   UNL A   1      43.736  27.020  35.287  1.00  0.00     0.173 A 
ATOM     91  F   UNL A   1      45.720  29.717  33.861  1.00  0.00    -0.203 F 
ATOM     92  C   UNL A   1      46.382  27.842  35.123  1.00  0.00     0.198 A 
ATOM     93  C   UNL A   1      44.738  26.276  35.903  1.00  0.00     0.198 A 
ATOM     94  F   UNL A   1      42.467  26.595  35.379  1.00  0.00    -0.203 F 
ATOM     95  F   UNL A   1      47.664  28.222  35.013  1.00  0.00    -0.200 F 
ATOM     96  C   UNL A   1      46.060  26.683  35.814  1.00  0.00     0.200 A 
ATOM     97  F   UNL A   1      44.423  25.164  36.581  1.00  0.00    -0.200 F 
ATOM     98  F   UNL A   1      47.027  25.954  36.390  1.00  0.00    -0.200 F 
ENDBRANCH  65  88
ENDBRANCH  39  40
ENDBRANCH  31  34
ENDBRANCH  29  30
ENDBRANCH  28  29
ENDBRANCH  27  28
ENDBRANCH   1  27
TORSDOF 16
ENDMDL
MODEL 3
REMARK VINA RESULT:     -11.8      0.657      7.300
REMARK SMILES CCNC(=O)NC(=O)[C@@H](C)[NH2+][C@](C)(C(=O)NCCCCNC(=O)c1ccc(-c2c3nc(c(-c4c(F)c(F)c(F)c(F)c4F)c4ccc([nH]4)c(-c4c(F)c(F)c(F)c(F)c4F)c4nc(c(-c5c(F)c(F)c(F)c(F)c5F)c5ccc2[nH]5)C=C4)C=C3)cc1)C(F)(F)F
REMARK SMILES IDX 17 1 16 2 14 3 15 4 12 6 13 7 11 8 9 11 10 12 7 13 3 14 4 15
REMARK SMILES IDX 5 17 6 18 8 20 2 21 1 22 87 23 88 24 89 25 90 26 18 27 19 28
REMARK SMILES IDX 20 29 21 30 22 31 23 33 24 34 25 35 86 36 26 37 85 38 27 39
REMARK SMILES IDX 28 40 29 41 79 42 30 43 84 44 78 45 80 46 31 47 83 48 77 49
REMARK SMILES IDX 76 50 32 52 64 53 44 54 63 55 45 56 48 57 62 58 81 59 46 60
REMARK SMILES IDX 47 61 61 63 82 64 49 65 33 66 34 67 42 68 35 69 36 70 40 71
REMARK SMILES IDX 43 72 37 73 38 74 41 75 39 76 65 77 66 78 74 79 67 80 68 81
REMARK SMILES IDX 72 82 75 83 69 84 70 85 73 86 71 87 50 88 51 89 59 90 52 91
REMARK SMILES IDX 53 92 57 93 60 94 54 95 55 96 58 97 56 98
REMARK H PARENT 16 5 11 9 11 10 3 16 6 19 21 32 80 51 48 62
REMARK Flexibility Score: inf
ROOT
ATOM      1  C   UNL A   1      32.044  29.461  25.780  1.00  0.00     0.116 C 
ENDROOT
BRANCH   1   2
ATOM      2  N   UNL A   1      33.163  29.440  24.878  1.00  0.00    -0.350 N 
ATOM      3  C   UNL A   1      33.314  28.729  23.716  1.00  0.00     0.290 C 
ATOM      4  O   UNL A   1      34.156  29.184  22.937  1.00  0.00    -0.267 OA
ATOM      5  H   UNL A   1      33.924  30.013  25.129  1.00  0.00     0.163 HD
BRANCH   3   6
ATOM      6  C   UNL A   1      32.498  27.445  23.405  1.00  0.00     0.269 C 
ATOM      7  C   UNL A   1      33.147  26.609  22.287  1.00  0.00     0.101 C 
BRANCH   6   8
ATOM      8  N   UNL A   1      32.074  26.684  24.636  1.00  0.00    -0.316 N 
ATOM      9  H   UNL A   1      32.861  26.765  25.279  1.00  0.00     0.348 HD
ATOM     10  H   UNL A   1      31.167  27.122  24.798  1.00  0.00     0.348 HD
BRANCH   8  11
ATOM     11  C   UNL A   1      31.671  25.272  24.705  1.00  0.00     0.271 C 
ATOM     12  C   UNL A   1      30.598  24.625  23.810  1.00  0.00     0.086 C 
BRANCH  11  13
ATOM     13  C   UNL A   1      31.201  25.022  26.145  1.00  0.00     0.285 C 
ATOM     14  N   UNL A   1      33.456  22.438  26.334  1.00  0.00    -0.338 N 
ATOM     15  C   UNL A   1      32.575  22.972  27.175  1.00  0.00     0.321 C 
ATOM     16  H   UNL A   1      34.007  21.757  26.782  1.00  0.00     0.165 HD
ATOM     17  O   UNL A   1      32.543  22.471  28.308  1.00  0.00    -0.248 OA
ATOM     18  N   UNL A   1      31.712  24.011  26.961  1.00  0.00    -0.273 N 
ATOM     19  H   UNL A   1      31.196  24.082  27.796  1.00  0.00     0.175 HD
ATOM     20  O   UNL A   1      30.319  25.745  26.628  1.00  0.00    -0.268 OA
BRANCH  14  21
ATOM     21  C   UNL A   1      33.827  22.578  24.949  1.00  0.00     0.114 C 
ATOM     22  C   UNL A   1      32.981  21.713  24.032  1.00  0.00     0.027 C 
ENDBRANCH  14  21
ENDBRANCH  11  13
ENDBRANCH   8  11
ENDBRANCH   6   8
BRANCH   6  23
ATOM     23  C   UNL A   1      31.173  28.001  22.748  1.00  0.00     0.453 C 
ATOM     24  F   UNL A   1      30.139  28.070  23.614  1.00  0.00    -0.164 F 
ATOM     25  F   UNL A   1      31.375  29.270  22.291  1.00  0.00    -0.164 F 
ATOM     26  F   UNL A   1      30.791  27.280  21.667  1.00  0.00    -0.164 F 
ENDBRANCH   6  23
ENDBRANCH   3   6
ENDBRANCH   1   2
BRANCH   1  27
ATOM     27  C   UNL A   1      32.205  30.319  27.021  1.00  0.00     0.023 C 
BRANCH  27  28
ATOM     28  C   UNL A   1      31.954  31.805  26.824  1.00  0.00     0.023 C 
BRANCH  28  29
ATOM     29  C   UNL A   1      32.997  32.734  27.428  1.00  0.00     0.116 C 
BRANCH  29  30
ATOM     30  N   UNL A   1      32.521  34.084  27.700  1.00  0.00    -0.352 N 
ATOM     31  C   UNL A   1      33.028  34.984  28.610  1.00  0.00     0.251 C 
ATOM     32  H   UNL A   1      31.749  34.388  27.170  1.00  0.00     0.163 HD
ATOM     33  O   UNL A   1      32.505  36.081  28.774  1.00  0.00    -0.269 OA
BRANCH  31  34
ATOM     34  C   UNL A   1      34.183  34.574  29.432  1.00  0.00     0.039 A 
ATOM     35  C   UNL A   1      33.951  33.991  30.679  1.00  0.00     0.014 A 
ATOM     36  C   UNL A   1      35.477  34.660  28.913  1.00  0.00     0.014 A 
ATOM     37  C   UNL A   1      35.015  33.415  31.372  1.00  0.00     0.010 A 
ATOM     38  C   UNL A   1      36.518  34.009  29.563  1.00  0.00     0.010 A 
ATOM     39  C   UNL A   1      36.298  33.382  30.800  1.00  0.00    -0.014 A 
BRANCH  39  40
ATOM     40  C   UNL A   1      37.434  32.720  31.488  1.00  0.00     0.031 A 
ATOM     41  C   UNL A   1      38.154  31.588  30.810  1.00  0.00     0.074 A 
ATOM     42  C   UNL A   1      37.775  33.089  32.738  1.00  0.00     0.049 A 
ATOM     43  N   UNL A   1      39.118  30.828  31.263  1.00  0.00    -0.248 NA
ATOM     44  C   UNL A   1      37.702  31.239  29.453  1.00  0.00     0.031 C 
ATOM     45  C   UNL A   1      37.116  34.134  33.525  1.00  0.00     0.029 A 
ATOM     46  N   UNL A   1      38.759  32.619  33.571  1.00  0.00    -0.354 N 
ATOM     47  C   UNL A   1      39.372  29.906  30.257  1.00  0.00     0.074 A 
ATOM     48  C   UNL A   1      38.419  30.156  29.198  1.00  0.00     0.031 C 
ATOM     49  C   UNL A   1      37.735  34.246  34.713  1.00  0.00     0.029 A 
ATOM     50  C   UNL A   1      38.812  33.262  34.783  1.00  0.00     0.049 A 
ATOM     51  H   UNL A   1      39.370  31.887  33.324  1.00  0.00     0.167 HD
ATOM     52  C   UNL A   1      40.334  28.955  30.206  1.00  0.00     0.037 A 
ATOM     53  C   UNL A   1      39.641  33.081  35.829  1.00  0.00     0.037 A 
ATOM     54  C   UNL A   1      41.305  28.733  31.242  1.00  0.00     0.049 A 
ATOM     55  C   UNL A   1      40.719  32.034  35.735  1.00  0.00     0.074 A 
ATOM     56  C   UNL A   1      42.349  27.826  31.268  1.00  0.00     0.029 A 
ATOM     57  N   UNL A   1      41.354  29.437  32.436  1.00  0.00    -0.354 N 
ATOM     58  N   UNL A   1      40.989  31.208  34.754  1.00  0.00    -0.248 NA
ATOM     59  C   UNL A   1      41.618  31.905  36.891  1.00  0.00     0.031 C 
ATOM     60  C   UNL A   1      43.016  27.963  32.491  1.00  0.00     0.029 A 
ATOM     61  C   UNL A   1      42.411  28.984  33.207  1.00  0.00     0.049 A 
ATOM     62  H   UNL A   1      40.731  30.154  32.696  1.00  0.00     0.167 HD
ATOM     63  C   UNL A   1      42.106  30.490  35.156  1.00  0.00     0.074 A 
ATOM     64  C   UNL A   1      42.470  30.984  36.467  1.00  0.00     0.031 C 
ATOM     65  C   UNL A   1      42.772  29.508  34.499  1.00  0.00     0.037 A 
BRANCH  52  66
ATOM     66  C   UNL A   1      40.390  28.098  28.975  1.00  0.00     0.064 A 
ATOM     67  C   UNL A   1      39.673  26.894  28.887  1.00  0.00     0.173 A 
ATOM     68  C   UNL A   1      41.153  28.490  27.865  1.00  0.00     0.173 A 
ATOM     69  F   UNL A   1      38.942  26.467  29.928  1.00  0.00    -0.203 F 
ATOM     70  C   UNL A   1      39.744  26.100  27.747  1.00  0.00     0.198 A 
ATOM     71  C   UNL A   1      41.196  27.708  26.714  1.00  0.00     0.198 A 
ATOM     72  F   UNL A   1      41.855  29.633  27.895  1.00  0.00    -0.203 F 
ATOM     73  F   UNL A   1      39.095  24.928  27.709  1.00  0.00    -0.200 F 
ATOM     74  C   UNL A   1      40.499  26.509  26.659  1.00  0.00     0.200 A 
ATOM     75  F   UNL A   1      41.918  28.109  25.659  1.00  0.00    -0.200 F 
ATOM     76  F   UNL A   1      40.563  25.746  25.560  1.00  0.00    -0.200 F 
ENDBRANCH  52  66
BRANCH  53  77
ATOM     77  C   UNL A   1      39.523  33.940  37.036  1.00  0.00     0.064 A 
ATOM     78  C   UNL A   1      38.786  33.513  38.150  1.00  0.00     0.173 A 
ATOM     79  C   UNL A   1      40.124  35.205  37.097  1.00  0.00     0.173 A 
ATOM     80  F   UNL A   1      38.177  32.318  38.129  1.00  0.00    -0.203 F 
ATOM     81  C   UNL A   1      38.632  34.328  39.269  1.00  0.00     0.198 A 
ATOM     82  C   UNL A   1      39.991  36.009  38.229  1.00  0.00     0.198 A 
ATOM     83  F   UNL A   1      40.844  35.657  36.061  1.00  0.00    -0.203 F 
ATOM     84  F   UNL A   1      37.882  33.915  40.299  1.00  0.00    -0.200 F 
ATOM     85  C   UNL A   1      39.238  35.574  39.309  1.00  0.00     0.200 A 
ATOM     86  F   UNL A   1      40.588  37.208  38.268  1.00  0.00    -0.200 F 
ATOM     87  F   UNL A   1      39.090  36.359  40.384  1.00  0.00    -0.200 F 
ENDBRANCH  53  77
BRANCH  65  88
ATOM     88  C   UNL A   1      43.993  28.944  35.162  1.00  0.00     0.064 A 
ATOM     89  C   UNL A   1      45.269  29.479  34.936  1.00  0.00     0.173 A 
ATOM     90  C   UNL A   1      43.875  27.877  36.066  1.00  0.00     0.173 A 
ATOM     91  F   UNL A   1      45.433  30.490  34.069  1.00  0.00    -0.203 F 
ATOM     92  C   UNL A   1      46.388  28.949  35.572  1.00  0.00     0.198 A 
ATOM     93  C   UNL A   1      44.993  27.369  36.721  1.00  0.00     0.198 A 
ATOM     94  F   UNL A   1      42.675  27.336  36.321  1.00  0.00    -0.203 F 
ATOM     95  F   UNL A   1      47.605  29.445  35.306  1.00  0.00    -0.200 F 
ATOM     96  C   UNL A   1      46.248  27.900  36.468  1.00  0.00     0.200 A 
ATOM     97  F   UNL A   1      44.854  26.363  37.596  1.00  0.00    -0.200 F 
ATOM     98  F   UNL A   1      47.327  27.395  37.084  1.00  0.00    -0.200 F 
ENDBRANCH  65  88
ENDBRANCH  39  40
ENDBRANCH  31  34
ENDBRANCH  29  30
ENDBRANCH  28  29
ENDBRANCH  27  28
ENDBRANCH   1  27
TORSDOF 16
ENDMDL
