MODEL 1
REMARK VINA RESULT:     -11.5      0.000      0.000
REMARK SMILES CNC(=O)c1ccc(N(CCC(=O)NCCCCNC(=O)c2ccc(-c3c4nc(c(-c5c(F)c(F)c(F)c(F)c5F)c5ccc([nH]5)c(-c5c(F)c(F)c(F)c(F)c5F)c5nc(c(-c6c(F)c(F)c(F)c(F)c6F)c6ccc3[nH]6)C=C5)C=C4)cc2)C2CC2)nn1
REMARK SMILES IDX 15 1 14 2 12 3 13 4 11 6 10 7 9 8 8 9 5 10 6 11 89 12 7 13
REMARK SMILES IDX 88 14 3 15 1 16 2 17 4 19 85 20 86 21 87 22 16 23 17 24
REMARK SMILES IDX 18 25 19 26 20 27 21 29 22 30 23 31 84 32 24 33 83 34 25 35
REMARK SMILES IDX 26 36 27 37 77 38 28 39 82 40 76 41 78 42 29 43 81 44 75 45
REMARK SMILES IDX 74 46 30 48 62 49 42 50 61 51 43 52 46 53 60 54 79 55 44 56
REMARK SMILES IDX 45 57 59 59 80 60 47 61 31 62 32 63 40 64 33 65 34 66 38 67
REMARK SMILES IDX 41 68 35 69 36 70 39 71 37 72 63 73 64 74 72 75 65 76 66 77
REMARK SMILES IDX 70 78 73 79 67 80 68 81 71 82 69 83 48 84 49 85 57 86 50 87
REMARK SMILES IDX 51 88 55 89 58 90 52 91 53 92 56 93 54 94
REMARK H PARENT 14 5 2 18 19 28 78 47 46 58
REMARK Flexibility Score: inf
ROOT
ATOM      1  C   UNL A   1      32.598  26.537  26.122  1.00  0.00     0.116 C 
ENDROOT
BRANCH   1   2
ATOM      2  N   UNL A   1      31.898  26.807  24.876  1.00  0.00    -0.356 N 
ATOM      3  C   UNL A   1      32.342  26.843  23.591  1.00  0.00     0.221 C 
ATOM      4  O   UNL A   1      31.621  27.384  22.751  1.00  0.00    -0.275 OA
ATOM      5  H   UNL A   1      30.938  26.998  24.981  1.00  0.00     0.163 HD
BRANCH   3   6
ATOM      6  C   UNL A   1      33.654  26.202  23.199  1.00  0.00     0.121 C 
BRANCH   6   7
ATOM      7  C   UNL A   1      33.441  24.807  22.603  1.00  0.00     0.128 C 
BRANCH   7   8
ATOM      8  N   UNL A   1      33.289  23.761  23.640  1.00  0.00    -0.352 N 
BRANCH   8   9
ATOM      9  C   UNL A   1      34.493  23.163  24.080  1.00  0.00     0.151 A 
ATOM     10  C   UNL A   1      36.886  22.177  25.011  1.00  0.00     0.150 A 
ATOM     11  C   UNL A   1      36.839  22.651  23.721  1.00  0.00     0.040 A 
ATOM     12  N   UNL A   1      35.804  22.153  25.812  1.00  0.00    -0.143 NA
ATOM     13  C   UNL A   1      35.618  23.126  23.256  1.00  0.00     0.051 A 
ATOM     14  N   UNL A   1      34.598  22.642  25.328  1.00  0.00    -0.132 NA
BRANCH  10  15
ATOM     15  C   UNL A   1      38.176  21.721  25.563  1.00  0.00     0.271 C 
ATOM     16  C   UNL A   1      38.712  24.017  26.501  1.00  0.00     0.143 C 
ATOM     17  N   UNL A   1      38.985  22.630  26.204  1.00  0.00    -0.354 N 
ATOM     18  H   UNL A   1      39.862  22.291  26.498  1.00  0.00     0.163 HD
ATOM     19  O   UNL A   1      38.554  20.569  25.372  1.00  0.00    -0.267 OA
ENDBRANCH  10  15
ENDBRANCH   8   9
BRANCH   8  20
ATOM     20  C   UNL A   1      31.968  23.103  23.704  1.00  0.00     0.084 C 
ATOM     21  C   UNL A   1      31.026  23.348  24.852  1.00  0.00     0.027 C 
ATOM     22  C   UNL A   1      30.616  23.700  23.454  1.00  0.00     0.027 C 
ENDBRANCH   8  20
ENDBRANCH   7   8
ENDBRANCH   6   7
ENDBRANCH   3   6
ENDBRANCH   1   2
BRANCH   1  23
ATOM     23  C   UNL A   1      32.206  27.620  27.131  1.00  0.00     0.023 C 
BRANCH  23  24
ATOM     24  C   UNL A   1      31.710  28.969  26.612  1.00  0.00     0.023 C 
BRANCH  24  25
ATOM     25  C   UNL A   1      32.770  29.933  26.100  1.00  0.00     0.116 C 
BRANCH  25  26
ATOM     26  N   UNL A   1      32.598  31.316  26.548  1.00  0.00    -0.352 N 
ATOM     27  C   UNL A   1      33.394  32.089  27.376  1.00  0.00     0.251 C 
ATOM     28  H   UNL A   1      31.791  31.766  26.207  1.00  0.00     0.163 HD
ATOM     29  O   UNL A   1      33.014  33.187  27.752  1.00  0.00    -0.269 OA
BRANCH  27  30
ATOM     30  C   UNL A   1      34.701  31.558  27.829  1.00  0.00     0.039 A 
ATOM     31  C   UNL A   1      35.774  32.423  28.057  1.00  0.00     0.014 A 
ATOM     32  C   UNL A   1      34.836  30.200  28.098  1.00  0.00     0.014 A 
ATOM     33  C   UNL A   1      36.932  31.935  28.674  1.00  0.00     0.010 A 
ATOM     34  C   UNL A   1      35.906  29.758  28.860  1.00  0.00     0.010 A 
ATOM     35  C   UNL A   1      36.981  30.612  29.143  1.00  0.00    -0.014 A 
BRANCH  35  36
ATOM     36  C   UNL A   1      38.138  30.071  29.906  1.00  0.00     0.031 A 
ATOM     37  C   UNL A   1      38.350  30.494  31.338  1.00  0.00     0.074 A 
ATOM     38  C   UNL A   1      39.056  29.297  29.290  1.00  0.00     0.049 A 
ATOM     39  N   UNL A   1      39.364  30.262  32.134  1.00  0.00    -0.248 NA
ATOM     40  C   UNL A   1      37.313  31.351  31.938  1.00  0.00     0.031 C 
ATOM     41  C   UNL A   1      39.023  28.891  27.884  1.00  0.00     0.029 A 
ATOM     42  N   UNL A   1      40.205  28.721  29.770  1.00  0.00    -0.354 N 
ATOM     43  C   UNL A   1      39.103  30.979  33.295  1.00  0.00     0.074 A 
ATOM     44  C   UNL A   1      37.884  31.722  33.071  1.00  0.00     0.031 C 
ATOM     45  C   UNL A   1      40.074  28.093  27.629  1.00  0.00     0.029 A 
ATOM     46  C   UNL A   1      40.877  27.965  28.840  1.00  0.00     0.049 A 
ATOM     47  H   UNL A   1      40.520  28.839  30.696  1.00  0.00     0.167 HD
ATOM     48  C   UNL A   1      39.788  30.986  34.463  1.00  0.00     0.037 A 
ATOM     49  C   UNL A   1      42.009  27.245  28.956  1.00  0.00     0.037 A 
ATOM     50  C   UNL A   1      40.955  30.183  34.708  1.00  0.00     0.049 A 
ATOM     51  C   UNL A   1      42.713  27.205  30.285  1.00  0.00     0.074 A 
ATOM     52  C   UNL A   1      41.677  30.042  35.878  1.00  0.00     0.029 A 
ATOM     53  N   UNL A   1      41.560  29.370  33.761  1.00  0.00    -0.354 N 
ATOM     54  N   UNL A   1      42.413  27.826  31.400  1.00  0.00    -0.248 NA
ATOM     55  C   UNL A   1      43.907  26.353  30.376  1.00  0.00     0.031 C 
ATOM     56  C   UNL A   1      42.739  29.165  35.631  1.00  0.00     0.029 A 
ATOM     57  C   UNL A   1      42.650  28.726  34.320  1.00  0.00     0.049 A 
ATOM     58  H   UNL A   1      41.258  29.266  32.829  1.00  0.00     0.167 HD
ATOM     59  C   UNL A   1      43.358  27.418  32.331  1.00  0.00     0.074 A 
ATOM     60  C   UNL A   1      44.232  26.483  31.654  1.00  0.00     0.031 C 
ATOM     61  C   UNL A   1      43.495  27.786  33.629  1.00  0.00     0.037 A 
BRANCH  48  62
ATOM     62  C   UNL A   1      39.270  31.863  35.567  1.00  0.00     0.064 A 
ATOM     63  C   UNL A   1      39.655  33.209  35.682  1.00  0.00     0.173 A 
ATOM     64  C   UNL A   1      38.373  31.358  36.520  1.00  0.00     0.173 A 
ATOM     65  F   UNL A   1      40.523  33.740  34.806  1.00  0.00    -0.203 F 
ATOM     66  C   UNL A   1      39.198  34.000  36.732  1.00  0.00     0.198 A 
ATOM     67  C   UNL A   1      37.889  32.164  37.547  1.00  0.00     0.198 A 
ATOM     68  F   UNL A   1      37.967  30.080  36.457  1.00  0.00    -0.203 F 
ATOM     69  F   UNL A   1      39.638  35.261  36.858  1.00  0.00    -0.200 F 
ATOM     70  C   UNL A   1      38.310  33.479  37.660  1.00  0.00     0.200 A 
ATOM     71  F   UNL A   1      37.021  31.662  38.438  1.00  0.00    -0.200 F 
ATOM     72  F   UNL A   1      37.871  34.243  38.670  1.00  0.00    -0.200 F 
ENDBRANCH  48  62
BRANCH  49  73
ATOM     73  C   UNL A   1      42.512  26.453  27.802  1.00  0.00     0.064 A 
ATOM     74  C   UNL A   1      42.101  25.125  27.612  1.00  0.00     0.173 A 
ATOM     75  C   UNL A   1      43.409  26.995  26.871  1.00  0.00     0.173 A 
ATOM     76  F   UNL A   1      41.257  24.555  28.486  1.00  0.00    -0.203 F 
ATOM     77  C   UNL A   1      42.587  24.363  26.552  1.00  0.00     0.198 A 
ATOM     78  C   UNL A   1      43.873  26.241  25.794  1.00  0.00     0.198 A 
ATOM     79  F   UNL A   1      43.826  28.263  26.999  1.00  0.00    -0.203 F 
ATOM     80  F   UNL A   1      42.213  23.082  26.424  1.00  0.00    -0.200 F 
ATOM     81  C   UNL A   1      43.468  24.923  25.639  1.00  0.00     0.200 A 
ATOM     82  F   UNL A   1      44.712  26.790  24.905  1.00  0.00    -0.200 F 
ATOM     83  F   UNL A   1      43.933  24.191  24.618  1.00  0.00    -0.200 F 
ENDBRANCH  49  73
BRANCH  61  84
ATOM     84  C   UNL A   1      44.602  27.143  34.410  1.00  0.00     0.064 A 
ATOM     85  C   UNL A   1      45.870  27.732  34.512  1.00  0.00     0.173 A 
ATOM     86  C   UNL A   1      44.376  25.940  35.097  1.00  0.00     0.173 A 
ATOM     87  F   UNL A   1      46.137  28.875  33.863  1.00  0.00    -0.203 F 
ATOM     88  C   UNL A   1      46.882  27.125  35.249  1.00  0.00     0.198 A 
ATOM     89  C   UNL A   1      45.382  25.352  35.858  1.00  0.00     0.198 A 
ATOM     90  F   UNL A   1      43.177  25.342  35.038  1.00  0.00    -0.203 F 
ATOM     91  F   UNL A   1      48.101  27.679  35.291  1.00  0.00    -0.200 F 
ATOM     92  C   UNL A   1      46.636  25.941  35.927  1.00  0.00     0.200 A 
ATOM     93  F   UNL A   1      45.137  24.215  36.525  1.00  0.00    -0.200 F 
ATOM     94  F   UNL A   1      47.610  25.360  36.641  1.00  0.00    -0.200 F 
ENDBRANCH  61  84
ENDBRANCH  35  36
ENDBRANCH  27  30
ENDBRANCH  25  26
ENDBRANCH  24  25
ENDBRANCH  23  24
ENDBRANCH   1  23
TORSDOF 16
ENDMDL
MODEL 2
REMARK VINA RESULT:     -11.4      1.830      2.745
REMARK SMILES CNC(=O)c1ccc(N(CCC(=O)NCCCCNC(=O)c2ccc(-c3c4nc(c(-c5c(F)c(F)c(F)c(F)c5F)c5ccc([nH]5)c(-c5c(F)c(F)c(F)c(F)c5F)c5nc(c(-c6c(F)c(F)c(F)c(F)c6F)c6ccc3[nH]6)C=C5)C=C4)cc2)C2CC2)nn1
REMARK SMILES IDX 15 1 14 2 12 3 13 4 11 6 10 7 9 8 8 9 5 10 6 11 89 12 7 13
REMARK SMILES IDX 88 14 3 15 1 16 2 17 4 19 85 20 86 21 87 22 16 23 17 24
REMARK SMILES IDX 18 25 19 26 20 27 21 29 22 30 23 31 84 32 24 33 83 34 25 35
REMARK SMILES IDX 26 36 27 37 77 38 28 39 82 40 76 41 78 42 29 43 81 44 75 45
REMARK SMILES IDX 74 46 30 48 62 49 42 50 61 51 43 52 46 53 60 54 79 55 44 56
REMARK SMILES IDX 45 57 59 59 80 60 47 61 31 62 32 63 40 64 33 65 34 66 38 67
REMARK SMILES IDX 41 68 35 69 36 70 39 71 37 72 63 73 64 74 72 75 65 76 66 77
REMARK SMILES IDX 70 78 73 79 67 80 68 81 71 82 69 83 48 84 49 85 57 86 50 87
REMARK SMILES IDX 51 88 55 89 58 90 52 91 53 92 56 93 54 94
REMARK H PARENT 14 5 2 18 19 28 78 47 46 58
REMARK Flexibility Score: inf
ROOT
ATOM      1  C   UNL A   1      32.809  26.704  26.525  1.00  0.00     0.116 C 
ENDROOT
BRANCH   1   2
ATOM      2  N   UNL A   1      32.258  26.155  25.296  1.00  0.00    -0.356 N 
ATOM      3  C   UNL A   1      32.844  25.454  24.289  1.00  0.00     0.221 C 
ATOM      4  O   UNL A   1      32.230  25.360  23.224  1.00  0.00    -0.275 OA
ATOM      5  H   UNL A   1      31.295  26.318  25.173  1.00  0.00     0.163 HD
BRANCH   3   6
ATOM      6  C   UNL A   1      34.182  24.777  24.481  1.00  0.00     0.121 C 
BRANCH   6   7
ATOM      7  C   UNL A   1      34.136  23.310  24.042  1.00  0.00     0.128 C 
BRANCH   7   8
ATOM      8  N   UNL A   1      34.189  22.370  25.185  1.00  0.00    -0.352 N 
BRANCH   8   9
ATOM      9  C   UNL A   1      33.984  21.009  24.860  1.00  0.00     0.151 A 
ATOM     10  C   UNL A   1      33.664  18.399  24.050  1.00  0.00     0.150 A 
ATOM     11  C   UNL A   1      32.613  19.268  23.868  1.00  0.00     0.040 A 
ATOM     12  N   UNL A   1      34.819  18.775  24.633  1.00  0.00    -0.143 NA
ATOM     13  C   UNL A   1      32.781  20.578  24.302  1.00  0.00     0.051 A 
ATOM     14  N   UNL A   1      34.965  20.091  25.048  1.00  0.00    -0.132 NA
BRANCH  10  15
ATOM     15  C   UNL A   1      33.549  17.017  23.549  1.00  0.00     0.271 C 
ATOM     16  C   UNL A   1      32.625  16.177  25.759  1.00  0.00     0.143 C 
ATOM     17  N   UNL A   1      33.100  16.035  24.401  1.00  0.00    -0.354 N 
ATOM     18  H   UNL A   1      33.101  15.119  24.040  1.00  0.00     0.163 HD
ATOM     19  O   UNL A   1      33.934  16.738  22.418  1.00  0.00    -0.267 OA
ENDBRANCH  10  15
ENDBRANCH   8   9
BRANCH   8  20
ATOM     20  C   UNL A   1      33.915  22.953  26.514  1.00  0.00     0.084 C 
ATOM     21  C   UNL A   1      32.550  22.865  27.141  1.00  0.00     0.027 C 
ATOM     22  C   UNL A   1      33.732  22.247  27.823  1.00  0.00     0.027 C 
ENDBRANCH   8  20
ENDBRANCH   7   8
ENDBRANCH   6   7
ENDBRANCH   3   6
ENDBRANCH   1   2
BRANCH   1  23
ATOM     23  C   UNL A   1      31.959  27.912  26.928  1.00  0.00     0.023 C 
BRANCH  23  24
ATOM     24  C   UNL A   1      31.728  29.027  25.909  1.00  0.00     0.023 C 
BRANCH  24  25
ATOM     25  C   UNL A   1      32.846  30.047  25.751  1.00  0.00     0.116 C 
BRANCH  25  26
ATOM     26  N   UNL A   1      32.572  31.346  26.365  1.00  0.00    -0.352 N 
ATOM     27  C   UNL A   1      33.285  32.048  27.322  1.00  0.00     0.251 C 
ATOM     28  H   UNL A   1      31.752  31.791  26.048  1.00  0.00     0.163 HD
ATOM     29  O   UNL A   1      32.824  33.064  27.818  1.00  0.00    -0.269 OA
BRANCH  27  30
ATOM     30  C   UNL A   1      34.604  31.536  27.763  1.00  0.00     0.039 A 
ATOM     31  C   UNL A   1      35.665  32.417  27.985  1.00  0.00     0.014 A 
ATOM     32  C   UNL A   1      34.763  30.180  28.028  1.00  0.00     0.014 A 
ATOM     33  C   UNL A   1      36.836  31.946  28.591  1.00  0.00     0.010 A 
ATOM     34  C   UNL A   1      35.846  29.753  28.780  1.00  0.00     0.010 A 
ATOM     35  C   UNL A   1      36.909  30.623  29.056  1.00  0.00    -0.014 A 
BRANCH  35  36
ATOM     36  C   UNL A   1      38.081  30.098  29.808  1.00  0.00     0.031 A 
ATOM     37  C   UNL A   1      38.309  30.537  31.234  1.00  0.00     0.074 A 
ATOM     38  C   UNL A   1      38.996  29.326  29.188  1.00  0.00     0.049 A 
ATOM     39  N   UNL A   1      39.336  30.321  32.018  1.00  0.00    -0.248 NA
ATOM     40  C   UNL A   1      37.273  31.392  31.840  1.00  0.00     0.031 C 
ATOM     41  C   UNL A   1      38.947  28.906  27.786  1.00  0.00     0.029 A 
ATOM     42  N   UNL A   1      40.157  28.764  29.658  1.00  0.00    -0.354 N 
ATOM     43  C   UNL A   1      39.085  31.047  33.176  1.00  0.00     0.074 A 
ATOM     44  C   UNL A   1      37.857  31.778  32.961  1.00  0.00     0.031 C 
ATOM     45  C   UNL A   1      40.001  28.114  27.525  1.00  0.00     0.029 A 
ATOM     46  C   UNL A   1      40.822  28.004  28.725  1.00  0.00     0.049 A 
ATOM     47  H   UNL A   1      40.484  28.893  30.578  1.00  0.00     0.167 HD
ATOM     48  C   UNL A   1      39.786  31.070  34.334  1.00  0.00     0.037 A 
ATOM     49  C   UNL A   1      41.961  27.294  28.833  1.00  0.00     0.037 A 
ATOM     50  C   UNL A   1      40.962  30.280  34.570  1.00  0.00     0.049 A 
ATOM     51  C   UNL A   1      42.683  27.272  30.152  1.00  0.00     0.074 A 
ATOM     52  C   UNL A   1      41.701  30.155  35.732  1.00  0.00     0.029 A 
ATOM     53  N   UNL A   1      41.561  29.462  33.623  1.00  0.00    -0.354 N 
ATOM     54  N   UNL A   1      42.394  27.902  31.266  1.00  0.00    -0.248 NA
ATOM     55  C   UNL A   1      43.885  26.431  30.236  1.00  0.00     0.031 C 
ATOM     56  C   UNL A   1      42.766  29.284  35.479  1.00  0.00     0.029 A 
ATOM     57  C   UNL A   1      42.663  28.832  34.173  1.00  0.00     0.049 A 
ATOM     58  H   UNL A   1      41.247  29.346  32.697  1.00  0.00     0.167 HD
ATOM     59  C   UNL A   1      43.355  27.510  32.188  1.00  0.00     0.074 A 
ATOM     60  C   UNL A   1      44.227  26.575  31.508  1.00  0.00     0.031 C 
ATOM     61  C   UNL A   1      43.507  27.892  33.480  1.00  0.00     0.037 A 
BRANCH  48  62
ATOM     62  C   UNL A   1      39.275  31.955  35.437  1.00  0.00     0.064 A 
ATOM     63  C   UNL A   1      39.603  33.319  35.499  1.00  0.00     0.173 A 
ATOM     64  C   UNL A   1      38.444  31.437  36.441  1.00  0.00     0.173 A 
ATOM     65  F   UNL A   1      40.407  33.864  34.572  1.00  0.00    -0.203 F 
ATOM     66  C   UNL A   1      39.156  34.118  36.547  1.00  0.00     0.198 A 
ATOM     67  C   UNL A   1      37.968  32.248  37.467  1.00  0.00     0.198 A 
ATOM     68  F   UNL A   1      38.095  30.140  36.429  1.00  0.00    -0.203 F 
ATOM     69  F   UNL A   1      39.542  35.400  36.621  1.00  0.00    -0.200 F 
ATOM     70  C   UNL A   1      38.333  33.584  37.527  1.00  0.00     0.200 A 
ATOM     71  F   UNL A   1      37.163  31.734  38.408  1.00  0.00    -0.200 F 
ATOM     72  F   UNL A   1      37.903  34.355  38.535  1.00  0.00    -0.200 F 
ENDBRANCH  48  62
BRANCH  49  73
ATOM     73  C   UNL A   1      42.455  26.495  27.680  1.00  0.00     0.064 A 
ATOM     74  C   UNL A   1      43.410  27.025  26.799  1.00  0.00     0.173 A 
ATOM     75  C   UNL A   1      41.989  25.196  27.430  1.00  0.00     0.173 A 
ATOM     76  F   UNL A   1      43.874  28.269  26.987  1.00  0.00    -0.203 F 
ATOM     77  C   UNL A   1      43.860  26.298  25.700  1.00  0.00     0.198 A 
ATOM     78  C   UNL A   1      42.461  24.459  26.344  1.00  0.00     0.198 A 
ATOM     79  F   UNL A   1      41.083  24.638  28.245  1.00  0.00    -0.203 F 
ATOM     80  F   UNL A   1      44.738  26.848  24.849  1.00  0.00    -0.200 F 
ATOM     81  C   UNL A   1      43.391  25.012  25.475  1.00  0.00     0.200 A 
ATOM     82  F   UNL A   1      42.016  23.212  26.140  1.00  0.00    -0.200 F 
ATOM     83  F   UNL A   1      43.826  24.312  24.420  1.00  0.00    -0.200 F 
ENDBRANCH  49  73
BRANCH  61  84
ATOM     84  C   UNL A   1      44.629  27.265  34.252  1.00  0.00     0.064 A 
ATOM     85  C   UNL A   1      44.475  26.038  34.910  1.00  0.00     0.173 A 
ATOM     86  C   UNL A   1      45.887  27.886  34.300  1.00  0.00     0.173 A 
ATOM     87  F   UNL A   1      43.288  25.413  34.903  1.00  0.00    -0.203 F 
ATOM     88  C   UNL A   1      45.530  25.467  35.615  1.00  0.00     0.198 A 
ATOM     89  C   UNL A   1      46.949  27.297  34.979  1.00  0.00     0.198 A 
ATOM     90  F   UNL A   1      46.088  29.057  33.678  1.00  0.00    -0.203 F 
ATOM     91  F   UNL A   1      45.346  24.318  36.279  1.00  0.00    -0.200 F 
ATOM     92  C   UNL A   1      46.768  26.093  35.643  1.00  0.00     0.200 A 
ATOM     93  F   UNL A   1      48.148  27.896  34.993  1.00  0.00    -0.200 F 
ATOM     94  F   UNL A   1      47.785  25.539  36.317  1.00  0.00    -0.200 F 
ENDBRANCH  61  84
ENDBRANCH  35  36
ENDBRANCH  27  30
ENDBRANCH  25  26
ENDBRANCH  24  25
ENDBRANCH  23  24
ENDBRANCH   1  23
TORSDOF 16
ENDMDL
MODEL 3
REMARK VINA RESULT:     -11.2      4.773      9.757
REMARK SMILES CNC(=O)c1ccc(N(CCC(=O)NCCCCNC(=O)c2ccc(-c3c4nc(c(-c5c(F)c(F)c(F)c(F)c5F)c5ccc([nH]5)c(-c5c(F)c(F)c(F)c(F)c5F)c5nc(c(-c6c(F)c(F)c(F)c(F)c6F)c6ccc3[nH]6)C=C5)C=C4)cc2)C2CC2)nn1
REMARK SMILES IDX 15 1 14 2 12 3 13 4 11 6 10 7 9 8 8 9 5 10 6 11 89 12 7 13
REMARK SMILES IDX 88 14 3 15 1 16 2 17 4 19 85 20 86 21 87 22 16 23 17 24
REMARK SMILES IDX 18 25 19 26 20 27 21 29 22 30 23 31 84 32 24 33 83 34 25 35
REMARK SMILES IDX 26 36 27 37 77 38 28 39 82 40 76 41 78 42 29 43 81 44 75 45
REMARK SMILES IDX 74 46 30 48 62 49 42 50 61 51 43 52 46 53 60 54 79 55 44 56
REMARK SMILES IDX 45 57 59 59 80 60 47 61 31 62 32 63 40 64 33 65 34 66 38 67
REMARK SMILES IDX 41 68 35 69 36 70 39 71 37 72 63 73 64 74 72 75 65 76 66 77
REMARK SMILES IDX 70 78 73 79 67 80 68 81 71 82 69 83 48 84 49 85 57 86 50 87
REMARK SMILES IDX 51 88 55 89 58 90 52 91 53 92 56 93 54 94
REMARK H PARENT 14 5 2 18 19 28 78 47 46 58
REMARK Flexibility Score: inf
ROOT
ATOM      1  C   UNL A   1      38.004  23.571  26.114  1.00  0.00     0.116 C 
ENDROOT
BRANCH   1   2
ATOM      2  N   UNL A   1      37.730  23.367  24.700  1.00  0.00    -0.356 N 
ATOM      3  C   UNL A   1      36.558  23.349  24.010  1.00  0.00     0.221 C 
ATOM      4  O   UNL A   1      36.569  22.864  22.877  1.00  0.00    -0.275 OA
ATOM      5  H   UNL A   1      38.531  23.217  24.147  1.00  0.00     0.163 HD
BRANCH   3   6
ATOM      6  C   UNL A   1      35.297  23.941  24.595  1.00  0.00     0.121 C 
BRANCH   6   7
ATOM      7  C   UNL A   1      34.046  23.394  23.902  1.00  0.00     0.128 C 
BRANCH   7   8
ATOM      8  N   UNL A   1      33.287  22.451  24.754  1.00  0.00    -0.352 N 
BRANCH   8   9
ATOM      9  C   UNL A   1      33.384  21.088  24.387  1.00  0.00     0.151 A 
ATOM     10  C   UNL A   1      33.466  18.394  23.836  1.00  0.00     0.150 A 
ATOM     11  C   UNL A   1      34.492  18.936  24.573  1.00  0.00     0.040 A 
ATOM     12  N   UNL A   1      32.451  19.138  23.356  1.00  0.00    -0.143 NA
ATOM     13  C   UNL A   1      34.450  20.303  24.826  1.00  0.00     0.051 A 
ATOM     14  N   UNL A   1      32.425  20.498  23.630  1.00  0.00    -0.132 NA
BRANCH  10  15
ATOM     15  C   UNL A   1      33.442  16.939  23.597  1.00  0.00     0.271 C 
ATOM     16  C   UNL A   1      32.252  16.488  25.793  1.00  0.00     0.143 C 
ATOM     17  N   UNL A   1      32.902  16.115  24.557  1.00  0.00    -0.354 N 
ATOM     18  H   UNL A   1      32.967  15.149  24.380  1.00  0.00     0.163 HD
ATOM     19  O   UNL A   1      33.976  16.470  22.597  1.00  0.00    -0.267 OA
ENDBRANCH  10  15
ENDBRANCH   8   9
BRANCH   8  20
ATOM     20  C   UNL A   1      32.148  23.027  25.498  1.00  0.00     0.084 C 
ATOM     21  C   UNL A   1      31.839  22.601  26.908  1.00  0.00     0.027 C 
ATOM     22  C   UNL A   1      32.173  24.031  26.609  1.00  0.00     0.027 C 
ENDBRANCH   8  20
ENDBRANCH   7   8
ENDBRANCH   6   7
ENDBRANCH   3   6
ENDBRANCH   1   2
BRANCH   1  23
ATOM     23  C   UNL A   1      39.263  22.777  26.472  1.00  0.00     0.023 C 
BRANCH  23  24
ATOM     24  C   UNL A   1      39.546  21.467  25.737  1.00  0.00     0.023 C 
BRANCH  24  25
ATOM     25  C   UNL A   1      39.791  20.240  26.603  1.00  0.00     0.116 C 
BRANCH  25  26
ATOM     26  N   UNL A   1      40.835  19.345  26.104  1.00  0.00    -0.352 N 
ATOM     27  C   UNL A   1      42.179  19.585  25.873  1.00  0.00     0.251 C 
ATOM     28  H   UNL A   1      40.534  18.429  25.900  1.00  0.00     0.163 HD
ATOM     29  O   UNL A   1      42.872  18.746  25.319  1.00  0.00    -0.269 OA
BRANCH  27  30
ATOM     30  C   UNL A   1      42.764  20.885  26.279  1.00  0.00     0.039 A 
ATOM     31  C   UNL A   1      43.236  21.778  25.314  1.00  0.00     0.014 A 
ATOM     32  C   UNL A   1      42.773  21.246  27.623  1.00  0.00     0.014 A 
ATOM     33  C   UNL A   1      43.596  23.075  25.696  1.00  0.00     0.010 A 
ATOM     34  C   UNL A   1      42.964  22.573  27.971  1.00  0.00     0.010 A 
ATOM     35  C   UNL A   1      43.398  23.505  27.019  1.00  0.00    -0.014 A 
BRANCH  35  36
ATOM     36  C   UNL A   1      43.654  24.904  27.458  1.00  0.00     0.031 A 
ATOM     37  C   UNL A   1      45.075  25.389  27.608  1.00  0.00     0.074 A 
ATOM     38  C   UNL A   1      42.629  25.698  27.829  1.00  0.00     0.049 A 
ATOM     39  N   UNL A   1      45.523  26.511  28.112  1.00  0.00    -0.248 NA
ATOM     40  C   UNL A   1      46.141  24.460  27.195  1.00  0.00     0.031 C 
ATOM     41  C   UNL A   1      41.215  25.323  27.825  1.00  0.00     0.029 A 
ATOM     42  N   UNL A   1      42.624  26.990  28.294  1.00  0.00    -0.354 N 
ATOM     43  C   UNL A   1      46.908  26.395  28.117  1.00  0.00     0.074 A 
ATOM     44  C   UNL A   1      47.225  25.065  27.650  1.00  0.00     0.031 C 
ATOM     45  C   UNL A   1      40.476  26.374  28.219  1.00  0.00     0.029 A 
ATOM     46  C   UNL A   1      41.366  27.484  28.543  1.00  0.00     0.049 A 
ATOM     47  H   UNL A   1      43.445  27.514  28.437  1.00  0.00     0.167 HD
ATOM     48  C   UNL A   1      47.838  27.325  28.438  1.00  0.00     0.037 A 
ATOM     49  C   UNL A   1      40.977  28.698  28.976  1.00  0.00     0.037 A 
ATOM     50  C   UNL A   1      47.520  28.672  28.826  1.00  0.00     0.049 A 
ATOM     51  C   UNL A   1      42.024  29.742  29.253  1.00  0.00     0.074 A 
ATOM     52  C   UNL A   1      48.379  29.723  29.086  1.00  0.00     0.029 A 
ATOM     53  N   UNL A   1      46.230  29.155  28.991  1.00  0.00    -0.354 N 
ATOM     54  N   UNL A   1      43.330  29.645  29.180  1.00  0.00    -0.248 NA
ATOM     55  C   UNL A   1      41.545  31.069  29.662  1.00  0.00     0.031 C 
ATOM     56  C   UNL A   1      47.609  30.837  29.439  1.00  0.00     0.029 A 
ATOM     57  C   UNL A   1      46.270  30.490  29.354  1.00  0.00     0.049 A 
ATOM     58  H   UNL A   1      45.408  28.628  28.868  1.00  0.00     0.167 HD
ATOM     59  C   UNL A   1      43.826  30.901  29.501  1.00  0.00     0.074 A 
ATOM     60  C   UNL A   1      42.679  31.748  29.753  1.00  0.00     0.031 C 
ATOM     61  C   UNL A   1      45.113  31.317  29.584  1.00  0.00     0.037 A 
BRANCH  48  62
ATOM     62  C   UNL A   1      49.283  26.921  28.349  1.00  0.00     0.064 A 
ATOM     63  C   UNL A   1      50.005  26.511  29.481  1.00  0.00     0.173 A 
ATOM     64  C   UNL A   1      49.955  26.938  27.118  1.00  0.00     0.173 A 
ATOM     65  F   UNL A   1      49.416  26.491  30.687  1.00  0.00    -0.203 F 
ATOM     66  C   UNL A   1      51.353  26.177  29.392  1.00  0.00     0.198 A 
ATOM     67  C   UNL A   1      51.294  26.567  27.026  1.00  0.00     0.198 A 
ATOM     68  F   UNL A   1      49.313  27.317  26.001  1.00  0.00    -0.203 F 
ATOM     69  F   UNL A   1      52.037  25.858  30.501  1.00  0.00    -0.200 F 
ATOM     70  C   UNL A   1      51.995  26.199  28.164  1.00  0.00     0.200 A 
ATOM     71  F   UNL A   1      51.910  26.577  25.836  1.00  0.00    -0.200 F 
ATOM     72  F   UNL A   1      53.293  25.877  28.079  1.00  0.00    -0.200 F 
ENDBRANCH  48  62
BRANCH  49  73
ATOM     73  C   UNL A   1      39.530  29.014  29.114  1.00  0.00     0.064 A 
ATOM     74  C   UNL A   1      38.890  28.906  30.358  1.00  0.00     0.173 A 
ATOM     75  C   UNL A   1      38.758  29.425  28.018  1.00  0.00     0.173 A 
ATOM     76  F   UNL A   1      39.582  28.501  31.433  1.00  0.00    -0.203 F 
ATOM     77  C   UNL A   1      37.529  29.173  30.495  1.00  0.00     0.198 A 
ATOM     78  C   UNL A   1      37.402  29.718  28.162  1.00  0.00     0.198 A 
ATOM     79  F   UNL A   1      39.322  29.554  26.809  1.00  0.00    -0.203 F 
ATOM     80  F   UNL A   1      36.935  29.015  31.686  1.00  0.00    -0.200 F 
ATOM     81  C   UNL A   1      36.787  29.584  29.399  1.00  0.00     0.200 A 
ATOM     82  F   UNL A   1      36.692  30.130  27.104  1.00  0.00    -0.200 F 
ATOM     83  F   UNL A   1      35.479  29.843  29.531  1.00  0.00    -0.200 F 
ENDBRANCH  49  73
BRANCH  61  84
ATOM     84  C   UNL A   1      45.346  32.760  29.919  1.00  0.00     0.064 A 
ATOM     85  C   UNL A   1      45.391  33.749  28.927  1.00  0.00     0.173 A 
ATOM     86  C   UNL A   1      45.488  33.161  31.257  1.00  0.00     0.173 A 
ATOM     87  F   UNL A   1      45.274  33.412  27.634  1.00  0.00    -0.203 F 
ATOM     88  C   UNL A   1      45.601  35.084  29.258  1.00  0.00     0.198 A 
ATOM     89  C   UNL A   1      45.666  34.501  31.587  1.00  0.00     0.198 A 
ATOM     90  F   UNL A   1      45.443  32.254  32.244  1.00  0.00    -0.203 F 
ATOM     91  F   UNL A   1      45.691  36.006  28.290  1.00  0.00    -0.200 F 
ATOM     92  C   UNL A   1      45.730  35.460  30.587  1.00  0.00     0.200 A 
ATOM     93  F   UNL A   1      45.776  34.865  32.872  1.00  0.00    -0.200 F 
ATOM     94  F   UNL A   1      45.925  36.748  30.904  1.00  0.00    -0.200 F 
ENDBRANCH  61  84
ENDBRANCH  35  36
ENDBRANCH  27  30
ENDBRANCH  25  26
ENDBRANCH  24  25
ENDBRANCH  23  24
ENDBRANCH   1  23
TORSDOF 16
ENDMDL
