MODEL 1
REMARK VINA RESULT:     -12.9      0.000      0.000
REMARK SMILES CCOc1cccc(C(=O)Nc2ccc(Cl)c(C(=O)NCCCCNC(=O)c3ccc(-c4c5nc(c(-c6c(F)c(F)c(F)c(F)c6F)c6ccc([nH]6)c(-c6c(F)c(F)c(F)c(F)c6F)c6nc(c(-c7c(F)c(F)c(F)c(F)c7F)c7ccc4[nH]7)C=C6)C=C5)cc3)c2)c1
REMARK SMILES IDX 21 1 20 2 18 3 19 4 17 6 12 7 13 8 91 9 14 10 15 11 16 12
REMARK SMILES IDX 11 13 9 14 10 15 8 17 4 18 5 19 92 20 6 21 7 22 3 23 2 24
REMARK SMILES IDX 1 25 22 26 23 27 24 28 25 29 26 30 27 32 28 33 29 34 90 35
REMARK SMILES IDX 30 36 89 37 31 38 32 39 33 40 83 41 34 42 88 43 82 44 84 45
REMARK SMILES IDX 35 46 87 47 81 48 80 49 36 51 68 52 48 53 67 54 49 55 52 56
REMARK SMILES IDX 66 57 85 58 50 59 51 60 65 62 86 63 53 64 37 65 38 66 46 67
REMARK SMILES IDX 39 68 40 69 44 70 47 71 41 72 42 73 45 74 43 75 69 76 70 77
REMARK SMILES IDX 78 78 71 79 72 80 76 81 79 82 73 83 74 84 77 85 75 86 54 87
REMARK SMILES IDX 55 88 63 89 56 90 57 91 61 92 64 93 58 94 59 95 62 96 60 97
REMARK H PARENT 20 5 11 16 25 31 84 50 52 61
REMARK Flexibility Score: inf
ROOT
ATOM      1  C   UNL A   1      32.977  30.078  26.458  1.00  0.00     0.116 C 
ENDROOT
BRANCH   1   2
ATOM      2  N   UNL A   1      33.630  29.567  25.272  1.00  0.00    -0.352 N 
ATOM      3  C   UNL A   1      33.404  28.488  24.453  1.00  0.00     0.252 C 
ATOM      4  O   UNL A   1      34.309  28.242  23.659  1.00  0.00    -0.269 OA
ATOM      5  H   UNL A   1      34.402  30.110  24.993  1.00  0.00     0.163 HD
BRANCH   3   6
ATOM      6  C   UNL A   1      32.146  27.667  24.461  1.00  0.00     0.060 A 
ATOM      7  C   UNL A   1      30.727  25.946  25.474  1.00  0.00     0.042 A 
ATOM      8  C   UNL A   1      29.706  26.228  24.577  1.00  0.00     0.028 A 
ATOM      9  C   UNL A   1      31.967  26.578  25.332  1.00  0.00     0.041 A 
ATOM     10  C   UNL A   1      29.878  27.250  23.648  1.00  0.00     0.023 A 
ATOM     11  C   UNL A   1      31.069  27.994  23.610  1.00  0.00     0.053 A 
ATOM     12  Cl  UNL A   1      31.046  29.338  22.518  1.00  0.00    -0.083 Cl
BRANCH   7  13
ATOM     13  N   UNL A   1      30.451  25.056  26.521  1.00  0.00    -0.322 N 
ATOM     14  C   UNL A   1      30.740  23.713  26.678  1.00  0.00     0.255 C 
ATOM     15  O   UNL A   1      30.144  23.094  27.563  1.00  0.00    -0.269 OA
ATOM     16  H   UNL A   1      29.966  25.458  27.277  1.00  0.00     0.170 HD
BRANCH  14  17
ATOM     17  C   UNL A   1      31.811  22.997  25.909  1.00  0.00     0.043 A 
ATOM     18  C   UNL A   1      34.059  22.114  25.629  1.00  0.00     0.120 A 
ATOM     19  C   UNL A   1      33.766  21.771  24.310  1.00  0.00     0.046 A 
ATOM     20  C   UNL A   1      33.064  22.661  26.443  1.00  0.00     0.060 A 
ATOM     21  C   UNL A   1      32.488  21.981  23.801  1.00  0.00     0.005 A 
ATOM     22  C   UNL A   1      31.521  22.610  24.590  1.00  0.00     0.014 A 
BRANCH  18  23
ATOM     23  O   UNL A   1      35.384  22.104  25.967  1.00  0.00    -0.494 OA
BRANCH  23  24
ATOM     24  C   UNL A   1      36.033  23.367  26.115  1.00  0.00     0.226 C 
ATOM     25  C   UNL A   1      37.048  23.634  25.016  1.00  0.00     0.049 C 
ENDBRANCH  23  24
ENDBRANCH  18  23
ENDBRANCH  14  17
ENDBRANCH   7  13
ENDBRANCH   3   6
ENDBRANCH   1   2
BRANCH   1  26
ATOM     26  C   UNL A   1      31.695  30.815  26.077  1.00  0.00     0.023 C 
BRANCH  26  27
ATOM     27  C   UNL A   1      31.415  32.018  26.975  1.00  0.00     0.023 C 
BRANCH  27  28
ATOM     28  C   UNL A   1      32.660  32.802  27.373  1.00  0.00     0.116 C 
BRANCH  28  29
ATOM     29  N   UNL A   1      32.392  34.208  27.634  1.00  0.00    -0.352 N 
ATOM     30  C   UNL A   1      32.989  35.038  28.551  1.00  0.00     0.251 C 
ATOM     31  H   UNL A   1      31.688  34.619  27.081  1.00  0.00     0.163 HD
ATOM     32  O   UNL A   1      32.565  36.173  28.737  1.00  0.00    -0.269 OA
BRANCH  30  33
ATOM     33  C   UNL A   1      34.130  34.531  29.335  1.00  0.00     0.039 A 
ATOM     34  C   UNL A   1      33.888  33.971  30.590  1.00  0.00     0.014 A 
ATOM     35  C   UNL A   1      35.425  34.565  28.810  1.00  0.00     0.014 A 
ATOM     36  C   UNL A   1      34.941  33.385  31.291  1.00  0.00     0.010 A 
ATOM     37  C   UNL A   1      36.454  33.907  29.471  1.00  0.00     0.010 A 
ATOM     38  C   UNL A   1      36.224  33.313  30.720  1.00  0.00    -0.014 A 
BRANCH  38  39
ATOM     39  C   UNL A   1      37.323  32.600  31.417  1.00  0.00     0.031 A 
ATOM     40  C   UNL A   1      38.018  31.443  30.759  1.00  0.00     0.074 A 
ATOM     41  C   UNL A   1      37.662  32.974  32.666  1.00  0.00     0.049 A 
ATOM     42  N   UNL A   1      39.012  30.715  31.202  1.00  0.00    -0.248 NA
ATOM     43  C   UNL A   1      37.512  31.028  29.442  1.00  0.00     0.031 C 
ATOM     44  C   UNL A   1      37.013  34.038  33.435  1.00  0.00     0.029 A 
ATOM     45  N   UNL A   1      38.638  32.505  33.507  1.00  0.00    -0.354 N 
ATOM     46  C   UNL A   1      39.242  29.754  30.227  1.00  0.00     0.074 A 
ATOM     47  C   UNL A   1      38.245  29.951  29.198  1.00  0.00     0.031 C 
ATOM     48  C   UNL A   1      37.641  34.173  34.614  1.00  0.00     0.029 A 
ATOM     49  C   UNL A   1      38.711  33.184  34.698  1.00  0.00     0.049 A 
ATOM     50  H   UNL A   1      39.231  31.753  33.278  1.00  0.00     0.167 HD
ATOM     51  C   UNL A   1      40.212  28.810  30.183  1.00  0.00     0.037 A 
ATOM     52  C   UNL A   1      39.554  33.032  35.736  1.00  0.00     0.037 A 
ATOM     53  C   UNL A   1      41.213  28.634  31.204  1.00  0.00     0.049 A 
ATOM     54  C   UNL A   1      40.625  31.979  35.660  1.00  0.00     0.074 A 
ATOM     55  C   UNL A   1      42.289  27.764  31.217  1.00  0.00     0.029 A 
ATOM     56  N   UNL A   1      41.254  29.338  32.399  1.00  0.00    -0.354 N 
ATOM     57  N   UNL A   1      40.898  31.142  34.688  1.00  0.00    -0.248 NA
ATOM     58  C   UNL A   1      41.512  31.858  36.824  1.00  0.00     0.031 C 
ATOM     59  C   UNL A   1      42.945  27.898  32.446  1.00  0.00     0.029 A 
ATOM     60  C   UNL A   1      42.316  28.895  33.174  1.00  0.00     0.049 A 
ATOM     61  H   UNL A   1      40.623  30.046  32.660  1.00  0.00     0.167 HD
ATOM     62  C   UNL A   1      42.001  30.413  35.110  1.00  0.00     0.074 A 
ATOM     63  C   UNL A   1      42.361  30.926  36.417  1.00  0.00     0.031 C 
ATOM     64  C   UNL A   1      42.655  29.408  34.478  1.00  0.00     0.037 A 
BRANCH  51  65
ATOM     65  C   UNL A   1      40.231  27.891  28.995  1.00  0.00     0.064 A 
ATOM     66  C   UNL A   1      39.539  26.669  28.991  1.00  0.00     0.173 A 
ATOM     67  C   UNL A   1      40.934  28.246  27.833  1.00  0.00     0.173 A 
ATOM     68  F   UNL A   1      38.860  26.275  30.078  1.00  0.00    -0.203 F 
ATOM     69  C   UNL A   1      39.582  25.824  27.887  1.00  0.00     0.198 A 
ATOM     70  C   UNL A   1      40.946  27.414  26.718  1.00  0.00     0.198 A 
ATOM     71  F   UNL A   1      41.609  29.405  27.779  1.00  0.00    -0.203 F 
ATOM     72  F   UNL A   1      38.963  24.635  27.931  1.00  0.00    -0.200 F 
ATOM     73  C   UNL A   1      40.279  26.198  26.749  1.00  0.00     0.200 A 
ATOM     74  F   UNL A   1      41.609  27.783  25.614  1.00  0.00    -0.200 F 
ATOM     75  F   UNL A   1      40.317  25.384  25.684  1.00  0.00    -0.200 F 
ENDBRANCH  51  65
BRANCH  52  76
ATOM     76  C   UNL A   1      39.450  33.932  36.915  1.00  0.00     0.064 A 
ATOM     77  C   UNL A   1      40.083  35.183  36.919  1.00  0.00     0.173 A 
ATOM     78  C   UNL A   1      38.725  33.564  38.057  1.00  0.00     0.173 A 
ATOM     79  F   UNL A   1      40.806  35.571  35.857  1.00  0.00    -0.203 F 
ATOM     80  C   UNL A   1      40.011  36.024  38.027  1.00  0.00     0.198 A 
ATOM     81  C   UNL A   1      38.629  34.419  39.154  1.00  0.00     0.198 A 
ATOM     82  F   UNL A   1      38.097  32.380  38.102  1.00  0.00    -0.203 F 
ATOM     83  F   UNL A   1      40.664  37.194  38.021  1.00  0.00    -0.200 F 
ATOM     84  C   UNL A   1      39.279  35.643  39.142  1.00  0.00     0.200 A 
ATOM     85  F   UNL A   1      37.907  34.054  40.223  1.00  0.00    -0.200 F 
ATOM     86  F   UNL A   1      39.206  36.454  40.205  1.00  0.00    -0.200 F 
ENDBRANCH  52  76
BRANCH  64  87
ATOM     87  C   UNL A   1      43.842  28.817  35.185  1.00  0.00     0.064 A 
ATOM     88  C   UNL A   1      43.714  27.713  36.042  1.00  0.00     0.173 A 
ATOM     89  C   UNL A   1      45.124  29.357  35.000  1.00  0.00     0.173 A 
ATOM     90  F   UNL A   1      42.509  27.167  36.264  1.00  0.00    -0.203 F 
ATOM     91  C   UNL A   1      44.818  27.199  36.719  1.00  0.00     0.198 A 
ATOM     92  C   UNL A   1      46.231  28.818  35.649  1.00  0.00     0.198 A 
ATOM     93  F   UNL A   1      45.305  30.408  34.185  1.00  0.00    -0.203 F 
ATOM     94  F   UNL A   1      44.659  26.189  37.584  1.00  0.00    -0.200 F 
ATOM     95  C   UNL A   1      46.075  27.749  36.518  1.00  0.00     0.200 A 
ATOM     96  F   UNL A   1      47.447  29.341  35.443  1.00  0.00    -0.200 F 
ATOM     97  F   UNL A   1      47.135  27.255  37.172  1.00  0.00    -0.200 F 
ENDBRANCH  64  87
ENDBRANCH  38  39
ENDBRANCH  30  33
ENDBRANCH  28  29
ENDBRANCH  27  28
ENDBRANCH  26  27
ENDBRANCH   1  26
TORSDOF 15
ENDMDL
MODEL 2
REMARK VINA RESULT:     -12.9      0.919      7.316
REMARK SMILES CCOc1cccc(C(=O)Nc2ccc(Cl)c(C(=O)NCCCCNC(=O)c3ccc(-c4c5nc(c(-c6c(F)c(F)c(F)c(F)c6F)c6ccc([nH]6)c(-c6c(F)c(F)c(F)c(F)c6F)c6nc(c(-c7c(F)c(F)c(F)c(F)c7F)c7ccc4[nH]7)C=C6)C=C5)cc3)c2)c1
REMARK SMILES IDX 21 1 20 2 18 3 19 4 17 6 12 7 13 8 91 9 14 10 15 11 16 12
REMARK SMILES IDX 11 13 9 14 10 15 8 17 4 18 5 19 92 20 6 21 7 22 3 23 2 24
REMARK SMILES IDX 1 25 22 26 23 27 24 28 25 29 26 30 27 32 28 33 29 34 90 35
REMARK SMILES IDX 30 36 89 37 31 38 32 39 33 40 83 41 34 42 88 43 82 44 84 45
REMARK SMILES IDX 35 46 87 47 81 48 80 49 36 51 68 52 48 53 67 54 49 55 52 56
REMARK SMILES IDX 66 57 85 58 50 59 51 60 65 62 86 63 53 64 37 65 38 66 46 67
REMARK SMILES IDX 39 68 40 69 44 70 47 71 41 72 42 73 45 74 43 75 69 76 70 77
REMARK SMILES IDX 78 78 71 79 72 80 76 81 79 82 73 83 74 84 77 85 75 86 54 87
REMARK SMILES IDX 55 88 63 89 56 90 57 91 61 92 64 93 58 94 59 95 62 96 60 97
REMARK H PARENT 20 5 11 16 25 31 84 50 52 61
REMARK Flexibility Score: inf
ROOT
ATOM      1  C   UNL A   1      32.849  30.018  26.292  1.00  0.00     0.116 C 
ENDROOT
BRANCH   1   2
ATOM      2  N   UNL A   1      33.447  29.517  25.074  1.00  0.00    -0.352 N 
ATOM      3  C   UNL A   1      33.173  28.454  24.249  1.00  0.00     0.252 C 
ATOM      4  O   UNL A   1      34.041  28.207  23.415  1.00  0.00    -0.269 OA
ATOM      5  H   UNL A   1      34.214  30.053  24.772  1.00  0.00     0.163 HD
BRANCH   3   6
ATOM      6  C   UNL A   1      31.905  27.650  24.296  1.00  0.00     0.060 A 
ATOM      7  C   UNL A   1      30.487  25.961  25.363  1.00  0.00     0.042 A 
ATOM      8  C   UNL A   1      29.450  26.245  24.486  1.00  0.00     0.028 A 
ATOM      9  C   UNL A   1      31.731  26.575  25.185  1.00  0.00     0.041 A 
ATOM     10  C   UNL A   1      29.613  27.253  23.540  1.00  0.00     0.023 A 
ATOM     11  C   UNL A   1      30.813  27.980  23.465  1.00  0.00     0.053 A 
ATOM     12  Cl  UNL A   1      30.782  29.310  22.356  1.00  0.00    -0.083 Cl
BRANCH   7  13
ATOM     13  N   UNL A   1      30.223  25.089  26.428  1.00  0.00    -0.322 N 
ATOM     14  C   UNL A   1      30.546  23.758  26.620  1.00  0.00     0.255 C 
ATOM     15  O   UNL A   1      29.957  23.144  27.513  1.00  0.00    -0.269 OA
ATOM     16  H   UNL A   1      29.719  25.495  27.169  1.00  0.00     0.170 HD
BRANCH  14  17
ATOM     17  C   UNL A   1      31.645  23.053  25.880  1.00  0.00     0.043 A 
ATOM     18  C   UNL A   1      32.488  21.545  24.170  1.00  0.00     0.120 A 
ATOM     19  C   UNL A   1      33.780  21.686  24.675  1.00  0.00     0.046 A 
ATOM     20  C   UNL A   1      31.439  22.279  24.728  1.00  0.00     0.060 A 
ATOM     21  C   UNL A   1      34.024  22.549  25.740  1.00  0.00     0.005 A 
ATOM     22  C   UNL A   1      32.958  23.214  26.353  1.00  0.00     0.014 A 
BRANCH  18  23
ATOM     23  O   UNL A   1      32.299  20.506  23.301  1.00  0.00    -0.494 OA
BRANCH  23  24
ATOM     24  C   UNL A   1      32.713  19.209  23.728  1.00  0.00     0.226 C 
ATOM     25  C   UNL A   1      32.367  18.125  22.721  1.00  0.00     0.049 C 
ENDBRANCH  23  24
ENDBRANCH  18  23
ENDBRANCH  14  17
ENDBRANCH   7  13
ENDBRANCH   3   6
ENDBRANCH   1   2
BRANCH   1  26
ATOM     26  C   UNL A   1      31.619  30.863  25.967  1.00  0.00     0.023 C 
BRANCH  26  27
ATOM     27  C   UNL A   1      31.402  32.000  26.963  1.00  0.00     0.023 C 
BRANCH  27  28
ATOM     28  C   UNL A   1      32.650  32.827  27.245  1.00  0.00     0.116 C 
BRANCH  28  29
ATOM     29  N   UNL A   1      32.354  34.205  27.610  1.00  0.00    -0.352 N 
ATOM     30  C   UNL A   1      32.965  34.991  28.555  1.00  0.00     0.251 C 
ATOM     31  H   UNL A   1      31.617  34.629  27.114  1.00  0.00     0.163 HD
ATOM     32  O   UNL A   1      32.518  36.099  28.833  1.00  0.00    -0.269 OA
BRANCH  30  33
ATOM     33  C   UNL A   1      34.152  34.470  29.258  1.00  0.00     0.039 A 
ATOM     34  C   UNL A   1      33.974  33.779  30.458  1.00  0.00     0.014 A 
ATOM     35  C   UNL A   1      35.428  34.621  28.707  1.00  0.00     0.014 A 
ATOM     36  C   UNL A   1      35.073  33.183  31.073  1.00  0.00     0.010 A 
ATOM     37  C   UNL A   1      36.507  33.955  29.277  1.00  0.00     0.010 A 
ATOM     38  C   UNL A   1      36.341  33.232  30.467  1.00  0.00    -0.014 A 
BRANCH  38  39
ATOM     39  C   UNL A   1      37.493  32.512  31.063  1.00  0.00     0.031 A 
ATOM     40  C   UNL A   1      37.987  32.869  32.435  1.00  0.00     0.074 A 
ATOM     41  C   UNL A   1      38.121  31.563  30.341  1.00  0.00     0.049 A 
ATOM     42  N   UNL A   1      38.963  32.335  33.128  1.00  0.00    -0.248 NA
ATOM     43  C   UNL A   1      37.318  33.991  33.110  1.00  0.00     0.031 C 
ATOM     44  C   UNL A   1      37.777  31.178  28.971  1.00  0.00     0.029 A 
ATOM     45  N   UNL A   1      39.176  30.748  30.660  1.00  0.00    -0.354 N 
ATOM     46  C   UNL A   1      39.030  33.062  34.308  1.00  0.00     0.074 A 
ATOM     47  C   UNL A   1      38.040  34.112  34.215  1.00  0.00     0.031 C 
ATOM     48  C   UNL A   1      38.573  30.168  28.587  1.00  0.00     0.029 A 
ATOM     49  C   UNL A   1      39.505  29.859  29.667  1.00  0.00     0.049 A 
ATOM     50  H   UNL A   1      39.654  30.795  31.520  1.00  0.00     0.167 HD
ATOM     51  C   UNL A   1      39.827  32.856  35.384  1.00  0.00     0.037 A 
ATOM     52  C   UNL A   1      40.445  28.897  29.636  1.00  0.00     0.037 A 
ATOM     53  C   UNL A   1      40.797  31.795  35.477  1.00  0.00     0.049 A 
ATOM     54  C   UNL A   1      41.315  28.686  30.844  1.00  0.00     0.074 A 
ATOM     55  C   UNL A   1      41.596  31.447  36.552  1.00  0.00     0.029 A 
ATOM     56  N   UNL A   1      41.106  30.915  34.449  1.00  0.00    -0.354 N 
ATOM     57  N   UNL A   1      41.301  29.312  31.996  1.00  0.00    -0.248 NA
ATOM     58  C   UNL A   1      42.325  27.624  30.750  1.00  0.00     0.031 C 
ATOM     59  C   UNL A   1      42.431  30.397  36.154  1.00  0.00     0.029 A 
ATOM     60  C   UNL A   1      42.111  30.048  34.852  1.00  0.00     0.049 A 
ATOM     61  H   UNL A   1      40.676  30.907  33.563  1.00  0.00     0.167 HD
ATOM     62  C   UNL A   1      42.280  28.707  32.772  1.00  0.00     0.074 A 
ATOM     63  C   UNL A   1      42.850  27.646  31.966  1.00  0.00     0.031 C 
ATOM     64  C   UNL A   1      42.675  29.003  34.035  1.00  0.00     0.037 A 
BRANCH  51  65
ATOM     65  C   UNL A   1      39.688  33.803  36.541  1.00  0.00     0.064 A 
ATOM     66  C   UNL A   1      40.357  35.036  36.576  1.00  0.00     0.173 A 
ATOM     67  C   UNL A   1      38.855  33.482  37.625  1.00  0.00     0.173 A 
ATOM     68  F   UNL A   1      41.174  35.389  35.572  1.00  0.00    -0.203 F 
ATOM     69  C   UNL A   1      40.228  35.893  37.665  1.00  0.00     0.198 A 
ATOM     70  C   UNL A   1      38.702  34.357  38.697  1.00  0.00     0.198 A 
ATOM     71  F   UNL A   1      38.187  32.318  37.643  1.00  0.00    -0.203 F 
ATOM     72  F   UNL A   1      40.926  37.038  37.701  1.00  0.00    -0.200 F 
ATOM     73  C   UNL A   1      39.396  35.557  38.722  1.00  0.00     0.200 A 
ATOM     74  F   UNL A   1      37.886  34.036  39.711  1.00  0.00    -0.200 F 
ATOM     75  F   UNL A   1      39.271  36.384  39.769  1.00  0.00    -0.200 F 
ENDBRANCH  51  65
BRANCH  52  76
ATOM     76  C   UNL A   1      40.579  28.028  28.437  1.00  0.00     0.064 A 
ATOM     77  C   UNL A   1      41.358  28.432  27.343  1.00  0.00     0.173 A 
ATOM     78  C   UNL A   1      39.937  26.784  28.357  1.00  0.00     0.173 A 
ATOM     79  F   UNL A   1      41.975  29.623  27.365  1.00  0.00    -0.203 F 
ATOM     80  C   UNL A   1      41.473  27.635  26.207  1.00  0.00     0.198 A 
ATOM     81  C   UNL A   1      40.077  25.973  27.231  1.00  0.00     0.198 A 
ATOM     82  F   UNL A   1      39.185  26.348  29.378  1.00  0.00    -0.203 F 
ATOM     83  F   UNL A   1      42.186  28.067  25.157  1.00  0.00    -0.200 F 
ATOM     84  C   UNL A   1      40.837  26.404  26.154  1.00  0.00     0.200 A 
ATOM     85  F   UNL A   1      39.474  24.778  27.191  1.00  0.00    -0.200 F 
ATOM     86  F   UNL A   1      40.952  25.635  25.063  1.00  0.00    -0.200 F 
ENDBRANCH  52  76
BRANCH  64  87
ATOM     87  C   UNL A   1      43.760  28.149  34.627  1.00  0.00     0.064 A 
ATOM     88  C   UNL A   1      43.472  26.951  35.299  1.00  0.00     0.173 A 
ATOM     89  C   UNL A   1      45.106  28.531  34.518  1.00  0.00     0.173 A 
ATOM     90  F   UNL A   1      42.200  26.548  35.443  1.00  0.00    -0.203 F 
ATOM     91  C   UNL A   1      44.485  26.190  35.875  1.00  0.00     0.198 A 
ATOM     92  C   UNL A   1      46.121  27.749  35.063  1.00  0.00     0.198 A 
ATOM     93  F   UNL A   1      45.440  29.663  33.880  1.00  0.00    -0.203 F 
ATOM     94  F   UNL A   1      44.179  25.086  36.570  1.00  0.00    -0.200 F 
ATOM     95  C   UNL A   1      45.809  26.586  35.752  1.00  0.00     0.200 A 
ATOM     96  F   UNL A   1      47.399  28.125  34.931  1.00  0.00    -0.200 F 
ATOM     97  F   UNL A   1      46.783  25.854  36.309  1.00  0.00    -0.200 F 
ENDBRANCH  64  87
ENDBRANCH  38  39
ENDBRANCH  30  33
ENDBRANCH  28  29
ENDBRANCH  27  28
ENDBRANCH  26  27
ENDBRANCH   1  26
TORSDOF 15
ENDMDL
MODEL 3
REMARK VINA RESULT:     -12.9      0.647      7.305
REMARK SMILES CCOc1cccc(C(=O)Nc2ccc(Cl)c(C(=O)NCCCCNC(=O)c3ccc(-c4c5nc(c(-c6c(F)c(F)c(F)c(F)c6F)c6ccc([nH]6)c(-c6c(F)c(F)c(F)c(F)c6F)c6nc(c(-c7c(F)c(F)c(F)c(F)c7F)c7ccc4[nH]7)C=C6)C=C5)cc3)c2)c1
REMARK SMILES IDX 21 1 20 2 18 3 19 4 17 6 12 7 13 8 91 9 14 10 15 11 16 12
REMARK SMILES IDX 11 13 9 14 10 15 8 17 4 18 5 19 92 20 6 21 7 22 3 23 2 24
REMARK SMILES IDX 1 25 22 26 23 27 24 28 25 29 26 30 27 32 28 33 29 34 90 35
REMARK SMILES IDX 30 36 89 37 31 38 32 39 33 40 83 41 34 42 88 43 82 44 84 45
REMARK SMILES IDX 35 46 87 47 81 48 80 49 36 51 68 52 48 53 67 54 49 55 52 56
REMARK SMILES IDX 66 57 85 58 50 59 51 60 65 62 86 63 53 64 37 65 38 66 46 67
REMARK SMILES IDX 39 68 40 69 44 70 47 71 41 72 42 73 45 74 43 75 69 76 70 77
REMARK SMILES IDX 78 78 71 79 72 80 76 81 79 82 73 83 74 84 77 85 75 86 54 87
REMARK SMILES IDX 55 88 63 89 56 90 57 91 61 92 64 93 58 94 59 95 62 96 60 97
REMARK H PARENT 20 5 11 16 25 31 84 50 52 61
REMARK Flexibility Score: inf
ROOT
ATOM      1  C   UNL A   1      32.814  29.945  26.350  1.00  0.00     0.116 C 
ENDROOT
BRANCH   1   2
ATOM      2  N   UNL A   1      33.450  29.411  25.166  1.00  0.00    -0.352 N 
ATOM      3  C   UNL A   1      33.200  28.328  24.359  1.00  0.00     0.252 C 
ATOM      4  O   UNL A   1      34.095  28.057  23.561  1.00  0.00    -0.269 OA
ATOM      5  H   UNL A   1      34.229  29.937  24.876  1.00  0.00     0.163 HD
BRANCH   3   6
ATOM      6  C   UNL A   1      31.928  27.529  24.383  1.00  0.00     0.060 A 
ATOM      7  C   UNL A   1      30.485  25.844  25.424  1.00  0.00     0.042 A 
ATOM      8  C   UNL A   1      29.463  26.135  24.530  1.00  0.00     0.028 A 
ATOM      9  C   UNL A   1      31.735  26.453  25.267  1.00  0.00     0.041 A 
ATOM     10  C   UNL A   1      29.647  27.144  23.589  1.00  0.00     0.023 A 
ATOM     11  C   UNL A   1      30.851  27.866  23.536  1.00  0.00     0.053 A 
ATOM     12  Cl  UNL A   1      30.844  29.199  22.429  1.00  0.00    -0.083 Cl
BRANCH   7  13
ATOM     13  N   UNL A   1      30.200  24.971  26.481  1.00  0.00    -0.322 N 
ATOM     14  C   UNL A   1      30.492  23.631  26.664  1.00  0.00     0.255 C 
ATOM     15  O   UNL A   1      29.888  23.025  27.552  1.00  0.00    -0.269 OA
ATOM     16  H   UNL A   1      29.704  25.383  27.225  1.00  0.00     0.170 HD
BRANCH  14  17
ATOM     17  C   UNL A   1      31.575  22.907  25.920  1.00  0.00     0.043 A 
ATOM     18  C   UNL A   1      33.748  21.829  25.758  1.00  0.00     0.120 A 
ATOM     19  C   UNL A   1      33.583  21.691  24.381  1.00  0.00     0.046 A 
ATOM     20  C   UNL A   1      32.719  22.372  26.531  1.00  0.00     0.060 A 
ATOM     21  C   UNL A   1      32.399  22.101  23.774  1.00  0.00     0.005 A 
ATOM     22  C   UNL A   1      31.408  22.726  24.537  1.00  0.00     0.014 A 
BRANCH  18  23
ATOM     23  O   UNL A   1      35.017  21.632  26.229  1.00  0.00    -0.494 OA
BRANCH  23  24
ATOM     24  C   UNL A   1      36.086  22.238  25.504  1.00  0.00     0.226 C 
ATOM     25  C   UNL A   1      36.292  23.697  25.877  1.00  0.00     0.049 C 
ENDBRANCH  23  24
ENDBRANCH  18  23
ENDBRANCH  14  17
ENDBRANCH   7  13
ENDBRANCH   3   6
ENDBRANCH   1   2
BRANCH   1  26
ATOM     26  C   UNL A   1      31.618  30.810  25.961  1.00  0.00     0.023 C 
BRANCH  26  27
ATOM     27  C   UNL A   1      31.381  31.964  26.933  1.00  0.00     0.023 C 
BRANCH  27  28
ATOM     28  C   UNL A   1      32.631  32.775  27.254  1.00  0.00     0.116 C 
BRANCH  28  29
ATOM     29  N   UNL A   1      32.342  34.158  27.603  1.00  0.00    -0.352 N 
ATOM     30  C   UNL A   1      32.962  34.953  28.535  1.00  0.00     0.251 C 
ATOM     31  H   UNL A   1      31.605  34.579  27.105  1.00  0.00     0.163 HD
ATOM     32  O   UNL A   1      32.521  36.066  28.801  1.00  0.00    -0.269 OA
BRANCH  30  33
ATOM     33  C   UNL A   1      34.150  34.435  29.238  1.00  0.00     0.039 A 
ATOM     34  C   UNL A   1      33.972  33.721  30.424  1.00  0.00     0.014 A 
ATOM     35  C   UNL A   1      35.428  34.613  28.701  1.00  0.00     0.014 A 
ATOM     36  C   UNL A   1      35.074  33.129  31.037  1.00  0.00     0.010 A 
ATOM     37  C   UNL A   1      36.511  33.952  29.267  1.00  0.00     0.010 A 
ATOM     38  C   UNL A   1      36.346  33.205  30.443  1.00  0.00    -0.014 A 
BRANCH  38  39
ATOM     39  C   UNL A   1      37.503  32.491  31.036  1.00  0.00     0.031 A 
ATOM     40  C   UNL A   1      37.996  32.845  32.409  1.00  0.00     0.074 A 
ATOM     41  C   UNL A   1      38.135  31.548  30.311  1.00  0.00     0.049 A 
ATOM     42  N   UNL A   1      38.975  32.316  33.099  1.00  0.00    -0.248 NA
ATOM     43  C   UNL A   1      37.320  33.961  33.088  1.00  0.00     0.031 C 
ATOM     44  C   UNL A   1      37.793  31.164  28.939  1.00  0.00     0.029 A 
ATOM     45  N   UNL A   1      39.196  30.738  30.626  1.00  0.00    -0.354 N 
ATOM     46  C   UNL A   1      39.039  33.039  34.282  1.00  0.00     0.074 A 
ATOM     47  C   UNL A   1      38.042  34.083  34.192  1.00  0.00     0.031 C 
ATOM     48  C   UNL A   1      38.594  30.161  28.551  1.00  0.00     0.029 A 
ATOM     49  C   UNL A   1      39.529  29.854  29.629  1.00  0.00     0.049 A 
ATOM     50  H   UNL A   1      39.674  30.785  31.485  1.00  0.00     0.167 HD
ATOM     51  C   UNL A   1      39.838  32.833  35.356  1.00  0.00     0.037 A 
ATOM     52  C   UNL A   1      40.474  28.898  29.594  1.00  0.00     0.037 A 
ATOM     53  C   UNL A   1      40.814  31.778  35.444  1.00  0.00     0.049 A 
ATOM     54  C   UNL A   1      41.347  28.688  30.801  1.00  0.00     0.074 A 
ATOM     55  C   UNL A   1      41.616  31.432  36.518  1.00  0.00     0.029 A 
ATOM     56  N   UNL A   1      41.128  30.904  34.413  1.00  0.00    -0.354 N 
ATOM     57  N   UNL A   1      41.331  29.310  31.955  1.00  0.00    -0.248 NA
ATOM     58  C   UNL A   1      42.363  27.632  30.703  1.00  0.00     0.031 C 
ATOM     59  C   UNL A   1      42.457  30.388  36.116  1.00  0.00     0.029 A 
ATOM     60  C   UNL A   1      42.138  30.042  34.813  1.00  0.00     0.049 A 
ATOM     61  H   UNL A   1      40.697  30.896  33.528  1.00  0.00     0.167 HD
ATOM     62  C   UNL A   1      42.313  28.708  32.728  1.00  0.00     0.074 A 
ATOM     63  C   UNL A   1      42.889  27.653  31.918  1.00  0.00     0.031 C 
ATOM     64  C   UNL A   1      42.708  29.003  33.992  1.00  0.00     0.037 A 
BRANCH  51  65
ATOM     65  C   UNL A   1      39.694  33.776  36.517  1.00  0.00     0.064 A 
ATOM     66  C   UNL A   1      40.362  35.010  36.558  1.00  0.00     0.173 A 
ATOM     67  C   UNL A   1      38.859  33.450  37.596  1.00  0.00     0.173 A 
ATOM     68  F   UNL A   1      41.182  35.368  35.558  1.00  0.00    -0.203 F 
ATOM     69  C   UNL A   1      40.229  35.862  37.650  1.00  0.00     0.198 A 
ATOM     70  C   UNL A   1      38.701  34.320  38.671  1.00  0.00     0.198 A 
ATOM     71  F   UNL A   1      38.192  32.285  37.608  1.00  0.00    -0.203 F 
ATOM     72  F   UNL A   1      40.924  37.008  37.693  1.00  0.00    -0.200 F 
ATOM     73  C   UNL A   1      39.394  35.521  38.703  1.00  0.00     0.200 A 
ATOM     74  F   UNL A   1      37.883  33.995  39.682  1.00  0.00    -0.200 F 
ATOM     75  F   UNL A   1      39.264  36.344  39.753  1.00  0.00    -0.200 F 
ENDBRANCH  51  65
BRANCH  52  76
ATOM     76  C   UNL A   1      40.613  28.033  28.393  1.00  0.00     0.064 A 
ATOM     77  C   UNL A   1      39.966  26.791  28.325  1.00  0.00     0.173 A 
ATOM     78  C   UNL A   1      41.392  28.423  27.294  1.00  0.00     0.173 A 
ATOM     79  F   UNL A   1      39.227  26.365  29.361  1.00  0.00    -0.203 F 
ATOM     80  C   UNL A   1      40.108  25.963  27.214  1.00  0.00     0.198 A 
ATOM     81  C   UNL A   1      41.509  27.607  26.169  1.00  0.00     0.198 A 
ATOM     82  F   UNL A   1      42.028  29.604  27.305  1.00  0.00    -0.203 F 
ATOM     83  F   UNL A   1      39.516  24.761  27.197  1.00  0.00    -0.200 F 
ATOM     84  C   UNL A   1      40.875  26.375  26.135  1.00  0.00     0.200 A 
ATOM     85  F   UNL A   1      42.238  28.016  25.122  1.00  0.00    -0.200 F 
ATOM     86  F   UNL A   1      41.006  25.581  25.064  1.00  0.00    -0.200 F 
ENDBRANCH  52  76
BRANCH  64  87
ATOM     87  C   UNL A   1      43.799  28.153  34.580  1.00  0.00     0.064 A 
ATOM     88  C   UNL A   1      43.517  26.952  35.251  1.00  0.00     0.173 A 
ATOM     89  C   UNL A   1      45.143  28.542  34.469  1.00  0.00     0.173 A 
ATOM     90  F   UNL A   1      42.248  26.543  35.397  1.00  0.00    -0.203 F 
ATOM     91  C   UNL A   1      44.536  26.195  35.823  1.00  0.00     0.198 A 
ATOM     92  C   UNL A   1      46.162  27.764  35.011  1.00  0.00     0.198 A 
ATOM     93  F   UNL A   1      45.469  29.676  33.832  1.00  0.00    -0.203 F 
ATOM     94  F   UNL A   1      44.237  25.089  36.517  1.00  0.00    -0.200 F 
ATOM     95  C   UNL A   1      45.857  26.599  35.698  1.00  0.00     0.200 A 
ATOM     96  F   UNL A   1      47.439  28.147  34.876  1.00  0.00    -0.200 F 
ATOM     97  F   UNL A   1      46.836  25.871  36.251  1.00  0.00    -0.200 F 
ENDBRANCH  64  87
ENDBRANCH  38  39
ENDBRANCH  30  33
ENDBRANCH  28  29
ENDBRANCH  27  28
ENDBRANCH  26  27
ENDBRANCH   1  26
TORSDOF 15
ENDMDL
