MODEL 1
REMARK VINA RESULT:     -11.2      0.000      0.000
REMARK SMILES C#CCN(CC(=O)NCCCCNC(=O)c1ccc(-c2c3nc(c(-c4c(F)c(F)c(F)c(F)c4F)c4ccc([nH]4)c(-c4c(F)c(F)c(F)c(F)c4F)c4nc(c(-c5c(F)c(F)c(F)c(F)c5F)c5ccc2[nH]5)C=C4)C=C3)cc1)C(=O)N(C)[C@H](C)c1cccs1
REMARK SMILES IDX 9 1 8 2 6 3 7 4 5 6 4 7 3 8 2 9 1 10 79 11 80 12 81 13 82 14
REMARK SMILES IDX 83 15 84 16 85 17 86 18 89 19 87 20 88 21 10 22 11 23 12 24
REMARK SMILES IDX 13 25 14 26 15 28 16 29 17 30 78 31 18 32 77 33 19 34 20 35
REMARK SMILES IDX 21 36 71 37 22 38 76 39 70 40 72 41 23 42 75 43 69 44 68 45
REMARK SMILES IDX 24 47 56 48 36 49 55 50 37 51 40 52 54 53 73 54 38 55 39 56
REMARK SMILES IDX 53 58 74 59 41 60 25 61 26 62 34 63 27 64 28 65 32 66 35 67
REMARK SMILES IDX 29 68 30 69 33 70 31 71 57 72 58 73 66 74 59 75 60 76 64 77
REMARK SMILES IDX 67 78 61 79 62 80 65 81 63 82 42 83 43 84 51 85 44 86 45 87
REMARK SMILES IDX 49 88 52 89 46 90 47 91 50 92 48 93
REMARK H PARENT 8 5 13 27 72 46 40 57
REMARK Flexibility Score: inf
ROOT
ATOM      1  C   UNL A   1      35.617  20.746  25.363  1.00  0.00     0.116 C 
ENDROOT
BRANCH   1   2
ATOM      2  N   UNL A   1      35.204  21.508  26.522  1.00  0.00    -0.355 N 
ATOM      3  C   UNL A   1      33.943  21.815  26.942  1.00  0.00     0.239 C 
ATOM      4  O   UNL A   1      33.810  22.249  28.090  1.00  0.00    -0.273 OA
ATOM      5  H   UNL A   1      35.934  21.851  27.086  1.00  0.00     0.163 HD
BRANCH   3   6
ATOM      6  C   UNL A   1      32.719  21.491  26.078  1.00  0.00     0.222 C 
BRANCH   6   7
ATOM      7  N   UNL A   1      31.978  22.664  25.605  1.00  0.00    -0.304 N 
BRANCH   7   8
ATOM      8  C   UNL A   1      31.795  22.766  24.148  1.00  0.00     0.211 C 
BRANCH   8   9
ATOM      9  C   UNL A   1      33.064  22.958  23.426  1.00  0.00    -0.085 C 
ATOM     10  C   UNL A   1      34.064  23.071  22.774  1.00  0.00     0.006 C 
ENDBRANCH   8   9
ENDBRANCH   7   8
BRANCH   7  11
ATOM     11  C   UNL A   1      31.505  23.744  26.328  1.00  0.00     0.321 C 
ATOM     12  O   UNL A   1      30.760  23.470  27.275  1.00  0.00    -0.248 OA
BRANCH  11  13
ATOM     13  N   UNL A   1      31.869  25.058  26.066  1.00  0.00    -0.320 N 
ATOM     14  C   UNL A   1      33.231  25.582  26.068  1.00  0.00     0.149 C 
BRANCH  13  15
ATOM     15  C   UNL A   1      30.798  26.118  26.056  1.00  0.00     0.124 C 
ATOM     16  C   UNL A   1      29.806  26.148  24.874  1.00  0.00     0.037 C 
BRANCH  15  17
ATOM     17  C   UNL A   1      31.315  27.544  26.285  1.00  0.00     0.027 A 
ATOM     18  C   UNL A   1      31.639  28.241  27.438  1.00  0.00     0.017 A 
ATOM     19  S   UNL A   1      31.586  28.542  24.892  1.00  0.00    -0.147 S 
ATOM     20  C   UNL A   1      32.148  29.550  27.171  1.00  0.00     0.012 A 
ATOM     21  C   UNL A   1      32.234  29.809  25.824  1.00  0.00     0.065 A 
ENDBRANCH  15  17
ENDBRANCH  13  15
ENDBRANCH  11  13
ENDBRANCH   7  11
ENDBRANCH   6   7
ENDBRANCH   3   6
ENDBRANCH   1   2
BRANCH   1  22
ATOM     22  C   UNL A   1      37.010  21.127  24.872  1.00  0.00     0.023 C 
BRANCH  22  23
ATOM     23  C   UNL A   1      38.040  20.003  24.957  1.00  0.00     0.023 C 
BRANCH  23  24
ATOM     24  C   UNL A   1      39.300  20.352  25.734  1.00  0.00     0.116 C 
BRANCH  24  25
ATOM     25  N   UNL A   1      40.215  19.227  25.868  1.00  0.00    -0.352 N 
ATOM     26  C   UNL A   1      41.565  19.245  26.122  1.00  0.00     0.251 C 
ATOM     27  H   UNL A   1      39.813  18.335  25.762  1.00  0.00     0.163 HD
ATOM     28  O   UNL A   1      42.226  18.215  26.063  1.00  0.00    -0.269 OA
BRANCH  26  29
ATOM     29  C   UNL A   1      42.219  20.532  26.432  1.00  0.00     0.039 A 
ATOM     30  C   UNL A   1      42.688  21.319  25.379  1.00  0.00     0.014 A 
ATOM     31  C   UNL A   1      42.319  20.978  27.752  1.00  0.00     0.014 A 
ATOM     32  C   UNL A   1      43.198  22.589  25.648  1.00  0.00     0.010 A 
ATOM     33  C   UNL A   1      42.739  22.278  28.007  1.00  0.00     0.010 A 
ATOM     34  C   UNL A   1      43.187  23.095  26.959  1.00  0.00    -0.014 A 
BRANCH  34  35
ATOM     35  C   UNL A   1      43.629  24.483  27.246  1.00  0.00     0.031 A 
ATOM     36  C   UNL A   1      42.641  25.512  27.715  1.00  0.00     0.074 A 
ATOM     37  C   UNL A   1      44.910  24.833  27.019  1.00  0.00     0.049 A 
ATOM     38  N   UNL A   1      42.826  26.783  27.970  1.00  0.00    -0.248 NA
ATOM     39  C   UNL A   1      41.253  25.061  27.891  1.00  0.00     0.031 C 
ATOM     40  C   UNL A   1      45.950  23.938  26.509  1.00  0.00     0.029 A 
ATOM     41  N   UNL A   1      45.552  26.035  27.176  1.00  0.00    -0.354 N 
ATOM     42  C   UNL A   1      41.579  27.284  28.320  1.00  0.00     0.074 A 
ATOM     43  C   UNL A   1      40.635  26.195  28.184  1.00  0.00     0.031 C 
ATOM     44  C   UNL A   1      47.105  24.615  26.418  1.00  0.00     0.029 A 
ATOM     45  C   UNL A   1      46.876  26.002  26.814  1.00  0.00     0.049 A 
ATOM     46  H   UNL A   1      45.106  26.844  27.516  1.00  0.00     0.167 HD
ATOM     47  C   UNL A   1      41.255  28.531  28.735  1.00  0.00     0.037 A 
ATOM     48  C   UNL A   1      47.800  26.982  26.784  1.00  0.00     0.037 A 
ATOM     49  C   UNL A   1      42.205  29.606  28.871  1.00  0.00     0.049 A 
ATOM     50  C   UNL A   1      47.417  28.364  27.235  1.00  0.00     0.074 A 
ATOM     51  C   UNL A   1      41.995  30.885  29.355  1.00  0.00     0.029 A 
ATOM     52  N   UNL A   1      43.542  29.534  28.502  1.00  0.00    -0.354 N 
ATOM     53  N   UNL A   1      46.255  28.806  27.652  1.00  0.00    -0.248 NA
ATOM     54  C   UNL A   1      48.475  29.383  27.218  1.00  0.00     0.031 C 
ATOM     55  C   UNL A   1      43.180  31.611  29.200  1.00  0.00     0.029 A 
ATOM     56  C   UNL A   1      44.156  30.761  28.702  1.00  0.00     0.049 A 
ATOM     57  H   UNL A   1      43.988  28.729  28.150  1.00  0.00     0.167 HD
ATOM     58  C   UNL A   1      46.445  30.145  27.967  1.00  0.00     0.074 A 
ATOM     59  C   UNL A   1      47.840  30.438  27.711  1.00  0.00     0.031 C 
ATOM     60  C   UNL A   1      45.544  31.046  28.432  1.00  0.00     0.037 A 
BRANCH  47  61
ATOM     61  C   UNL A   1      39.808  28.807  29.040  1.00  0.00     0.064 A 
ATOM     62  C   UNL A   1      39.264  28.615  30.320  1.00  0.00     0.173 A 
ATOM     63  C   UNL A   1      38.950  29.275  28.032  1.00  0.00     0.173 A 
ATOM     64  F   UNL A   1      40.035  28.163  31.322  1.00  0.00    -0.203 F 
ATOM     65  C   UNL A   1      37.910  28.830  30.565  1.00  0.00     0.198 A 
ATOM     66  C   UNL A   1      37.607  29.531  28.291  1.00  0.00     0.198 A 
ATOM     67  F   UNL A   1      39.415  29.486  26.791  1.00  0.00    -0.203 F 
ATOM     68  F   UNL A   1      37.400  28.565  31.777  1.00  0.00    -0.200 F 
ATOM     69  C   UNL A   1      37.084  29.293  29.553  1.00  0.00     0.200 A 
ATOM     70  F   UNL A   1      36.815  29.997  27.316  1.00  0.00    -0.200 F 
ATOM     71  F   UNL A   1      35.782  29.500  29.791  1.00  0.00    -0.200 F 
ENDBRANCH  47  61
BRANCH  48  72
ATOM     72  C   UNL A   1      49.176  26.674  26.312  1.00  0.00     0.064 A 
ATOM     73  C   UNL A   1      50.128  26.107  27.169  1.00  0.00     0.173 A 
ATOM     74  C   UNL A   1      49.554  26.912  24.982  1.00  0.00     0.173 A 
ATOM     75  F   UNL A   1      49.822  25.877  28.454  1.00  0.00    -0.203 F 
ATOM     76  C   UNL A   1      51.410  25.798  26.717  1.00  0.00     0.198 A 
ATOM     77  C   UNL A   1      50.824  26.573  24.523  1.00  0.00     0.198 A 
ATOM     78  F   UNL A   1      48.678  27.448  24.120  1.00  0.00    -0.203 F 
ATOM     79  F   UNL A   1      52.314  25.291  27.565  1.00  0.00    -0.200 F 
ATOM     80  C   UNL A   1      51.754  26.022  25.391  1.00  0.00     0.200 A 
ATOM     81  F   UNL A   1      51.144  26.773  23.237  1.00  0.00    -0.200 F 
ATOM     82  F   UNL A   1      52.981  25.711  24.952  1.00  0.00    -0.200 F 
ENDBRANCH  48  72
BRANCH  60  83
ATOM     83  C   UNL A   1      46.042  32.437  28.722  1.00  0.00     0.064 A 
ATOM     84  C   UNL A   1      45.989  33.460  27.762  1.00  0.00     0.173 A 
ATOM     85  C   UNL A   1      46.540  32.759  29.995  1.00  0.00     0.173 A 
ATOM     86  F   UNL A   1      45.534  33.205  26.526  1.00  0.00    -0.203 F 
ATOM     87  C   UNL A   1      46.442  34.743  28.058  1.00  0.00     0.198 A 
ATOM     88  C   UNL A   1      46.956  34.052  30.298  1.00  0.00     0.198 A 
ATOM     89  F   UNL A   1      46.607  31.822  30.952  1.00  0.00    -0.203 F 
ATOM     90  F   UNL A   1      46.434  35.688  27.108  1.00  0.00    -0.200 F 
ATOM     91  C   UNL A   1      46.916  35.041  29.326  1.00  0.00     0.200 A 
ATOM     92  F   UNL A   1      47.393  34.342  31.531  1.00  0.00    -0.200 F 
ATOM     93  F   UNL A   1      47.340  36.279  29.612  1.00  0.00    -0.200 F 
ENDBRANCH  60  83
ENDBRANCH  34  35
ENDBRANCH  26  29
ENDBRANCH  24  25
ENDBRANCH  23  24
ENDBRANCH  22  23
ENDBRANCH   1  22
TORSDOF 18
ENDMDL
MODEL 2
REMARK VINA RESULT:     -11.2      5.655     11.074
REMARK SMILES C#CCN(CC(=O)NCCCCNC(=O)c1ccc(-c2c3nc(c(-c4c(F)c(F)c(F)c(F)c4F)c4ccc([nH]4)c(-c4c(F)c(F)c(F)c(F)c4F)c4nc(c(-c5c(F)c(F)c(F)c(F)c5F)c5ccc2[nH]5)C=C4)C=C3)cc1)C(=O)N(C)[C@H](C)c1cccs1
REMARK SMILES IDX 9 1 8 2 6 3 7 4 5 6 4 7 3 8 2 9 1 10 79 11 80 12 81 13 82 14
REMARK SMILES IDX 83 15 84 16 85 17 86 18 89 19 87 20 88 21 10 22 11 23 12 24
REMARK SMILES IDX 13 25 14 26 15 28 16 29 17 30 78 31 18 32 77 33 19 34 20 35
REMARK SMILES IDX 21 36 71 37 22 38 76 39 70 40 72 41 23 42 75 43 69 44 68 45
REMARK SMILES IDX 24 47 56 48 36 49 55 50 37 51 40 52 54 53 73 54 38 55 39 56
REMARK SMILES IDX 53 58 74 59 41 60 25 61 26 62 34 63 27 64 28 65 32 66 35 67
REMARK SMILES IDX 29 68 30 69 33 70 31 71 57 72 58 73 66 74 59 75 60 76 64 77
REMARK SMILES IDX 67 78 61 79 62 80 65 81 63 82 42 83 43 84 51 85 44 86 45 87
REMARK SMILES IDX 49 88 52 89 46 90 47 91 50 92 48 93
REMARK H PARENT 8 5 13 27 72 46 40 57
REMARK Flexibility Score: inf
ROOT
ATOM      1  C   UNL A   1      33.339  30.087  26.561  1.00  0.00     0.116 C 
ENDROOT
BRANCH   1   2
ATOM      2  N   UNL A   1      33.790  29.403  25.369  1.00  0.00    -0.355 N 
ATOM      3  C   UNL A   1      33.811  28.064  25.102  1.00  0.00     0.239 C 
ATOM      4  O   UNL A   1      33.991  27.714  23.933  1.00  0.00    -0.273 OA
ATOM      5  H   UNL A   1      34.129  29.983  24.649  1.00  0.00     0.163 HD
BRANCH   3   6
ATOM      6  C   UNL A   1      33.471  27.036  26.187  1.00  0.00     0.222 C 
BRANCH   6   7
ATOM      7  N   UNL A   1      32.272  26.238  25.917  1.00  0.00    -0.304 N 
BRANCH   7   8
ATOM      8  C   UNL A   1      31.003  26.982  25.859  1.00  0.00     0.211 C 
BRANCH   8   9
ATOM      9  C   UNL A   1      30.485  27.122  24.488  1.00  0.00    -0.085 C 
ATOM     10  C   UNL A   1      30.137  27.203  23.343  1.00  0.00     0.006 C 
ENDBRANCH   8   9
ENDBRANCH   7   8
BRANCH   7  11
ATOM     11  C   UNL A   1      32.147  24.865  25.802  1.00  0.00     0.321 C 
ATOM     12  O   UNL A   1      31.952  24.255  26.859  1.00  0.00    -0.248 OA
BRANCH  11  13
ATOM     13  N   UNL A   1      32.178  24.193  24.588  1.00  0.00    -0.320 N 
ATOM     14  C   UNL A   1      31.163  23.266  24.100  1.00  0.00     0.149 C 
BRANCH  13  15
ATOM     15  C   UNL A   1      33.469  24.164  23.809  1.00  0.00     0.124 C 
ATOM     16  C   UNL A   1      33.456  23.558  22.390  1.00  0.00     0.037 C 
BRANCH  15  17
ATOM     17  C   UNL A   1      34.657  23.569  24.576  1.00  0.00     0.027 A 
ATOM     18  C   UNL A   1      35.767  24.150  25.167  1.00  0.00     0.017 A 
ATOM     19  S   UNL A   1      34.696  21.849  24.800  1.00  0.00    -0.147 S 
ATOM     20  C   UNL A   1      36.601  23.200  25.836  1.00  0.00     0.012 A 
ATOM     21  C   UNL A   1      36.093  21.925  25.769  1.00  0.00     0.065 A 
ENDBRANCH  15  17
ENDBRANCH  13  15
ENDBRANCH  11  13
ENDBRANCH   7  11
ENDBRANCH   6   7
ENDBRANCH   3   6
ENDBRANCH   1   2
BRANCH   1  22
ATOM     22  C   UNL A   1      31.863  30.470  26.498  1.00  0.00     0.023 C 
BRANCH  22  23
ATOM     23  C   UNL A   1      31.575  31.933  26.826  1.00  0.00     0.023 C 
BRANCH  23  24
ATOM     24  C   UNL A   1      32.768  32.713  27.357  1.00  0.00     0.116 C 
BRANCH  24  25
ATOM     25  N   UNL A   1      32.459  34.109  27.627  1.00  0.00    -0.352 N 
ATOM     26  C   UNL A   1      33.020  34.947  28.561  1.00  0.00     0.251 C 
ATOM     27  H   UNL A   1      31.754  34.507  27.067  1.00  0.00     0.163 HD
ATOM     28  O   UNL A   1      32.550  36.060  28.764  1.00  0.00    -0.269 OA
BRANCH  26  29
ATOM     29  C   UNL A   1      34.176  34.472  29.346  1.00  0.00     0.039 A 
ATOM     30  C   UNL A   1      33.943  33.747  30.516  1.00  0.00     0.014 A 
ATOM     31  C   UNL A   1      35.480  34.699  28.899  1.00  0.00     0.014 A 
ATOM     32  C   UNL A   1      35.022  33.190  31.203  1.00  0.00     0.010 A 
ATOM     33  C   UNL A   1      36.543  34.065  29.530  1.00  0.00     0.010 A 
ATOM     34  C   UNL A   1      36.326  33.308  30.691  1.00  0.00    -0.014 A 
BRANCH  34  35
ATOM     35  C   UNL A   1      37.471  32.633  31.353  1.00  0.00     0.031 A 
ATOM     36  C   UNL A   1      38.137  31.456  30.701  1.00  0.00     0.074 A 
ATOM     37  C   UNL A   1      37.866  33.040  32.574  1.00  0.00     0.049 A 
ATOM     38  N   UNL A   1      39.116  30.707  31.144  1.00  0.00    -0.248 NA
ATOM     39  C   UNL A   1      37.614  31.045  29.389  1.00  0.00     0.031 C 
ATOM     40  C   UNL A   1      37.259  34.133  33.336  1.00  0.00     0.029 A 
ATOM     41  N   UNL A   1      38.861  32.574  33.396  1.00  0.00    -0.354 N 
ATOM     42  C   UNL A   1      39.314  29.732  30.176  1.00  0.00     0.074 A 
ATOM     43  C   UNL A   1      38.313  29.946  29.152  1.00  0.00     0.031 C 
ATOM     44  C   UNL A   1      37.911  34.271  34.501  1.00  0.00     0.029 A 
ATOM     45  C   UNL A   1      38.946  33.244  34.591  1.00  0.00     0.049 A 
ATOM     46  H   UNL A   1      39.459  31.831  33.151  1.00  0.00     0.167 HD
ATOM     47  C   UNL A   1      40.256  28.760  30.135  1.00  0.00     0.037 A 
ATOM     48  C   UNL A   1      39.751  33.043  35.652  1.00  0.00     0.037 A 
ATOM     49  C   UNL A   1      41.251  28.561  31.157  1.00  0.00     0.049 A 
ATOM     50  C   UNL A   1      40.781  31.949  35.594  1.00  0.00     0.074 A 
ATOM     51  C   UNL A   1      42.296  27.654  31.177  1.00  0.00     0.029 A 
ATOM     52  N   UNL A   1      41.311  29.265  32.354  1.00  0.00    -0.354 N 
ATOM     53  N   UNL A   1      41.020  31.089  34.634  1.00  0.00    -0.248 NA
ATOM     54  C   UNL A   1      41.657  31.802  36.763  1.00  0.00     0.031 C 
ATOM     55  C   UNL A   1      42.935  27.751  32.418  1.00  0.00     0.029 A 
ATOM     56  C   UNL A   1      42.346  28.778  33.139  1.00  0.00     0.049 A 
ATOM     57  H   UNL A   1      40.707  30.000  32.606  1.00  0.00     0.167 HD
ATOM     58  C   UNL A   1      42.086  30.313  35.071  1.00  0.00     0.074 A 
ATOM     59  C   UNL A   1      42.459  30.819  36.376  1.00  0.00     0.031 C 
ATOM     60  C   UNL A   1      42.701  29.280  34.443  1.00  0.00     0.037 A 
BRANCH  47  61
ATOM     61  C   UNL A   1      40.232  27.820  28.961  1.00  0.00     0.064 A 
ATOM     62  C   UNL A   1      39.501  26.622  28.977  1.00  0.00     0.173 A 
ATOM     63  C   UNL A   1      40.952  28.127  27.795  1.00  0.00     0.173 A 
ATOM     64  F   UNL A   1      38.798  26.273  30.067  1.00  0.00    -0.203 F 
ATOM     65  C   UNL A   1      39.534  25.744  27.896  1.00  0.00     0.198 A 
ATOM     66  C   UNL A   1      40.948  27.268  26.699  1.00  0.00     0.198 A 
ATOM     67  F   UNL A   1      41.662  29.263  27.717  1.00  0.00    -0.203 F 
ATOM     68  F   UNL A   1      38.890  24.571  27.968  1.00  0.00    -0.200 F 
ATOM     69  C   UNL A   1      40.252  26.071  26.756  1.00  0.00     0.200 A 
ATOM     70  F   UNL A   1      41.628  27.596  25.592  1.00  0.00    -0.200 F 
ATOM     71  F   UNL A   1      40.284  25.226  25.717  1.00  0.00    -0.200 F 
ENDBRANCH  47  61
BRANCH  48  72
ATOM     72  C   UNL A   1      39.608  33.910  36.852  1.00  0.00     0.064 A 
ATOM     73  C   UNL A   1      40.226  35.165  36.921  1.00  0.00     0.173 A 
ATOM     74  C   UNL A   1      38.820  33.510  37.943  1.00  0.00     0.173 A 
ATOM     75  F   UNL A   1      41.005  35.584  35.913  1.00  0.00    -0.203 F 
ATOM     76  C   UNL A   1      40.071  35.984  38.037  1.00  0.00     0.198 A 
ATOM     77  C   UNL A   1      38.638  34.343  39.044  1.00  0.00     0.198 A 
ATOM     78  F   UNL A   1      38.202  32.320  37.924  1.00  0.00    -0.203 F 
ATOM     79  F   UNL A   1      40.703  37.163  38.095  1.00  0.00    -0.200 F 
ATOM     80  C   UNL A   1      39.269  35.577  39.094  1.00  0.00     0.200 A 
ATOM     81  F   UNL A   1      37.847  33.952  40.052  1.00  0.00    -0.200 F 
ATOM     82  F   UNL A   1      39.106  36.371  40.160  1.00  0.00    -0.200 F 
ENDBRANCH  48  72
BRANCH  60  83
ATOM     83  C   UNL A   1      43.865  28.637  35.147  1.00  0.00     0.064 A 
ATOM     84  C   UNL A   1      45.179  29.106  34.991  1.00  0.00     0.173 A 
ATOM     85  C   UNL A   1      43.655  27.561  36.025  1.00  0.00     0.173 A 
ATOM     86  F   UNL A   1      45.439  30.123  34.156  1.00  0.00    -0.203 F 
ATOM     87  C   UNL A   1      46.239  28.504  35.664  1.00  0.00     0.198 A 
ATOM     88  C   UNL A   1      44.712  26.987  36.725  1.00  0.00     0.198 A 
ATOM     89  F   UNL A   1      42.420  27.076  36.218  1.00  0.00    -0.203 F 
ATOM     90  F   UNL A   1      47.491  28.933  35.455  1.00  0.00    -0.200 F 
ATOM     91  C   UNL A   1      46.005  27.452  36.537  1.00  0.00     0.200 A 
ATOM     92  F   UNL A   1      44.479  25.986  37.584  1.00  0.00    -0.200 F 
ATOM     93  F   UNL A   1      47.025  26.882  37.192  1.00  0.00    -0.200 F 
ENDBRANCH  60  83
ENDBRANCH  34  35
ENDBRANCH  26  29
ENDBRANCH  24  25
ENDBRANCH  23  24
ENDBRANCH  22  23
ENDBRANCH   1  22
TORSDOF 18
ENDMDL
MODEL 3
REMARK VINA RESULT:     -10.8      0.613      7.500
REMARK SMILES C#CCN(CC(=O)NCCCCNC(=O)c1ccc(-c2c3nc(c(-c4c(F)c(F)c(F)c(F)c4F)c4ccc([nH]4)c(-c4c(F)c(F)c(F)c(F)c4F)c4nc(c(-c5c(F)c(F)c(F)c(F)c5F)c5ccc2[nH]5)C=C4)C=C3)cc1)C(=O)N(C)[C@H](C)c1cccs1
REMARK SMILES IDX 9 1 8 2 6 3 7 4 5 6 4 7 3 8 2 9 1 10 79 11 80 12 81 13 82 14
REMARK SMILES IDX 83 15 84 16 85 17 86 18 89 19 87 20 88 21 10 22 11 23 12 24
REMARK SMILES IDX 13 25 14 26 15 28 16 29 17 30 78 31 18 32 77 33 19 34 20 35
REMARK SMILES IDX 21 36 71 37 22 38 76 39 70 40 72 41 23 42 75 43 69 44 68 45
REMARK SMILES IDX 24 47 56 48 36 49 55 50 37 51 40 52 54 53 73 54 38 55 39 56
REMARK SMILES IDX 53 58 74 59 41 60 25 61 26 62 34 63 27 64 28 65 32 66 35 67
REMARK SMILES IDX 29 68 30 69 33 70 31 71 57 72 58 73 66 74 59 75 60 76 64 77
REMARK SMILES IDX 67 78 61 79 62 80 65 81 63 82 42 83 43 84 51 85 44 86 45 87
REMARK SMILES IDX 49 88 52 89 46 90 47 91 50 92 48 93
REMARK H PARENT 8 5 13 27 72 46 40 57
REMARK Flexibility Score: inf
ROOT
ATOM      1  C   UNL A   1      35.715  20.789  25.315  1.00  0.00     0.116 C 
ENDROOT
BRANCH   1   2
ATOM      2  N   UNL A   1      35.402  21.600  26.472  1.00  0.00    -0.355 N 
ATOM      3  C   UNL A   1      34.181  21.922  26.989  1.00  0.00     0.239 C 
ATOM      4  O   UNL A   1      34.148  22.406  28.124  1.00  0.00    -0.273 OA
ATOM      5  H   UNL A   1      36.177  21.970  26.953  1.00  0.00     0.163 HD
BRANCH   3   6
ATOM      6  C   UNL A   1      32.887  21.556  26.253  1.00  0.00     0.222 C 
BRANCH   6   7
ATOM      7  N   UNL A   1      32.170  22.697  25.676  1.00  0.00    -0.304 N 
BRANCH   7   8
ATOM      8  C   UNL A   1      31.711  22.534  24.287  1.00  0.00     0.211 C 
BRANCH   8   9
ATOM      9  C   UNL A   1      32.770  22.801  23.301  1.00  0.00    -0.085 C 
ATOM     10  C   UNL A   1      33.614  23.101  22.504  1.00  0.00     0.006 C 
ENDBRANCH   8   9
ENDBRANCH   7   8
BRANCH   7  11
ATOM     11  C   UNL A   1      31.944  23.949  26.220  1.00  0.00     0.321 C 
ATOM     12  O   UNL A   1      31.288  23.967  27.267  1.00  0.00    -0.248 OA
BRANCH  11  13
ATOM     13  N   UNL A   1      32.455  25.121  25.680  1.00  0.00    -0.320 N 
ATOM     14  C   UNL A   1      33.849  25.548  25.733  1.00  0.00     0.149 C 
BRANCH  13  15
ATOM     15  C   UNL A   1      31.493  26.199  25.249  1.00  0.00     0.124 C 
ATOM     16  C   UNL A   1      31.182  26.346  23.744  1.00  0.00     0.037 C 
BRANCH  15  17
ATOM     17  C   UNL A   1      31.807  27.590  25.812  1.00  0.00     0.027 A 
ATOM     18  C   UNL A   1      31.638  28.143  27.072  1.00  0.00     0.017 A 
ATOM     19  S   UNL A   1      32.520  28.756  24.744  1.00  0.00    -0.147 S 
ATOM     20  C   UNL A   1      32.136  29.480  27.163  1.00  0.00     0.012 A 
ATOM     21  C   UNL A   1      32.703  29.905  25.985  1.00  0.00     0.065 A 
ENDBRANCH  15  17
ENDBRANCH  13  15
ENDBRANCH  11  13
ENDBRANCH   7  11
ENDBRANCH   6   7
ENDBRANCH   3   6
ENDBRANCH   1   2
BRANCH   1  22
ATOM     22  C   UNL A   1      37.109  21.065  24.760  1.00  0.00     0.023 C 
BRANCH  22  23
ATOM     23  C   UNL A   1      38.114  19.937  24.984  1.00  0.00     0.023 C 
BRANCH  23  24
ATOM     24  C   UNL A   1      39.290  20.302  25.877  1.00  0.00     0.116 C 
BRANCH  24  25
ATOM     25  N   UNL A   1      40.288  19.245  25.960  1.00  0.00    -0.352 N 
ATOM     26  C   UNL A   1      41.643  19.358  26.160  1.00  0.00     0.251 C 
ATOM     27  H   UNL A   1      39.947  18.327  25.861  1.00  0.00     0.163 HD
ATOM     28  O   UNL A   1      42.372  18.379  26.063  1.00  0.00    -0.269 OA
BRANCH  26  29
ATOM     29  C   UNL A   1      42.215  20.686  26.456  1.00  0.00     0.039 A 
ATOM     30  C   UNL A   1      42.571  21.518  25.394  1.00  0.00     0.014 A 
ATOM     31  C   UNL A   1      42.348  21.123  27.777  1.00  0.00     0.014 A 
ATOM     32  C   UNL A   1      43.000  22.819  25.657  1.00  0.00     0.010 A 
ATOM     33  C   UNL A   1      42.684  22.448  28.031  1.00  0.00     0.010 A 
ATOM     34  C   UNL A   1      43.017  23.308  26.975  1.00  0.00    -0.014 A 
BRANCH  34  35
ATOM     35  C   UNL A   1      43.370  24.721  27.261  1.00  0.00     0.031 A 
ATOM     36  C   UNL A   1      44.775  25.209  27.055  1.00  0.00     0.074 A 
ATOM     37  C   UNL A   1      42.437  25.549  27.770  1.00  0.00     0.049 A 
ATOM     38  N   UNL A   1      45.286  26.390  27.295  1.00  0.00    -0.248 NA
ATOM     39  C   UNL A   1      45.744  24.229  26.541  1.00  0.00     0.031 C 
ATOM     40  C   UNL A   1      41.053  25.177  28.070  1.00  0.00     0.029 A 
ATOM     41  N   UNL A   1      42.515  26.868  28.139  1.00  0.00    -0.354 N 
ATOM     42  C   UNL A   1      46.633  26.291  26.976  1.00  0.00     0.074 A 
ATOM     43  C   UNL A   1      46.874  24.917  26.587  1.00  0.00     0.031 C 
ATOM     44  C   UNL A   1      40.406  26.249  28.552  1.00  0.00     0.029 A 
ATOM     45  C   UNL A   1      41.340  27.368  28.645  1.00  0.00     0.049 A 
ATOM     46  H   UNL A   1      43.335  27.406  28.049  1.00  0.00     0.167 HD
ATOM     47  C   UNL A   1      47.579  27.260  26.988  1.00  0.00     0.037 A 
ATOM     48  C   UNL A   1      41.050  28.584  29.146  1.00  0.00     0.037 A 
ATOM     49  C   UNL A   1      47.327  28.625  27.373  1.00  0.00     0.049 A 
ATOM     50  C   UNL A   1      42.117  29.642  29.165  1.00  0.00     0.074 A 
ATOM     51  C   UNL A   1      48.196  29.701  27.349  1.00  0.00     0.029 A 
ATOM     52  N   UNL A   1      46.120  29.098  27.873  1.00  0.00    -0.354 N 
ATOM     53  N   UNL A   1      43.367  29.564  28.776  1.00  0.00    -0.248 NA
ATOM     54  C   UNL A   1      41.733  30.961  29.686  1.00  0.00     0.031 C 
ATOM     55  C   UNL A   1      47.543  30.803  27.913  1.00  0.00     0.029 A 
ATOM     56  C   UNL A   1      46.238  30.439  28.207  1.00  0.00     0.049 A 
ATOM     57  H   UNL A   1      45.302  28.559  27.975  1.00  0.00     0.167 HD
ATOM     58  C   UNL A   1      43.913  30.824  28.983  1.00  0.00     0.074 A 
ATOM     59  C   UNL A   1      42.851  31.653  29.516  1.00  0.00     0.031 C 
ATOM     60  C   UNL A   1      45.178  31.253  28.749  1.00  0.00     0.037 A 
BRANCH  47  61
ATOM     61  C   UNL A   1      48.979  26.868  26.604  1.00  0.00     0.064 A 
ATOM     62  C   UNL A   1      49.438  26.933  25.279  1.00  0.00     0.173 A 
ATOM     63  C   UNL A   1      49.882  26.421  27.583  1.00  0.00     0.173 A 
ATOM     64  F   UNL A   1      48.617  27.346  24.299  1.00  0.00    -0.203 F 
ATOM     65  C   UNL A   1      50.723  26.517  24.941  1.00  0.00     0.198 A 
ATOM     66  C   UNL A   1      51.181  26.048  27.249  1.00  0.00     0.198 A 
ATOM     67  F   UNL A   1      49.505  26.347  28.869  1.00  0.00    -0.203 F 
ATOM     68  F   UNL A   1      51.109  26.515  23.657  1.00  0.00    -0.200 F 
ATOM     69  C   UNL A   1      51.595  26.081  25.926  1.00  0.00     0.200 A 
ATOM     70  F   UNL A   1      52.028  25.645  28.206  1.00  0.00    -0.200 F 
ATOM     71  F   UNL A   1      52.832  25.681  25.600  1.00  0.00    -0.200 F 
ENDBRANCH  47  61
BRANCH  48  72
ATOM     72  C   UNL A   1      39.682  28.853  29.663  1.00  0.00     0.064 A 
ATOM     73  C   UNL A   1      38.685  29.388  28.837  1.00  0.00     0.173 A 
ATOM     74  C   UNL A   1      39.337  28.548  30.989  1.00  0.00     0.173 A 
ATOM     75  F   UNL A   1      38.969  29.714  27.568  1.00  0.00    -0.203 F 
ATOM     76  C   UNL A   1      37.398  29.617  29.319  1.00  0.00     0.198 A 
ATOM     77  C   UNL A   1      38.042  28.747  31.460  1.00  0.00     0.198 A 
ATOM     78  F   UNL A   1      40.254  28.028  31.818  1.00  0.00    -0.203 F 
ATOM     79  F   UNL A   1      36.472  30.165  28.520  1.00  0.00    -0.200 F 
ATOM     80  C   UNL A   1      37.074  29.287  30.627  1.00  0.00     0.200 A 
ATOM     81  F   UNL A   1      37.731  28.407  32.718  1.00  0.00    -0.200 F 
ATOM     82  F   UNL A   1      35.832  29.492  31.086  1.00  0.00    -0.200 F 
ENDBRANCH  48  72
BRANCH  60  83
ATOM     83  C   UNL A   1      45.484  32.697  29.041  1.00  0.00     0.064 A 
ATOM     84  C   UNL A   1      46.051  33.105  30.258  1.00  0.00     0.173 A 
ATOM     85  C   UNL A   1      45.247  33.682  28.068  1.00  0.00     0.173 A 
ATOM     86  F   UNL A   1      46.288  32.208  31.227  1.00  0.00    -0.203 F 
ATOM     87  C   UNL A   1      46.340  34.446  30.501  1.00  0.00     0.198 A 
ATOM     88  C   UNL A   1      45.573  35.015  28.299  1.00  0.00     0.198 A 
ATOM     89  F   UNL A   1      44.713  33.349  26.883  1.00  0.00    -0.203 F 
ATOM     90  F   UNL A   1      46.827  34.818  31.692  1.00  0.00    -0.200 F 
ATOM     91  C   UNL A   1      46.109  35.398  29.520  1.00  0.00     0.200 A 
ATOM     92  F   UNL A   1      45.369  35.929  27.341  1.00  0.00    -0.200 F 
ATOM     93  F   UNL A   1      46.400  36.685  29.750  1.00  0.00    -0.200 F 
ENDBRANCH  60  83
ENDBRANCH  34  35
ENDBRANCH  26  29
ENDBRANCH  24  25
ENDBRANCH  23  24
ENDBRANCH  22  23
ENDBRANCH   1  22
TORSDOF 18
ENDMDL
