MODEL 1
REMARK VINA RESULT:     -12.7      0.000      0.000
REMARK SMILES Cc1ccc2nc(C(=O)NCCCCNC(=O)c3ccc(-c4c5nc(c(-c6c(F)c(F)c(F)c(F)c6F)c6ccc([nH]6)c(-c6c(F)c(F)c(F)c(F)c6F)c6nc(c(-c7c(F)c(F)c(F)c(F)c7F)c7ccc4[nH]7)C=C6)C=C5)cc3)cc(N3CCOCC3)c2c1
REMARK SMILES IDX 13 1 12 2 11 3 10 4 8 5 9 6 7 8 1 9 2 10 3 11 90 12 4 13
REMARK SMILES IDX 89 14 5 15 82 16 6 17 81 18 83 19 84 20 88 21 85 22 87 23
REMARK SMILES IDX 86 24 14 25 15 26 16 27 17 29 18 30 19 31 80 32 20 33 79 34
REMARK SMILES IDX 21 35 22 36 23 37 73 38 24 39 78 40 72 41 74 42 25 43 77 44
REMARK SMILES IDX 71 45 70 46 26 48 58 49 38 50 57 51 39 52 42 53 56 54 75 55
REMARK SMILES IDX 40 56 41 57 55 59 76 60 43 61 27 62 28 63 36 64 29 65 30 66
REMARK SMILES IDX 34 67 37 68 31 69 32 70 35 71 33 72 59 73 60 74 68 75 61 76
REMARK SMILES IDX 62 77 66 78 69 79 63 80 64 81 67 82 65 83 44 84 45 85 53 86
REMARK SMILES IDX 46 87 47 88 51 89 54 90 48 91 49 92 52 93 50 94
REMARK H PARENT 10 7 15 28 74 47 42 58
REMARK Flexibility Score: inf
ROOT
ATOM      1  C   UNL A   1      35.426  22.906  26.125  1.00  0.00     0.023 C 
ENDROOT
BRANCH   1   2
ATOM      2  C   UNL A   1      34.374  24.018  26.188  1.00  0.00     0.023 C 
BRANCH   2   3
ATOM      3  C   UNL A   1      33.207  23.833  25.215  1.00  0.00     0.116 C 
BRANCH   3   4
ATOM      4  N   UNL A   1      33.614  24.152  23.864  1.00  0.00    -0.351 N 
ATOM      5  C   UNL A   1      33.485  25.285  23.090  1.00  0.00     0.269 C 
ATOM      6  O   UNL A   1      33.949  25.205  21.951  1.00  0.00    -0.268 OA
ATOM      7  H   UNL A   1      34.076  23.412  23.407  1.00  0.00     0.163 HD
BRANCH   5   8
ATOM      8  C   UNL A   1      32.860  26.578  23.561  1.00  0.00     0.130 A 
ATOM      9  C   UNL A   1      31.629  31.935  26.982  1.00  0.00     0.044 C 
ATOM     10  C   UNL A   1      32.131  30.674  26.348  1.00  0.00    -0.050 A 
ATOM     11  C   UNL A   1      33.308  30.064  26.769  1.00  0.00     0.005 A 
ATOM     12  C   UNL A   1      31.408  30.083  25.307  1.00  0.00     0.016 A 
ATOM     13  C   UNL A   1      33.739  28.881  26.160  1.00  0.00     0.029 A 
ATOM     14  C   UNL A   1      31.863  28.915  24.650  1.00  0.00     0.024 A 
ATOM     15  C   UNL A   1      33.039  28.294  25.116  1.00  0.00     0.073 A 
ATOM     16  C   UNL A   1      31.191  28.320  23.553  1.00  0.00     0.049 A 
ATOM     17  N   UNL A   1      33.511  27.152  24.602  1.00  0.00    -0.242 NA
ATOM     18  C   UNL A   1      31.739  27.162  22.996  1.00  0.00     0.060 A 
BRANCH  16  19
ATOM     19  N   UNL A   1      30.017  28.864  23.037  1.00  0.00    -0.366 N 
ATOM     20  C   UNL A   1      30.127  29.802  21.904  1.00  0.00     0.145 C 
ATOM     21  C   UNL A   1      28.769  28.084  23.040  1.00  0.00     0.145 C 
ATOM     22  C   UNL A   1      28.872  30.690  21.866  1.00  0.00     0.181 C 
ATOM     23  C   UNL A   1      27.569  29.042  22.946  1.00  0.00     0.181 C 
ATOM     24  O   UNL A   1      27.670  29.901  21.797  1.00  0.00    -0.378 OA
ENDBRANCH  16  19
ENDBRANCH   5   8
ENDBRANCH   3   4
ENDBRANCH   2   3
ENDBRANCH   1   2
BRANCH   1  25
ATOM     25  C   UNL A   1      36.777  23.335  25.562  1.00  0.00     0.116 C 
BRANCH  25  26
ATOM     26  N   UNL A   1      37.855  22.412  25.881  1.00  0.00    -0.352 N 
ATOM     27  C   UNL A   1      39.062  22.683  26.481  1.00  0.00     0.251 C 
ATOM     28  H   UNL A   1      37.700  21.471  25.635  1.00  0.00     0.163 HD
ATOM     29  O   UNL A   1      39.908  21.811  26.602  1.00  0.00    -0.269 OA
BRANCH  27  30
ATOM     30  C   UNL A   1      39.342  24.062  26.931  1.00  0.00     0.039 A 
ATOM     31  C   UNL A   1      38.963  24.433  28.223  1.00  0.00     0.014 A 
ATOM     32  C   UNL A   1      40.009  24.965  26.099  1.00  0.00     0.014 A 
ATOM     33  C   UNL A   1      39.317  25.692  28.709  1.00  0.00     0.010 A 
ATOM     34  C   UNL A   1      40.417  26.194  26.607  1.00  0.00     0.010 A 
ATOM     35  C   UNL A   1      40.078  26.566  27.917  1.00  0.00    -0.014 A 
BRANCH  35  36
ATOM     36  C   UNL A   1      40.538  27.875  28.443  1.00  0.00     0.031 A 
ATOM     37  C   UNL A   1      41.987  28.085  28.773  1.00  0.00     0.074 A 
ATOM     38  C   UNL A   1      39.636  28.844  28.692  1.00  0.00     0.049 A 
ATOM     39  N   UNL A   1      42.571  29.125  29.312  1.00  0.00    -0.248 NA
ATOM     40  C   UNL A   1      42.901  26.968  28.482  1.00  0.00     0.031 C 
ATOM     41  C   UNL A   1      38.194  28.738  28.462  1.00  0.00     0.029 A 
ATOM     42  N   UNL A   1      39.798  30.106  29.206  1.00  0.00    -0.354 N 
ATOM     43  C   UNL A   1      43.910  28.781  29.443  1.00  0.00     0.074 A 
ATOM     44  C   UNL A   1      44.047  27.421  28.969  1.00  0.00     0.031 C 
ATOM     45  C   UNL A   1      37.606  29.891  28.817  1.00  0.00     0.029 A 
ATOM     46  C   UNL A   1      38.623  30.806  29.328  1.00  0.00     0.049 A 
ATOM     47  H   UNL A   1      40.674  30.474  29.462  1.00  0.00     0.167 HD
ATOM     48  C   UNL A   1      44.934  29.540  29.897  1.00  0.00     0.037 A 
ATOM     49  C   UNL A   1      38.393  32.045  29.804  1.00  0.00     0.037 A 
ATOM     50  C   UNL A   1      44.799  30.905  30.333  1.00  0.00     0.049 A 
ATOM     51  C   UNL A   1      39.553  32.869  30.289  1.00  0.00     0.074 A 
ATOM     52  C   UNL A   1      45.789  31.781  30.744  1.00  0.00     0.029 A 
ATOM     53  N   UNL A   1      43.597  31.591  30.412  1.00  0.00    -0.354 N 
ATOM     54  N   UNL A   1      40.826  32.560  30.339  1.00  0.00    -0.248 NA
ATOM     55  C   UNL A   1      39.246  34.220  30.779  1.00  0.00     0.031 C 
ATOM     56  C   UNL A   1      45.181  32.987  31.107  1.00  0.00     0.029 A 
ATOM     57  C   UNL A   1      43.818  32.876  30.881  1.00  0.00     0.049 A 
ATOM     58  H   UNL A   1      42.718  31.221  30.171  1.00  0.00     0.167 HD
ATOM     59  C   UNL A   1      41.473  33.683  30.834  1.00  0.00     0.074 A 
ATOM     60  C   UNL A   1      40.455  34.688  31.058  1.00  0.00     0.031 C 
ATOM     61  C   UNL A   1      42.792  33.867  31.082  1.00  0.00     0.037 A 
BRANCH  48  62
ATOM     62  C   UNL A   1      46.297  28.915  29.938  1.00  0.00     0.064 A 
ATOM     63  C   UNL A   1      46.763  28.244  31.079  1.00  0.00     0.173 A 
ATOM     64  C   UNL A   1      47.128  28.944  28.808  1.00  0.00     0.173 A 
ATOM     65  F   UNL A   1      46.011  28.199  32.189  1.00  0.00    -0.203 F 
ATOM     66  C   UNL A   1      48.020  27.646  31.094  1.00  0.00     0.198 A 
ATOM     67  C   UNL A   1      48.373  28.321  28.818  1.00  0.00     0.198 A 
ATOM     68  F   UNL A   1      46.728  29.569  27.691  1.00  0.00    -0.203 F 
ATOM     69  F   UNL A   1      48.460  27.047  32.209  1.00  0.00    -0.200 F 
ATOM     70  C   UNL A   1      48.819  27.677  29.963  1.00  0.00     0.200 A 
ATOM     71  F   UNL A   1      49.140  28.343  27.720  1.00  0.00    -0.200 F 
ATOM     72  F   UNL A   1      50.026  27.092  29.976  1.00  0.00    -0.200 F 
ENDBRANCH  48  62
BRANCH  49  73
ATOM     73  C   UNL A   1      37.012  32.594  29.821  1.00  0.00     0.064 A 
ATOM     74  C   UNL A   1      36.504  33.289  28.714  1.00  0.00     0.173 A 
ATOM     75  C   UNL A   1      36.182  32.453  30.941  1.00  0.00     0.173 A 
ATOM     76  F   UNL A   1      37.269  33.467  27.627  1.00  0.00    -0.203 F 
ATOM     77  C   UNL A   1      35.226  33.844  28.737  1.00  0.00     0.198 A 
ATOM     78  C   UNL A   1      34.894  32.986  30.953  1.00  0.00     0.198 A 
ATOM     79  F   UNL A   1      36.619  31.792  32.022  1.00  0.00    -0.203 F 
ATOM     80  F   UNL A   1      34.785  34.546  27.686  1.00  0.00    -0.200 F 
ATOM     81  C   UNL A   1      34.422  33.689  29.855  1.00  0.00     0.200 A 
ATOM     82  F   UNL A   1      34.114  32.823  32.030  1.00  0.00    -0.200 F 
ATOM     83  F   UNL A   1      33.194  34.224  29.878  1.00  0.00    -0.200 F 
ENDBRANCH  49  73
BRANCH  61  84
ATOM     84  C   UNL A   1      43.217  35.215  31.584  1.00  0.00     0.064 A 
ATOM     85  C   UNL A   1      43.663  36.218  30.711  1.00  0.00     0.173 A 
ATOM     86  C   UNL A   1      43.136  35.519  32.952  1.00  0.00     0.173 A 
ATOM     87  F   UNL A   1      43.773  35.968  29.397  1.00  0.00    -0.203 F 
ATOM     88  C   UNL A   1      44.033  37.470  31.193  1.00  0.00     0.198 A 
ATOM     89  C   UNL A   1      43.482  36.781  33.426  1.00  0.00     0.198 A 
ATOM     90  F   UNL A   1      42.710  34.595  33.826  1.00  0.00    -0.203 F 
ATOM     91  F   UNL A   1      44.498  38.399  30.346  1.00  0.00    -0.200 F 
ATOM     92  C   UNL A   1      43.936  37.753  32.547  1.00  0.00     0.200 A 
ATOM     93  F   UNL A   1      43.375  37.057  34.733  1.00  0.00    -0.200 F 
ATOM     94  F   UNL A   1      44.286  38.962  33.007  1.00  0.00    -0.200 F 
ENDBRANCH  61  84
ENDBRANCH  35  36
ENDBRANCH  27  30
ENDBRANCH  25  26
ENDBRANCH   1  25
TORSDOF 12
ENDMDL
MODEL 2
REMARK VINA RESULT:     -12.6      0.772      1.791
REMARK SMILES Cc1ccc2nc(C(=O)NCCCCNC(=O)c3ccc(-c4c5nc(c(-c6c(F)c(F)c(F)c(F)c6F)c6ccc([nH]6)c(-c6c(F)c(F)c(F)c(F)c6F)c6nc(c(-c7c(F)c(F)c(F)c(F)c7F)c7ccc4[nH]7)C=C6)C=C5)cc3)cc(N3CCOCC3)c2c1
REMARK SMILES IDX 13 1 12 2 11 3 10 4 8 5 9 6 7 8 1 9 2 10 3 11 90 12 4 13
REMARK SMILES IDX 89 14 5 15 82 16 6 17 81 18 83 19 84 20 88 21 85 22 87 23
REMARK SMILES IDX 86 24 14 25 15 26 16 27 17 29 18 30 19 31 80 32 20 33 79 34
REMARK SMILES IDX 21 35 22 36 23 37 73 38 24 39 78 40 72 41 74 42 25 43 77 44
REMARK SMILES IDX 71 45 70 46 26 48 58 49 38 50 57 51 39 52 42 53 56 54 75 55
REMARK SMILES IDX 40 56 41 57 55 59 76 60 43 61 27 62 28 63 36 64 29 65 30 66
REMARK SMILES IDX 34 67 37 68 31 69 32 70 35 71 33 72 59 73 60 74 68 75 61 76
REMARK SMILES IDX 62 77 66 78 69 79 63 80 64 81 67 82 65 83 44 84 45 85 53 86
REMARK SMILES IDX 46 87 47 88 51 89 54 90 48 91 49 92 52 93 50 94
REMARK H PARENT 10 7 15 28 74 47 42 58
REMARK Flexibility Score: inf
ROOT
ATOM      1  C   UNL A   1      35.711  23.245  25.741  1.00  0.00     0.023 C 
ENDROOT
BRANCH   1   2
ATOM      2  C   UNL A   1      34.640  24.339  25.735  1.00  0.00     0.023 C 
BRANCH   2   3
ATOM      3  C   UNL A   1      33.426  24.024  24.858  1.00  0.00     0.116 C 
BRANCH   3   4
ATOM      4  N   UNL A   1      33.688  24.379  23.480  1.00  0.00    -0.351 N 
ATOM      5  C   UNL A   1      33.436  25.515  22.742  1.00  0.00     0.269 C 
ATOM      6  O   UNL A   1      33.793  25.471  21.562  1.00  0.00    -0.268 OA
ATOM      7  H   UNL A   1      34.136  23.667  22.968  1.00  0.00     0.163 HD
BRANCH   5   8
ATOM      8  C   UNL A   1      32.803  26.772  23.291  1.00  0.00     0.130 A 
ATOM      9  C   UNL A   1      31.572  31.928  27.009  1.00  0.00     0.044 C 
ATOM     10  C   UNL A   1      32.078  30.709  26.301  1.00  0.00    -0.050 A 
ATOM     11  C   UNL A   1      33.272  30.096  26.665  1.00  0.00     0.005 A 
ATOM     12  C   UNL A   1      31.341  30.160  25.246  1.00  0.00     0.016 A 
ATOM     13  C   UNL A   1      33.707  28.953  25.986  1.00  0.00     0.029 A 
ATOM     14  C   UNL A   1      31.797  29.035  24.521  1.00  0.00     0.024 A 
ATOM     15  C   UNL A   1      32.992  28.409  24.928  1.00  0.00     0.073 A 
ATOM     16  C   UNL A   1      31.110  28.487  23.409  1.00  0.00     0.049 A 
ATOM     17  N   UNL A   1      33.469  27.303  24.346  1.00  0.00    -0.242 NA
ATOM     18  C   UNL A   1      31.662  27.367  22.781  1.00  0.00     0.060 A 
BRANCH  16  19
ATOM     19  N   UNL A   1      29.917  29.038  22.947  1.00  0.00    -0.366 N 
ATOM     20  C   UNL A   1      29.985  30.010  21.840  1.00  0.00     0.145 C 
ATOM     21  C   UNL A   1      28.674  28.250  22.966  1.00  0.00     0.145 C 
ATOM     22  C   UNL A   1      28.725  30.891  21.869  1.00  0.00     0.181 C 
ATOM     23  C   UNL A   1      27.466  29.202  22.939  1.00  0.00     0.181 C 
ATOM     24  O   UNL A   1      27.526  30.096  21.814  1.00  0.00    -0.378 OA
ENDBRANCH  16  19
ENDBRANCH   5   8
ENDBRANCH   3   4
ENDBRANCH   2   3
ENDBRANCH   1   2
BRANCH   1  25
ATOM     25  C   UNL A   1      37.074  23.680  25.213  1.00  0.00     0.116 C 
BRANCH  25  26
ATOM     26  N   UNL A   1      38.136  22.729  25.500  1.00  0.00    -0.352 N 
ATOM     27  C   UNL A   1      39.300  22.935  26.203  1.00  0.00     0.251 C 
ATOM     28  H   UNL A   1      38.004  21.820  25.146  1.00  0.00     0.163 HD
ATOM     29  O   UNL A   1      40.143  22.055  26.285  1.00  0.00    -0.269 OA
BRANCH  27  30
ATOM     30  C   UNL A   1      39.539  24.258  26.816  1.00  0.00     0.039 A 
ATOM     31  C   UNL A   1      39.102  24.477  28.125  1.00  0.00     0.014 A 
ATOM     32  C   UNL A   1      40.225  25.256  26.119  1.00  0.00     0.014 A 
ATOM     33  C   UNL A   1      39.416  25.677  28.762  1.00  0.00     0.010 A 
ATOM     34  C   UNL A   1      40.592  26.424  26.778  1.00  0.00     0.010 A 
ATOM     35  C   UNL A   1      40.195  26.643  28.106  1.00  0.00    -0.014 A 
BRANCH  35  36
ATOM     36  C   UNL A   1      40.612  27.890  28.794  1.00  0.00     0.031 A 
ATOM     37  C   UNL A   1      42.017  28.034  29.300  1.00  0.00     0.074 A 
ATOM     38  C   UNL A   1      39.702  28.857  29.025  1.00  0.00     0.049 A 
ATOM     39  N   UNL A   1      42.552  29.009  29.991  1.00  0.00    -0.248 NA
ATOM     40  C   UNL A   1      42.941  26.923  29.016  1.00  0.00     0.031 C 
ATOM     41  C   UNL A   1      38.295  28.807  28.627  1.00  0.00     0.029 A 
ATOM     42  N   UNL A   1      39.824  30.065  29.663  1.00  0.00    -0.354 N 
ATOM     43  C   UNL A   1      43.862  28.621  30.240  1.00  0.00     0.074 A 
ATOM     44  C   UNL A   1      44.031  27.303  29.666  1.00  0.00     0.031 C 
ATOM     45  C   UNL A   1      37.688  29.940  29.014  1.00  0.00     0.029 A 
ATOM     46  C   UNL A   1      38.654  30.781  29.714  1.00  0.00     0.049 A 
ATOM     47  H   UNL A   1      40.671  30.388  30.048  1.00  0.00     0.167 HD
ATOM     48  C   UNL A   1      44.840  29.312  30.872  1.00  0.00     0.037 A 
ATOM     49  C   UNL A   1      38.391  31.980  30.269  1.00  0.00     0.037 A 
ATOM     50  C   UNL A   1      44.677  30.637  31.409  1.00  0.00     0.049 A 
ATOM     51  C   UNL A   1      39.501  32.730  30.953  1.00  0.00     0.074 A 
ATOM     52  C   UNL A   1      45.627  31.449  32.004  1.00  0.00     0.029 A 
ATOM     53  N   UNL A   1      43.484  31.344  31.413  1.00  0.00    -0.354 N 
ATOM     54  N   UNL A   1      40.755  32.386  31.117  1.00  0.00    -0.248 NA
ATOM     55  C   UNL A   1      39.161  34.041  31.523  1.00  0.00     0.031 C 
ATOM     56  C   UNL A   1      45.000  32.634  32.402  1.00  0.00     0.029 A 
ATOM     57  C   UNL A   1      43.671  32.578  32.016  1.00  0.00     0.049 A 
ATOM     58  H   UNL A   1      42.633  31.019  31.043  1.00  0.00     0.167 HD
ATOM     59  C   UNL A   1      41.359  33.445  31.778  1.00  0.00     0.074 A 
ATOM     60  C   UNL A   1      40.337  34.452  31.975  1.00  0.00     0.031 C 
ATOM     61  C   UNL A   1      42.644  33.573  32.188  1.00  0.00     0.037 A 
BRANCH  48  62
ATOM     62  C   UNL A   1      46.179  28.652  31.010  1.00  0.00     0.064 A 
ATOM     63  C   UNL A   1      47.173  28.797  30.030  1.00  0.00     0.173 A 
ATOM     64  C   UNL A   1      46.491  27.905  32.156  1.00  0.00     0.173 A 
ATOM     65  F   UNL A   1      46.920  29.491  28.910  1.00  0.00    -0.203 F 
ATOM     66  C   UNL A   1      48.422  28.201  30.183  1.00  0.00     0.198 A 
ATOM     67  C   UNL A   1      47.750  27.334  32.318  1.00  0.00     0.198 A 
ATOM     68  F   UNL A   1      45.578  27.740  33.124  1.00  0.00    -0.203 F 
ATOM     69  F   UNL A   1      49.341  28.319  29.214  1.00  0.00    -0.200 F 
ATOM     70  C   UNL A   1      48.712  27.477  31.328  1.00  0.00     0.200 A 
ATOM     71  F   UNL A   1      48.033  26.643  33.431  1.00  0.00    -0.200 F 
ATOM     72  F   UNL A   1      49.918  26.911  31.478  1.00  0.00    -0.200 F 
ENDBRANCH  48  62
BRANCH  49  73
ATOM     73  C   UNL A   1      37.026  32.561  30.180  1.00  0.00     0.064 A 
ATOM     74  C   UNL A   1      36.631  33.293  29.052  1.00  0.00     0.173 A 
ATOM     75  C   UNL A   1      36.098  32.412  31.221  1.00  0.00     0.173 A 
ATOM     76  F   UNL A   1      37.491  33.478  28.040  1.00  0.00    -0.203 F 
ATOM     77  C   UNL A   1      35.368  33.876  28.978  1.00  0.00     0.198 A 
ATOM     78  C   UNL A   1      34.825  32.975  31.134  1.00  0.00     0.198 A 
ATOM     79  F   UNL A   1      36.425  31.717  32.319  1.00  0.00    -0.203 F 
ATOM     80  F   UNL A   1      35.035  34.613  27.910  1.00  0.00    -0.200 F 
ATOM     81  C   UNL A   1      34.466  33.714  30.017  1.00  0.00     0.200 A 
ATOM     82  F   UNL A   1      33.951  32.805  32.135  1.00  0.00    -0.200 F 
ATOM     83  F   UNL A   1      33.252  34.276  29.948  1.00  0.00    -0.200 F 
ENDBRANCH  49  73
BRANCH  61  84
ATOM     84  C   UNL A   1      43.029  34.862  32.852  1.00  0.00     0.064 A 
ATOM     85  C   UNL A   1      42.992  35.011  34.245  1.00  0.00     0.173 A 
ATOM     86  C   UNL A   1      43.481  35.947  32.084  1.00  0.00     0.173 A 
ATOM     87  F   UNL A   1      42.551  34.007  35.020  1.00  0.00    -0.203 F 
ATOM     88  C   UNL A   1      43.373  36.208  34.846  1.00  0.00     0.198 A 
ATOM     89  C   UNL A   1      43.887  37.132  32.690  1.00  0.00     0.198 A 
ATOM     90  F   UNL A   1      43.541  35.851  30.748  1.00  0.00    -0.203 F 
ATOM     91  F   UNL A   1      43.288  36.343  36.177  1.00  0.00    -0.200 F 
ATOM     92  C   UNL A   1      43.826  37.264  34.069  1.00  0.00     0.200 A 
ATOM     93  F   UNL A   1      44.337  38.146  31.939  1.00  0.00    -0.200 F 
ATOM     94  F   UNL A   1      44.200  38.412  34.650  1.00  0.00    -0.200 F 
ENDBRANCH  61  84
ENDBRANCH  35  36
ENDBRANCH  27  30
ENDBRANCH  25  26
ENDBRANCH   1  25
TORSDOF 12
ENDMDL
MODEL 3
REMARK VINA RESULT:     -12.5      1.674      2.581
REMARK SMILES Cc1ccc2nc(C(=O)NCCCCNC(=O)c3ccc(-c4c5nc(c(-c6c(F)c(F)c(F)c(F)c6F)c6ccc([nH]6)c(-c6c(F)c(F)c(F)c(F)c6F)c6nc(c(-c7c(F)c(F)c(F)c(F)c7F)c7ccc4[nH]7)C=C6)C=C5)cc3)cc(N3CCOCC3)c2c1
REMARK SMILES IDX 13 1 12 2 11 3 10 4 8 5 9 6 7 8 1 9 2 10 3 11 90 12 4 13
REMARK SMILES IDX 89 14 5 15 82 16 6 17 81 18 83 19 84 20 88 21 85 22 87 23
REMARK SMILES IDX 86 24 14 25 15 26 16 27 17 29 18 30 19 31 80 32 20 33 79 34
REMARK SMILES IDX 21 35 22 36 23 37 73 38 24 39 78 40 72 41 74 42 25 43 77 44
REMARK SMILES IDX 71 45 70 46 26 48 58 49 38 50 57 51 39 52 42 53 56 54 75 55
REMARK SMILES IDX 40 56 41 57 55 59 76 60 43 61 27 62 28 63 36 64 29 65 30 66
REMARK SMILES IDX 34 67 37 68 31 69 32 70 35 71 33 72 59 73 60 74 68 75 61 76
REMARK SMILES IDX 62 77 66 78 69 79 63 80 64 81 67 82 65 83 44 84 45 85 53 86
REMARK SMILES IDX 46 87 47 88 51 89 54 90 48 91 49 92 52 93 50 94
REMARK H PARENT 10 7 15 28 74 47 42 58
REMARK Flexibility Score: inf
ROOT
ATOM      1  C   UNL A   1      35.896  23.602  26.133  1.00  0.00     0.023 C 
ENDROOT
BRANCH   1   2
ATOM      2  C   UNL A   1      34.860  22.526  25.799  1.00  0.00     0.023 C 
BRANCH   2   3
ATOM      3  C   UNL A   1      33.566  23.068  25.187  1.00  0.00     0.116 C 
BRANCH   3   4
ATOM      4  N   UNL A   1      32.467  22.934  26.119  1.00  0.00    -0.351 N 
ATOM      5  C   UNL A   1      31.505  23.815  26.564  1.00  0.00     0.269 C 
ATOM      6  O   UNL A   1      30.708  23.358  27.388  1.00  0.00    -0.268 OA
ATOM      7  H   UNL A   1      32.392  22.035  26.513  1.00  0.00     0.163 HD
BRANCH   5   8
ATOM      8  C   UNL A   1      31.362  25.242  26.089  1.00  0.00     0.130 A 
ATOM      9  C   UNL A   1      29.469  30.462  22.760  1.00  0.00     0.044 C 
ATOM     10  C   UNL A   1      29.717  29.126  23.389  1.00  0.00    -0.050 A 
ATOM     11  C   UNL A   1      28.968  28.006  23.043  1.00  0.00     0.005 A 
ATOM     12  C   UNL A   1      30.724  28.984  24.349  1.00  0.00     0.016 A 
ATOM     13  C   UNL A   1      29.235  26.773  23.646  1.00  0.00     0.029 A 
ATOM     14  C   UNL A   1      30.968  27.752  25.001  1.00  0.00     0.024 A 
ATOM     15  C   UNL A   1      30.221  26.623  24.611  1.00  0.00     0.073 A 
ATOM     16  C   UNL A   1      31.937  27.584  26.021  1.00  0.00     0.049 A 
ATOM     17  N   UNL A   1      30.425  25.404  25.123  1.00  0.00    -0.242 NA
ATOM     18  C   UNL A   1      32.088  26.313  26.581  1.00  0.00     0.060 A 
BRANCH  16  19
ATOM     19  N   UNL A   1      32.725  28.646  26.460  1.00  0.00    -0.366 N 
ATOM     20  C   UNL A   1      32.076  29.713  27.243  1.00  0.00     0.145 C 
ATOM     21  C   UNL A   1      34.139  28.432  26.809  1.00  0.00     0.145 C 
ATOM     22  C   UNL A   1      32.916  30.997  27.131  1.00  0.00     0.181 C 
ATOM     23  C   UNL A   1      34.893  29.769  26.726  1.00  0.00     0.181 C 
ATOM     24  O   UNL A   1      34.275  30.774  27.549  1.00  0.00    -0.378 OA
ENDBRANCH  16  19
ENDBRANCH   5   8
ENDBRANCH   3   4
ENDBRANCH   2   3
ENDBRANCH   1   2
BRANCH   1  25
ATOM     25  C   UNL A   1      37.070  23.683  25.163  1.00  0.00     0.116 C 
BRANCH  25  26
ATOM     26  N   UNL A   1      38.127  22.728  25.455  1.00  0.00    -0.352 N 
ATOM     27  C   UNL A   1      39.284  22.928  26.172  1.00  0.00     0.251 C 
ATOM     28  H   UNL A   1      37.998  21.821  25.093  1.00  0.00     0.163 HD
ATOM     29  O   UNL A   1      40.125  22.046  26.257  1.00  0.00    -0.269 OA
BRANCH  27  30
ATOM     30  C   UNL A   1      39.519  24.246  26.796  1.00  0.00     0.039 A 
ATOM     31  C   UNL A   1      39.079  24.454  28.105  1.00  0.00     0.014 A 
ATOM     32  C   UNL A   1      40.203  25.251  26.108  1.00  0.00     0.014 A 
ATOM     33  C   UNL A   1      39.389  25.650  28.753  1.00  0.00     0.010 A 
ATOM     34  C   UNL A   1      40.566  26.415  26.777  1.00  0.00     0.010 A 
ATOM     35  C   UNL A   1      40.166  26.623  28.106  1.00  0.00    -0.014 A 
BRANCH  35  36
ATOM     36  C   UNL A   1      40.578  27.865  28.805  1.00  0.00     0.031 A 
ATOM     37  C   UNL A   1      41.978  28.003  29.329  1.00  0.00     0.074 A 
ATOM     38  C   UNL A   1      39.669  28.834  29.029  1.00  0.00     0.049 A 
ATOM     39  N   UNL A   1      42.507  28.972  30.031  1.00  0.00    -0.248 NA
ATOM     40  C   UNL A   1      42.901  26.890  29.051  1.00  0.00     0.031 C 
ATOM     41  C   UNL A   1      38.266  28.790  28.614  1.00  0.00     0.029 A 
ATOM     42  N   UNL A   1      39.787  30.039  29.674  1.00  0.00    -0.354 N 
ATOM     43  C   UNL A   1      43.813  28.579  30.294  1.00  0.00     0.074 A 
ATOM     44  C   UNL A   1      43.985  27.264  29.716  1.00  0.00     0.031 C 
ATOM     45  C   UNL A   1      37.659  29.923  28.998  1.00  0.00     0.029 A 
ATOM     46  C   UNL A   1      38.619  30.758  29.714  1.00  0.00     0.049 A 
ATOM     47  H   UNL A   1      40.630  30.357  30.071  1.00  0.00     0.167 HD
ATOM     48  C   UNL A   1      44.785  29.264  30.941  1.00  0.00     0.037 A 
ATOM     49  C   UNL A   1      38.353  31.955  30.272  1.00  0.00     0.037 A 
ATOM     50  C   UNL A   1      44.620  30.587  31.482  1.00  0.00     0.049 A 
ATOM     51  C   UNL A   1      39.456  32.699  30.972  1.00  0.00     0.074 A 
ATOM     52  C   UNL A   1      45.565  31.393  32.092  1.00  0.00     0.029 A 
ATOM     53  N   UNL A   1      43.429  31.298  31.475  1.00  0.00    -0.354 N 
ATOM     54  N   UNL A   1      40.707  32.350  31.150  1.00  0.00    -0.248 NA
ATOM     55  C   UNL A   1      39.114  34.008  31.544  1.00  0.00     0.031 C 
ATOM     56  C   UNL A   1      44.937  32.578  32.488  1.00  0.00     0.029 A 
ATOM     57  C   UNL A   1      43.612  32.528  32.085  1.00  0.00     0.049 A 
ATOM     58  H   UNL A   1      42.582  30.977  31.093  1.00  0.00     0.167 HD
ATOM     59  C   UNL A   1      41.307  33.404  31.824  1.00  0.00     0.074 A 
ATOM     60  C   UNL A   1      40.286  34.414  32.012  1.00  0.00     0.031 C 
ATOM     61  C   UNL A   1      42.587  33.526  32.250  1.00  0.00     0.037 A 
BRANCH  48  62
ATOM     62  C   UNL A   1      46.121  28.599  31.092  1.00  0.00     0.064 A 
ATOM     63  C   UNL A   1      46.419  27.795  32.202  1.00  0.00     0.173 A 
ATOM     64  C   UNL A   1      47.097  28.726  30.092  1.00  0.00     0.173 A 
ATOM     65  F   UNL A   1      45.524  27.652  33.191  1.00  0.00    -0.203 F 
ATOM     66  C   UNL A   1      47.653  27.161  32.317  1.00  0.00     0.198 A 
ATOM     67  C   UNL A   1      48.319  28.069  30.197  1.00  0.00     0.198 A 
ATOM     68  F   UNL A   1      46.860  29.479  29.008  1.00  0.00    -0.203 F 
ATOM     69  F   UNL A   1      47.931  26.432  33.407  1.00  0.00    -0.200 F 
ATOM     70  C   UNL A   1      48.598  27.292  31.312  1.00  0.00     0.200 A 
ATOM     71  F   UNL A   1      49.228  28.187  29.219  1.00  0.00    -0.200 F 
ATOM     72  F   UNL A   1      49.783  26.674  31.419  1.00  0.00    -0.200 F 
ENDBRANCH  48  62
BRANCH  49  73
ATOM     73  C   UNL A   1      36.990  32.541  30.169  1.00  0.00     0.064 A 
ATOM     74  C   UNL A   1      36.615  33.288  29.043  1.00  0.00     0.173 A 
ATOM     75  C   UNL A   1      36.046  32.383  31.193  1.00  0.00     0.173 A 
ATOM     76  F   UNL A   1      37.491  33.483  28.047  1.00  0.00    -0.203 F 
ATOM     77  C   UNL A   1      35.355  33.875  28.957  1.00  0.00     0.198 A 
ATOM     78  C   UNL A   1      34.777  32.950  31.094  1.00  0.00     0.198 A 
ATOM     79  F   UNL A   1      36.355  31.673  32.287  1.00  0.00    -0.203 F 
ATOM     80  F   UNL A   1      35.040  34.626  27.893  1.00  0.00    -0.200 F 
ATOM     81  C   UNL A   1      34.436  33.703  29.980  1.00  0.00     0.200 A 
ATOM     82  F   UNL A   1      33.887  32.770  32.079  1.00  0.00    -0.200 F 
ATOM     83  F   UNL A   1      33.225  34.270  29.899  1.00  0.00    -0.200 F 
ENDBRANCH  49  73
BRANCH  61  84
ATOM     84  C   UNL A   1      42.968  34.811  32.924  1.00  0.00     0.064 A 
ATOM     85  C   UNL A   1      43.424  35.917  32.194  1.00  0.00     0.173 A 
ATOM     86  C   UNL A   1      42.835  34.947  34.315  1.00  0.00     0.173 A 
ATOM     87  F   UNL A   1      43.583  35.829  30.864  1.00  0.00    -0.203 F 
ATOM     88  C   UNL A   1      43.754  37.108  32.834  1.00  0.00     0.198 A 
ATOM     89  C   UNL A   1      43.141  36.148  34.947  1.00  0.00     0.198 A 
ATOM     90  F   UNL A   1      42.398  33.919  35.056  1.00  0.00    -0.203 F 
ATOM     91  F   UNL A   1      44.229  38.139  32.121  1.00  0.00    -0.200 F 
ATOM     92  C   UNL A   1      43.605  37.225  34.208  1.00  0.00     0.200 A 
ATOM     93  F   UNL A   1      42.984  36.263  36.273  1.00  0.00    -0.200 F 
ATOM     94  F   UNL A   1      43.917  38.376  34.821  1.00  0.00    -0.200 F 
ENDBRANCH  61  84
ENDBRANCH  35  36
ENDBRANCH  27  30
ENDBRANCH  25  26
ENDBRANCH   1  25
TORSDOF 12
ENDMDL
