MODEL 1
REMARK VINA RESULT:     -12.2      0.000      0.000
REMARK SMILES O=C(CN(CC(F)(F)F)c1nc(-c2ccccc2)cs1)NCCCCNC(=O)c1ccc(-c2c3nc(c(-c4c(F)c(F)c(F)c(F)c4F)c4ccc([nH]4)c(-c4c(F)c(F)c(F)c(F)c4F)c4nc(c(-c5c(F)c(F)c(F)c(F)c5F)c5ccc2[nH]5)C=C4)C=C3)cc1
REMARK SMILES IDX 23 1 22 2 21 3 1 4 2 5 3 7 4 8 5 9 6 10 7 11 8 12 9 13 10 14
REMARK SMILES IDX 11 15 20 16 12 17 19 18 13 19 14 20 18 21 15 22 17 23 16 24
REMARK SMILES IDX 24 25 25 26 26 27 27 28 28 30 29 31 30 32 91 33 31 34 90 35
REMARK SMILES IDX 32 36 33 37 34 38 84 39 35 40 89 41 83 42 85 43 36 44 88 45
REMARK SMILES IDX 82 46 81 47 37 49 69 50 49 51 68 52 50 53 53 54 67 55 86 56
REMARK SMILES IDX 51 57 52 58 66 60 87 61 54 62 38 63 39 64 47 65 40 66 41 67
REMARK SMILES IDX 45 68 48 69 42 70 43 71 46 72 44 73 70 74 71 75 79 76 72 77
REMARK SMILES IDX 73 78 77 79 80 80 74 81 75 82 78 83 76 84 55 85 56 86 64 87
REMARK SMILES IDX 57 88 58 89 62 90 65 91 59 92 60 93 63 94 61 95
REMARK H PARENT 21 6 26 29 85 48 53 59
REMARK Flexibility Score: inf
ROOT
ATOM      1  C   UNL A   1      31.662  30.611  26.573  1.00  0.00     0.023 C 
ENDROOT
BRANCH   1   2
ATOM      2  C   UNL A   1      33.117  30.140  26.582  1.00  0.00     0.116 C 
BRANCH   2   3
ATOM      3  N   UNL A   1      33.544  29.570  25.320  1.00  0.00    -0.355 N 
ATOM      4  O   UNL A   1      33.656  27.403  26.073  1.00  0.00    -0.273 OA
ATOM      5  C   UNL A   1      33.694  28.208  25.145  1.00  0.00     0.239 C 
ATOM      6  H   UNL A   1      33.732  30.172  24.565  1.00  0.00     0.163 HD
BRANCH   5   7
ATOM      7  C   UNL A   1      34.047  27.772  23.710  1.00  0.00     0.219 C 
BRANCH   7   8
ATOM      8  N   UNL A   1      33.010  26.957  23.042  1.00  0.00    -0.330 N 
BRANCH   8   9
ATOM      9  C   UNL A   1      33.359  25.594  22.591  1.00  0.00     0.234 C 
BRANCH   9  10
ATOM     10  C   UNL A   1      33.793  24.558  23.642  1.00  0.00     0.406 C 
ATOM     11  F   UNL A   1      34.939  24.909  24.265  1.00  0.00    -0.169 F 
ATOM     12  F   UNL A   1      32.846  24.466  24.610  1.00  0.00    -0.169 F 
ATOM     13  F   UNL A   1      33.951  23.325  23.118  1.00  0.00    -0.169 F 
ENDBRANCH   9  10
ENDBRANCH   8   9
BRANCH   8  14
ATOM     14  C   UNL A   1      31.723  27.403  23.102  1.00  0.00     0.186 A 
ATOM     15  N   UNL A   1      31.397  28.650  22.841  1.00  0.00    -0.220 NA
ATOM     16  S   UNL A   1      30.377  26.416  23.552  1.00  0.00    -0.105 S 
ATOM     17  C   UNL A   1      30.038  28.855  23.003  1.00  0.00     0.083 A 
ATOM     18  C   UNL A   1      29.324  27.749  23.408  1.00  0.00     0.097 A 
BRANCH  17  19
ATOM     19  C   UNL A   1      29.412  30.126  22.690  1.00  0.00     0.001 A 
ATOM     20  C   UNL A   1      29.209  31.100  23.678  1.00  0.00     0.010 A 
ATOM     21  C   UNL A   1      28.965  30.370  21.385  1.00  0.00     0.010 A 
ATOM     22  C   UNL A   1      28.546  32.289  23.367  1.00  0.00     0.001 A 
ATOM     23  C   UNL A   1      28.293  31.555  21.079  1.00  0.00     0.001 A 
ATOM     24  C   UNL A   1      28.081  32.511  22.070  1.00  0.00     0.000 A 
ENDBRANCH  17  19
ENDBRANCH   8  14
ENDBRANCH   7   8
ENDBRANCH   5   7
ENDBRANCH   2   3
ENDBRANCH   1   2
BRANCH   1  25
ATOM     25  C   UNL A   1      31.460  32.114  26.783  1.00  0.00     0.023 C 
BRANCH  25  26
ATOM     26  C   UNL A   1      32.691  32.892  27.233  1.00  0.00     0.116 C 
BRANCH  26  27
ATOM     27  N   UNL A   1      32.396  34.255  27.647  1.00  0.00    -0.352 N 
ATOM     28  C   UNL A   1      32.983  35.025  28.623  1.00  0.00     0.251 C 
ATOM     29  H   UNL A   1      31.663  34.692  27.155  1.00  0.00     0.163 HD
ATOM     30  O   UNL A   1      32.510  36.124  28.907  1.00  0.00    -0.269 OA
BRANCH  28  31
ATOM     31  C   UNL A   1      34.165  34.527  29.365  1.00  0.00     0.039 A 
ATOM     32  C   UNL A   1      33.974  33.940  30.620  1.00  0.00     0.014 A 
ATOM     33  C   UNL A   1      35.455  34.640  28.841  1.00  0.00     0.014 A 
ATOM     34  C   UNL A   1      35.062  33.397  31.309  1.00  0.00     0.010 A 
ATOM     35  C   UNL A   1      36.526  34.031  29.493  1.00  0.00     0.010 A 
ATOM     36  C   UNL A   1      36.342  33.398  30.732  1.00  0.00    -0.014 A 
BRANCH  36  37
ATOM     37  C   UNL A   1      37.491  32.730  31.400  1.00  0.00     0.031 A 
ATOM     38  C   UNL A   1      38.186  31.568  30.743  1.00  0.00     0.074 A 
ATOM     39  C   UNL A   1      37.871  33.127  32.632  1.00  0.00     0.049 A 
ATOM     40  N   UNL A   1      39.158  30.817  31.198  1.00  0.00    -0.248 NA
ATOM     41  C   UNL A   1      37.708  31.183  29.405  1.00  0.00     0.031 C 
ATOM     42  C   UNL A   1      37.255  34.212  33.396  1.00  0.00     0.029 A 
ATOM     43  N   UNL A   1      38.860  32.656  33.462  1.00  0.00    -0.354 N 
ATOM     44  C   UNL A   1      39.397  29.867  30.214  1.00  0.00     0.074 A 
ATOM     45  C   UNL A   1      38.434  30.101  29.159  1.00  0.00     0.031 C 
ATOM     46  C   UNL A   1      37.896  34.342  34.570  1.00  0.00     0.029 A 
ATOM     47  C   UNL A   1      38.935  33.322  34.662  1.00  0.00     0.049 A 
ATOM     48  H   UNL A   1      39.458  31.913  33.220  1.00  0.00     0.167 HD
ATOM     49  C   UNL A   1      40.346  28.900  30.182  1.00  0.00     0.037 A 
ATOM     50  C   UNL A   1      39.744  33.126  35.722  1.00  0.00     0.037 A 
ATOM     51  C   UNL A   1      41.318  28.683  31.223  1.00  0.00     0.049 A 
ATOM     52  C   UNL A   1      40.774  32.029  35.669  1.00  0.00     0.074 A 
ATOM     53  C   UNL A   1      42.359  27.771  31.252  1.00  0.00     0.029 A 
ATOM     54  N   UNL A   1      41.364  29.380  32.420  1.00  0.00    -0.354 N 
ATOM     55  N   UNL A   1      41.036  31.185  34.701  1.00  0.00    -0.248 NA
ATOM     56  C   UNL A   1      41.624  31.862  36.856  1.00  0.00     0.031 C 
ATOM     57  C   UNL A   1      42.996  27.874  32.492  1.00  0.00     0.029 A 
ATOM     58  C   UNL A   1      42.396  28.896  33.210  1.00  0.00     0.049 A 
ATOM     59  H   UNL A   1      40.754  30.111  32.674  1.00  0.00     0.167 HD
ATOM     60  C   UNL A   1      42.101  30.412  35.147  1.00  0.00     0.074 A 
ATOM     61  C   UNL A   1      42.445  30.898  36.468  1.00  0.00     0.031 C 
ATOM     62  C   UNL A   1      42.737  29.393  34.519  1.00  0.00     0.037 A 
BRANCH  49  63
ATOM     63  C   UNL A   1      40.381  27.995  28.983  1.00  0.00     0.064 A 
ATOM     64  C   UNL A   1      39.649  26.797  28.939  1.00  0.00     0.173 A 
ATOM     65  C   UNL A   1      41.118  28.353  27.844  1.00  0.00     0.173 A 
ATOM     66  F   UNL A   1      38.935  26.403  30.003  1.00  0.00    -0.203 F 
ATOM     67  C   UNL A   1      39.680  25.980  27.812  1.00  0.00     0.198 A 
ATOM     68  C   UNL A   1      41.118  27.550  26.706  1.00  0.00     0.198 A 
ATOM     69  F   UNL A   1      41.829  29.490  27.827  1.00  0.00    -0.203 F 
ATOM     70  F   UNL A   1      39.014  24.816  27.813  1.00  0.00    -0.200 F 
ATOM     71  C   UNL A   1      40.406  26.360  26.694  1.00  0.00     0.200 A 
ATOM     72  F   UNL A   1      41.808  27.927  25.621  1.00  0.00    -0.200 F 
ATOM     73  F   UNL A   1      40.426  25.577  25.607  1.00  0.00    -0.200 F 
ENDBRANCH  49  63
BRANCH  50  74
ATOM     74  C   UNL A   1      39.628  33.999  36.921  1.00  0.00     0.064 A 
ATOM     75  C   UNL A   1      38.836  33.620  38.014  1.00  0.00     0.173 A 
ATOM     76  C   UNL A   1      40.288  35.235  36.993  1.00  0.00     0.173 A 
ATOM     77  F   UNL A   1      38.167  32.457  37.984  1.00  0.00    -0.203 F 
ATOM     78  C   UNL A   1      38.684  34.454  39.120  1.00  0.00     0.198 A 
ATOM     79  C   UNL A   1      40.162  36.054  38.114  1.00  0.00     0.198 A 
ATOM     80  F   UNL A   1      41.061  35.645  35.978  1.00  0.00    -0.203 F 
ATOM     81  F   UNL A   1      37.876  34.091  40.124  1.00  0.00    -0.200 F 
ATOM     82  C   UNL A   1      39.353  35.668  39.171  1.00  0.00     0.200 A 
ATOM     83  F   UNL A   1      40.822  37.219  38.166  1.00  0.00    -0.200 F 
ATOM     84  F   UNL A   1      39.209  36.470  40.235  1.00  0.00    -0.200 F 
ENDBRANCH  50  74
BRANCH  62  85
ATOM     85  C   UNL A   1      43.901  28.761  35.229  1.00  0.00     0.064 A 
ATOM     86  C   UNL A   1      43.740  27.652  36.072  1.00  0.00     0.173 A 
ATOM     87  C   UNL A   1      45.201  29.248  35.029  1.00  0.00     0.173 A 
ATOM     88  F   UNL A   1      42.516  27.154  36.309  1.00  0.00    -0.203 F 
ATOM     89  C   UNL A   1      44.833  27.074  36.714  1.00  0.00     0.198 A 
ATOM     90  C   UNL A   1      46.297  28.648  35.644  1.00  0.00     0.198 A 
ATOM     91  F   UNL A   1      45.414  30.302  34.226  1.00  0.00    -0.203 F 
ATOM     92  F   UNL A   1      44.648  26.050  37.558  1.00  0.00    -0.200 F 
ATOM     93  C   UNL A   1      46.110  27.567  36.492  1.00  0.00     0.200 A 
ATOM     94  F   UNL A   1      47.532  29.114  35.414  1.00  0.00    -0.200 F 
ATOM     95  F   UNL A   1      47.163  27.004  37.102  1.00  0.00    -0.200 F 
ENDBRANCH  62  85
ENDBRANCH  36  37
ENDBRANCH  28  31
ENDBRANCH  26  27
ENDBRANCH  25  26
ENDBRANCH   1  25
TORSDOF 16
ENDMDL
MODEL 2
REMARK VINA RESULT:     -12.0      6.195     11.684
REMARK SMILES O=C(CN(CC(F)(F)F)c1nc(-c2ccccc2)cs1)NCCCCNC(=O)c1ccc(-c2c3nc(c(-c4c(F)c(F)c(F)c(F)c4F)c4ccc([nH]4)c(-c4c(F)c(F)c(F)c(F)c4F)c4nc(c(-c5c(F)c(F)c(F)c(F)c5F)c5ccc2[nH]5)C=C4)C=C3)cc1
REMARK SMILES IDX 23 1 22 2 21 3 1 4 2 5 3 7 4 8 5 9 6 10 7 11 8 12 9 13 10 14
REMARK SMILES IDX 11 15 20 16 12 17 19 18 13 19 14 20 18 21 15 22 17 23 16 24
REMARK SMILES IDX 24 25 25 26 26 27 27 28 28 30 29 31 30 32 91 33 31 34 90 35
REMARK SMILES IDX 32 36 33 37 34 38 84 39 35 40 89 41 83 42 85 43 36 44 88 45
REMARK SMILES IDX 82 46 81 47 37 49 69 50 49 51 68 52 50 53 53 54 67 55 86 56
REMARK SMILES IDX 51 57 52 58 66 60 87 61 54 62 38 63 39 64 47 65 40 66 41 67
REMARK SMILES IDX 45 68 48 69 42 70 43 71 46 72 44 73 70 74 71 75 79 76 72 77
REMARK SMILES IDX 73 78 77 79 80 80 74 81 75 82 78 83 76 84 55 85 56 86 64 87
REMARK SMILES IDX 57 88 58 89 62 90 65 91 59 92 60 93 63 94 61 95
REMARK H PARENT 21 6 26 29 85 48 53 59
REMARK Flexibility Score: inf
ROOT
ATOM      1  C   UNL A   1      36.923  20.768  24.744  1.00  0.00     0.023 C 
ENDROOT
BRANCH   1   2
ATOM      2  C   UNL A   1      37.012  21.977  25.676  1.00  0.00     0.116 C 
BRANCH   2   3
ATOM      3  N   UNL A   1      35.832  22.157  26.497  1.00  0.00    -0.355 N 
ATOM      4  O   UNL A   1      35.294  24.233  25.675  1.00  0.00    -0.273 OA
ATOM      5  C   UNL A   1      35.004  23.254  26.360  1.00  0.00     0.239 C 
ATOM      6  H   UNL A   1      35.614  21.476  27.173  1.00  0.00     0.163 HD
BRANCH   5   7
ATOM      7  C   UNL A   1      33.738  23.227  27.237  1.00  0.00     0.219 C 
BRANCH   7   8
ATOM      8  N   UNL A   1      32.487  22.942  26.504  1.00  0.00    -0.330 N 
BRANCH   8   9
ATOM      9  C   UNL A   1      31.357  23.886  26.631  1.00  0.00     0.234 C 
BRANCH   9  10
ATOM     10  C   UNL A   1      31.504  25.295  26.030  1.00  0.00     0.406 C 
ATOM     11  F   UNL A   1      32.489  25.360  25.109  1.00  0.00    -0.169 F 
ATOM     12  F   UNL A   1      30.357  25.637  25.388  1.00  0.00    -0.169 F 
ATOM     13  F   UNL A   1      31.732  26.236  26.969  1.00  0.00    -0.169 F 
ENDBRANCH   9  10
ENDBRANCH   8   9
BRANCH   8  14
ATOM     14  C   UNL A   1      32.522  21.965  25.553  1.00  0.00     0.186 A 
ATOM     15  N   UNL A   1      32.873  20.728  25.829  1.00  0.00    -0.220 NA
ATOM     16  S   UNL A   1      32.152  22.224  23.885  1.00  0.00    -0.105 S 
ATOM     17  C   UNL A   1      32.859  19.940  24.691  1.00  0.00     0.083 A 
ATOM     18  C   UNL A   1      32.508  20.595  23.531  1.00  0.00     0.097 A 
BRANCH  17  19
ATOM     19  C   UNL A   1      33.121  18.513  24.742  1.00  0.00     0.001 A 
ATOM     20  C   UNL A   1      32.513  17.697  25.705  1.00  0.00     0.010 A 
ATOM     21  C   UNL A   1      34.031  17.948  23.841  1.00  0.00     0.010 A 
ATOM     22  C   UNL A   1      32.830  16.339  25.777  1.00  0.00     0.001 A 
ATOM     23  C   UNL A   1      34.355  16.592  23.921  1.00  0.00     0.001 A 
ATOM     24  C   UNL A   1      33.758  15.790  24.891  1.00  0.00     0.000 A 
ENDBRANCH  17  19
ENDBRANCH   8  14
ENDBRANCH   7   8
ENDBRANCH   5   7
ENDBRANCH   2   3
ENDBRANCH   1   2
BRANCH   1  25
ATOM     25  C   UNL A   1      37.973  19.680  24.983  1.00  0.00     0.023 C 
BRANCH  25  26
ATOM     26  C   UNL A   1      39.223  20.118  25.737  1.00  0.00     0.116 C 
BRANCH  26  27
ATOM     27  N   UNL A   1      40.230  19.074  25.847  1.00  0.00    -0.352 N 
ATOM     28  C   UNL A   1      41.576  19.173  26.107  1.00  0.00     0.251 C 
ATOM     29  H   UNL A   1      39.896  18.156  25.715  1.00  0.00     0.163 HD
ATOM     30  O   UNL A   1      42.290  18.174  26.042  1.00  0.00    -0.269 OA
BRANCH  28  31
ATOM     31  C   UNL A   1      42.186  20.484  26.430  1.00  0.00     0.039 A 
ATOM     32  C   UNL A   1      42.697  21.264  25.387  1.00  0.00     0.014 A 
ATOM     33  C   UNL A   1      42.265  20.947  27.746  1.00  0.00     0.014 A 
ATOM     34  C   UNL A   1      43.212  22.535  25.655  1.00  0.00     0.010 A 
ATOM     35  C   UNL A   1      42.707  22.244  28.001  1.00  0.00     0.010 A 
ATOM     36  C   UNL A   1      43.182  23.055  26.959  1.00  0.00    -0.014 A 
BRANCH  36  37
ATOM     37  C   UNL A   1      43.625  24.446  27.246  1.00  0.00     0.031 A 
ATOM     38  C   UNL A   1      42.646  25.467  27.762  1.00  0.00     0.074 A 
ATOM     39  C   UNL A   1      44.895  24.811  26.982  1.00  0.00     0.049 A 
ATOM     40  N   UNL A   1      42.829  26.741  28.006  1.00  0.00    -0.248 NA
ATOM     41  C   UNL A   1      41.275  25.000  28.015  1.00  0.00     0.031 C 
ATOM     42  C   UNL A   1      45.931  23.930  26.441  1.00  0.00     0.029 A 
ATOM     43  N   UNL A   1      45.530  26.022  27.121  1.00  0.00    -0.354 N 
ATOM     44  C   UNL A   1      41.597  27.228  28.425  1.00  0.00     0.074 A 
ATOM     45  C   UNL A   1      40.662  26.126  28.352  1.00  0.00     0.031 C 
ATOM     46  C   UNL A   1      47.077  24.621  26.320  1.00  0.00     0.029 A 
ATOM     47  C   UNL A   1      46.847  26.003  26.729  1.00  0.00     0.049 A 
ATOM     48  H   UNL A   1      45.083  26.827  27.469  1.00  0.00     0.167 HD
ATOM     49  C   UNL A   1      41.279  28.474  28.851  1.00  0.00     0.037 A 
ATOM     50  C   UNL A   1      47.763  26.989  26.693  1.00  0.00     0.037 A 
ATOM     51  C   UNL A   1      42.216  29.564  28.943  1.00  0.00     0.049 A 
ATOM     52  C   UNL A   1      47.376  28.371  27.151  1.00  0.00     0.074 A 
ATOM     53  C   UNL A   1      42.003  30.845  29.424  1.00  0.00     0.029 A 
ATOM     54  N   UNL A   1      43.542  29.504  28.541  1.00  0.00    -0.354 N 
ATOM     55  N   UNL A   1      46.227  28.799  27.613  1.00  0.00    -0.248 NA
ATOM     56  C   UNL A   1      48.418  29.406  27.085  1.00  0.00     0.031 C 
ATOM     57  C   UNL A   1      43.183  31.577  29.255  1.00  0.00     0.029 A 
ATOM     58  C   UNL A   1      44.150  30.735  28.732  1.00  0.00     0.049 A 
ATOM     59  H   UNL A   1      43.986  28.705  28.173  1.00  0.00     0.167 HD
ATOM     60  C   UNL A   1      46.416  30.139  27.926  1.00  0.00     0.074 A 
ATOM     61  C   UNL A   1      47.796  30.450  27.613  1.00  0.00     0.031 C 
ATOM     62  C   UNL A   1      45.527  31.031  28.427  1.00  0.00     0.037 A 
BRANCH  49  63
ATOM     63  C   UNL A   1      39.853  28.734  29.248  1.00  0.00     0.064 A 
ATOM     64  C   UNL A   1      38.898  29.187  28.323  1.00  0.00     0.173 A 
ATOM     65  C   UNL A   1      39.423  28.480  30.560  1.00  0.00     0.173 A 
ATOM     66  F   UNL A   1      39.257  29.454  27.059  1.00  0.00    -0.203 F 
ATOM     67  C   UNL A   1      37.577  29.405  28.705  1.00  0.00     0.198 A 
ATOM     68  C   UNL A   1      38.094  28.666  30.929  1.00  0.00     0.198 A 
ATOM     69  F   UNL A   1      40.290  28.038  31.483  1.00  0.00    -0.203 F 
ATOM     70  F   UNL A   1      36.697  29.888  27.818  1.00  0.00    -0.200 F 
ATOM     71  C   UNL A   1      37.174  29.137  30.005  1.00  0.00     0.200 A 
ATOM     72  F   UNL A   1      37.702  28.391  32.181  1.00  0.00    -0.200 F 
ATOM     73  F   UNL A   1      35.900  29.338  30.368  1.00  0.00    -0.200 F 
ENDBRANCH  49  63
BRANCH  50  74
ATOM     74  C   UNL A   1      49.147  26.708  26.224  1.00  0.00     0.064 A 
ATOM     75  C   UNL A   1      49.514  26.930  24.889  1.00  0.00     0.173 A 
ATOM     76  C   UNL A   1      50.123  26.193  27.090  1.00  0.00     0.173 A 
ATOM     77  F   UNL A   1      48.609  27.400  24.016  1.00  0.00    -0.203 F 
ATOM     78  C   UNL A   1      50.793  26.623  24.431  1.00  0.00     0.198 A 
ATOM     79  C   UNL A   1      51.413  25.917  26.638  1.00  0.00     0.198 A 
ATOM     80  F   UNL A   1      49.828  25.965  28.378  1.00  0.00    -0.203 F 
ATOM     81  F   UNL A   1      51.098  26.792  23.138  1.00  0.00    -0.200 F 
ATOM     82  C   UNL A   1      51.744  26.122  25.308  1.00  0.00     0.200 A 
ATOM     83  F   UNL A   1      52.333  25.448  27.493  1.00  0.00    -0.200 F 
ATOM     84  F   UNL A   1      52.975  25.828  24.868  1.00  0.00    -0.200 F 
ENDBRANCH  50  74
BRANCH  62  85
ATOM     85  C   UNL A   1      46.027  32.419  28.714  1.00  0.00     0.064 A 
ATOM     86  C   UNL A   1      46.603  32.760  29.946  1.00  0.00     0.173 A 
ATOM     87  C   UNL A   1      45.963  33.413  27.724  1.00  0.00     0.173 A 
ATOM     88  F   UNL A   1      46.676  31.851  30.932  1.00  0.00    -0.203 F 
ATOM     89  C   UNL A   1      47.068  34.050  30.188  1.00  0.00     0.198 A 
ATOM     90  C   UNL A   1      46.461  34.692  27.957  1.00  0.00     0.198 A 
ATOM     91  F   UNL A   1      45.428  33.140  26.524  1.00  0.00    -0.203 F 
ATOM     92  F   UNL A   1      47.565  34.366  31.392  1.00  0.00    -0.200 F 
ATOM     93  C   UNL A   1      47.005  35.012  29.192  1.00  0.00     0.200 A 
ATOM     94  F   UNL A   1      46.414  35.615  26.986  1.00  0.00    -0.200 F 
ATOM     95  F   UNL A   1      47.462  36.250  29.422  1.00  0.00    -0.200 F 
ENDBRANCH  62  85
ENDBRANCH  36  37
ENDBRANCH  28  31
ENDBRANCH  26  27
ENDBRANCH  25  26
ENDBRANCH   1  25
TORSDOF 16
ENDMDL
MODEL 3
REMARK VINA RESULT:     -12.0      0.668      1.750
REMARK SMILES O=C(CN(CC(F)(F)F)c1nc(-c2ccccc2)cs1)NCCCCNC(=O)c1ccc(-c2c3nc(c(-c4c(F)c(F)c(F)c(F)c4F)c4ccc([nH]4)c(-c4c(F)c(F)c(F)c(F)c4F)c4nc(c(-c5c(F)c(F)c(F)c(F)c5F)c5ccc2[nH]5)C=C4)C=C3)cc1
REMARK SMILES IDX 23 1 22 2 21 3 1 4 2 5 3 7 4 8 5 9 6 10 7 11 8 12 9 13 10 14
REMARK SMILES IDX 11 15 20 16 12 17 19 18 13 19 14 20 18 21 15 22 17 23 16 24
REMARK SMILES IDX 24 25 25 26 26 27 27 28 28 30 29 31 30 32 91 33 31 34 90 35
REMARK SMILES IDX 32 36 33 37 34 38 84 39 35 40 89 41 83 42 85 43 36 44 88 45
REMARK SMILES IDX 82 46 81 47 37 49 69 50 49 51 68 52 50 53 53 54 67 55 86 56
REMARK SMILES IDX 51 57 52 58 66 60 87 61 54 62 38 63 39 64 47 65 40 66 41 67
REMARK SMILES IDX 45 68 48 69 42 70 43 71 46 72 44 73 70 74 71 75 79 76 72 77
REMARK SMILES IDX 73 78 77 79 80 80 74 81 75 82 78 83 76 84 55 85 56 86 64 87
REMARK SMILES IDX 57 88 58 89 62 90 65 91 59 92 60 93 63 94 61 95
REMARK H PARENT 21 6 26 29 85 48 53 59
REMARK Flexibility Score: inf
ROOT
ATOM      1  C   UNL A   1      31.385  30.870  26.470  1.00  0.00     0.023 C 
ENDROOT
BRANCH   1   2
ATOM      2  C   UNL A   1      32.672  30.169  26.906  1.00  0.00     0.116 C 
BRANCH   2   3
ATOM      3  N   UNL A   1      32.843  28.859  26.311  1.00  0.00    -0.355 N 
ATOM      4  O   UNL A   1      31.600  27.731  27.878  1.00  0.00    -0.273 OA
ATOM      5  C   UNL A   1      32.204  27.740  26.807  1.00  0.00     0.239 C 
ATOM      6  H   UNL A   1      33.433  28.765  25.529  1.00  0.00     0.163 HD
BRANCH   5   7
ATOM      7  C   UNL A   1      32.413  26.453  25.987  1.00  0.00     0.219 C 
BRANCH   7   8
ATOM      8  N   UNL A   1      32.244  26.620  24.527  1.00  0.00    -0.330 N 
BRANCH   8   9
ATOM      9  C   UNL A   1      33.242  26.014  23.622  1.00  0.00     0.234 C 
BRANCH   9  10
ATOM     10  C   UNL A   1      32.961  24.615  23.046  1.00  0.00     0.406 C 
ATOM     11  F   UNL A   1      32.266  23.838  23.904  1.00  0.00    -0.169 F 
ATOM     12  F   UNL A   1      32.200  24.727  21.928  1.00  0.00    -0.169 F 
ATOM     13  F   UNL A   1      34.090  23.965  22.697  1.00  0.00    -0.169 F 
ENDBRANCH   9  10
ENDBRANCH   8   9
BRANCH   8  14
ATOM     14  C   UNL A   1      31.049  27.104  24.083  1.00  0.00     0.186 A 
ATOM     15  N   UNL A   1      30.879  28.366  23.756  1.00  0.00    -0.220 NA
ATOM     16  S   UNL A   1      29.617  26.149  23.925  1.00  0.00    -0.105 S 
ATOM     17  C   UNL A   1      29.572  28.609  23.368  1.00  0.00     0.083 A 
ATOM     18  C   UNL A   1      28.735  27.516  23.418  1.00  0.00     0.097 A 
BRANCH  17  19
ATOM     19  C   UNL A   1      29.148  29.906  22.873  1.00  0.00     0.001 A 
ATOM     20  C   UNL A   1      29.161  31.039  23.699  1.00  0.00     0.010 A 
ATOM     21  C   UNL A   1      28.678  30.021  21.559  1.00  0.00     0.010 A 
ATOM     22  C   UNL A   1      28.687  32.262  23.221  1.00  0.00     0.001 A 
ATOM     23  C   UNL A   1      28.195  31.243  21.086  1.00  0.00     0.001 A 
ATOM     24  C   UNL A   1      28.196  32.360  21.918  1.00  0.00     0.000 A 
ENDBRANCH  17  19
ENDBRANCH   8  14
ENDBRANCH   7   8
ENDBRANCH   5   7
ENDBRANCH   2   3
ENDBRANCH   1   2
BRANCH   1  25
ATOM     25  C   UNL A   1      31.422  32.399  26.525  1.00  0.00     0.023 C 
BRANCH  25  26
ATOM     26  C   UNL A   1      32.555  33.006  27.345  1.00  0.00     0.116 C 
BRANCH  26  27
ATOM     27  N   UNL A   1      32.321  34.392  27.720  1.00  0.00    -0.352 N 
ATOM     28  C   UNL A   1      32.960  35.170  28.656  1.00  0.00     0.251 C 
ATOM     29  H   UNL A   1      31.593  34.840  27.230  1.00  0.00     0.163 HD
ATOM     30  O   UNL A   1      32.535  36.295  28.914  1.00  0.00    -0.269 OA
BRANCH  28  31
ATOM     31  C   UNL A   1      34.140  34.652  29.388  1.00  0.00     0.039 A 
ATOM     32  C   UNL A   1      33.967  34.173  30.689  1.00  0.00     0.014 A 
ATOM     33  C   UNL A   1      35.410  34.642  28.807  1.00  0.00     0.014 A 
ATOM     34  C   UNL A   1      35.048  33.612  31.376  1.00  0.00     0.010 A 
ATOM     35  C   UNL A   1      36.468  34.012  29.461  1.00  0.00     0.010 A 
ATOM     36  C   UNL A   1      36.299  33.487  30.751  1.00  0.00    -0.014 A 
BRANCH  36  37
ATOM     37  C   UNL A   1      37.432  32.796  31.423  1.00  0.00     0.031 A 
ATOM     38  C   UNL A   1      38.111  31.625  30.764  1.00  0.00     0.074 A 
ATOM     39  C   UNL A   1      37.811  33.180  32.659  1.00  0.00     0.049 A 
ATOM     40  N   UNL A   1      39.067  30.856  31.222  1.00  0.00    -0.248 NA
ATOM     41  C   UNL A   1      37.636  31.255  29.422  1.00  0.00     0.031 C 
ATOM     42  C   UNL A   1      37.209  34.272  33.425  1.00  0.00     0.029 A 
ATOM     43  N   UNL A   1      38.786  32.689  33.493  1.00  0.00    -0.354 N 
ATOM     44  C   UNL A   1      39.296  29.906  30.234  1.00  0.00     0.074 A 
ATOM     45  C   UNL A   1      38.344  30.162  29.175  1.00  0.00     0.031 C 
ATOM     46  C   UNL A   1      37.844  34.385  34.603  1.00  0.00     0.029 A 
ATOM     47  C   UNL A   1      38.865  33.347  34.697  1.00  0.00     0.049 A 
ATOM     48  H   UNL A   1      39.373  31.936  33.251  1.00  0.00     0.167 HD
ATOM     49  C   UNL A   1      40.228  28.923  30.204  1.00  0.00     0.037 A 
ATOM     50  C   UNL A   1      39.663  33.132  35.761  1.00  0.00     0.037 A 
ATOM     51  C   UNL A   1      41.190  28.685  31.250  1.00  0.00     0.049 A 
ATOM     52  C   UNL A   1      40.675  32.018  35.709  1.00  0.00     0.074 A 
ATOM     53  C   UNL A   1      42.215  27.754  31.281  1.00  0.00     0.029 A 
ATOM     54  N   UNL A   1      41.240  29.375  32.451  1.00  0.00    -0.354 N 
ATOM     55  N   UNL A   1      40.929  31.174  34.739  1.00  0.00    -0.248 NA
ATOM     56  C   UNL A   1      41.514  31.830  36.901  1.00  0.00     0.031 C 
ATOM     57  C   UNL A   1      42.846  27.841  32.526  1.00  0.00     0.029 A 
ATOM     58  C   UNL A   1      42.259  28.869  33.245  1.00  0.00     0.049 A 
ATOM     59  H   UNL A   1      40.642  30.115  32.704  1.00  0.00     0.167 HD
ATOM     60  C   UNL A   1      41.978  30.381  35.187  1.00  0.00     0.074 A 
ATOM     61  C   UNL A   1      42.321  30.854  36.513  1.00  0.00     0.031 C 
ATOM     62  C   UNL A   1      42.600  29.354  34.558  1.00  0.00     0.037 A 
BRANCH  49  63
ATOM     63  C   UNL A   1      40.256  28.023  29.001  1.00  0.00     0.064 A 
ATOM     64  C   UNL A   1      40.983  28.354  27.846  1.00  0.00     0.173 A 
ATOM     65  C   UNL A   1      39.585  26.791  29.020  1.00  0.00     0.173 A 
ATOM     66  F   UNL A   1      41.635  29.523  27.772  1.00  0.00    -0.203 F 
ATOM     67  C   UNL A   1      41.011  27.499  26.747  1.00  0.00     0.198 A 
ATOM     68  C   UNL A   1      39.644  25.923  27.933  1.00  0.00     0.198 A 
ATOM     69  F   UNL A   1      38.881  26.420  30.100  1.00  0.00    -0.203 F 
ATOM     70  F   UNL A   1      41.670  27.861  25.637  1.00  0.00    -0.200 F 
ATOM     71  C   UNL A   1      40.349  26.281  26.794  1.00  0.00     0.200 A 
ATOM     72  F   UNL A   1      39.017  24.740  27.986  1.00  0.00    -0.200 F 
ATOM     73  F   UNL A   1      40.386  25.456  25.739  1.00  0.00    -0.200 F 
ENDBRANCH  49  63
BRANCH  50  74
ATOM     74  C   UNL A   1      39.555  34.001  36.964  1.00  0.00     0.064 A 
ATOM     75  C   UNL A   1      40.201  35.245  37.014  1.00  0.00     0.173 A 
ATOM     76  C   UNL A   1      38.825  33.601  38.092  1.00  0.00     0.173 A 
ATOM     77  F   UNL A   1      40.931  35.662  35.969  1.00  0.00    -0.203 F 
ATOM     78  C   UNL A   1      40.144  36.042  38.155  1.00  0.00     0.198 A 
ATOM     79  C   UNL A   1      38.741  34.414  39.221  1.00  0.00     0.198 A 
ATOM     80  F   UNL A   1      38.184  32.423  38.096  1.00  0.00    -0.203 F 
ATOM     81  F   UNL A   1      40.817  37.199  38.196  1.00  0.00    -0.200 F 
ATOM     82  C   UNL A   1      39.408  35.628  39.256  1.00  0.00     0.200 A 
ATOM     83  F   UNL A   1      38.016  34.018  40.277  1.00  0.00    -0.200 F 
ATOM     84  F   UNL A   1      39.352  36.395  40.353  1.00  0.00    -0.200 F 
ENDBRANCH  50  74
BRANCH  62  85
ATOM     85  C   UNL A   1      43.748  28.698  35.273  1.00  0.00     0.064 A 
ATOM     86  C   UNL A   1      43.561  27.600  36.124  1.00  0.00     0.173 A 
ATOM     87  C   UNL A   1      45.060  29.153  35.069  1.00  0.00     0.173 A 
ATOM     88  F   UNL A   1      42.325  27.134  36.364  1.00  0.00    -0.203 F 
ATOM     89  C   UNL A   1      44.640  27.000  36.769  1.00  0.00     0.198 A 
ATOM     90  C   UNL A   1      46.141  28.530  35.688  1.00  0.00     0.198 A 
ATOM     91  F   UNL A   1      45.298  30.195  34.259  1.00  0.00    -0.203 F 
ATOM     92  F   UNL A   1      44.430  25.987  37.621  1.00  0.00    -0.200 F 
ATOM     93  C   UNL A   1      45.929  27.460  36.544  1.00  0.00     0.200 A 
ATOM     94  F   UNL A   1      47.387  28.964  35.455  1.00  0.00    -0.200 F 
ATOM     95  F   UNL A   1      46.967  26.876  37.158  1.00  0.00    -0.200 F 
ENDBRANCH  62  85
ENDBRANCH  36  37
ENDBRANCH  28  31
ENDBRANCH  26  27
ENDBRANCH  25  26
ENDBRANCH   1  25
TORSDOF 16
ENDMDL
