MODEL 1
REMARK VINA RESULT:     -13.3      0.000      0.000
REMARK SMILES CSc1ccc(-c2cc(C[C@H]3CCCC3=O)ccc2[C@@H](C)C(=O)NCCCCNC(=O)c2ccc(-c3c4nc(c(-c5c(F)c(F)c(F)c(F)c5F)c5ccc([nH]5)c(-c5c(F)c(F)c(F)c(F)c5F)c5nc(c(-c6c(F)c(F)c(F)c(F)c6F)c6ccc3[nH]6)C=C5)C=C4)cc2)cc1
REMARK SMILES IDX 26 1 25 2 24 3 22 4 23 5 20 7 21 8 19 9 7 10 8 11 9 12 18 13
REMARK SMILES IDX 17 14 6 15 3 16 4 17 96 18 5 19 95 20 2 21 1 22 10 23 11 24
REMARK SMILES IDX 12 25 15 26 13 27 14 28 16 29 27 30 28 31 29 32 30 33 31 35
REMARK SMILES IDX 32 36 33 37 94 38 34 39 93 40 35 41 36 42 37 43 87 44 38 45
REMARK SMILES IDX 92 46 86 47 88 48 39 49 91 50 85 51 84 52 40 54 72 55 52 56
REMARK SMILES IDX 71 57 53 58 56 59 70 60 89 61 54 62 55 63 69 65 90 66 57 67
REMARK SMILES IDX 41 68 42 69 50 70 43 71 44 72 48 73 51 74 45 75 46 76 49 77
REMARK SMILES IDX 47 78 73 79 74 80 82 81 75 82 76 83 80 84 83 85 77 86 78 87
REMARK SMILES IDX 81 88 79 89 58 90 59 91 67 92 60 93 61 94 65 95 68 96 62 97
REMARK SMILES IDX 63 98 66 99 64 100
REMARK H PARENT 24 6 29 34 88 53 56 64
REMARK Flexibility Score: inf
ROOT
ATOM      1  C   UNL A   1      31.762  30.420  26.453  1.00  0.00     0.023 C 
ENDROOT
BRANCH   1   2
ATOM      2  C   UNL A   1      33.050  30.081  25.700  1.00  0.00     0.116 C 
BRANCH   2   3
ATOM      3  N   UNL A   1      33.500  28.736  25.980  1.00  0.00    -0.356 N 
ATOM      4  C   UNL A   1      33.619  27.634  25.189  1.00  0.00     0.227 C 
ATOM      5  O   UNL A   1      33.951  26.592  25.773  1.00  0.00    -0.274 OA
ATOM      6  H   UNL A   1      33.770  28.590  26.915  1.00  0.00     0.163 HD
BRANCH   4   7
ATOM      7  C   UNL A   1      33.375  27.622  23.667  1.00  0.00     0.106 C 
ATOM      8  C   UNL A   1      34.448  28.336  22.845  1.00  0.00     0.023 C 
BRANCH   7   9
ATOM      9  C   UNL A   1      31.925  27.935  23.294  1.00  0.00    -0.028 A 
ATOM     10  C   UNL A   1      30.846  27.114  23.709  1.00  0.00    -0.014 A 
ATOM     11  C   UNL A   1      29.520  27.561  23.503  1.00  0.00     0.012 A 
ATOM     12  C   UNL A   1      29.236  28.740  22.805  1.00  0.00    -0.047 A 
ATOM     13  C   UNL A   1      31.618  29.077  22.537  1.00  0.00     0.005 A 
ATOM     14  C   UNL A   1      30.303  29.487  22.312  1.00  0.00     0.004 A 
BRANCH  10  15
ATOM     15  C   UNL A   1      31.033  25.707  24.104  1.00  0.00    -0.018 A 
ATOM     16  C   UNL A   1      31.584  22.989  24.703  1.00  0.00     0.007 A 
ATOM     17  C   UNL A   1      31.678  23.457  23.395  1.00  0.00     0.015 A 
ATOM     18  C   UNL A   1      31.203  23.892  25.708  1.00  0.00     0.015 A 
ATOM     19  C   UNL A   1      31.409  24.794  23.104  1.00  0.00     0.010 A 
ATOM     20  C   UNL A   1      30.916  25.234  25.412  1.00  0.00     0.010 A 
BRANCH  16  21
ATOM     21  S   UNL A   1      31.978  21.311  25.182  1.00  0.00    -0.130 SA
ATOM     22  C   UNL A   1      33.314  21.544  26.390  1.00  0.00     0.091 C 
ENDBRANCH  16  21
ENDBRANCH  10  15
BRANCH  12  23
ATOM     23  C   UNL A   1      27.812  29.142  22.489  1.00  0.00     0.047 C 
BRANCH  23  24
ATOM     24  C   UNL A   1      27.502  30.637  22.661  1.00  0.00     0.060 C 
ATOM     25  C   UNL A   1      28.220  31.334  23.823  1.00  0.00     0.012 C 
ATOM     26  C   UNL A   1      27.909  31.456  21.461  1.00  0.00     0.136 C 
ATOM     27  C   UNL A   1      28.631  32.715  23.325  1.00  0.00     0.009 C 
ATOM     28  C   UNL A   1      28.800  32.608  21.820  1.00  0.00     0.076 C 
ATOM     29  O   UNL A   1      27.566  31.203  20.312  1.00  0.00    -0.299 OA
ENDBRANCH  23  24
ENDBRANCH  12  23
ENDBRANCH   7   9
ENDBRANCH   4   7
ENDBRANCH   2   3
ENDBRANCH   1   2
BRANCH   1  30
ATOM     30  C   UNL A   1      31.502  31.907  26.665  1.00  0.00     0.023 C 
BRANCH  30  31
ATOM     31  C   UNL A   1      32.653  32.683  27.291  1.00  0.00     0.116 C 
BRANCH  31  32
ATOM     32  N   UNL A   1      32.346  34.075  27.587  1.00  0.00    -0.352 N 
ATOM     33  C   UNL A   1      32.972  34.912  28.485  1.00  0.00     0.251 C 
ATOM     34  H   UNL A   1      31.597  34.467  27.083  1.00  0.00     0.163 HD
ATOM     35  O   UNL A   1      32.562  36.045  28.678  1.00  0.00    -0.269 OA
BRANCH  33  36
ATOM     36  C   UNL A   1      34.121  34.390  29.253  1.00  0.00     0.039 A 
ATOM     37  C   UNL A   1      33.876  33.631  30.399  1.00  0.00     0.014 A 
ATOM     38  C   UNL A   1      35.427  34.582  28.793  1.00  0.00     0.014 A 
ATOM     39  C   UNL A   1      34.938  32.991  31.038  1.00  0.00     0.010 A 
ATOM     40  C   UNL A   1      36.472  33.881  29.383  1.00  0.00     0.010 A 
ATOM     41  C   UNL A   1      36.235  33.075  30.507  1.00  0.00    -0.014 A 
BRANCH  41  42
ATOM     42  C   UNL A   1      37.363  32.320  31.106  1.00  0.00     0.031 A 
ATOM     43  C   UNL A   1      37.862  32.682  32.475  1.00  0.00     0.074 A 
ATOM     44  C   UNL A   1      37.986  31.369  30.384  1.00  0.00     0.049 A 
ATOM     45  N   UNL A   1      38.882  32.201  33.138  1.00  0.00    -0.248 NA
ATOM     46  C   UNL A   1      37.136  33.750  33.182  1.00  0.00     0.031 C 
ATOM     47  C   UNL A   1      37.633  30.974  29.020  1.00  0.00     0.029 A 
ATOM     48  N   UNL A   1      39.060  30.572  30.694  1.00  0.00    -0.354 N 
ATOM     49  C   UNL A   1      38.933  32.919  34.324  1.00  0.00     0.074 A 
ATOM     50  C   UNL A   1      37.875  33.905  34.270  1.00  0.00     0.031 C 
ATOM     51  C   UNL A   1      38.460  29.993  28.619  1.00  0.00     0.029 A 
ATOM     52  C   UNL A   1      39.419  29.714  29.682  1.00  0.00     0.049 A 
ATOM     53  H   UNL A   1      39.528  30.610  31.559  1.00  0.00     0.167 HD
ATOM     54  C   UNL A   1      39.769  32.755  35.376  1.00  0.00     0.037 A 
ATOM     55  C   UNL A   1      40.413  28.808  29.622  1.00  0.00     0.037 A 
ATOM     56  C   UNL A   1      40.793  31.748  35.442  1.00  0.00     0.049 A 
ATOM     57  C   UNL A   1      41.320  28.634  30.811  1.00  0.00     0.074 A 
ATOM     58  C   UNL A   1      41.636  31.442  36.495  1.00  0.00     0.029 A 
ATOM     59  N   UNL A   1      41.111  30.879  34.409  1.00  0.00    -0.354 N 
ATOM     60  N   UNL A   1      41.306  29.264  31.960  1.00  0.00    -0.248 NA
ATOM     61  C   UNL A   1      42.377  27.621  30.694  1.00  0.00     0.031 C 
ATOM     62  C   UNL A   1      42.489  30.412  36.087  1.00  0.00     0.029 A 
ATOM     63  C   UNL A   1      42.152  30.050  34.792  1.00  0.00     0.049 A 
ATOM     64  H   UNL A   1      40.661  30.855  33.533  1.00  0.00     0.167 HD
ATOM     65  C   UNL A   1      42.335  28.712  32.710  1.00  0.00     0.074 A 
ATOM     66  C   UNL A   1      42.944  27.685  31.891  1.00  0.00     0.031 C 
ATOM     67  C   UNL A   1      42.741  29.030  33.963  1.00  0.00     0.037 A 
BRANCH  54  68
ATOM     68  C   UNL A   1      39.601  33.679  36.545  1.00  0.00     0.064 A 
ATOM     69  C   UNL A   1      40.236  34.929  36.588  1.00  0.00     0.173 A 
ATOM     70  C   UNL A   1      38.776  33.322  37.621  1.00  0.00     0.173 A 
ATOM     71  F   UNL A   1      41.047  35.309  35.590  1.00  0.00    -0.203 F 
ATOM     72  C   UNL A   1      40.076  35.776  37.682  1.00  0.00     0.198 A 
ATOM     73  C   UNL A   1      38.594  34.185  38.699  1.00  0.00     0.198 A 
ATOM     74  F   UNL A   1      38.143  32.140  37.626  1.00  0.00    -0.203 F 
ATOM     75  F   UNL A   1      40.731  36.944  37.724  1.00  0.00    -0.200 F 
ATOM     76  C   UNL A   1      39.250  35.407  38.733  1.00  0.00     0.200 A 
ATOM     77  F   UNL A   1      37.789  33.831  39.710  1.00  0.00    -0.200 F 
ATOM     78  F   UNL A   1      39.093  36.225  39.782  1.00  0.00    -0.200 F 
ENDBRANCH  54  68
BRANCH  55  79
ATOM     79  C   UNL A   1      40.584  27.975  28.405  1.00  0.00     0.064 A 
ATOM     80  C   UNL A   1      41.355  28.432  27.328  1.00  0.00     0.173 A 
ATOM     81  C   UNL A   1      39.985  26.712  28.291  1.00  0.00     0.173 A 
ATOM     82  F   UNL A   1      41.931  29.642  27.383  1.00  0.00    -0.203 F 
ATOM     83  C   UNL A   1      41.508  27.664  26.175  1.00  0.00     0.198 A 
ATOM     84  C   UNL A   1      40.158  25.936  27.148  1.00  0.00     0.198 A 
ATOM     85  F   UNL A   1      39.241  26.229  29.297  1.00  0.00    -0.203 F 
ATOM     86  F   UNL A   1      42.218  28.142  25.144  1.00  0.00    -0.200 F 
ATOM     87  C   UNL A   1      40.914  26.415  26.088  1.00  0.00     0.200 A 
ATOM     88  F   UNL A   1      39.591  24.723  27.072  1.00  0.00    -0.200 F 
ATOM     89  F   UNL A   1      41.063  25.676  24.981  1.00  0.00    -0.200 F 
ENDBRANCH  55  79
BRANCH  67  90
ATOM     90  C   UNL A   1      43.883  28.246  34.534  1.00  0.00     0.064 A 
ATOM     91  C   UNL A   1      45.203  28.712  34.451  1.00  0.00     0.173 A 
ATOM     92  C   UNL A   1      43.648  27.044  35.219  1.00  0.00     0.173 A 
ATOM     93  F   UNL A   1      45.477  29.848  33.792  1.00  0.00    -0.203 F 
ATOM     94  C   UNL A   1      46.250  27.995  35.022  1.00  0.00     0.198 A 
ATOM     95  C   UNL A   1      44.695  26.344  35.811  1.00  0.00     0.198 A 
ATOM     96  F   UNL A   1      42.403  26.561  35.330  1.00  0.00    -0.203 F 
ATOM     97  F   UNL A   1      47.508  28.439  34.901  1.00  0.00    -0.200 F 
ATOM     98  C   UNL A   1      45.995  26.816  35.707  1.00  0.00     0.200 A 
ATOM     99  F   UNL A   1      44.446  25.210  36.483  1.00  0.00    -0.200 F 
ATOM    100  F   UNL A   1      47.004  26.133  36.266  1.00  0.00    -0.200 F 
ENDBRANCH  67  90
ENDBRANCH  41  42
ENDBRANCH  33  36
ENDBRANCH  31  32
ENDBRANCH  30  31
ENDBRANCH   1  30
TORSDOF 16
ENDMDL
MODEL 2
REMARK VINA RESULT:     -13.2      0.698      7.072
REMARK SMILES CSc1ccc(-c2cc(C[C@H]3CCCC3=O)ccc2[C@@H](C)C(=O)NCCCCNC(=O)c2ccc(-c3c4nc(c(-c5c(F)c(F)c(F)c(F)c5F)c5ccc([nH]5)c(-c5c(F)c(F)c(F)c(F)c5F)c5nc(c(-c6c(F)c(F)c(F)c(F)c6F)c6ccc3[nH]6)C=C5)C=C4)cc2)cc1
REMARK SMILES IDX 26 1 25 2 24 3 22 4 23 5 20 7 21 8 19 9 7 10 8 11 9 12 18 13
REMARK SMILES IDX 17 14 6 15 3 16 4 17 96 18 5 19 95 20 2 21 1 22 10 23 11 24
REMARK SMILES IDX 12 25 15 26 13 27 14 28 16 29 27 30 28 31 29 32 30 33 31 35
REMARK SMILES IDX 32 36 33 37 94 38 34 39 93 40 35 41 36 42 37 43 87 44 38 45
REMARK SMILES IDX 92 46 86 47 88 48 39 49 91 50 85 51 84 52 40 54 72 55 52 56
REMARK SMILES IDX 71 57 53 58 56 59 70 60 89 61 54 62 55 63 69 65 90 66 57 67
REMARK SMILES IDX 41 68 42 69 50 70 43 71 44 72 48 73 51 74 45 75 46 76 49 77
REMARK SMILES IDX 47 78 73 79 74 80 82 81 75 82 76 83 80 84 83 85 77 86 78 87
REMARK SMILES IDX 81 88 79 89 58 90 59 91 67 92 60 93 61 94 65 95 68 96 62 97
REMARK SMILES IDX 63 98 66 99 64 100
REMARK H PARENT 24 6 29 34 88 53 56 64
REMARK Flexibility Score: inf
ROOT
ATOM      1  C   UNL A   1      32.033  30.339  26.829  1.00  0.00     0.023 C 
ENDROOT
BRANCH   1   2
ATOM      2  C   UNL A   1      33.222  29.902  25.970  1.00  0.00     0.116 C 
BRANCH   2   3
ATOM      3  N   UNL A   1      33.566  28.515  26.190  1.00  0.00    -0.356 N 
ATOM      4  C   UNL A   1      33.604  27.443  25.351  1.00  0.00     0.227 C 
ATOM      5  O   UNL A   1      33.852  26.355  25.888  1.00  0.00    -0.274 OA
ATOM      6  H   UNL A   1      33.818  28.307  27.118  1.00  0.00     0.163 HD
BRANCH   4   7
ATOM      7  C   UNL A   1      33.369  27.519  23.829  1.00  0.00     0.106 C 
ATOM      8  C   UNL A   1      34.425  28.313  23.061  1.00  0.00     0.023 C 
BRANCH   7   9
ATOM      9  C   UNL A   1      31.912  27.810  23.465  1.00  0.00    -0.028 A 
ATOM     10  C   UNL A   1      30.860  26.919  23.795  1.00  0.00    -0.014 A 
ATOM     11  C   UNL A   1      29.521  27.335  23.611  1.00  0.00     0.012 A 
ATOM     12  C   UNL A   1      29.200  28.558  23.012  1.00  0.00    -0.047 A 
ATOM     13  C   UNL A   1      31.571  29.001  22.805  1.00  0.00     0.005 A 
ATOM     14  C   UNL A   1      30.244  29.382  22.599  1.00  0.00     0.004 A 
BRANCH  10  15
ATOM     15  C   UNL A   1      31.095  25.491  24.071  1.00  0.00    -0.018 A 
ATOM     16  C   UNL A   1      31.762  22.764  24.477  1.00  0.00     0.007 A 
ATOM     17  C   UNL A   1      32.043  23.386  23.263  1.00  0.00     0.015 A 
ATOM     18  C   UNL A   1      31.136  23.517  25.483  1.00  0.00     0.015 A 
ATOM     19  C   UNL A   1      31.716  24.728  23.068  1.00  0.00     0.010 A 
ATOM     20  C   UNL A   1      30.792  24.862  25.279  1.00  0.00     0.010 A 
BRANCH  16  21
ATOM     21  S   UNL A   1      32.208  21.071  24.845  1.00  0.00    -0.130 SA
ATOM     22  C   UNL A   1      32.243  20.300  23.201  1.00  0.00     0.091 C 
ENDBRANCH  16  21
ENDBRANCH  10  15
BRANCH  12  23
ATOM     23  C   UNL A   1      27.766  28.935  22.713  1.00  0.00     0.047 C 
BRANCH  23  24
ATOM     24  C   UNL A   1      27.466  30.441  22.746  1.00  0.00     0.060 C 
ATOM     25  C   UNL A   1      28.141  31.229  23.876  1.00  0.00     0.012 C 
ATOM     26  C   UNL A   1      27.934  31.153  21.500  1.00  0.00     0.136 C 
ATOM     27  C   UNL A   1      28.590  32.559  23.282  1.00  0.00     0.009 C 
ATOM     28  C   UNL A   1      28.823  32.324  21.800  1.00  0.00     0.076 C 
ATOM     29  O   UNL A   1      27.639  30.807  20.363  1.00  0.00    -0.299 OA
ENDBRANCH  23  24
ENDBRANCH  12  23
ENDBRANCH   7   9
ENDBRANCH   4   7
ENDBRANCH   2   3
ENDBRANCH   1   2
BRANCH   1  30
ATOM     30  C   UNL A   1      31.734  31.834  26.818  1.00  0.00     0.023 C 
BRANCH  30  31
ATOM     31  C   UNL A   1      32.818  32.716  27.421  1.00  0.00     0.116 C 
BRANCH  31  32
ATOM     32  N   UNL A   1      32.402  34.088  27.674  1.00  0.00    -0.352 N 
ATOM     33  C   UNL A   1      32.954  34.995  28.553  1.00  0.00     0.251 C 
ATOM     34  H   UNL A   1      31.631  34.406  27.153  1.00  0.00     0.163 HD
ATOM     35  O   UNL A   1      32.456  36.098  28.710  1.00  0.00    -0.269 OA
BRANCH  33  36
ATOM     36  C   UNL A   1      34.132  34.585  29.345  1.00  0.00     0.039 A 
ATOM     37  C   UNL A   1      33.936  34.108  30.642  1.00  0.00     0.014 A 
ATOM     38  C   UNL A   1      35.408  34.595  28.775  1.00  0.00     0.014 A 
ATOM     39  C   UNL A   1      35.013  33.560  31.340  1.00  0.00     0.010 A 
ATOM     40  C   UNL A   1      36.460  33.979  29.440  1.00  0.00     0.010 A 
ATOM     41  C   UNL A   1      36.271  33.450  30.726  1.00  0.00    -0.014 A 
BRANCH  41  42
ATOM     42  C   UNL A   1      37.404  32.778  31.406  1.00  0.00     0.031 A 
ATOM     43  C   UNL A   1      38.087  31.613  30.750  1.00  0.00     0.074 A 
ATOM     44  C   UNL A   1      37.761  33.164  32.646  1.00  0.00     0.049 A 
ATOM     45  N   UNL A   1      39.038  30.843  31.212  1.00  0.00    -0.248 NA
ATOM     46  C   UNL A   1      37.616  31.244  29.405  1.00  0.00     0.031 C 
ATOM     47  C   UNL A   1      37.130  34.241  33.412  1.00  0.00     0.029 A 
ATOM     48  N   UNL A   1      38.733  32.684  33.488  1.00  0.00    -0.354 N 
ATOM     49  C   UNL A   1      39.262  29.890  30.229  1.00  0.00     0.074 A 
ATOM     50  C   UNL A   1      38.314  30.144  29.166  1.00  0.00     0.031 C 
ATOM     51  C   UNL A   1      37.746  34.354  34.600  1.00  0.00     0.029 A 
ATOM     52  C   UNL A   1      38.791  33.339  34.694  1.00  0.00     0.049 A 
ATOM     53  H   UNL A   1      39.332  31.940  33.250  1.00  0.00     0.167 HD
ATOM     54  C   UNL A   1      40.193  28.907  30.202  1.00  0.00     0.037 A 
ATOM     55  C   UNL A   1      39.596  33.140  35.754  1.00  0.00     0.037 A 
ATOM     56  C   UNL A   1      41.160  28.684  31.243  1.00  0.00     0.049 A 
ATOM     57  C   UNL A   1      40.633  32.051  35.693  1.00  0.00     0.074 A 
ATOM     58  C   UNL A   1      42.199  27.772  31.274  1.00  0.00     0.029 A 
ATOM     59  N   UNL A   1      41.206  29.385  32.439  1.00  0.00    -0.354 N 
ATOM     60  N   UNL A   1      40.890  31.208  34.723  1.00  0.00    -0.248 NA
ATOM     61  C   UNL A   1      41.493  31.888  36.873  1.00  0.00     0.031 C 
ATOM     62  C   UNL A   1      42.852  27.896  32.504  1.00  0.00     0.029 A 
ATOM     63  C   UNL A   1      42.244  28.912  33.224  1.00  0.00     0.049 A 
ATOM     64  H   UNL A   1      40.592  30.113  32.691  1.00  0.00     0.167 HD
ATOM     65  C   UNL A   1      41.951  30.431  35.165  1.00  0.00     0.074 A 
ATOM     66  C   UNL A   1      42.301  30.912  36.485  1.00  0.00     0.031 C 
ATOM     67  C   UNL A   1      42.578  29.408  34.534  1.00  0.00     0.037 A 
BRANCH  54  68
ATOM     68  C   UNL A   1      40.217  28.009  29.002  1.00  0.00     0.064 A 
ATOM     69  C   UNL A   1      40.948  28.343  27.851  1.00  0.00     0.173 A 
ATOM     70  C   UNL A   1      39.523  26.790  29.010  1.00  0.00     0.173 A 
ATOM     71  F   UNL A   1      41.616  29.505  27.790  1.00  0.00    -0.203 F 
ATOM     72  C   UNL A   1      40.959  27.502  26.741  1.00  0.00     0.198 A 
ATOM     73  C   UNL A   1      39.561  25.938  27.909  1.00  0.00     0.198 A 
ATOM     74  F   UNL A   1      38.813  26.423  30.087  1.00  0.00    -0.203 F 
ATOM     75  F   UNL A   1      41.623  27.865  25.636  1.00  0.00    -0.200 F 
ATOM     76  C   UNL A   1      40.271  26.299  26.773  1.00  0.00     0.200 A 
ATOM     77  F   UNL A   1      38.904  24.771  27.944  1.00  0.00    -0.200 F 
ATOM     78  F   UNL A   1      40.287  25.489  25.706  1.00  0.00    -0.200 F 
ENDBRANCH  54  68
BRANCH  55  79
ATOM     79  C   UNL A   1      39.474  34.009  36.952  1.00  0.00     0.064 A 
ATOM     80  C   UNL A   1      38.721  33.599  38.061  1.00  0.00     0.173 A 
ATOM     81  C   UNL A   1      40.101  35.262  37.015  1.00  0.00     0.173 A 
ATOM     82  F   UNL A   1      38.086  32.417  38.038  1.00  0.00    -0.203 F 
ATOM     83  C   UNL A   1      38.588  34.414  39.182  1.00  0.00     0.198 A 
ATOM     84  C   UNL A   1      39.986  36.066  38.147  1.00  0.00     0.198 A 
ATOM     85  F   UNL A   1      40.836  35.697  35.982  1.00  0.00    -0.203 F 
ATOM     86  F   UNL A   1      37.830  34.014  40.212  1.00  0.00    -0.200 F 
ATOM     87  C   UNL A   1      39.224  35.645  39.226  1.00  0.00     0.200 A 
ATOM     88  F   UNL A   1      40.613  37.250  38.191  1.00  0.00    -0.200 F 
ATOM     89  F   UNL A   1      39.098  36.428  40.306  1.00  0.00    -0.200 F 
ENDBRANCH  55  79
BRANCH  67  90
ATOM     90  C   UNL A   1      43.718  28.753  35.253  1.00  0.00     0.064 A 
ATOM     91  C   UNL A   1      45.032  29.224  35.122  1.00  0.00     0.173 A 
ATOM     92  C   UNL A   1      43.485  27.679  36.126  1.00  0.00     0.173 A 
ATOM     93  F   UNL A   1      45.305  30.238  34.286  1.00  0.00    -0.203 F 
ATOM     94  C   UNL A   1      46.076  28.633  35.827  1.00  0.00     0.198 A 
ATOM     95  C   UNL A   1      44.528  27.108  36.849  1.00  0.00     0.198 A 
ATOM     96  F   UNL A   1      42.245  27.198  36.290  1.00  0.00    -0.203 F 
ATOM     97  F   UNL A   1      47.330  29.076  35.661  1.00  0.00    -0.200 F 
ATOM     98  C   UNL A   1      45.822  27.582  36.696  1.00  0.00     0.200 A 
ATOM     99  F   UNL A   1      44.279  26.100  37.697  1.00  0.00    -0.200 F 
ATOM    100  F   UNL A   1      46.827  27.022  37.383  1.00  0.00    -0.200 F 
ENDBRANCH  67  90
ENDBRANCH  41  42
ENDBRANCH  33  36
ENDBRANCH  31  32
ENDBRANCH  30  31
ENDBRANCH   1  30
TORSDOF 16
ENDMDL
MODEL 3
REMARK VINA RESULT:     -13.1      1.734      8.178
REMARK SMILES CSc1ccc(-c2cc(C[C@H]3CCCC3=O)ccc2[C@@H](C)C(=O)NCCCCNC(=O)c2ccc(-c3c4nc(c(-c5c(F)c(F)c(F)c(F)c5F)c5ccc([nH]5)c(-c5c(F)c(F)c(F)c(F)c5F)c5nc(c(-c6c(F)c(F)c(F)c(F)c6F)c6ccc3[nH]6)C=C5)C=C4)cc2)cc1
REMARK SMILES IDX 26 1 25 2 24 3 22 4 23 5 20 7 21 8 19 9 7 10 8 11 9 12 18 13
REMARK SMILES IDX 17 14 6 15 3 16 4 17 96 18 5 19 95 20 2 21 1 22 10 23 11 24
REMARK SMILES IDX 12 25 15 26 13 27 14 28 16 29 27 30 28 31 29 32 30 33 31 35
REMARK SMILES IDX 32 36 33 37 94 38 34 39 93 40 35 41 36 42 37 43 87 44 38 45
REMARK SMILES IDX 92 46 86 47 88 48 39 49 91 50 85 51 84 52 40 54 72 55 52 56
REMARK SMILES IDX 71 57 53 58 56 59 70 60 89 61 54 62 55 63 69 65 90 66 57 67
REMARK SMILES IDX 41 68 42 69 50 70 43 71 44 72 48 73 51 74 45 75 46 76 49 77
REMARK SMILES IDX 47 78 73 79 74 80 82 81 75 82 76 83 80 84 83 85 77 86 78 87
REMARK SMILES IDX 81 88 79 89 58 90 59 91 67 92 60 93 61 94 65 95 68 96 62 97
REMARK SMILES IDX 63 98 66 99 64 100
REMARK H PARENT 24 6 29 34 88 53 56 64
REMARK Flexibility Score: inf
ROOT
ATOM      1  C   UNL A   1      31.028  31.948  26.290  1.00  0.00     0.023 C 
ENDROOT
BRANCH   1   2
ATOM      2  C   UNL A   1      30.965  30.942  25.139  1.00  0.00     0.116 C 
BRANCH   2   3
ATOM      3  N   UNL A   1      32.158  30.128  25.068  1.00  0.00    -0.356 N 
ATOM      4  C   UNL A   1      32.422  28.861  25.492  1.00  0.00     0.227 C 
ATOM      5  O   UNL A   1      33.596  28.489  25.363  1.00  0.00    -0.274 OA
ATOM      6  H   UNL A   1      32.921  30.572  24.634  1.00  0.00     0.163 HD
BRANCH   4   7
ATOM      7  C   UNL A   1      31.371  27.908  26.097  1.00  0.00     0.106 C 
ATOM      8  C   UNL A   1      31.399  27.817  27.623  1.00  0.00     0.023 C 
BRANCH   7   9
ATOM      9  C   UNL A   1      31.269  26.580  25.346  1.00  0.00    -0.028 A 
ATOM     10  C   UNL A   1      30.967  26.517  23.962  1.00  0.00    -0.014 A 
ATOM     11  C   UNL A   1      31.083  25.281  23.286  1.00  0.00     0.012 A 
ATOM     12  C   UNL A   1      31.383  24.093  23.960  1.00  0.00    -0.047 A 
ATOM     13  C   UNL A   1      31.502  25.368  26.015  1.00  0.00     0.005 A 
ATOM     14  C   UNL A   1      31.579  24.149  25.338  1.00  0.00     0.004 A 
BRANCH  10  15
ATOM     15  C   UNL A   1      30.286  27.616  23.255  1.00  0.00    -0.018 A 
ATOM     16  C   UNL A   1      28.842  29.767  22.100  1.00  0.00     0.007 A 
ATOM     17  C   UNL A   1      28.201  28.854  22.933  1.00  0.00     0.015 A 
ATOM     18  C   UNL A   1      30.210  29.590  21.843  1.00  0.00     0.015 A 
ATOM     19  C   UNL A   1      28.915  27.799  23.502  1.00  0.00     0.010 A 
ATOM     20  C   UNL A   1      30.924  28.517  22.401  1.00  0.00     0.010 A 
BRANCH  16  21
ATOM     21  S   UNL A   1      28.027  31.190  21.384  1.00  0.00    -0.130 SA
ATOM     22  C   UNL A   1      28.680  32.565  22.375  1.00  0.00     0.091 C 
ENDBRANCH  16  21
ENDBRANCH  10  15
BRANCH  12  23
ATOM     23  C   UNL A   1      31.386  22.760  23.243  1.00  0.00     0.047 C 
BRANCH  23  24
ATOM     24  C   UNL A   1      32.763  22.093  23.110  1.00  0.00     0.060 C 
ATOM     25  C   UNL A   1      33.966  23.043  23.127  1.00  0.00     0.012 C 
ATOM     26  C   UNL A   1      33.058  21.141  24.244  1.00  0.00     0.136 C 
ATOM     27  C   UNL A   1      35.058  22.362  23.944  1.00  0.00     0.009 C 
ATOM     28  C   UNL A   1      34.362  21.436  24.926  1.00  0.00     0.076 C 
ATOM     29  O   UNL A   1      32.310  20.234  24.588  1.00  0.00    -0.299 OA
ENDBRANCH  23  24
ENDBRANCH  12  23
ENDBRANCH   7   9
ENDBRANCH   4   7
ENDBRANCH   2   3
ENDBRANCH   1   2
BRANCH   1  30
ATOM     30  C   UNL A   1      32.194  31.764  27.254  1.00  0.00     0.023 C 
BRANCH  30  31
ATOM     31  C   UNL A   1      33.221  32.888  27.250  1.00  0.00     0.116 C 
BRANCH  31  32
ATOM     32  N   UNL A   1      32.690  34.186  27.643  1.00  0.00    -0.352 N 
ATOM     33  C   UNL A   1      33.115  35.003  28.668  1.00  0.00     0.251 C 
ATOM     34  H   UNL A   1      31.934  34.520  27.110  1.00  0.00     0.163 HD
ATOM     35  O   UNL A   1      32.529  36.042  28.926  1.00  0.00    -0.269 OA
BRANCH  33  36
ATOM     36  C   UNL A   1      34.265  34.569  29.487  1.00  0.00     0.039 A 
ATOM     37  C   UNL A   1      34.021  33.934  30.706  1.00  0.00     0.014 A 
ATOM     38  C   UNL A   1      35.571  34.716  29.011  1.00  0.00     0.014 A 
ATOM     39  C   UNL A   1      35.085  33.368  31.409  1.00  0.00     0.010 A 
ATOM     40  C   UNL A   1      36.617  34.086  29.672  1.00  0.00     0.010 A 
ATOM     41  C   UNL A   1      36.383  33.400  30.874  1.00  0.00    -0.014 A 
BRANCH  41  42
ATOM     42  C   UNL A   1      37.512  32.717  31.550  1.00  0.00     0.031 A 
ATOM     43  C   UNL A   1      38.198  31.563  30.879  1.00  0.00     0.074 A 
ATOM     44  C   UNL A   1      37.861  33.083  32.798  1.00  0.00     0.049 A 
ATOM     45  N   UNL A   1      39.146  30.784  31.334  1.00  0.00    -0.248 NA
ATOM     46  C   UNL A   1      37.735  31.215  29.525  1.00  0.00     0.031 C 
ATOM     47  C   UNL A   1      37.227  34.147  33.577  1.00  0.00     0.029 A 
ATOM     48  N   UNL A   1      38.828  32.589  33.637  1.00  0.00    -0.354 N 
ATOM     49  C   UNL A   1      39.376  29.848  30.336  1.00  0.00     0.074 A 
ATOM     50  C   UNL A   1      38.434  30.119  29.272  1.00  0.00     0.031 C 
ATOM     51  C   UNL A   1      37.836  34.241  34.771  1.00  0.00     0.029 A 
ATOM     52  C   UNL A   1      38.880  33.224  34.854  1.00  0.00     0.049 A 
ATOM     53  H   UNL A   1      39.429  31.848  33.391  1.00  0.00     0.167 HD
ATOM     54  C   UNL A   1      40.306  28.865  30.299  1.00  0.00     0.037 A 
ATOM     55  C   UNL A   1      39.678  33.007  35.915  1.00  0.00     0.037 A 
ATOM     56  C   UNL A   1      41.267  28.625  31.341  1.00  0.00     0.049 A 
ATOM     57  C   UNL A   1      40.716  31.919  35.843  1.00  0.00     0.074 A 
ATOM     58  C   UNL A   1      42.306  27.711  31.364  1.00  0.00     0.029 A 
ATOM     59  N   UNL A   1      41.307  29.306  32.549  1.00  0.00    -0.354 N 
ATOM     60  N   UNL A   1      40.978  31.092  34.861  1.00  0.00    -0.248 NA
ATOM     61  C   UNL A   1      41.569  31.737  37.025  1.00  0.00     0.031 C 
ATOM     62  C   UNL A   1      42.952  27.816  32.599  1.00  0.00     0.029 A 
ATOM     63  C   UNL A   1      42.340  28.819  33.333  1.00  0.00     0.049 A 
ATOM     64  H   UNL A   1      40.691  30.030  32.809  1.00  0.00     0.167 HD
ATOM     65  C   UNL A   1      42.036  30.307  35.296  1.00  0.00     0.074 A 
ATOM     66  C   UNL A   1      42.379  30.767  36.625  1.00  0.00     0.031 C 
ATOM     67  C   UNL A   1      42.667  29.294  34.652  1.00  0.00     0.037 A 
BRANCH  54  68
ATOM     68  C   UNL A   1      40.337  27.986  29.085  1.00  0.00     0.064 A 
ATOM     69  C   UNL A   1      41.085  28.332  27.949  1.00  0.00     0.173 A 
ATOM     70  C   UNL A   1      39.633  26.774  29.065  1.00  0.00     0.173 A 
ATOM     71  F   UNL A   1      41.763  29.489  27.914  1.00  0.00    -0.203 F 
ATOM     72  C   UNL A   1      41.102  27.510  26.825  1.00  0.00     0.198 A 
ATOM     73  C   UNL A   1      39.676  25.940  27.950  1.00  0.00     0.198 A 
ATOM     74  F   UNL A   1      38.905  26.396  30.126  1.00  0.00    -0.203 F 
ATOM     75  F   UNL A   1      41.783  27.885  25.734  1.00  0.00    -0.200 F 
ATOM     76  C   UNL A   1      40.403  26.312  26.829  1.00  0.00     0.200 A 
ATOM     77  F   UNL A   1      39.008  24.778  27.958  1.00  0.00    -0.200 F 
ATOM     78  F   UNL A   1      40.424  25.520  25.748  1.00  0.00    -0.200 F 
ENDBRANCH  54  68
BRANCH  55  79
ATOM     79  C   UNL A   1      39.550  33.857  37.127  1.00  0.00     0.064 A 
ATOM     80  C   UNL A   1      38.764  33.444  38.211  1.00  0.00     0.173 A 
ATOM     81  C   UNL A   1      40.204  35.093  37.227  1.00  0.00     0.173 A 
ATOM     82  F   UNL A   1      38.103  32.278  38.152  1.00  0.00    -0.203 F 
ATOM     83  C   UNL A   1      38.624  34.242  39.344  1.00  0.00     0.198 A 
ATOM     84  C   UNL A   1      40.083  35.879  38.371  1.00  0.00     0.198 A 
ATOM     85  F   UNL A   1      40.972  35.530  36.218  1.00  0.00    -0.203 F 
ATOM     86  F   UNL A   1      37.835  33.841  40.350  1.00  0.00    -0.200 F 
ATOM     87  C   UNL A   1      39.288  35.457  39.425  1.00  0.00     0.200 A 
ATOM     88  F   UNL A   1      40.735  37.048  38.451  1.00  0.00    -0.200 F 
ATOM     89  F   UNL A   1      39.155  36.223  40.516  1.00  0.00    -0.200 F 
ENDBRANCH  55  79
BRANCH  67  90
ATOM     90  C   UNL A   1      43.802  28.628  35.367  1.00  0.00     0.064 A 
ATOM     91  C   UNL A   1      43.593  27.516  36.194  1.00  0.00     0.173 A 
ATOM     92  C   UNL A   1      45.120  29.073  35.180  1.00  0.00     0.173 A 
ATOM     93  F   UNL A   1      42.349  27.065  36.416  1.00  0.00    -0.203 F 
ATOM     94  C   UNL A   1      44.661  26.880  36.821  1.00  0.00     0.198 A 
ATOM     95  C   UNL A   1      46.188  28.419  35.787  1.00  0.00     0.198 A 
ATOM     96  F   UNL A   1      45.371  30.129  34.393  1.00  0.00    -0.203 F 
ATOM     97  F   UNL A   1      44.436  25.840  37.635  1.00  0.00    -0.200 F 
ATOM     98  C   UNL A   1      45.957  27.327  36.610  1.00  0.00     0.200 A 
ATOM     99  F   UNL A   1      47.441  28.845  35.574  1.00  0.00    -0.200 F 
ATOM    100  F   UNL A   1      46.986  26.707  37.205  1.00  0.00    -0.200 F 
ENDBRANCH  67  90
ENDBRANCH  41  42
ENDBRANCH  33  36
ENDBRANCH  31  32
ENDBRANCH  30  31
ENDBRANCH   1  30
TORSDOF 16
ENDMDL
