MODEL 1
REMARK VINA RESULT:     -13.6      0.000      0.000
REMARK SMILES Cc1c(NCc2ccc(-c3ccc(Cl)cc3)o2)cccc1C(=O)NCCCCNC(=O)c1ccc(-c2c3nc(c(-c4c(F)c(F)c(F)c(F)c4F)c4ccc([nH]4)c(-c4c(F)c(F)c(F)c(F)c4F)c4nc(c(-c5c(F)c(F)c(F)c(F)c5F)c5ccc2[nH]5)C=C4)C=C3)cc1
REMARK SMILES IDX 25 1 24 2 22 3 23 4 21 6 1 7 2 8 3 9 18 10 20 11 19 12 4 13
REMARK SMILES IDX 5 15 6 16 7 17 17 18 8 19 9 20 10 21 11 22 16 23 12 24 15 25
REMARK SMILES IDX 13 26 14 27 26 28 27 29 28 30 29 31 30 32 31 34 32 35 33 36
REMARK SMILES IDX 94 37 34 38 93 39 35 40 36 41 37 42 87 43 38 44 92 45 86 46
REMARK SMILES IDX 88 47 39 48 91 49 85 50 84 51 40 53 72 54 52 55 71 56 53 57
REMARK SMILES IDX 56 58 70 59 89 60 54 61 55 62 69 64 90 65 57 66 41 67 42 68
REMARK SMILES IDX 50 69 43 70 44 71 48 72 51 73 45 74 46 75 49 76 47 77 73 78
REMARK SMILES IDX 74 79 82 80 75 81 76 82 80 83 83 84 77 85 78 86 81 87 79 88
REMARK SMILES IDX 58 89 59 90 67 91 60 92 61 93 65 94 68 95 62 96 63 97 66 98
REMARK SMILES IDX 64 99
REMARK H PARENT 24 5 4 14 29 33 88 52 56 63
REMARK Flexibility Score: inf
ROOT
ATOM      1  C   UNL A   1      36.643  20.347  25.030  1.00  0.00     0.116 C 
ENDROOT
BRANCH   1   2
ATOM      2  N   UNL A   1      35.532  20.700  25.889  1.00  0.00    -0.352 N 
ATOM      3  C   UNL A   1      34.358  21.391  25.749  1.00  0.00     0.251 C 
ATOM      4  O   UNL A   1      33.732  21.534  26.808  1.00  0.00    -0.269 OA
ATOM      5  H   UNL A   1      35.651  20.359  26.805  1.00  0.00     0.163 HD
BRANCH   3   6
ATOM      6  C   UNL A   1      33.718  21.895  24.479  1.00  0.00     0.044 A 
ATOM      7  C   UNL A   1      34.264  24.389  24.611  1.00  0.00     0.047 C 
ATOM      8  C   UNL A   1      33.736  23.184  23.893  1.00  0.00    -0.015 A 
ATOM      9  C   UNL A   1      33.102  23.418  22.636  1.00  0.00     0.038 A 
ATOM     10  C   UNL A   1      32.273  22.428  22.105  1.00  0.00     0.026 A 
ATOM     11  C   UNL A   1      32.898  20.920  23.869  1.00  0.00     0.014 A 
ATOM     12  C   UNL A   1      32.153  21.191  22.724  1.00  0.00     0.003 A 
BRANCH   9  13
ATOM     13  N   UNL A   1      33.271  24.633  21.991  1.00  0.00    -0.378 N 
ATOM     14  H   UNL A   1      34.176  24.849  21.670  1.00  0.00     0.161 HD
BRANCH  13  15
ATOM     15  C   UNL A   1      32.228  25.617  21.744  1.00  0.00     0.188 C 
BRANCH  15  16
ATOM     16  C   UNL A   1      31.624  26.192  22.983  1.00  0.00     0.123 A 
ATOM     17  C   UNL A   1      30.434  25.996  23.652  1.00  0.00     0.048 A 
ATOM     18  O   UNL A   1      32.367  27.132  23.638  1.00  0.00    -0.459 OA
ATOM     19  C   UNL A   1      30.478  26.807  24.810  1.00  0.00     0.051 A 
ATOM     20  C   UNL A   1      31.662  27.507  24.744  1.00  0.00     0.134 A 
BRANCH  20  21
ATOM     21  C   UNL A   1      32.270  28.534  25.570  1.00  0.00     0.017 A 
ATOM     22  C   UNL A   1      33.433  28.266  26.305  1.00  0.00     0.013 A 
ATOM     23  C   UNL A   1      31.671  29.796  25.676  1.00  0.00     0.013 A 
ATOM     24  C   UNL A   1      33.984  29.246  27.136  1.00  0.00     0.021 A 
ATOM     25  C   UNL A   1      32.214  30.773  26.515  1.00  0.00     0.021 A 
ATOM     26  C   UNL A   1      33.369  30.492  27.242  1.00  0.00     0.041 A 
ATOM     27  Cl  UNL A   1      34.033  31.689  28.283  1.00  0.00    -0.084 Cl
ENDBRANCH  20  21
ENDBRANCH  15  16
ENDBRANCH  13  15
ENDBRANCH   9  13
ENDBRANCH   3   6
ENDBRANCH   1   2
BRANCH   1  28
ATOM     28  C   UNL A   1      37.565  21.563  24.819  1.00  0.00     0.023 C 
BRANCH  28  29
ATOM     29  C   UNL A   1      38.863  21.540  25.619  1.00  0.00     0.023 C 
BRANCH  29  30
ATOM     30  C   UNL A   1      39.127  22.843  26.347  1.00  0.00     0.116 C 
BRANCH  30  31
ATOM     31  N   UNL A   1      40.530  23.101  26.658  1.00  0.00    -0.352 N 
ATOM     32  C   UNL A   1      41.163  24.304  26.924  1.00  0.00     0.251 C 
ATOM     33  H   UNL A   1      41.109  22.305  26.684  1.00  0.00     0.163 HD
ATOM     34  O   UNL A   1      42.378  24.338  27.096  1.00  0.00    -0.269 OA
BRANCH  32  35
ATOM     35  C   UNL A   1      40.348  25.522  27.166  1.00  0.00     0.039 A 
ATOM     36  C   UNL A   1      40.612  26.647  26.376  1.00  0.00     0.014 A 
ATOM     37  C   UNL A   1      39.602  25.648  28.330  1.00  0.00     0.014 A 
ATOM     38  C   UNL A   1      40.417  27.913  26.918  1.00  0.00     0.010 A 
ATOM     39  C   UNL A   1      39.553  26.887  28.932  1.00  0.00     0.010 A 
ATOM     40  C   UNL A   1      40.038  28.010  28.255  1.00  0.00    -0.014 A 
BRANCH  40  41
ATOM     41  C   UNL A   1      40.269  29.198  29.070  1.00  0.00     0.031 A 
ATOM     42  C   UNL A   1      39.220  30.229  29.199  1.00  0.00     0.074 A 
ATOM     43  C   UNL A   1      41.389  29.264  29.826  1.00  0.00     0.049 A 
ATOM     44  N   UNL A   1      39.421  31.429  29.627  1.00  0.00    -0.248 NA
ATOM     45  C   UNL A   1      37.841  29.997  28.792  1.00  0.00     0.031 C 
ATOM     46  C   UNL A   1      41.654  30.166  30.944  1.00  0.00     0.029 A 
ATOM     47  N   UNL A   1      42.620  28.620  29.603  1.00  0.00    -0.354 N 
ATOM     48  C   UNL A   1      38.193  32.020  29.830  1.00  0.00     0.074 A 
ATOM     49  C   UNL A   1      37.254  31.123  29.204  1.00  0.00     0.031 C 
ATOM     50  C   UNL A   1      42.981  30.257  31.124  1.00  0.00     0.029 A 
ATOM     51  C   UNL A   1      43.609  29.536  30.031  1.00  0.00     0.049 A 
ATOM     52  H   UNL A   1      42.763  27.720  29.228  1.00  0.00     0.167 HD
ATOM     53  C   UNL A   1      38.124  33.126  30.629  1.00  0.00     0.037 A 
ATOM     54  C   UNL A   1      44.498  30.082  29.151  1.00  0.00     0.037 A 
ATOM     55  C   UNL A   1      39.472  33.611  30.950  1.00  0.00     0.049 A 
ATOM     56  C   UNL A   1      44.422  31.589  29.055  1.00  0.00     0.074 A 
ATOM     57  C   UNL A   1      40.274  33.500  32.075  1.00  0.00     0.029 A 
ATOM     58  N   UNL A   1      40.299  34.060  29.923  1.00  0.00    -0.354 N 
ATOM     59  N   UNL A   1      43.406  32.292  29.471  1.00  0.00    -0.248 NA
ATOM     60  C   UNL A   1      45.459  32.417  28.445  1.00  0.00     0.031 C 
ATOM     61  C   UNL A   1      41.604  33.818  31.700  1.00  0.00     0.029 A 
ATOM     62  C   UNL A   1      41.608  34.147  30.354  1.00  0.00     0.049 A 
ATOM     63  H   UNL A   1      39.992  34.285  29.014  1.00  0.00     0.167 HD
ATOM     64  C   UNL A   1      43.610  33.613  29.175  1.00  0.00     0.074 A 
ATOM     65  C   UNL A   1      44.921  33.644  28.554  1.00  0.00     0.031 C 
ATOM     66  C   UNL A   1      42.669  34.565  29.449  1.00  0.00     0.037 A 
BRANCH  53  67
ATOM     67  C   UNL A   1      36.875  33.597  31.367  1.00  0.00     0.064 A 
ATOM     68  C   UNL A   1      35.800  34.178  30.653  1.00  0.00     0.173 A 
ATOM     69  C   UNL A   1      36.698  33.605  32.764  1.00  0.00     0.173 A 
ATOM     70  F   UNL A   1      35.748  34.148  29.315  1.00  0.00    -0.203 F 
ATOM     71  C   UNL A   1      34.725  34.819  31.285  1.00  0.00     0.198 A 
ATOM     72  C   UNL A   1      35.644  34.274  33.398  1.00  0.00     0.198 A 
ATOM     73  F   UNL A   1      37.495  32.920  33.584  1.00  0.00    -0.203 F 
ATOM     74  F   UNL A   1      33.755  35.374  30.546  1.00  0.00    -0.200 F 
ATOM     75  C   UNL A   1      34.666  34.897  32.659  1.00  0.00     0.200 A 
ATOM     76  F   UNL A   1      35.591  34.302  34.738  1.00  0.00    -0.200 F 
ATOM     77  F   UNL A   1      33.660  35.539  33.267  1.00  0.00    -0.200 F 
ENDBRANCH  53  67
BRANCH  54  78
ATOM     78  C   UNL A   1      44.847  29.169  28.031  1.00  0.00     0.064 A 
ATOM     79  C   UNL A   1      45.737  28.109  28.289  1.00  0.00     0.173 A 
ATOM     80  C   UNL A   1      44.058  29.086  26.878  1.00  0.00     0.173 A 
ATOM     81  F   UNL A   1      46.513  28.139  29.384  1.00  0.00    -0.203 F 
ATOM     82  C   UNL A   1      45.750  26.964  27.497  1.00  0.00     0.198 A 
ATOM     83  C   UNL A   1      44.083  27.941  26.079  1.00  0.00     0.198 A 
ATOM     84  F   UNL A   1      43.172  30.050  26.592  1.00  0.00    -0.203 F 
ATOM     85  F   UNL A   1      46.526  25.924  27.837  1.00  0.00    -0.200 F 
ATOM     86  C   UNL A   1      44.901  26.869  26.407  1.00  0.00     0.200 A 
ATOM     87  F   UNL A   1      43.235  27.832  25.046  1.00  0.00    -0.200 F 
ATOM     88  F   UNL A   1      44.837  25.731  25.702  1.00  0.00    -0.200 F 
ENDBRANCH  54  78
BRANCH  66  89
ATOM     89  C   UNL A   1      42.691  35.993  28.964  1.00  0.00     0.064 A 
ATOM     90  C   UNL A   1      41.916  36.470  27.893  1.00  0.00     0.173 A 
ATOM     91  C   UNL A   1      43.404  36.980  29.688  1.00  0.00     0.173 A 
ATOM     92  F   UNL A   1      41.110  35.655  27.201  1.00  0.00    -0.203 F 
ATOM     93  C   UNL A   1      41.899  37.822  27.539  1.00  0.00     0.198 A 
ATOM     94  C   UNL A   1      43.338  38.335  29.367  1.00  0.00     0.198 A 
ATOM     95  F   UNL A   1      44.163  36.659  30.746  1.00  0.00    -0.203 F 
ATOM     96  F   UNL A   1      41.173  38.222  26.485  1.00  0.00    -0.200 F 
ATOM     97  C   UNL A   1      42.598  38.755  28.283  1.00  0.00     0.200 A 
ATOM     98  F   UNL A   1      43.979  39.232  30.131  1.00  0.00    -0.200 F 
ATOM     99  F   UNL A   1      42.538  40.056  27.969  1.00  0.00    -0.200 F 
ENDBRANCH  66  89
ENDBRANCH  40  41
ENDBRANCH  32  35
ENDBRANCH  30  31
ENDBRANCH  29  30
ENDBRANCH  28  29
ENDBRANCH   1  28
TORSDOF 15
ENDMDL
MODEL 2
REMARK VINA RESULT:     -13.6      3.916     10.277
REMARK SMILES Cc1c(NCc2ccc(-c3ccc(Cl)cc3)o2)cccc1C(=O)NCCCCNC(=O)c1ccc(-c2c3nc(c(-c4c(F)c(F)c(F)c(F)c4F)c4ccc([nH]4)c(-c4c(F)c(F)c(F)c(F)c4F)c4nc(c(-c5c(F)c(F)c(F)c(F)c5F)c5ccc2[nH]5)C=C4)C=C3)cc1
REMARK SMILES IDX 25 1 24 2 22 3 23 4 21 6 1 7 2 8 3 9 18 10 20 11 19 12 4 13
REMARK SMILES IDX 5 15 6 16 7 17 17 18 8 19 9 20 10 21 11 22 16 23 12 24 15 25
REMARK SMILES IDX 13 26 14 27 26 28 27 29 28 30 29 31 30 32 31 34 32 35 33 36
REMARK SMILES IDX 94 37 34 38 93 39 35 40 36 41 37 42 87 43 38 44 92 45 86 46
REMARK SMILES IDX 88 47 39 48 91 49 85 50 84 51 40 53 72 54 52 55 71 56 53 57
REMARK SMILES IDX 56 58 70 59 89 60 54 61 55 62 69 64 90 65 57 66 41 67 42 68
REMARK SMILES IDX 50 69 43 70 44 71 48 72 51 73 45 74 46 75 49 76 47 77 73 78
REMARK SMILES IDX 74 79 82 80 75 81 76 82 80 83 83 84 77 85 78 86 81 87 79 88
REMARK SMILES IDX 58 89 59 90 67 91 60 92 61 93 65 94 68 95 62 96 63 97 66 98
REMARK SMILES IDX 64 99
REMARK H PARENT 24 5 4 14 29 33 88 52 56 63
REMARK Flexibility Score: inf
ROOT
ATOM      1  C   UNL A   1      32.407  30.097  26.513  1.00  0.00     0.116 C 
ENDROOT
BRANCH   1   2
ATOM      2  N   UNL A   1      32.388  29.908  25.077  1.00  0.00    -0.352 N 
ATOM      3  C   UNL A   1      31.933  28.945  24.215  1.00  0.00     0.251 C 
ATOM      4  O   UNL A   1      32.221  29.158  23.030  1.00  0.00    -0.269 OA
ATOM      5  H   UNL A   1      32.807  30.659  24.600  1.00  0.00     0.163 HD
BRANCH   3   6
ATOM      6  C   UNL A   1      31.068  27.748  24.526  1.00  0.00     0.044 A 
ATOM      7  C   UNL A   1      32.667  26.343  25.942  1.00  0.00     0.047 C 
ATOM      8  C   UNL A   1      31.317  26.630  25.359  1.00  0.00    -0.015 A 
ATOM      9  C   UNL A   1      30.313  25.635  25.554  1.00  0.00     0.038 A 
ATOM     10  C   UNL A   1      29.178  25.653  24.741  1.00  0.00     0.026 A 
ATOM     11  C   UNL A   1      29.880  27.733  23.763  1.00  0.00     0.014 A 
ATOM     12  C   UNL A   1      28.967  26.684  23.835  1.00  0.00     0.003 A 
BRANCH   9  13
ATOM     13  N   UNL A   1      30.499  24.640  26.501  1.00  0.00    -0.378 N 
ATOM     14  H   UNL A   1      30.522  24.917  27.445  1.00  0.00     0.161 HD
BRANCH  13  15
ATOM     15  C   UNL A   1      30.665  23.221  26.222  1.00  0.00     0.188 C 
BRANCH  15  16
ATOM     16  C   UNL A   1      31.733  22.914  25.224  1.00  0.00     0.123 A 
ATOM     17  C   UNL A   1      31.740  22.689  23.864  1.00  0.00     0.048 A 
ATOM     18  O   UNL A   1      33.004  22.813  25.712  1.00  0.00    -0.459 OA
ATOM     19  C   UNL A   1      33.091  22.507  23.488  1.00  0.00     0.051 A 
ATOM     20  C   UNL A   1      33.825  22.559  24.652  1.00  0.00     0.134 A 
BRANCH  20  21
ATOM     21  C   UNL A   1      35.232  22.384  24.962  1.00  0.00     0.017 A 
ATOM     22  C   UNL A   1      35.858  21.145  24.770  1.00  0.00     0.013 A 
ATOM     23  C   UNL A   1      35.970  23.446  25.502  1.00  0.00     0.013 A 
ATOM     24  C   UNL A   1      37.201  20.972  25.118  1.00  0.00     0.021 A 
ATOM     25  C   UNL A   1      37.309  23.271  25.861  1.00  0.00     0.021 A 
ATOM     26  C   UNL A   1      37.918  22.033  25.667  1.00  0.00     0.041 A 
ATOM     27  Cl  UNL A   1      39.563  21.813  26.116  1.00  0.00    -0.084 Cl
ENDBRANCH  20  21
ENDBRANCH  15  16
ENDBRANCH  13  15
ENDBRANCH   9  13
ENDBRANCH   3   6
ENDBRANCH   1   2
BRANCH   1  28
ATOM     28  C   UNL A   1      32.038  31.550  26.866  1.00  0.00     0.023 C 
BRANCH  28  29
ATOM     29  C   UNL A   1      33.142  32.354  27.545  1.00  0.00     0.023 C 
BRANCH  29  30
ATOM     30  C   UNL A   1      34.204  31.474  28.174  1.00  0.00     0.116 C 
BRANCH  30  31
ATOM     31  N   UNL A   1      35.043  32.138  29.168  1.00  0.00    -0.352 N 
ATOM     32  C   UNL A   1      36.127  31.642  29.875  1.00  0.00     0.251 C 
ATOM     33  H   UNL A   1      34.805  33.074  29.364  1.00  0.00     0.163 HD
ATOM     34  O   UNL A   1      36.672  32.330  30.733  1.00  0.00    -0.269 OA
BRANCH  32  35
ATOM     35  C   UNL A   1      36.728  30.345  29.474  1.00  0.00     0.039 A 
ATOM     36  C   UNL A   1      36.910  29.379  30.471  1.00  0.00     0.014 A 
ATOM     37  C   UNL A   1      37.383  30.220  28.257  1.00  0.00     0.014 A 
ATOM     38  C   UNL A   1      37.979  28.495  30.367  1.00  0.00     0.010 A 
ATOM     39  C   UNL A   1      38.531  29.459  28.218  1.00  0.00     0.010 A 
ATOM     40  C   UNL A   1      38.872  28.657  29.312  1.00  0.00    -0.014 A 
BRANCH  40  41
ATOM     41  C   UNL A   1      40.245  28.163  29.339  1.00  0.00     0.031 A 
ATOM     42  C   UNL A   1      40.556  26.799  28.867  1.00  0.00     0.074 A 
ATOM     43  C   UNL A   1      41.242  29.022  29.653  1.00  0.00     0.049 A 
ATOM     44  N   UNL A   1      41.650  26.167  29.127  1.00  0.00    -0.248 NA
ATOM     45  C   UNL A   1      39.612  26.004  28.095  1.00  0.00     0.031 C 
ATOM     46  C   UNL A   1      42.673  28.847  29.417  1.00  0.00     0.029 A 
ATOM     47  N   UNL A   1      41.162  30.187  30.439  1.00  0.00    -0.354 N 
ATOM     48  C   UNL A   1      41.685  25.037  28.338  1.00  0.00     0.074 A 
ATOM     49  C   UNL A   1      40.354  24.937  27.793  1.00  0.00     0.031 C 
ATOM     50  C   UNL A   1      43.352  29.648  30.252  1.00  0.00     0.029 A 
ATOM     51  C   UNL A   1      42.383  30.246  31.151  1.00  0.00     0.049 A 
ATOM     52  H   UNL A   1      40.414  30.826  30.483  1.00  0.00     0.167 HD
ATOM     53  C   UNL A   1      42.886  24.414  28.141  1.00  0.00     0.037 A 
ATOM     54  C   UNL A   1      42.416  30.137  32.512  1.00  0.00     0.037 A 
ATOM     55  C   UNL A   1      43.908  24.980  29.030  1.00  0.00     0.049 A 
ATOM     56  C   UNL A   1      43.215  28.957  33.015  1.00  0.00     0.074 A 
ATOM     57  C   UNL A   1      44.942  25.880  28.829  1.00  0.00     0.029 A 
ATOM     58  N   UNL A   1      43.756  24.861  30.409  1.00  0.00    -0.354 N 
ATOM     59  N   UNL A   1      43.548  27.938  32.274  1.00  0.00    -0.248 NA
ATOM     60  C   UNL A   1      43.663  28.811  34.398  1.00  0.00     0.031 C 
ATOM     61  C   UNL A   1      45.364  26.355  30.096  1.00  0.00     0.029 A 
ATOM     62  C   UNL A   1      44.605  25.727  31.070  1.00  0.00     0.049 A 
ATOM     63  H   UNL A   1      43.129  24.244  30.853  1.00  0.00     0.167 HD
ATOM     64  C   UNL A   1      44.201  27.008  33.039  1.00  0.00     0.074 A 
ATOM     65  C   UNL A   1      44.269  27.610  34.357  1.00  0.00     0.031 C 
ATOM     66  C   UNL A   1      44.609  25.810  32.523  1.00  0.00     0.037 A 
BRANCH  53  67
ATOM     67  C   UNL A   1      43.222  23.515  26.956  1.00  0.00     0.064 A 
ATOM     68  C   UNL A   1      42.887  22.140  26.985  1.00  0.00     0.173 A 
ATOM     69  C   UNL A   1      43.950  23.897  25.813  1.00  0.00     0.173 A 
ATOM     70  F   UNL A   1      42.096  21.631  27.938  1.00  0.00    -0.203 F 
ATOM     71  C   UNL A   1      43.352  21.223  26.032  1.00  0.00     0.198 A 
ATOM     72  C   UNL A   1      44.445  22.979  24.879  1.00  0.00     0.198 A 
ATOM     73  F   UNL A   1      44.170  25.175  25.506  1.00  0.00    -0.203 F 
ATOM     74  F   UNL A   1      43.019  19.929  26.136  1.00  0.00    -0.200 F 
ATOM     75  C   UNL A   1      44.161  21.638  24.997  1.00  0.00     0.200 A 
ATOM     76  F   UNL A   1      45.198  23.416  23.859  1.00  0.00    -0.200 F 
ATOM     77  F   UNL A   1      44.637  20.761  24.104  1.00  0.00    -0.200 F 
ENDBRANCH  53  67
BRANCH  54  78
ATOM     78  C   UNL A   1      41.207  30.697  33.172  1.00  0.00     0.064 A 
ATOM     79  C   UNL A   1      41.086  32.097  33.261  1.00  0.00     0.173 A 
ATOM     80  C   UNL A   1      40.048  29.934  33.351  1.00  0.00     0.173 A 
ATOM     81  F   UNL A   1      42.167  32.875  33.093  1.00  0.00    -0.203 F 
ATOM     82  C   UNL A   1      39.843  32.710  33.402  1.00  0.00     0.198 A 
ATOM     83  C   UNL A   1      38.805  30.552  33.504  1.00  0.00     0.198 A 
ATOM     84  F   UNL A   1      40.093  28.598  33.251  1.00  0.00    -0.203 F 
ATOM     85  F   UNL A   1      39.749  34.047  33.367  1.00  0.00    -0.200 F 
ATOM     86  C   UNL A   1      38.699  31.936  33.495  1.00  0.00     0.200 A 
ATOM     87  F   UNL A   1      37.692  29.805  33.556  1.00  0.00    -0.200 F 
ATOM     88  F   UNL A   1      37.493  32.520  33.529  1.00  0.00    -0.200 F 
ENDBRANCH  54  78
BRANCH  66  89
ATOM     89  C   UNL A   1      45.121  24.636  33.318  1.00  0.00     0.064 A 
ATOM     90  C   UNL A   1      44.370  23.477  33.580  1.00  0.00     0.173 A 
ATOM     91  C   UNL A   1      46.479  24.585  33.718  1.00  0.00     0.173 A 
ATOM     92  F   UNL A   1      43.107  23.356  33.151  1.00  0.00    -0.203 F 
ATOM     93  C   UNL A   1      44.920  22.375  34.241  1.00  0.00     0.198 A 
ATOM     94  C   UNL A   1      47.038  23.461  34.325  1.00  0.00     0.198 A 
ATOM     95  F   UNL A   1      47.309  25.618  33.506  1.00  0.00    -0.203 F 
ATOM     96  F   UNL A   1      44.151  21.308  34.501  1.00  0.00    -0.200 F 
ATOM     97  C   UNL A   1      46.255  22.362  34.601  1.00  0.00     0.200 A 
ATOM     98  F   UNL A   1      48.347  23.445  34.620  1.00  0.00    -0.200 F 
ATOM     99  F   UNL A   1      46.788  21.283  35.190  1.00  0.00    -0.200 F 
ENDBRANCH  66  89
ENDBRANCH  40  41
ENDBRANCH  32  35
ENDBRANCH  30  31
ENDBRANCH  29  30
ENDBRANCH  28  29
ENDBRANCH   1  28
TORSDOF 15
ENDMDL
MODEL 3
REMARK VINA RESULT:     -13.1      3.741      9.677
REMARK SMILES Cc1c(NCc2ccc(-c3ccc(Cl)cc3)o2)cccc1C(=O)NCCCCNC(=O)c1ccc(-c2c3nc(c(-c4c(F)c(F)c(F)c(F)c4F)c4ccc([nH]4)c(-c4c(F)c(F)c(F)c(F)c4F)c4nc(c(-c5c(F)c(F)c(F)c(F)c5F)c5ccc2[nH]5)C=C4)C=C3)cc1
REMARK SMILES IDX 25 1 24 2 22 3 23 4 21 6 1 7 2 8 3 9 18 10 20 11 19 12 4 13
REMARK SMILES IDX 5 15 6 16 7 17 17 18 8 19 9 20 10 21 11 22 16 23 12 24 15 25
REMARK SMILES IDX 13 26 14 27 26 28 27 29 28 30 29 31 30 32 31 34 32 35 33 36
REMARK SMILES IDX 94 37 34 38 93 39 35 40 36 41 37 42 87 43 38 44 92 45 86 46
REMARK SMILES IDX 88 47 39 48 91 49 85 50 84 51 40 53 72 54 52 55 71 56 53 57
REMARK SMILES IDX 56 58 70 59 89 60 54 61 55 62 69 64 90 65 57 66 41 67 42 68
REMARK SMILES IDX 50 69 43 70 44 71 48 72 51 73 45 74 46 75 49 76 47 77 73 78
REMARK SMILES IDX 74 79 82 80 75 81 76 82 80 83 83 84 77 85 78 86 81 87 79 88
REMARK SMILES IDX 58 89 59 90 67 91 60 92 61 93 65 94 68 95 62 96 63 97 66 98
REMARK SMILES IDX 64 99
REMARK H PARENT 24 5 4 14 29 33 88 52 56 63
REMARK Flexibility Score: inf
ROOT
ATOM      1  C   UNL A   1      32.725  30.267  26.385  1.00  0.00     0.116 C 
ENDROOT
BRANCH   1   2
ATOM      2  N   UNL A   1      32.911  29.941  24.986  1.00  0.00    -0.352 N 
ATOM      3  C   UNL A   1      32.493  28.946  24.142  1.00  0.00     0.251 C 
ATOM      4  O   UNL A   1      32.985  29.013  23.008  1.00  0.00    -0.269 OA
ATOM      5  H   UNL A   1      33.481  30.598  24.526  1.00  0.00     0.163 HD
BRANCH   3   6
ATOM      6  C   UNL A   1      31.463  27.875  24.401  1.00  0.00     0.044 A 
ATOM      7  C   UNL A   1      32.785  26.275  25.896  1.00  0.00     0.047 C 
ATOM      8  C   UNL A   1      31.517  26.736  25.242  1.00  0.00    -0.015 A 
ATOM      9  C   UNL A   1      30.382  25.882  25.379  1.00  0.00     0.038 A 
ATOM     10  C   UNL A   1      29.305  26.047  24.507  1.00  0.00     0.026 A 
ATOM     11  C   UNL A   1      30.325  28.013  23.576  1.00  0.00     0.014 A 
ATOM     12  C   UNL A   1      29.280  27.094  23.595  1.00  0.00     0.003 A 
BRANCH   9  13
ATOM     13  N   UNL A   1      30.385  24.874  26.330  1.00  0.00    -0.378 N 
ATOM     14  H   UNL A   1      30.305  25.145  27.273  1.00  0.00     0.161 HD
BRANCH  13  15
ATOM     15  C   UNL A   1      30.497  23.448  26.058  1.00  0.00     0.188 C 
BRANCH  15  16
ATOM     16  C   UNL A   1      31.532  23.099  25.040  1.00  0.00     0.123 A 
ATOM     17  C   UNL A   1      31.510  22.912  23.673  1.00  0.00     0.048 A 
ATOM     18  O   UNL A   1      32.798  22.900  25.509  1.00  0.00    -0.459 OA
ATOM     19  C   UNL A   1      32.842  22.651  23.277  1.00  0.00     0.051 A 
ATOM     20  C   UNL A   1      33.590  22.622  24.433  1.00  0.00     0.134 A 
BRANCH  20  21
ATOM     21  C   UNL A   1      34.985  22.344  24.722  1.00  0.00     0.017 A 
ATOM     22  C   UNL A   1      35.433  21.027  24.887  1.00  0.00     0.013 A 
ATOM     23  C   UNL A   1      35.892  23.400  24.883  1.00  0.00     0.013 A 
ATOM     24  C   UNL A   1      36.768  20.772  25.213  1.00  0.00     0.021 A 
ATOM     25  C   UNL A   1      37.224  23.147  25.220  1.00  0.00     0.021 A 
ATOM     26  C   UNL A   1      37.655  21.833  25.385  1.00  0.00     0.041 A 
ATOM     27  Cl  UNL A   1      39.292  21.519  25.809  1.00  0.00    -0.084 Cl
ENDBRANCH  20  21
ENDBRANCH  15  16
ENDBRANCH  13  15
ENDBRANCH   9  13
ENDBRANCH   3   6
ENDBRANCH   1   2
BRANCH   1  28
ATOM     28  C   UNL A   1      33.746  29.506  27.252  1.00  0.00     0.023 C 
BRANCH  28  29
ATOM     29  C   UNL A   1      35.095  30.198  27.425  1.00  0.00     0.023 C 
BRANCH  29  30
ATOM     30  C   UNL A   1      35.245  30.859  28.780  1.00  0.00     0.116 C 
BRANCH  30  31
ATOM     31  N   UNL A   1      34.377  32.012  29.001  1.00  0.00    -0.352 N 
ATOM     32  C   UNL A   1      34.596  33.139  29.778  1.00  0.00     0.251 C 
ATOM     33  H   UNL A   1      33.513  31.986  28.531  1.00  0.00     0.163 HD
ATOM     34  O   UNL A   1      33.714  33.983  29.904  1.00  0.00    -0.269 OA
BRANCH  32  35
ATOM     35  C   UNL A   1      35.955  33.403  30.316  1.00  0.00     0.039 A 
ATOM     36  C   UNL A   1      36.917  33.905  29.431  1.00  0.00     0.014 A 
ATOM     37  C   UNL A   1      36.344  32.867  31.536  1.00  0.00     0.014 A 
ATOM     38  C   UNL A   1      38.253  33.570  29.627  1.00  0.00     0.010 A 
ATOM     39  C   UNL A   1      37.635  32.401  31.652  1.00  0.00     0.010 A 
ATOM     40  C   UNL A   1      38.571  32.684  30.652  1.00  0.00    -0.014 A 
BRANCH  40  41
ATOM     41  C   UNL A   1      39.790  31.884  30.672  1.00  0.00     0.031 A 
ATOM     42  C   UNL A   1      39.829  30.569  30.001  1.00  0.00     0.074 A 
ATOM     43  C   UNL A   1      40.922  32.429  31.175  1.00  0.00     0.049 A 
ATOM     44  N   UNL A   1      40.726  29.666  30.212  1.00  0.00    -0.248 NA
ATOM     45  C   UNL A   1      38.804  30.140  29.061  1.00  0.00     0.031 C 
ATOM     46  C   UNL A   1      42.292  31.959  30.989  1.00  0.00     0.029 A 
ATOM     47  N   UNL A   1      41.035  33.452  32.134  1.00  0.00    -0.354 N 
ATOM     48  C   UNL A   1      40.578  28.687  29.252  1.00  0.00     0.074 A 
ATOM     49  C   UNL A   1      39.313  28.983  28.629  1.00  0.00     0.031 C 
ATOM     50  C   UNL A   1      43.057  32.447  31.979  1.00  0.00     0.029 A 
ATOM     51  C   UNL A   1      42.169  33.118  32.910  1.00  0.00     0.049 A 
ATOM     52  H   UNL A   1      40.448  34.235  32.242  1.00  0.00     0.167 HD
ATOM     53  C   UNL A   1      41.621  27.836  29.021  1.00  0.00     0.037 A 
ATOM     54  C   UNL A   1      42.055  32.806  34.235  1.00  0.00     0.037 A 
ATOM     55  C   UNL A   1      42.660  28.009  30.043  1.00  0.00     0.049 A 
ATOM     56  C   UNL A   1      42.522  31.411  34.581  1.00  0.00     0.074 A 
ATOM     57  C   UNL A   1      43.884  28.660  30.047  1.00  0.00     0.029 A 
ATOM     58  N   UNL A   1      42.363  27.729  31.375  1.00  0.00    -0.354 N 
ATOM     59  N   UNL A   1      42.683  30.462  33.703  1.00  0.00    -0.248 NA
ATOM     60  C   UNL A   1      42.801  30.963  35.943  1.00  0.00     0.031 C 
ATOM     61  C   UNL A   1      44.286  28.833  31.396  1.00  0.00     0.029 A 
ATOM     62  C   UNL A   1      43.322  28.265  32.212  1.00  0.00     0.049 A 
ATOM     63  H   UNL A   1      41.577  27.219  31.678  1.00  0.00     0.167 HD
ATOM     64  C   UNL A   1      43.040  29.303  34.340  1.00  0.00     0.074 A 
ATOM     65  C   UNL A   1      43.123  29.673  35.739  1.00  0.00     0.031 C 
ATOM     66  C   UNL A   1      43.214  28.132  33.658  1.00  0.00     0.037 A 
BRANCH  53  67
ATOM     67  C   UNL A   1      41.852  27.066  27.725  1.00  0.00     0.064 A 
ATOM     68  C   UNL A   1      41.687  25.660  27.690  1.00  0.00     0.173 A 
ATOM     69  C   UNL A   1      42.328  27.611  26.517  1.00  0.00     0.173 A 
ATOM     70  F   UNL A   1      41.132  24.994  28.710  1.00  0.00    -0.203 F 
ATOM     71  C   UNL A   1      42.085  24.874  26.600  1.00  0.00     0.198 A 
ATOM     72  C   UNL A   1      42.758  26.826  25.440  1.00  0.00     0.198 A 
ATOM     73  F   UNL A   1      42.344  28.924  26.289  1.00  0.00    -0.203 F 
ATOM     74  F   UNL A   1      41.925  23.545  26.646  1.00  0.00    -0.200 F 
ATOM     75  C   UNL A   1      42.653  25.455  25.487  1.00  0.00     0.200 A 
ATOM     76  F   UNL A   1      43.272  27.421  24.354  1.00  0.00    -0.200 F 
ATOM     77  F   UNL A   1      43.068  24.706  24.458  1.00  0.00    -0.200 F 
ENDBRANCH  53  67
BRANCH  54  78
ATOM     78  C   UNL A   1      40.948  33.532  34.913  1.00  0.00     0.064 A 
ATOM     79  C   UNL A   1      39.724  32.860  35.091  1.00  0.00     0.173 A 
ATOM     80  C   UNL A   1      41.185  34.666  35.698  1.00  0.00     0.173 A 
ATOM     81  F   UNL A   1      39.449  31.765  34.364  1.00  0.00    -0.203 F 
ATOM     82  C   UNL A   1      38.830  33.234  36.091  1.00  0.00     0.198 A 
ATOM     83  C   UNL A   1      40.281  35.045  36.693  1.00  0.00     0.198 A 
ATOM     84  F   UNL A   1      42.344  35.331  35.595  1.00  0.00    -0.203 F 
ATOM     85  F   UNL A   1      37.727  32.504  36.311  1.00  0.00    -0.200 F 
ATOM     86  C   UNL A   1      39.124  34.310  36.912  1.00  0.00     0.200 A 
ATOM     87  F   UNL A   1      40.582  36.063  37.512  1.00  0.00    -0.200 F 
ATOM     88  F   UNL A   1      38.318  34.612  37.939  1.00  0.00    -0.200 F 
ENDBRANCH  54  78
BRANCH  66  89
ATOM     89  C   UNL A   1      43.378  26.766  34.277  1.00  0.00     0.064 A 
ATOM     90  C   UNL A   1      42.315  26.007  34.794  1.00  0.00     0.173 A 
ATOM     91  C   UNL A   1      44.630  26.106  34.223  1.00  0.00     0.173 A 
ATOM     92  F   UNL A   1      41.060  26.476  34.795  1.00  0.00    -0.203 F 
ATOM     93  C   UNL A   1      42.501  24.706  35.273  1.00  0.00     0.198 A 
ATOM     94  C   UNL A   1      44.799  24.789  34.648  1.00  0.00     0.198 A 
ATOM     95  F   UNL A   1      45.720  26.713  33.730  1.00  0.00    -0.203 F 
ATOM     96  F   UNL A   1      41.462  24.037  35.792  1.00  0.00    -0.200 F 
ATOM     97  C   UNL A   1      43.738  24.094  35.188  1.00  0.00     0.200 A 
ATOM     98  F   UNL A   1      45.992  24.192  34.510  1.00  0.00    -0.200 F 
ATOM     99  F   UNL A   1      43.899  22.830  35.603  1.00  0.00    -0.200 F 
ENDBRANCH  66  89
ENDBRANCH  40  41
ENDBRANCH  32  35
ENDBRANCH  30  31
ENDBRANCH  29  30
ENDBRANCH  28  29
ENDBRANCH   1  28
TORSDOF 15
ENDMDL
