MODEL 1
REMARK VINA RESULT:     -11.9      0.000      0.000
REMARK SMILES C[C@@H](Sc1ccccc1[N+](=O)[O-])[C@@H](C)C(=O)NCCCCNC(=O)c1ccc(-c2c3nc(c(-c4c(F)c(F)c(F)c(F)c4F)c4ccc([nH]4)c(-c4c(F)c(F)c(F)c(F)c4F)c4nc(c(-c5c(F)c(F)c(F)c(F)c5F)c5ccc2[nH]5)C=C4)C=C3)cc1
REMARK SMILES IDX 18 1 17 2 15 3 16 4 13 6 14 7 2 8 1 9 3 10 4 11 5 12 9 13
REMARK SMILES IDX 6 14 8 15 7 16 10 17 11 18 12 19 19 20 20 21 21 22 22 23
REMARK SMILES IDX 23 24 24 26 25 27 26 28 87 29 27 30 86 31 28 32 29 33 30 34
REMARK SMILES IDX 80 35 31 36 85 37 79 38 81 39 32 40 84 41 78 42 77 43 33 45
REMARK SMILES IDX 65 46 45 47 64 48 46 49 49 50 63 51 82 52 47 53 48 54 62 56
REMARK SMILES IDX 83 57 50 58 34 59 35 60 43 61 36 62 37 63 41 64 44 65 38 66
REMARK SMILES IDX 39 67 42 68 40 69 66 70 67 71 75 72 68 73 69 74 73 75 76 76
REMARK SMILES IDX 70 77 71 78 74 79 72 80 51 81 52 82 60 83 53 84 54 85 58 86
REMARK SMILES IDX 61 87 55 88 56 89 59 90 57 91
REMARK H PARENT 17 5 22 25 81 44 49 55
REMARK Flexibility Score: inf
ROOT
ATOM      1  C   UNL A   1      32.546  29.776  25.278  1.00  0.00     0.116 C 
ENDROOT
BRANCH   1   2
ATOM      2  N   UNL A   1      31.497  29.716  24.279  1.00  0.00    -0.356 N 
ATOM      3  C   UNL A   1      31.045  28.699  23.500  1.00  0.00     0.223 C 
ATOM      4  O   UNL A   1      30.065  28.929  22.786  1.00  0.00    -0.275 OA
ATOM      5  H   UNL A   1      31.026  30.570  24.140  1.00  0.00     0.163 HD
BRANCH   3   6
ATOM      6  C   UNL A   1      31.659  27.302  23.540  1.00  0.00     0.088 C 
ATOM      7  C   UNL A   1      31.505  26.639  22.164  1.00  0.00     0.019 C 
BRANCH   6   8
ATOM      8  C   UNL A   1      31.198  26.463  24.759  1.00  0.00     0.061 C 
ATOM      9  C   UNL A   1      30.163  25.401  24.379  1.00  0.00     0.020 C 
BRANCH   8  10
ATOM     10  S   UNL A   1      32.685  25.656  25.526  1.00  0.00    -0.115 SA
BRANCH  10  11
ATOM     11  C   UNL A   1      32.518  23.956  24.989  1.00  0.00     0.085 A 
ATOM     12  C   UNL A   1      33.038  23.673  23.713  1.00  0.00     0.022 A 
ATOM     13  C   UNL A   1      31.963  22.886  25.714  1.00  0.00     0.282 A 
ATOM     14  C   UNL A   1      32.945  22.398  23.148  1.00  0.00     0.002 A 
ATOM     15  C   UNL A   1      31.866  21.599  25.143  1.00  0.00     0.087 A 
ATOM     16  C   UNL A   1      32.348  21.363  23.858  1.00  0.00     0.007 A 
BRANCH  13  17
ATOM     17  N   UNL A   1      31.473  23.023  27.087  1.00  0.00     0.063 N 
ATOM     18  O   UNL A   1      32.292  22.811  27.996  1.00  0.00    -0.258 OA
ATOM     19  O   UNL A   1      30.303  23.368  27.274  1.00  0.00    -0.258 OA
ENDBRANCH  13  17
ENDBRANCH  10  11
ENDBRANCH   8  10
ENDBRANCH   6   8
ENDBRANCH   3   6
ENDBRANCH   1   2
BRANCH   1  20
ATOM     20  C   UNL A   1      32.022  30.226  26.637  1.00  0.00     0.023 C 
BRANCH  20  21
ATOM     21  C   UNL A   1      31.738  31.722  26.757  1.00  0.00     0.023 C 
BRANCH  21  22
ATOM     22  C   UNL A   1      32.871  32.542  27.362  1.00  0.00     0.116 C 
BRANCH  22  23
ATOM     23  N   UNL A   1      32.489  33.923  27.629  1.00  0.00    -0.352 N 
ATOM     24  C   UNL A   1      33.002  34.805  28.547  1.00  0.00     0.251 C 
ATOM     25  H   UNL A   1      31.757  34.273  27.072  1.00  0.00     0.163 HD
ATOM     26  O   UNL A   1      32.458  35.890  28.737  1.00  0.00    -0.269 OA
BRANCH  24  27
ATOM     27  C   UNL A   1      34.194  34.429  29.332  1.00  0.00     0.039 A 
ATOM     28  C   UNL A   1      34.019  33.877  30.603  1.00  0.00     0.014 A 
ATOM     29  C   UNL A   1      35.476  34.585  28.798  1.00  0.00     0.014 A 
ATOM     30  C   UNL A   1      35.126  33.395  31.303  1.00  0.00     0.010 A 
ATOM     31  C   UNL A   1      36.570  34.046  29.467  1.00  0.00     0.010 A 
ATOM     32  C   UNL A   1      36.402  33.431  30.716  1.00  0.00    -0.014 A 
BRANCH  32  33
ATOM     33  C   UNL A   1      37.566  32.781  31.367  1.00  0.00     0.031 A 
ATOM     34  C   UNL A   1      38.255  31.621  30.707  1.00  0.00     0.074 A 
ATOM     35  C   UNL A   1      37.942  33.183  32.597  1.00  0.00     0.049 A 
ATOM     36  N   UNL A   1      39.219  30.865  31.164  1.00  0.00    -0.248 NA
ATOM     37  C   UNL A   1      37.778  31.248  29.367  1.00  0.00     0.031 C 
ATOM     38  C   UNL A   1      37.318  34.265  33.358  1.00  0.00     0.029 A 
ATOM     39  N   UNL A   1      38.925  32.714  33.432  1.00  0.00    -0.354 N 
ATOM     40  C   UNL A   1      39.458  29.921  30.175  1.00  0.00     0.074 A 
ATOM     41  C   UNL A   1      38.505  30.168  29.113  1.00  0.00     0.031 C 
ATOM     42  C   UNL A   1      37.941  34.389  34.539  1.00  0.00     0.029 A 
ATOM     43  C   UNL A   1      38.976  33.366  34.639  1.00  0.00     0.049 A 
ATOM     44  H   UNL A   1      39.533  31.979  33.189  1.00  0.00     0.167 HD
ATOM     45  C   UNL A   1      40.401  28.949  30.148  1.00  0.00     0.037 A 
ATOM     46  C   UNL A   1      39.759  33.151  35.714  1.00  0.00     0.037 A 
ATOM     47  C   UNL A   1      41.356  28.718  31.200  1.00  0.00     0.049 A 
ATOM     48  C   UNL A   1      40.773  32.041  35.672  1.00  0.00     0.074 A 
ATOM     49  C   UNL A   1      42.401  27.812  31.233  1.00  0.00     0.029 A 
ATOM     50  N   UNL A   1      41.374  29.394  32.412  1.00  0.00    -0.354 N 
ATOM     51  N   UNL A   1      41.045  31.206  34.699  1.00  0.00    -0.248 NA
ATOM     52  C   UNL A   1      41.584  31.840  36.880  1.00  0.00     0.031 C 
ATOM     53  C   UNL A   1      43.017  27.901  32.486  1.00  0.00     0.029 A 
ATOM     54  C   UNL A   1      42.388  28.896  33.216  1.00  0.00     0.049 A 
ATOM     55  H   UNL A   1      40.758  30.119  32.664  1.00  0.00     0.167 HD
ATOM     56  C   UNL A   1      42.064  30.390  35.170  1.00  0.00     0.074 A 
ATOM     57  C   UNL A   1      42.379  30.846  36.509  1.00  0.00     0.031 C 
ATOM     58  C   UNL A   1      42.680  29.353  34.551  1.00  0.00     0.037 A 
BRANCH  45  59
ATOM     59  C   UNL A   1      40.446  28.059  28.940  1.00  0.00     0.064 A 
ATOM     60  C   UNL A   1      39.713  26.865  28.876  1.00  0.00     0.173 A 
ATOM     61  C   UNL A   1      41.204  28.423  27.816  1.00  0.00     0.173 A 
ATOM     62  F   UNL A   1      38.980  26.466  29.927  1.00  0.00    -0.203 F 
ATOM     63  C   UNL A   1      39.759  26.054  27.746  1.00  0.00     0.198 A 
ATOM     64  C   UNL A   1      41.224  27.625  26.676  1.00  0.00     0.198 A 
ATOM     65  F   UNL A   1      41.920  29.558  27.821  1.00  0.00    -0.203 F 
ATOM     66  F   UNL A   1      39.088  24.894  27.728  1.00  0.00    -0.200 F 
ATOM     67  C   UNL A   1      40.508  26.437  26.645  1.00  0.00     0.200 A 
ATOM     68  F   UNL A   1      41.939  28.003  25.607  1.00  0.00    -0.200 F 
ATOM     69  F   UNL A   1      40.548  25.659  25.554  1.00  0.00    -0.200 F 
ENDBRANCH  45  59
BRANCH  46  70
ATOM     70  C   UNL A   1      39.615  34.010  36.917  1.00  0.00     0.064 A 
ATOM     71  C   UNL A   1      40.274  35.243  37.001  1.00  0.00     0.173 A 
ATOM     72  C   UNL A   1      38.818  33.621  38.003  1.00  0.00     0.173 A 
ATOM     73  F   UNL A   1      41.067  35.648  35.998  1.00  0.00    -0.203 F 
ATOM     74  C   UNL A   1      40.151  36.050  38.130  1.00  0.00     0.198 A 
ATOM     75  C   UNL A   1      38.673  34.440  39.120  1.00  0.00     0.198 A 
ATOM     76  F   UNL A   1      38.166  32.448  37.971  1.00  0.00    -0.203 F 
ATOM     77  F   UNL A   1      40.823  37.208  38.201  1.00  0.00    -0.200 F 
ATOM     78  C   UNL A   1      39.345  35.651  39.187  1.00  0.00     0.200 A 
ATOM     79  F   UNL A   1      37.884  34.056  40.133  1.00  0.00    -0.200 F 
ATOM     80  F   UNL A   1      39.221  36.430  40.269  1.00  0.00    -0.200 F 
ENDBRANCH  46  70
BRANCH  58  81
ATOM     81  C   UNL A   1      43.758  28.642  35.314  1.00  0.00     0.064 A 
ATOM     82  C   UNL A   1      43.470  27.527  36.115  1.00  0.00     0.173 A 
ATOM     83  C   UNL A   1      45.096  29.047  35.208  1.00  0.00     0.173 A 
ATOM     84  F   UNL A   1      42.203  27.111  36.263  1.00  0.00    -0.203 F 
ATOM     85  C   UNL A   1      44.481  26.857  36.798  1.00  0.00     0.198 A 
ATOM     86  C   UNL A   1      46.108  28.357  35.869  1.00  0.00     0.198 A 
ATOM     87  F   UNL A   1      45.424  30.105  34.451  1.00  0.00    -0.203 F 
ATOM     88  F   UNL A   1      44.178  25.819  37.591  1.00  0.00    -0.200 F 
ATOM     89  C   UNL A   1      45.800  27.266  36.667  1.00  0.00     0.200 A 
ATOM     90  F   UNL A   1      47.384  28.746  35.731  1.00  0.00    -0.200 F 
ATOM     91  F   UNL A   1      46.773  26.612  37.316  1.00  0.00    -0.200 F 
ENDBRANCH  58  81
ENDBRANCH  32  33
ENDBRANCH  24  27
ENDBRANCH  22  23
ENDBRANCH  21  22
ENDBRANCH  20  21
ENDBRANCH   1  20
TORSDOF 15
ENDMDL
MODEL 2
REMARK VINA RESULT:     -11.9      0.285      1.634
REMARK SMILES C[C@@H](Sc1ccccc1[N+](=O)[O-])[C@@H](C)C(=O)NCCCCNC(=O)c1ccc(-c2c3nc(c(-c4c(F)c(F)c(F)c(F)c4F)c4ccc([nH]4)c(-c4c(F)c(F)c(F)c(F)c4F)c4nc(c(-c5c(F)c(F)c(F)c(F)c5F)c5ccc2[nH]5)C=C4)C=C3)cc1
REMARK SMILES IDX 18 1 17 2 15 3 16 4 13 6 14 7 2 8 1 9 3 10 4 11 5 12 9 13
REMARK SMILES IDX 6 14 8 15 7 16 10 17 11 18 12 19 19 20 20 21 21 22 22 23
REMARK SMILES IDX 23 24 24 26 25 27 26 28 87 29 27 30 86 31 28 32 29 33 30 34
REMARK SMILES IDX 80 35 31 36 85 37 79 38 81 39 32 40 84 41 78 42 77 43 33 45
REMARK SMILES IDX 65 46 45 47 64 48 46 49 49 50 63 51 82 52 47 53 48 54 62 56
REMARK SMILES IDX 83 57 50 58 34 59 35 60 43 61 36 62 37 63 41 64 44 65 38 66
REMARK SMILES IDX 39 67 42 68 40 69 66 70 67 71 75 72 68 73 69 74 73 75 76 76
REMARK SMILES IDX 70 77 71 78 74 79 72 80 51 81 52 82 60 83 53 84 54 85 58 86
REMARK SMILES IDX 61 87 55 88 56 89 59 90 57 91
REMARK H PARENT 17 5 22 25 81 44 49 55
REMARK Flexibility Score: inf
ROOT
ATOM      1  C   UNL A   1      32.574  29.765  25.469  1.00  0.00     0.116 C 
ENDROOT
BRANCH   1   2
ATOM      2  N   UNL A   1      31.615  29.784  24.382  1.00  0.00    -0.356 N 
ATOM      3  C   UNL A   1      31.169  28.806  23.549  1.00  0.00     0.223 C 
ATOM      4  O   UNL A   1      30.273  29.107  22.757  1.00  0.00    -0.275 OA
ATOM      5  H   UNL A   1      31.213  30.667  24.217  1.00  0.00     0.163 HD
BRANCH   3   6
ATOM      6  C   UNL A   1      31.689  27.372  23.619  1.00  0.00     0.088 C 
ATOM      7  C   UNL A   1      31.527  26.706  22.247  1.00  0.00     0.019 C 
BRANCH   6   8
ATOM      8  C   UNL A   1      31.140  26.579  24.834  1.00  0.00     0.061 C 
ATOM      9  C   UNL A   1      30.260  25.401  24.411  1.00  0.00     0.020 C 
BRANCH   8  10
ATOM     10  S   UNL A   1      32.574  25.971  25.847  1.00  0.00    -0.115 SA
BRANCH  10  11
ATOM     11  C   UNL A   1      32.807  24.309  25.222  1.00  0.00     0.085 A 
ATOM     12  C   UNL A   1      33.486  24.217  23.993  1.00  0.00     0.022 A 
ATOM     13  C   UNL A   1      32.420  23.107  25.840  1.00  0.00     0.282 A 
ATOM     14  C   UNL A   1      33.707  22.986  23.368  1.00  0.00     0.002 A 
ATOM     15  C   UNL A   1      32.639  21.865  25.206  1.00  0.00     0.087 A 
ATOM     16  C   UNL A   1      33.273  21.811  23.967  1.00  0.00     0.007 A 
BRANCH  13  17
ATOM     17  N   UNL A   1      31.791  23.056  27.161  1.00  0.00     0.063 N 
ATOM     18  O   UNL A   1      32.496  22.655  28.101  1.00  0.00    -0.258 OA
ATOM     19  O   UNL A   1      30.623  23.440  27.284  1.00  0.00    -0.258 OA
ENDBRANCH  13  17
ENDBRANCH  10  11
ENDBRANCH   8  10
ENDBRANCH   6   8
ENDBRANCH   3   6
ENDBRANCH   1   2
BRANCH   1  20
ATOM     20  C   UNL A   1      31.975  30.282  26.773  1.00  0.00     0.023 C 
BRANCH  20  21
ATOM     21  C   UNL A   1      31.721  31.788  26.815  1.00  0.00     0.023 C 
BRANCH  21  22
ATOM     22  C   UNL A   1      32.875  32.617  27.364  1.00  0.00     0.116 C 
BRANCH  22  23
ATOM     23  N   UNL A   1      32.497  33.997  27.642  1.00  0.00    -0.352 N 
ATOM     24  C   UNL A   1      33.009  34.869  28.570  1.00  0.00     0.251 C 
ATOM     25  H   UNL A   1      31.769  34.355  27.085  1.00  0.00     0.163 HD
ATOM     26  O   UNL A   1      32.468  35.953  28.767  1.00  0.00    -0.269 OA
BRANCH  24  27
ATOM     27  C   UNL A   1      34.195  34.481  29.358  1.00  0.00     0.039 A 
ATOM     28  C   UNL A   1      34.014  33.967  30.644  1.00  0.00     0.014 A 
ATOM     29  C   UNL A   1      35.478  34.588  28.811  1.00  0.00     0.014 A 
ATOM     30  C   UNL A   1      35.112  33.474  31.349  1.00  0.00     0.010 A 
ATOM     31  C   UNL A   1      36.561  34.036  29.487  1.00  0.00     0.010 A 
ATOM     32  C   UNL A   1      36.385  33.459  30.754  1.00  0.00    -0.014 A 
BRANCH  32  33
ATOM     33  C   UNL A   1      37.536  32.795  31.414  1.00  0.00     0.031 A 
ATOM     34  C   UNL A   1      38.195  31.608  30.776  1.00  0.00     0.074 A 
ATOM     35  C   UNL A   1      37.924  33.212  32.635  1.00  0.00     0.049 A 
ATOM     36  N   UNL A   1      39.143  30.837  31.245  1.00  0.00    -0.248 NA
ATOM     37  C   UNL A   1      37.706  31.219  29.445  1.00  0.00     0.031 C 
ATOM     38  C   UNL A   1      37.327  34.323  33.376  1.00  0.00     0.029 A 
ATOM     39  N   UNL A   1      38.898  32.736  33.477  1.00  0.00    -0.354 N 
ATOM     40  C   UNL A   1      39.357  29.869  30.274  1.00  0.00     0.074 A 
ATOM     41  C   UNL A   1      38.407  30.118  29.210  1.00  0.00     0.031 C 
ATOM     42  C   UNL A   1      37.957  34.455  34.554  1.00  0.00     0.029 A 
ATOM     43  C   UNL A   1      38.968  33.410  34.671  1.00  0.00     0.049 A 
ATOM     44  H   UNL A   1      39.489  31.983  33.247  1.00  0.00     0.167 HD
ATOM     45  C   UNL A   1      40.276  28.875  30.264  1.00  0.00     0.037 A 
ATOM     46  C   UNL A   1      39.749  33.199  35.748  1.00  0.00     0.037 A 
ATOM     47  C   UNL A   1      41.229  28.643  31.317  1.00  0.00     0.049 A 
ATOM     48  C   UNL A   1      40.736  32.065  35.725  1.00  0.00     0.074 A 
ATOM     49  C   UNL A   1      42.253  27.713  31.366  1.00  0.00     0.029 A 
ATOM     50  N   UNL A   1      41.266  29.342  32.516  1.00  0.00    -0.354 N 
ATOM     51  N   UNL A   1      40.986  31.204  34.768  1.00  0.00    -0.248 NA
ATOM     52  C   UNL A   1      41.546  31.868  36.935  1.00  0.00     0.031 C 
ATOM     53  C   UNL A   1      42.874  27.812  32.615  1.00  0.00     0.029 A 
ATOM     54  C   UNL A   1      42.271  28.836  33.327  1.00  0.00     0.049 A 
ATOM     55  H   UNL A   1      40.668  30.086  32.755  1.00  0.00     0.167 HD
ATOM     56  C   UNL A   1      41.987  30.374  35.253  1.00  0.00     0.074 A 
ATOM     57  C   UNL A   1      42.317  30.848  36.581  1.00  0.00     0.031 C 
ATOM     58  C   UNL A   1      42.577  29.311  34.652  1.00  0.00     0.037 A 
BRANCH  45  59
ATOM     59  C   UNL A   1      40.298  27.962  29.072  1.00  0.00     0.064 A 
ATOM     60  C   UNL A   1      39.561  26.768  29.047  1.00  0.00     0.173 A 
ATOM     61  C   UNL A   1      41.036  28.302  27.928  1.00  0.00     0.173 A 
ATOM     62  F   UNL A   1      38.848  26.392  30.119  1.00  0.00    -0.203 F 
ATOM     63  C   UNL A   1      39.585  25.934  27.932  1.00  0.00     0.198 A 
ATOM     64  C   UNL A   1      41.033  27.480  26.804  1.00  0.00     0.198 A 
ATOM     65  F   UNL A   1      41.753  29.434  27.897  1.00  0.00    -0.203 F 
ATOM     66  F   UNL A   1      38.912  24.775  27.950  1.00  0.00    -0.200 F 
ATOM     67  C   UNL A   1      40.314  26.294  26.810  1.00  0.00     0.200 A 
ATOM     68  F   UNL A   1      41.728  27.836  25.714  1.00  0.00    -0.200 F 
ATOM     69  F   UNL A   1      40.332  25.494  25.734  1.00  0.00    -0.200 F 
ENDBRANCH  45  59
BRANCH  46  70
ATOM     70  C   UNL A   1      39.628  34.083  36.935  1.00  0.00     0.064 A 
ATOM     71  C   UNL A   1      38.846  33.704  38.034  1.00  0.00     0.173 A 
ATOM     72  C   UNL A   1      40.291  35.317  36.999  1.00  0.00     0.173 A 
ATOM     73  F   UNL A   1      38.175  32.544  38.010  1.00  0.00    -0.203 F 
ATOM     74  C   UNL A   1      38.720  34.532  39.147  1.00  0.00     0.198 A 
ATOM     75  C   UNL A   1      40.187  36.132  38.124  1.00  0.00     0.198 A 
ATOM     76  F   UNL A   1      41.052  35.725  35.973  1.00  0.00    -0.203 F 
ATOM     77  F   UNL A   1      37.934  34.164  40.169  1.00  0.00    -0.200 F 
ATOM     78  C   UNL A   1      39.397  35.743  39.195  1.00  0.00     0.200 A 
ATOM     79  F   UNL A   1      40.852  37.295  38.171  1.00  0.00    -0.200 F 
ATOM     80  F   UNL A   1      39.281  36.535  40.269  1.00  0.00    -0.200 F 
ENDBRANCH  46  70
BRANCH  58  81
ATOM     81  C   UNL A   1      43.640  28.590  35.427  1.00  0.00     0.064 A 
ATOM     82  C   UNL A   1      44.995  28.928  35.295  1.00  0.00     0.173 A 
ATOM     83  C   UNL A   1      43.299  27.585  36.344  1.00  0.00     0.173 A 
ATOM     84  F   UNL A   1      45.373  29.871  34.419  1.00  0.00    -0.203 F 
ATOM     85  C   UNL A   1      45.971  28.271  36.039  1.00  0.00     0.198 A 
ATOM     86  C   UNL A   1      44.275  26.951  37.107  1.00  0.00     0.198 A 
ATOM     87  F   UNL A   1      42.017  27.227  36.510  1.00  0.00    -0.203 F 
ATOM     88  F   UNL A   1      47.264  28.582  35.867  1.00  0.00    -0.200 F 
ATOM     89  C   UNL A   1      45.610  27.291  36.951  1.00  0.00     0.200 A 
ATOM     90  F   UNL A   1      43.923  26.012  37.997  1.00  0.00    -0.200 F 
ATOM     91  F   UNL A   1      46.551  26.668  37.674  1.00  0.00    -0.200 F 
ENDBRANCH  58  81
ENDBRANCH  32  33
ENDBRANCH  24  27
ENDBRANCH  22  23
ENDBRANCH  21  22
ENDBRANCH  20  21
ENDBRANCH   1  20
TORSDOF 15
ENDMDL
MODEL 3
REMARK VINA RESULT:     -11.9      0.853      7.542
REMARK SMILES C[C@@H](Sc1ccccc1[N+](=O)[O-])[C@@H](C)C(=O)NCCCCNC(=O)c1ccc(-c2c3nc(c(-c4c(F)c(F)c(F)c(F)c4F)c4ccc([nH]4)c(-c4c(F)c(F)c(F)c(F)c4F)c4nc(c(-c5c(F)c(F)c(F)c(F)c5F)c5ccc2[nH]5)C=C4)C=C3)cc1
REMARK SMILES IDX 18 1 17 2 15 3 16 4 13 6 14 7 2 8 1 9 3 10 4 11 5 12 9 13
REMARK SMILES IDX 6 14 8 15 7 16 10 17 11 18 12 19 19 20 20 21 21 22 22 23
REMARK SMILES IDX 23 24 24 26 25 27 26 28 87 29 27 30 86 31 28 32 29 33 30 34
REMARK SMILES IDX 80 35 31 36 85 37 79 38 81 39 32 40 84 41 78 42 77 43 33 45
REMARK SMILES IDX 65 46 45 47 64 48 46 49 49 50 63 51 82 52 47 53 48 54 62 56
REMARK SMILES IDX 83 57 50 58 34 59 35 60 43 61 36 62 37 63 41 64 44 65 38 66
REMARK SMILES IDX 39 67 42 68 40 69 66 70 67 71 75 72 68 73 69 74 73 75 76 76
REMARK SMILES IDX 70 77 71 78 74 79 72 80 51 81 52 82 60 83 53 84 54 85 58 86
REMARK SMILES IDX 61 87 55 88 56 89 59 90 57 91
REMARK H PARENT 17 5 22 25 81 44 49 55
REMARK Flexibility Score: inf
ROOT
ATOM      1  C   UNL A   1      32.129  29.978  25.413  1.00  0.00     0.116 C 
ENDROOT
BRANCH   1   2
ATOM      2  N   UNL A   1      31.016  29.943  24.486  1.00  0.00    -0.356 N 
ATOM      3  C   UNL A   1      30.510  28.945  23.713  1.00  0.00     0.223 C 
ATOM      4  O   UNL A   1      29.486  29.192  23.072  1.00  0.00    -0.275 OA
ATOM      5  H   UNL A   1      30.538  30.800  24.399  1.00  0.00     0.163 HD
BRANCH   3   6
ATOM      6  C   UNL A   1      31.124  27.547  23.678  1.00  0.00     0.088 C 
ATOM      7  C   UNL A   1      31.658  27.262  22.268  1.00  0.00     0.019 C 
BRANCH   6   8
ATOM      8  C   UNL A   1      30.207  26.459  24.295  1.00  0.00     0.061 C 
ATOM      9  C   UNL A   1      30.321  25.119  23.565  1.00  0.00     0.020 C 
BRANCH   8  10
ATOM     10  S   UNL A   1      30.655  26.247  26.086  1.00  0.00    -0.115 SA
BRANCH  10  11
ATOM     11  C   UNL A   1      32.064  25.147  26.001  1.00  0.00     0.085 A 
ATOM     12  C   UNL A   1      33.302  25.770  25.759  1.00  0.00     0.022 A 
ATOM     13  C   UNL A   1      32.066  23.752  26.185  1.00  0.00     0.282 A 
ATOM     14  C   UNL A   1      34.483  25.033  25.631  1.00  0.00     0.002 A 
ATOM     15  C   UNL A   1      33.258  23.007  26.051  1.00  0.00     0.087 A 
ATOM     16  C   UNL A   1      34.459  23.650  25.764  1.00  0.00     0.007 A 
BRANCH  13  17
ATOM     17  N   UNL A   1      30.865  22.993  26.535  1.00  0.00     0.063 N 
ATOM     18  O   UNL A   1      30.598  22.010  25.825  1.00  0.00    -0.258 OA
ATOM     19  O   UNL A   1      30.205  23.336  27.521  1.00  0.00    -0.258 OA
ENDBRANCH  13  17
ENDBRANCH  10  11
ENDBRANCH   8  10
ENDBRANCH   6   8
ENDBRANCH   3   6
ENDBRANCH   1   2
BRANCH   1  20
ATOM     20  C   UNL A   1      31.727  30.537  26.773  1.00  0.00     0.023 C 
BRANCH  20  21
ATOM     21  C   UNL A   1      31.542  32.053  26.819  1.00  0.00     0.023 C 
BRANCH  21  22
ATOM     22  C   UNL A   1      32.776  32.837  27.248  1.00  0.00     0.116 C 
BRANCH  22  23
ATOM     23  N   UNL A   1      32.469  34.208  27.634  1.00  0.00    -0.352 N 
ATOM     24  C   UNL A   1      33.012  34.972  28.636  1.00  0.00     0.251 C 
ATOM     25  H   UNL A   1      31.772  34.650  27.098  1.00  0.00     0.163 HD
ATOM     26  O   UNL A   1      32.528  36.066  28.915  1.00  0.00    -0.269 OA
BRANCH  24  27
ATOM     27  C   UNL A   1      34.162  34.456  29.404  1.00  0.00     0.039 A 
ATOM     28  C   UNL A   1      33.930  33.844  30.638  1.00  0.00     0.014 A 
ATOM     29  C   UNL A   1      35.459  34.542  28.888  1.00  0.00     0.014 A 
ATOM     30  C   UNL A   1      34.988  33.236  31.314  1.00  0.00     0.010 A 
ATOM     31  C   UNL A   1      36.499  33.878  29.529  1.00  0.00     0.010 A 
ATOM     32  C   UNL A   1      36.269  33.204  30.738  1.00  0.00    -0.014 A 
BRANCH  32  33
ATOM     33  C   UNL A   1      37.372  32.426  31.355  1.00  0.00     0.031 A 
ATOM     34  C   UNL A   1      37.909  32.809  32.704  1.00  0.00     0.074 A 
ATOM     35  C   UNL A   1      37.947  31.431  30.653  1.00  0.00     0.049 A 
ATOM     36  N   UNL A   1      38.929  32.315  33.358  1.00  0.00    -0.248 NA
ATOM     37  C   UNL A   1      37.223  33.910  33.397  1.00  0.00     0.031 C 
ATOM     38  C   UNL A   1      37.544  31.000  29.314  1.00  0.00     0.029 A 
ATOM     39  N   UNL A   1      39.007  30.614  30.959  1.00  0.00    -0.354 N 
ATOM     40  C   UNL A   1      39.015  33.049  34.532  1.00  0.00     0.074 A 
ATOM     41  C   UNL A   1      37.974  34.054  34.481  1.00  0.00     0.031 C 
ATOM     42  C   UNL A   1      38.334  29.990  28.920  1.00  0.00     0.029 A 
ATOM     43  C   UNL A   1      39.328  29.733  29.957  1.00  0.00     0.049 A 
ATOM     44  H   UNL A   1      39.491  30.657  31.816  1.00  0.00     0.167 HD
ATOM     45  C   UNL A   1      39.872  32.885  35.567  1.00  0.00     0.037 A 
ATOM     46  C   UNL A   1      40.324  28.829  29.875  1.00  0.00     0.037 A 
ATOM     47  C   UNL A   1      40.894  31.872  35.619  1.00  0.00     0.049 A 
ATOM     48  C   UNL A   1      41.285  28.692  31.024  1.00  0.00     0.074 A 
ATOM     49  C   UNL A   1      41.760  31.572  36.656  1.00  0.00     0.029 A 
ATOM     50  N   UNL A   1      41.195  31.001  34.582  1.00  0.00    -0.354 N 
ATOM     51  N   UNL A   1      41.307  29.337  32.165  1.00  0.00    -0.248 NA
ATOM     52  C   UNL A   1      42.363  27.707  30.871  1.00  0.00     0.031 C 
ATOM     53  C   UNL A   1      42.621  30.557  36.227  1.00  0.00     0.029 A 
ATOM     54  C   UNL A   1      42.260  30.190  34.940  1.00  0.00     0.049 A 
ATOM     55  H   UNL A   1      40.722  30.964  33.719  1.00  0.00     0.167 HD
ATOM     56  C   UNL A   1      42.390  28.829  32.870  1.00  0.00     0.074 A 
ATOM     57  C   UNL A   1      42.986  27.804  32.037  1.00  0.00     0.031 C 
ATOM     58  C   UNL A   1      42.850  29.183  34.094  1.00  0.00     0.037 A 
BRANCH  45  59
ATOM     59  C   UNL A   1      39.741  33.822  36.733  1.00  0.00     0.064 A 
ATOM     60  C   UNL A   1      40.403  35.058  36.761  1.00  0.00     0.173 A 
ATOM     61  C   UNL A   1      38.914  33.496  37.818  1.00  0.00     0.173 A 
ATOM     62  F   UNL A   1      41.214  35.413  35.753  1.00  0.00    -0.203 F 
ATOM     63  C   UNL A   1      40.267  35.920  37.846  1.00  0.00     0.198 A 
ATOM     64  C   UNL A   1      38.755  34.374  38.887  1.00  0.00     0.198 A 
ATOM     65  F   UNL A   1      38.253  32.329  37.839  1.00  0.00    -0.203 F 
ATOM     66  F   UNL A   1      40.948  37.074  37.872  1.00  0.00    -0.200 F 
ATOM     67  C   UNL A   1      39.438  35.582  38.904  1.00  0.00     0.200 A 
ATOM     68  F   UNL A   1      37.944  34.051  39.904  1.00  0.00    -0.200 F 
ATOM     69  F   UNL A   1      39.302  36.415  39.945  1.00  0.00    -0.200 F 
ENDBRANCH  45  59
BRANCH  46  70
ATOM     70  C   UNL A   1      40.458  27.983  28.662  1.00  0.00     0.064 A 
ATOM     71  C   UNL A   1      41.216  28.417  27.566  1.00  0.00     0.173 A 
ATOM     72  C   UNL A   1      39.839  26.729  28.571  1.00  0.00     0.173 A 
ATOM     73  F   UNL A   1      41.808  29.620  27.596  1.00  0.00    -0.203 F 
ATOM     74  C   UNL A   1      41.339  27.634  26.421  1.00  0.00     0.198 A 
ATOM     75  C   UNL A   1      39.985  25.934  27.437  1.00  0.00     0.198 A 
ATOM     76  F   UNL A   1      39.102  26.268  29.594  1.00  0.00    -0.203 F 
ATOM     77  F   UNL A   1      42.038  28.089  25.371  1.00  0.00    -0.200 F 
ATOM     78  C   UNL A   1      40.729  26.389  26.359  1.00  0.00     0.200 A 
ATOM     79  F   UNL A   1      39.404  24.727  27.387  1.00  0.00    -0.200 F 
ATOM     80  F   UNL A   1      40.854  25.633  25.261  1.00  0.00    -0.200 F 
ENDBRANCH  46  70
BRANCH  58  81
ATOM     81  C   UNL A   1      44.057  28.456  34.608  1.00  0.00     0.064 A 
ATOM     82  C   UNL A   1      45.349  28.977  34.443  1.00  0.00     0.173 A 
ATOM     83  C   UNL A   1      43.920  27.251  35.314  1.00  0.00     0.173 A 
ATOM     84  F   UNL A   1      45.534  30.117  33.760  1.00  0.00    -0.203 F 
ATOM     85  C   UNL A   1      46.461  28.308  34.948  1.00  0.00     0.198 A 
ATOM     86  C   UNL A   1      45.031  26.600  35.843  1.00  0.00     0.198 A 
ATOM     87  F   UNL A   1      42.706  26.713  35.503  1.00  0.00    -0.203 F 
ATOM     88  F   UNL A   1      47.689  28.804  34.741  1.00  0.00    -0.200 F 
ATOM     89  C   UNL A   1      46.300  27.127  35.656  1.00  0.00     0.200 A 
ATOM     90  F   UNL A   1      44.873  25.465  36.537  1.00  0.00    -0.200 F 
ATOM     91  F   UNL A   1      47.371  26.490  36.150  1.00  0.00    -0.200 F 
ENDBRANCH  58  81
ENDBRANCH  32  33
ENDBRANCH  24  27
ENDBRANCH  22  23
ENDBRANCH  21  22
ENDBRANCH  20  21
ENDBRANCH   1  20
TORSDOF 15
ENDMDL
