MODEL 1
REMARK VINA RESULT:     -12.3      0.000      0.000
REMARK SMILES O=C(NCCCCNC(=O)[C@H](Cc1ccc(O)cc1)NC(=O)c1ccc(Cl)s1)c1ccc(-c2c3nc(c(-c4c(F)c(F)c(F)c(F)c4F)c4ccc([nH]4)c(-c4c(F)c(F)c(F)c(F)c4F)c4nc(c(-c5c(F)c(F)c(F)c(F)c5F)c5ccc2[nH]5)C=C4)C=C3)cc1
REMARK SMILES IDX 6 1 5 2 4 3 3 4 1 5 2 6 29 8 30 9 91 10 31 11 90 12 32 13
REMARK SMILES IDX 33 14 34 15 84 16 35 17 89 18 83 19 85 20 36 21 88 22 82 23
REMARK SMILES IDX 81 24 37 26 69 27 49 28 68 29 50 30 53 31 67 32 86 33 51 34
REMARK SMILES IDX 52 35 66 37 87 38 54 39 38 40 39 41 47 42 40 43 41 44 45 45
REMARK SMILES IDX 48 46 42 47 43 48 46 49 44 50 70 51 71 52 79 53 72 54 73 55
REMARK SMILES IDX 77 56 80 57 74 58 75 59 78 60 76 61 55 62 56 63 64 64 57 65
REMARK SMILES IDX 58 66 62 67 65 68 59 69 60 70 63 71 61 72 7 73 8 74 9 75
REMARK SMILES IDX 10 77 11 78 20 79 21 80 22 82 23 83 24 84 28 85 25 86 26 87
REMARK SMILES IDX 27 88 12 89 13 90 14 91 19 92 15 93 18 94 16 95 17 96
REMARK H PARENT 3 7 85 25 53 36 8 76 20 81 17 97
REMARK Flexibility Score: inf
ROOT
ATOM      1  C   UNL A   1      31.711  27.617  26.361  1.00  0.00     0.023 C 
ENDROOT
BRANCH   1   2
ATOM      2  C   UNL A   1      32.082  28.781  25.447  1.00  0.00     0.023 C 
BRANCH   2   3
ATOM      3  C   UNL A   1      33.208  29.658  25.968  1.00  0.00     0.116 C 
BRANCH   3   4
ATOM      4  N   UNL A   1      32.767  30.978  26.394  1.00  0.00    -0.352 N 
ATOM      5  O   UNL A   1      32.853  32.869  27.640  1.00  0.00    -0.269 OA
ATOM      6  C   UNL A   1      33.382  31.825  27.290  1.00  0.00     0.251 C 
ATOM      7  H   UNL A   1      31.929  31.305  25.993  1.00  0.00     0.163 HD
BRANCH   6   8
ATOM      8  C   UNL A   1      34.685  31.416  27.851  1.00  0.00     0.039 A 
ATOM      9  C   UNL A   1      34.857  30.111  28.315  1.00  0.00     0.014 A 
ATOM     10  C   UNL A   1      35.701  32.363  27.991  1.00  0.00     0.014 A 
ATOM     11  C   UNL A   1      35.977  29.802  29.069  1.00  0.00     0.010 A 
ATOM     12  C   UNL A   1      36.875  32.016  28.662  1.00  0.00     0.010 A 
ATOM     13  C   UNL A   1      37.006  30.744  29.239  1.00  0.00    -0.014 A 
BRANCH  13  14
ATOM     14  C   UNL A   1      38.225  30.330  29.975  1.00  0.00     0.031 A 
ATOM     15  C   UNL A   1      38.477  30.765  31.390  1.00  0.00     0.074 A 
ATOM     16  C   UNL A   1      39.072  29.483  29.360  1.00  0.00     0.049 A 
ATOM     17  N   UNL A   1      39.462  30.434  32.188  1.00  0.00    -0.248 NA
ATOM     18  C   UNL A   1      37.508  31.696  31.990  1.00  0.00     0.031 C 
ATOM     19  C   UNL A   1      38.930  29.013  27.979  1.00  0.00     0.029 A 
ATOM     20  N   UNL A   1      40.190  28.837  29.816  1.00  0.00    -0.354 N 
ATOM     21  C   UNL A   1      39.244  31.126  33.372  1.00  0.00     0.074 A 
ATOM     22  C   UNL A   1      38.044  31.913  33.184  1.00  0.00     0.031 C 
ATOM     23  C   UNL A   1      39.879  28.103  27.724  1.00  0.00     0.029 A 
ATOM     24  C   UNL A   1      40.736  27.976  28.896  1.00  0.00     0.049 A 
ATOM     25  H   UNL A   1      40.565  28.975  30.717  1.00  0.00     0.167 HD
ATOM     26  C   UNL A   1      39.979  31.097  34.510  1.00  0.00     0.037 A 
ATOM     27  C   UNL A   1      41.815  27.179  28.982  1.00  0.00     0.037 A 
ATOM     28  C   UNL A   1      41.166  30.299  34.689  1.00  0.00     0.049 A 
ATOM     29  C   UNL A   1      42.595  27.156  30.262  1.00  0.00     0.074 A 
ATOM     30  C   UNL A   1      41.984  30.203  35.802  1.00  0.00     0.029 A 
ATOM     31  N   UNL A   1      41.702  29.453  33.727  1.00  0.00    -0.354 N 
ATOM     32  N   UNL A   1      42.377  27.815  31.373  1.00  0.00    -0.248 NA
ATOM     33  C   UNL A   1      43.774  26.282  30.299  1.00  0.00     0.031 C 
ATOM     34  C   UNL A   1      43.030  29.321  35.504  1.00  0.00     0.029 A 
ATOM     35  C   UNL A   1      42.841  28.837  34.221  1.00  0.00     0.049 A 
ATOM     36  H   UNL A   1      41.327  29.312  32.829  1.00  0.00     0.167 HD
ATOM     37  C   UNL A   1      43.390  27.442  32.241  1.00  0.00     0.074 A 
ATOM     38  C   UNL A   1      44.202  26.467  31.540  1.00  0.00     0.031 C 
ATOM     39  C   UNL A   1      43.639  27.879  33.499  1.00  0.00     0.037 A 
BRANCH  26  40
ATOM     40  C   UNL A   1      39.532  31.960  35.654  1.00  0.00     0.064 A 
ATOM     41  C   UNL A   1      40.042  33.254  35.839  1.00  0.00     0.173 A 
ATOM     42  C   UNL A   1      38.538  31.515  36.538  1.00  0.00     0.173 A 
ATOM     43  F   UNL A   1      41.002  33.723  35.029  1.00  0.00    -0.203 F 
ATOM     44  C   UNL A   1      39.583  34.064  36.875  1.00  0.00     0.198 A 
ATOM     45  C   UNL A   1      38.064  32.336  37.559  1.00  0.00     0.198 A 
ATOM     46  F   UNL A   1      38.013  30.288  36.402  1.00  0.00    -0.203 F 
ATOM     47  F   UNL A   1      40.106  35.286  37.052  1.00  0.00    -0.200 F 
ATOM     48  C   UNL A   1      38.589  33.608  37.729  1.00  0.00     0.200 A 
ATOM     49  F   UNL A   1      37.097  31.898  38.375  1.00  0.00    -0.200 F 
ATOM     50  F   UNL A   1      38.139  34.393  38.718  1.00  0.00    -0.200 F 
ENDBRANCH  26  40
BRANCH  27  51
ATOM     51  C   UNL A   1      42.211  26.354  27.814  1.00  0.00     0.064 A 
ATOM     52  C   UNL A   1      43.214  26.779  26.932  1.00  0.00     0.173 A 
ATOM     53  C   UNL A   1      41.615  25.106  27.574  1.00  0.00     0.173 A 
ATOM     54  F   UNL A   1      43.803  27.970  27.111  1.00  0.00    -0.203 F 
ATOM     55  C   UNL A   1      43.594  25.992  25.847  1.00  0.00     0.198 A 
ATOM     56  C   UNL A   1      42.019  24.308  26.508  1.00  0.00     0.198 A 
ATOM     57  F   UNL A   1      40.658  24.652  28.397  1.00  0.00    -0.203 F 
ATOM     58  F   UNL A   1      44.529  26.438  24.996  1.00  0.00    -0.200 F 
ATOM     59  C   UNL A   1      43.003  24.755  25.640  1.00  0.00     0.200 A 
ATOM     60  F   UNL A   1      41.459  23.105  26.326  1.00  0.00    -0.200 F 
ATOM     61  F   UNL A   1      43.378  23.994  24.603  1.00  0.00    -0.200 F 
ENDBRANCH  27  51
BRANCH  39  62
ATOM     62  C   UNL A   1      44.838  27.297  34.186  1.00  0.00     0.064 A 
ATOM     63  C   UNL A   1      46.099  27.904  34.089  1.00  0.00     0.173 A 
ATOM     64  C   UNL A   1      44.725  26.125  34.946  1.00  0.00     0.173 A 
ATOM     65  F   UNL A   1      46.258  29.016  33.357  1.00  0.00    -0.203 F 
ATOM     66  C   UNL A   1      47.212  27.337  34.702  1.00  0.00     0.198 A 
ATOM     67  C   UNL A   1      45.836  25.575  35.580  1.00  0.00     0.198 A 
ATOM     68  F   UNL A   1      43.539  25.510  35.070  1.00  0.00    -0.203 F 
ATOM     69  F   UNL A   1      48.418  27.903  34.551  1.00  0.00    -0.200 F 
ATOM     70  C   UNL A   1      47.079  26.177  35.450  1.00  0.00     0.200 A 
ATOM     71  F   UNL A   1      45.705  24.458  36.308  1.00  0.00    -0.200 F 
ATOM     72  F   UNL A   1      48.153  25.630  36.035  1.00  0.00    -0.200 F 
ENDBRANCH  39  62
ENDBRANCH  13  14
ENDBRANCH   6   8
ENDBRANCH   3   4
ENDBRANCH   2   3
ENDBRANCH   1   2
BRANCH   1  73
ATOM     73  C   UNL A   1      32.606  26.384  26.215  1.00  0.00     0.116 C 
BRANCH  73  74
ATOM     74  N   UNL A   1      32.033  25.259  26.926  1.00  0.00    -0.354 N 
ATOM     75  C   UNL A   1      31.498  24.087  26.495  1.00  0.00     0.242 C 
ATOM     76  H   UNL A   1      32.031  25.365  27.905  1.00  0.00     0.163 HD
ATOM     77  O   UNL A   1      30.645  23.594  27.246  1.00  0.00    -0.273 OA
BRANCH  75  78
ATOM     78  C   UNL A   1      31.811  23.429  25.125  1.00  0.00     0.176 C 
BRANCH  78  79
ATOM     79  N   UNL A   1      32.156  22.010  25.116  1.00  0.00    -0.339 N 
ATOM     80  C   UNL A   1      33.332  21.354  24.830  1.00  0.00     0.262 C 
ATOM     81  H   UNL A   1      31.411  21.412  25.359  1.00  0.00     0.164 HD
ATOM     82  O   UNL A   1      33.240  20.126  24.749  1.00  0.00    -0.268 OA
BRANCH  80  83
ATOM     83  C   UNL A   1      34.601  22.066  24.696  1.00  0.00     0.093 A 
ATOM     84  C   UNL A   1      35.241  22.636  23.607  1.00  0.00     0.027 A 
ATOM     85  S   UNL A   1      35.501  22.389  26.138  1.00  0.00    -0.118 S 
ATOM     86  C   UNL A   1      36.442  23.327  23.949  1.00  0.00     0.033 A 
ATOM     87  C   UNL A   1      36.679  23.254  25.293  1.00  0.00     0.094 A 
ATOM     88  Cl  UNL A   1      38.005  23.951  26.132  1.00  0.00    -0.072 Cl
ENDBRANCH  80  83
ENDBRANCH  78  79
BRANCH  78  89
ATOM     89  C   UNL A   1      30.659  23.709  24.124  1.00  0.00     0.070 C 
BRANCH  89  90
ATOM     90  C   UNL A   1      30.606  25.103  23.531  1.00  0.00    -0.045 A 
ATOM     91  C   UNL A   1      31.559  25.504  22.581  1.00  0.00     0.007 A 
ATOM     92  C   UNL A   1      29.591  26.002  23.884  1.00  0.00     0.007 A 
ATOM     93  C   UNL A   1      31.517  26.776  22.010  1.00  0.00     0.046 A 
ATOM     94  C   UNL A   1      29.538  27.272  23.299  1.00  0.00     0.046 A 
ATOM     95  C   UNL A   1      30.502  27.650  22.372  1.00  0.00     0.115 A 
BRANCH  95  96
ATOM     96  O   UNL A   1      30.412  28.895  21.824  1.00  0.00    -0.508 OA
ATOM     97  H   UNL A   1      31.163  29.286  21.424  1.00  0.00     0.293 HD
ENDBRANCH  95  96
ENDBRANCH  89  90
ENDBRANCH  78  89
ENDBRANCH  75  78
ENDBRANCH  73  74
ENDBRANCH   1  73
TORSDOF 16
ENDMDL
MODEL 2
REMARK VINA RESULT:     -12.2      4.692      9.937
REMARK SMILES O=C(NCCCCNC(=O)[C@H](Cc1ccc(O)cc1)NC(=O)c1ccc(Cl)s1)c1ccc(-c2c3nc(c(-c4c(F)c(F)c(F)c(F)c4F)c4ccc([nH]4)c(-c4c(F)c(F)c(F)c(F)c4F)c4nc(c(-c5c(F)c(F)c(F)c(F)c5F)c5ccc2[nH]5)C=C4)C=C3)cc1
REMARK SMILES IDX 6 1 5 2 4 3 3 4 1 5 2 6 29 8 30 9 91 10 31 11 90 12 32 13
REMARK SMILES IDX 33 14 34 15 84 16 35 17 89 18 83 19 85 20 36 21 88 22 82 23
REMARK SMILES IDX 81 24 37 26 69 27 49 28 68 29 50 30 53 31 67 32 86 33 51 34
REMARK SMILES IDX 52 35 66 37 87 38 54 39 38 40 39 41 47 42 40 43 41 44 45 45
REMARK SMILES IDX 48 46 42 47 43 48 46 49 44 50 70 51 71 52 79 53 72 54 73 55
REMARK SMILES IDX 77 56 80 57 74 58 75 59 78 60 76 61 55 62 56 63 64 64 57 65
REMARK SMILES IDX 58 66 62 67 65 68 59 69 60 70 63 71 61 72 7 73 8 74 9 75
REMARK SMILES IDX 10 77 11 78 20 79 21 80 22 82 23 83 24 84 28 85 25 86 26 87
REMARK SMILES IDX 27 88 12 89 13 90 14 91 19 92 15 93 18 94 16 95 17 96
REMARK H PARENT 3 7 85 25 53 36 8 76 20 81 17 97
REMARK Flexibility Score: inf
ROOT
ATOM      1  C   UNL A   1      37.219  21.476  24.589  1.00  0.00     0.023 C 
ENDROOT
BRANCH   1   2
ATOM      2  C   UNL A   1      37.935  20.194  25.000  1.00  0.00     0.023 C 
BRANCH   2   3
ATOM      3  C   UNL A   1      39.122  20.403  25.926  1.00  0.00     0.116 C 
BRANCH   3   4
ATOM      4  N   UNL A   1      40.053  19.284  25.942  1.00  0.00    -0.352 N 
ATOM      5  O   UNL A   1      42.101  18.318  26.006  1.00  0.00    -0.269 OA
ATOM      6  C   UNL A   1      41.418  19.324  26.116  1.00  0.00     0.251 C 
ATOM      7  H   UNL A   1      39.658  18.391  25.812  1.00  0.00     0.163 HD
BRANCH   6   8
ATOM      8  C   UNL A   1      42.044  20.631  26.399  1.00  0.00     0.039 A 
ATOM      9  C   UNL A   1      42.287  21.008  27.721  1.00  0.00     0.014 A 
ATOM     10  C   UNL A   1      42.304  21.511  25.346  1.00  0.00     0.014 A 
ATOM     11  C   UNL A   1      42.628  22.321  28.000  1.00  0.00     0.010 A 
ATOM     12  C   UNL A   1      42.749  22.805  25.627  1.00  0.00     0.010 A 
ATOM     13  C   UNL A   1      42.878  23.231  26.958  1.00  0.00    -0.014 A 
BRANCH  13  14
ATOM     14  C   UNL A   1      43.333  24.597  27.310  1.00  0.00     0.031 A 
ATOM     15  C   UNL A   1      44.716  25.079  26.978  1.00  0.00     0.074 A 
ATOM     16  C   UNL A   1      42.438  25.430  27.876  1.00  0.00     0.049 A 
ATOM     17  N   UNL A   1      45.239  26.266  27.163  1.00  0.00    -0.248 NA
ATOM     18  C   UNL A   1      45.636  24.108  26.367  1.00  0.00     0.031 C 
ATOM     19  C   UNL A   1      41.073  25.058  28.257  1.00  0.00     0.029 A 
ATOM     20  N   UNL A   1      42.518  26.761  28.191  1.00  0.00    -0.354 N 
ATOM     21  C   UNL A   1      46.549  26.181  26.710  1.00  0.00     0.074 A 
ATOM     22  C   UNL A   1      46.751  24.820  26.261  1.00  0.00     0.031 C 
ATOM     23  C   UNL A   1      40.424  26.147  28.689  1.00  0.00     0.029 A 
ATOM     24  C   UNL A   1      41.344  27.277  28.680  1.00  0.00     0.049 A 
ATOM     25  H   UNL A   1      43.338  27.294  28.078  1.00  0.00     0.167 HD
ATOM     26  C   UNL A   1      47.489  27.155  26.671  1.00  0.00     0.037 A 
ATOM     27  C   UNL A   1      41.042  28.523  29.087  1.00  0.00     0.037 A 
ATOM     28  C   UNL A   1      47.273  28.511  27.111  1.00  0.00     0.049 A 
ATOM     29  C   UNL A   1      42.100  29.582  29.012  1.00  0.00     0.074 A 
ATOM     30  C   UNL A   1      48.163  29.572  27.116  1.00  0.00     0.029 A 
ATOM     31  N   UNL A   1      46.074  28.994  27.619  1.00  0.00    -0.354 N 
ATOM     32  N   UNL A   1      43.334  29.487  28.582  1.00  0.00    -0.248 NA
ATOM     33  C   UNL A   1      41.725  30.921  29.484  1.00  0.00     0.031 C 
ATOM     34  C   UNL A   1      47.512  30.689  27.654  1.00  0.00     0.029 A 
ATOM     35  C   UNL A   1      46.205  30.335  27.946  1.00  0.00     0.049 A 
ATOM     36  H   UNL A   1      45.254  28.463  27.730  1.00  0.00     0.167 HD
ATOM     37  C   UNL A   1      43.887  30.748  28.734  1.00  0.00     0.074 A 
ATOM     38  C   UNL A   1      42.840  31.602  29.259  1.00  0.00     0.031 C 
ATOM     39  C   UNL A   1      45.152  31.160  28.478  1.00  0.00     0.037 A 
BRANCH  26  40
ATOM     40  C   UNL A   1      48.849  26.795  26.145  1.00  0.00     0.064 A 
ATOM     41  C   UNL A   1      49.190  26.992  24.798  1.00  0.00     0.173 A 
ATOM     42  C   UNL A   1      49.842  26.307  27.007  1.00  0.00     0.173 A 
ATOM     43  F   UNL A   1      48.274  27.444  23.929  1.00  0.00    -0.203 F 
ATOM     44  C   UNL A   1      50.470  26.701  24.333  1.00  0.00     0.198 A 
ATOM     45  C   UNL A   1      51.128  26.039  26.544  1.00  0.00     0.198 A 
ATOM     46  F   UNL A   1      49.569  26.106  28.306  1.00  0.00    -0.203 F 
ATOM     47  F   UNL A   1      50.765  26.867  23.036  1.00  0.00    -0.200 F 
ATOM     48  C   UNL A   1      51.440  26.233  25.207  1.00  0.00     0.200 A 
ATOM     49  F   UNL A   1      52.066  25.598  27.392  1.00  0.00    -0.200 F 
ATOM     50  F   UNL A   1      52.675  25.964  24.760  1.00  0.00    -0.200 F 
ENDBRANCH  26  40
BRANCH  27  51
ATOM     51  C   UNL A   1      39.682  28.815  29.604  1.00  0.00     0.064 A 
ATOM     52  C   UNL A   1      39.363  28.620  30.955  1.00  0.00     0.173 A 
ATOM     53  C   UNL A   1      38.683  29.326  28.762  1.00  0.00     0.173 A 
ATOM     54  F   UNL A   1      40.280  28.120  31.795  1.00  0.00    -0.203 F 
ATOM     55  C   UNL A   1      38.090  28.913  31.439  1.00  0.00     0.198 A 
ATOM     56  C   UNL A   1      37.421  29.648  29.255  1.00  0.00     0.198 A 
ATOM     57  F   UNL A   1      38.944  29.540  27.464  1.00  0.00    -0.203 F 
ATOM     58  F   UNL A   1      37.797  28.682  32.727  1.00  0.00    -0.200 F 
ATOM     59  C   UNL A   1      37.123  29.433  30.592  1.00  0.00     0.200 A 
ATOM     60  F   UNL A   1      36.499  30.170  28.437  1.00  0.00    -0.200 F 
ATOM     61  F   UNL A   1      35.903  29.726  31.062  1.00  0.00    -0.200 F 
ENDBRANCH  27  51
BRANCH  39  62
ATOM     62  C   UNL A   1      45.459  32.599  28.767  1.00  0.00     0.064 A 
ATOM     63  C   UNL A   1      45.968  33.000  30.011  1.00  0.00     0.173 A 
ATOM     64  C   UNL A   1      45.243  33.583  27.793  1.00  0.00     0.173 A 
ATOM     65  F   UNL A   1      46.172  32.095  30.980  1.00  0.00    -0.203 F 
ATOM     66  C   UNL A   1      46.217  34.342  30.280  1.00  0.00     0.198 A 
ATOM     67  C   UNL A   1      45.519  34.922  28.057  1.00  0.00     0.198 A 
ATOM     68  F   UNL A   1      44.761  33.247  26.586  1.00  0.00    -0.203 F 
ATOM     69  F   UNL A   1      46.650  34.711  31.494  1.00  0.00    -0.200 F 
ATOM     70  C   UNL A   1      45.997  35.300  29.303  1.00  0.00     0.200 A 
ATOM     71  F   UNL A   1      45.313  35.846  27.109  1.00  0.00    -0.200 F 
ATOM     72  F   UNL A   1      46.233  36.593  29.566  1.00  0.00    -0.200 F 
ENDBRANCH  39  62
ENDBRANCH  13  14
ENDBRANCH   6   8
ENDBRANCH   3   4
ENDBRANCH   2   3
ENDBRANCH   1   2
BRANCH   1  73
ATOM     73  C   UNL A   1      35.692  21.378  24.585  1.00  0.00     0.116 C 
BRANCH  73  74
ATOM     74  N   UNL A   1      35.206  21.047  25.910  1.00  0.00    -0.354 N 
ATOM     75  C   UNL A   1      34.362  21.692  26.757  1.00  0.00     0.242 C 
ATOM     76  H   UNL A   1      35.552  20.195  26.261  1.00  0.00     0.163 HD
ATOM     77  O   UNL A   1      34.549  21.461  27.959  1.00  0.00    -0.273 OA
BRANCH  75  78
ATOM     78  C   UNL A   1      33.302  22.736  26.316  1.00  0.00     0.176 C 
BRANCH  78  79
ATOM     79  N   UNL A   1      31.989  22.684  26.955  1.00  0.00    -0.339 N 
ATOM     80  C   UNL A   1      30.811  23.342  26.686  1.00  0.00     0.262 C 
ATOM     81  H   UNL A   1      31.938  22.063  27.719  1.00  0.00     0.164 HD
ATOM     82  O   UNL A   1      29.925  23.196  27.532  1.00  0.00    -0.268 OA
BRANCH  80  83
ATOM     83  C   UNL A   1      30.616  24.104  25.454  1.00  0.00     0.093 A 
ATOM     84  C   UNL A   1      30.652  23.741  24.116  1.00  0.00     0.027 A 
ATOM     85  S   UNL A   1      30.153  25.765  25.597  1.00  0.00    -0.118 S 
ATOM     86  C   UNL A   1      30.303  24.802  23.229  1.00  0.00     0.033 A 
ATOM     87  C   UNL A   1      30.017  25.944  23.924  1.00  0.00     0.094 A 
ATOM     88  Cl  UNL A   1      29.543  27.452  23.253  1.00  0.00    -0.072 Cl
ENDBRANCH  80  83
ENDBRANCH  78  79
BRANCH  78  89
ATOM     89  C   UNL A   1      33.890  24.169  26.413  1.00  0.00     0.070 C 
BRANCH  89  90
ATOM     90  C   UNL A   1      33.855  24.998  25.145  1.00  0.00    -0.045 A 
ATOM     91  C   UNL A   1      33.995  24.380  23.892  1.00  0.00     0.007 A 
ATOM     92  C   UNL A   1      33.644  26.382  25.190  1.00  0.00     0.007 A 
ATOM     93  C   UNL A   1      33.947  25.122  22.712  1.00  0.00     0.046 A 
ATOM     94  C   UNL A   1      33.579  27.126  24.007  1.00  0.00     0.046 A 
ATOM     95  C   UNL A   1      33.735  26.492  22.779  1.00  0.00     0.115 A 
BRANCH  95  96
ATOM     96  O   UNL A   1      33.662  27.252  21.651  1.00  0.00    -0.508 OA
ATOM     97  H   UNL A   1      33.626  28.185  21.715  1.00  0.00     0.293 HD
ENDBRANCH  95  96
ENDBRANCH  89  90
ENDBRANCH  78  89
ENDBRANCH  75  78
ENDBRANCH  73  74
ENDBRANCH   1  73
TORSDOF 16
ENDMDL
MODEL 3
REMARK VINA RESULT:     -12.2      4.694      9.820
REMARK SMILES O=C(NCCCCNC(=O)[C@H](Cc1ccc(O)cc1)NC(=O)c1ccc(Cl)s1)c1ccc(-c2c3nc(c(-c4c(F)c(F)c(F)c(F)c4F)c4ccc([nH]4)c(-c4c(F)c(F)c(F)c(F)c4F)c4nc(c(-c5c(F)c(F)c(F)c(F)c5F)c5ccc2[nH]5)C=C4)C=C3)cc1
REMARK SMILES IDX 6 1 5 2 4 3 3 4 1 5 2 6 29 8 30 9 91 10 31 11 90 12 32 13
REMARK SMILES IDX 33 14 34 15 84 16 35 17 89 18 83 19 85 20 36 21 88 22 82 23
REMARK SMILES IDX 81 24 37 26 69 27 49 28 68 29 50 30 53 31 67 32 86 33 51 34
REMARK SMILES IDX 52 35 66 37 87 38 54 39 38 40 39 41 47 42 40 43 41 44 45 45
REMARK SMILES IDX 48 46 42 47 43 48 46 49 44 50 70 51 71 52 79 53 72 54 73 55
REMARK SMILES IDX 77 56 80 57 74 58 75 59 78 60 76 61 55 62 56 63 64 64 57 65
REMARK SMILES IDX 58 66 62 67 65 68 59 69 60 70 63 71 61 72 7 73 8 74 9 75
REMARK SMILES IDX 10 77 11 78 20 79 21 80 22 82 23 83 24 84 28 85 25 86 26 87
REMARK SMILES IDX 27 88 12 89 13 90 14 91 19 92 15 93 18 94 16 95 17 96
REMARK H PARENT 3 7 85 25 53 36 8 76 20 81 17 97
REMARK Flexibility Score: inf
ROOT
ATOM      1  C   UNL A   1      37.278  21.656  24.576  1.00  0.00     0.023 C 
ENDROOT
BRANCH   1   2
ATOM      2  C   UNL A   1      37.954  20.357  25.008  1.00  0.00     0.023 C 
BRANCH   2   3
ATOM      3  C   UNL A   1      39.152  20.544  25.922  1.00  0.00     0.116 C 
BRANCH   3   4
ATOM      4  N   UNL A   1      40.084  19.427  25.897  1.00  0.00    -0.352 N 
ATOM      5  O   UNL A   1      42.133  18.460  25.922  1.00  0.00    -0.269 OA
ATOM      6  C   UNL A   1      41.450  19.461  26.068  1.00  0.00     0.251 C 
ATOM      7  H   UNL A   1      39.689  18.538  25.738  1.00  0.00     0.163 HD
BRANCH   6   8
ATOM      8  C   UNL A   1      42.076  20.759  26.394  1.00  0.00     0.039 A 
ATOM      9  C   UNL A   1      42.294  21.104  27.728  1.00  0.00     0.014 A 
ATOM     10  C   UNL A   1      42.361  21.661  25.367  1.00  0.00     0.014 A 
ATOM     11  C   UNL A   1      42.635  22.409  28.044  1.00  0.00     0.010 A 
ATOM     12  C   UNL A   1      42.807  22.946  25.686  1.00  0.00     0.010 A 
ATOM     13  C   UNL A   1      42.911  23.340  27.027  1.00  0.00    -0.014 A 
BRANCH  13  14
ATOM     14  C   UNL A   1      43.364  24.697  27.420  1.00  0.00     0.031 A 
ATOM     15  C   UNL A   1      44.761  25.172  27.141  1.00  0.00     0.074 A 
ATOM     16  C   UNL A   1      42.458  25.526  27.972  1.00  0.00     0.049 A 
ATOM     17  N   UNL A   1      45.287  26.351  27.365  1.00  0.00    -0.248 NA
ATOM     18  C   UNL A   1      45.693  24.205  26.542  1.00  0.00     0.031 C 
ATOM     19  C   UNL A   1      41.079  25.158  28.303  1.00  0.00     0.029 A 
ATOM     20  N   UNL A   1      42.539  26.850  28.315  1.00  0.00    -0.354 N 
ATOM     21  C   UNL A   1      46.610  26.264  26.953  1.00  0.00     0.074 A 
ATOM     22  C   UNL A   1      46.816  24.910  26.484  1.00  0.00     0.031 C 
ATOM     23  C   UNL A   1      40.424  26.244  28.734  1.00  0.00     0.029 A 
ATOM     24  C   UNL A   1      41.353  27.367  28.776  1.00  0.00     0.049 A 
ATOM     25  H   UNL A   1      43.366  27.379  28.238  1.00  0.00     0.167 HD
ATOM     26  C   UNL A   1      47.559  27.231  26.962  1.00  0.00     0.037 A 
ATOM     27  C   UNL A   1      41.048  28.607  29.196  1.00  0.00     0.037 A 
ATOM     28  C   UNL A   1      47.339  28.580  27.420  1.00  0.00     0.049 A 
ATOM     29  C   UNL A   1      42.116  29.659  29.175  1.00  0.00     0.074 A 
ATOM     30  C   UNL A   1      48.236  29.633  27.474  1.00  0.00     0.029 A 
ATOM     31  N   UNL A   1      46.129  29.064  27.899  1.00  0.00    -0.354 N 
ATOM     32  N   UNL A   1      43.362  29.561  28.783  1.00  0.00    -0.248 NA
ATOM     33  C   UNL A   1      41.737  30.992  29.660  1.00  0.00     0.031 C 
ATOM     34  C   UNL A   1      47.577  30.745  28.012  1.00  0.00     0.029 A 
ATOM     35  C   UNL A   1      46.259  30.397  28.255  1.00  0.00     0.049 A 
ATOM     36  H   UNL A   1      45.301  28.537  27.974  1.00  0.00     0.167 HD
ATOM     37  C   UNL A   1      43.920  30.815  28.976  1.00  0.00     0.074 A 
ATOM     38  C   UNL A   1      42.864  31.668  29.483  1.00  0.00     0.031 C 
ATOM     39  C   UNL A   1      45.196  31.221  28.769  1.00  0.00     0.037 A 
BRANCH  26  40
ATOM     40  C   UNL A   1      48.932  26.869  26.473  1.00  0.00     0.064 A 
ATOM     41  C   UNL A   1      49.895  26.317  27.331  1.00  0.00     0.173 A 
ATOM     42  C   UNL A   1      49.269  27.017  25.119  1.00  0.00     0.173 A 
ATOM     43  F   UNL A   1      49.628  26.166  28.636  1.00  0.00    -0.203 F 
ATOM     44  C   UNL A   1      51.148  25.940  26.854  1.00  0.00     0.198 A 
ATOM     45  C   UNL A   1      50.514  26.618  24.640  1.00  0.00     0.198 A 
ATOM     46  F   UNL A   1      48.382  27.536  24.255  1.00  0.00    -0.203 F 
ATOM     47  F   UNL A   1      52.064  25.443  27.698  1.00  0.00    -0.200 F 
ATOM     48  C   UNL A   1      51.454  26.082  25.508  1.00  0.00     0.200 A 
ATOM     49  F   UNL A   1      50.804  26.745  23.338  1.00  0.00    -0.200 F 
ATOM     50  F   UNL A   1      52.656  25.707  25.048  1.00  0.00    -0.200 F 
ENDBRANCH  26  40
BRANCH  27  51
ATOM     51  C   UNL A   1      39.675  28.901  29.675  1.00  0.00     0.064 A 
ATOM     52  C   UNL A   1      38.697  29.408  28.809  1.00  0.00     0.173 A 
ATOM     53  C   UNL A   1      39.304  28.651  31.005  1.00  0.00     0.173 A 
ATOM     54  F   UNL A   1      39.008  29.677  27.533  1.00  0.00    -0.203 F 
ATOM     55  C   UNL A   1      37.405  29.666  29.260  1.00  0.00     0.198 A 
ATOM     56  C   UNL A   1      38.004  28.879  31.446  1.00  0.00     0.198 A 
ATOM     57  F   UNL A   1      40.202  28.155  31.870  1.00  0.00    -0.203 F 
ATOM     58  F   UNL A   1      36.498  30.187  28.421  1.00  0.00    -0.200 F 
ATOM     59  C   UNL A   1      37.057  29.395  30.574  1.00  0.00     0.200 A 
ATOM     60  F   UNL A   1      37.668  28.594  32.711  1.00  0.00    -0.200 F 
ATOM     61  F   UNL A   1      35.809  29.632  31.003  1.00  0.00    -0.200 F 
ENDBRANCH  27  51
BRANCH  39  62
ATOM     62  C   UNL A   1      45.505  32.652  29.094  1.00  0.00     0.064 A 
ATOM     63  C   UNL A   1      45.334  33.668  28.141  1.00  0.00     0.173 A 
ATOM     64  C   UNL A   1      45.973  33.009  30.365  1.00  0.00     0.173 A 
ATOM     65  F   UNL A   1      44.906  33.370  26.906  1.00  0.00    -0.203 F 
ATOM     66  C   UNL A   1      45.655  34.988  28.442  1.00  0.00     0.198 A 
ATOM     67  C   UNL A   1      46.269  34.335  30.671  1.00  0.00     0.198 A 
ATOM     68  F   UNL A   1      46.149  32.073  31.309  1.00  0.00    -0.203 F 
ATOM     69  F   UNL A   1      45.538  35.935  27.501  1.00  0.00    -0.200 F 
ATOM     70  C   UNL A   1      46.118  35.321  29.706  1.00  0.00     0.200 A 
ATOM     71  F   UNL A   1      46.709  34.656  31.895  1.00  0.00    -0.200 F 
ATOM     72  F   UNL A   1      46.432  36.592  29.992  1.00  0.00    -0.200 F 
ENDBRANCH  39  62
ENDBRANCH  13  14
ENDBRANCH   6   8
ENDBRANCH   3   4
ENDBRANCH   2   3
ENDBRANCH   1   2
BRANCH   1  73
ATOM     73  C   UNL A   1      35.751  21.584  24.505  1.00  0.00     0.116 C 
BRANCH  73  74
ATOM     74  N   UNL A   1      35.209  21.146  25.776  1.00  0.00    -0.354 N 
ATOM     75  C   UNL A   1      34.322  21.717  26.632  1.00  0.00     0.242 C 
ATOM     76  H   UNL A   1      35.547  20.271  26.074  1.00  0.00     0.163 HD
ATOM     77  O   UNL A   1      34.457  21.392  27.819  1.00  0.00    -0.273 OA
BRANCH  75  78
ATOM     78  C   UNL A   1      33.273  22.787  26.227  1.00  0.00     0.176 C 
BRANCH  78  79
ATOM     79  N   UNL A   1      31.970  22.745  26.887  1.00  0.00    -0.339 N 
ATOM     80  C   UNL A   1      30.792  23.410  26.633  1.00  0.00     0.262 C 
ATOM     81  H   UNL A   1      31.927  22.128  27.655  1.00  0.00     0.164 HD
ATOM     82  O   UNL A   1      29.918  23.273  27.494  1.00  0.00    -0.268 OA
BRANCH  80  83
ATOM     83  C   UNL A   1      30.582  24.167  25.402  1.00  0.00     0.093 A 
ATOM     84  C   UNL A   1      30.611  23.802  24.064  1.00  0.00     0.027 A 
ATOM     85  S   UNL A   1      30.109  25.826  25.544  1.00  0.00    -0.118 S 
ATOM     86  C   UNL A   1      30.248  24.860  23.177  1.00  0.00     0.033 A 
ATOM     87  C   UNL A   1      29.959  26.000  23.872  1.00  0.00     0.094 A 
ATOM     88  Cl  UNL A   1      29.470  27.503  23.202  1.00  0.00    -0.072 Cl
ENDBRANCH  80  83
ENDBRANCH  78  79
BRANCH  78  89
ATOM     89  C   UNL A   1      33.888  24.207  26.340  1.00  0.00     0.070 C 
BRANCH  89  90
ATOM     90  C   UNL A   1      33.836  25.064  25.091  1.00  0.00    -0.045 A 
ATOM     91  C   UNL A   1      33.955  24.472  23.822  1.00  0.00     0.007 A 
ATOM     92  C   UNL A   1      33.629  26.447  25.169  1.00  0.00     0.007 A 
ATOM     93  C   UNL A   1      33.891  25.240  22.659  1.00  0.00     0.046 A 
ATOM     94  C   UNL A   1      33.549  27.216  24.003  1.00  0.00     0.046 A 
ATOM     95  C   UNL A   1      33.684  26.609  22.760  1.00  0.00     0.115 A 
BRANCH  95  96
ATOM     96  O   UNL A   1      33.597  27.393  21.649  1.00  0.00    -0.508 OA
ATOM     97  H   UNL A   1      33.636  27.006  20.797  1.00  0.00     0.293 HD
ENDBRANCH  95  96
ENDBRANCH  89  90
ENDBRANCH  78  89
ENDBRANCH  75  78
ENDBRANCH  73  74
ENDBRANCH   1  73
TORSDOF 16
ENDMDL
