MODEL 1
REMARK VINA RESULT:     -12.9      0.000      0.000
REMARK SMILES O=C(NCCCCNC(=O)[C@@H](c1ccccc1)N1C(=O)/C(=C\c2ccc(-c3ccc(F)cc3)o2)SC1=S)c1ccc(-c2c3nc(c(-c4c(F)c(F)c(F)c(F)c4F)c4ccc([nH]4)c(-c4c(F)c(F)c(F)c(F)c4F)c4nc(c(-c5c(F)c(F)c(F)c(F)c5F)c5ccc2[nH]5)C=C4)C=C3)cc1
REMARK SMILES IDX 6 1 5 2 4 3 3 4 1 5 2 6 38 8 39 9 100 10 40 11 99 12 41 13
REMARK SMILES IDX 42 14 43 15 93 16 44 17 98 18 92 19 94 20 45 21 97 22 91 23
REMARK SMILES IDX 90 24 46 26 78 27 58 28 77 29 59 30 62 31 76 32 95 33 60 34
REMARK SMILES IDX 61 35 75 37 96 38 63 39 47 40 48 41 56 42 49 43 50 44 54 45
REMARK SMILES IDX 57 46 51 47 52 48 55 49 53 50 79 51 80 52 88 53 81 54 82 55
REMARK SMILES IDX 86 56 89 57 83 58 84 59 87 60 85 61 64 62 65 63 73 64 66 65
REMARK SMILES IDX 67 66 71 67 74 68 68 69 69 70 72 71 70 72 7 73 8 74 9 75
REMARK SMILES IDX 10 77 11 78 12 79 13 80 17 81 14 82 16 83 15 84 18 85 19 86
REMARK SMILES IDX 36 87 20 88 21 89 35 90 37 91 22 92 23 93 24 94 34 95 25 96
REMARK SMILES IDX 26 97 27 98 28 99 33 100 29 101 32 102 30 103 31 104
REMARK H PARENT 3 7 94 25 62 36 8 76
REMARK Flexibility Score: inf
ROOT
ATOM      1  C   UNL A   1      45.638  22.717  39.171  1.00  0.00     0.023 C 
ENDROOT
BRANCH   1   2
ATOM      2  C   UNL A   1      45.670  24.061  39.866  1.00  0.00     0.023 C 
BRANCH   2   3
ATOM      3  C   UNL A   1      45.926  25.244  38.947  1.00  0.00     0.116 C 
BRANCH   3   4
ATOM      4  N   UNL A   1      47.040  25.045  38.027  1.00  0.00    -0.352 N 
ATOM      5  O   UNL A   1      48.125  25.052  36.040  1.00  0.00    -0.269 OA
ATOM      6  C   UNL A   1      47.149  25.392  36.699  1.00  0.00     0.251 C 
ATOM      7  H   UNL A   1      47.828  24.598  38.412  1.00  0.00     0.163 HD
BRANCH   6   8
ATOM      8  C   UNL A   1      46.050  26.146  36.065  1.00  0.00     0.039 A 
ATOM      9  C   UNL A   1      44.805  25.543  35.887  1.00  0.00     0.014 A 
ATOM     10  C   UNL A   1      46.284  27.436  35.581  1.00  0.00     0.014 A 
ATOM     11  C   UNL A   1      43.878  26.130  35.042  1.00  0.00     0.010 A 
ATOM     12  C   UNL A   1      45.292  28.085  34.840  1.00  0.00     0.010 A 
ATOM     13  C   UNL A   1      44.097  27.419  34.526  1.00  0.00    -0.014 A 
BRANCH  13  14
ATOM     14  C   UNL A   1      43.022  28.061  33.727  1.00  0.00     0.031 A 
ATOM     15  C   UNL A   1      42.830  27.748  32.269  1.00  0.00     0.074 A 
ATOM     16  C   UNL A   1      42.184  28.907  34.357  1.00  0.00     0.049 A 
ATOM     17  N   UNL A   1      41.934  28.221  31.438  1.00  0.00    -0.248 NA
ATOM     18  C   UNL A   1      43.764  26.789  31.659  1.00  0.00     0.031 C 
ATOM     19  C   UNL A   1      42.279  29.286  35.770  1.00  0.00     0.029 A 
ATOM     20  N   UNL A   1      41.082  29.585  33.907  1.00  0.00    -0.354 N 
ATOM     21  C   UNL A   1      42.203  27.632  30.209  1.00  0.00     0.074 A 
ATOM     22  C   UNL A   1      43.365  26.791  30.393  1.00  0.00     0.031 C 
ATOM     23  C   UNL A   1      41.247  30.080  36.084  1.00  0.00     0.029 A 
ATOM     24  C   UNL A   1      40.470  30.338  34.879  1.00  0.00     0.049 A 
ATOM     25  H   UNL A   1      40.760  29.537  32.977  1.00  0.00     0.167 HD
ATOM     26  C   UNL A   1      41.532  27.778  29.039  1.00  0.00     0.037 A 
ATOM     27  C   UNL A   1      39.418  31.171  34.806  1.00  0.00     0.037 A 
ATOM     28  C   UNL A   1      40.371  28.616  28.870  1.00  0.00     0.049 A 
ATOM     29  C   UNL A   1      38.729  31.349  33.485  1.00  0.00     0.074 A 
ATOM     30  C   UNL A   1      39.611  28.820  27.731  1.00  0.00     0.029 A 
ATOM     31  N   UNL A   1      39.805  29.397  29.869  1.00  0.00    -0.354 N 
ATOM     32  N   UNL A   1      38.980  30.769  32.337  1.00  0.00    -0.248 NA
ATOM     33  C   UNL A   1      37.613  32.301  33.450  1.00  0.00     0.031 C 
ATOM     34  C   UNL A   1      38.619  29.762  28.026  1.00  0.00     0.029 A 
ATOM     35  C   UNL A   1      38.721  30.100  29.366  1.00  0.00     0.049 A 
ATOM     36  H   UNL A   1      40.125  29.444  30.799  1.00  0.00     0.167 HD
ATOM     37  C   UNL A   1      38.041  31.268  31.447  1.00  0.00     0.074 A 
ATOM     38  C   UNL A   1      37.200  32.179  32.196  1.00  0.00     0.031 C 
ATOM     39  C   UNL A   1      37.891  31.000  30.127  1.00  0.00     0.037 A 
BRANCH  26  40
ATOM     40  C   UNL A   1      42.043  27.029  27.840  1.00  0.00     0.064 A 
ATOM     41  C   UNL A   1      42.988  27.589  26.966  1.00  0.00     0.173 A 
ATOM     42  C   UNL A   1      41.624  25.712  27.591  1.00  0.00     0.173 A 
ATOM     43  F   UNL A   1      43.417  28.846  27.151  1.00  0.00    -0.203 F 
ATOM     44  C   UNL A   1      43.475  26.869  25.876  1.00  0.00     0.198 A 
ATOM     45  C   UNL A   1      42.135  24.984  26.519  1.00  0.00     0.198 A 
ATOM     46  F   UNL A   1      40.729  25.124  28.398  1.00  0.00    -0.203 F 
ATOM     47  F   UNL A   1      44.343  27.441  25.032  1.00  0.00    -0.200 F 
ATOM     48  C   UNL A   1      43.054  25.565  25.659  1.00  0.00     0.200 A 
ATOM     49  F   UNL A   1      41.739  23.719  26.320  1.00  0.00    -0.200 F 
ATOM     50  F   UNL A   1      43.530  24.870  24.616  1.00  0.00    -0.200 F 
ENDBRANCH  26  40
BRANCH  27  51
ATOM     51  C   UNL A   1      38.974  31.911  36.016  1.00  0.00     0.064 A 
ATOM     52  C   UNL A   1      39.417  33.214  36.270  1.00  0.00     0.173 A 
ATOM     53  C   UNL A   1      38.092  31.329  36.941  1.00  0.00     0.173 A 
ATOM     54  F   UNL A   1      40.271  33.808  35.423  1.00  0.00    -0.203 F 
ATOM     55  C   UNL A   1      39.019  33.899  37.415  1.00  0.00     0.198 A 
ATOM     56  C   UNL A   1      37.665  32.028  38.066  1.00  0.00     0.198 A 
ATOM     57  F   UNL A   1      37.630  30.086  36.740  1.00  0.00    -0.203 F 
ATOM     58  F   UNL A   1      39.499  35.125  37.661  1.00  0.00    -0.200 F 
ATOM     59  C   UNL A   1      38.138  33.308  38.309  1.00  0.00     0.200 A 
ATOM     60  F   UNL A   1      36.797  31.461  38.914  1.00  0.00    -0.200 F 
ATOM     61  F   UNL A   1      37.750  33.970  39.407  1.00  0.00    -0.200 F 
ENDBRANCH  27  51
BRANCH  39  62
ATOM     62  C   UNL A   1      36.748  31.673  29.422  1.00  0.00     0.064 A 
ATOM     63  C   UNL A   1      35.608  30.963  29.020  1.00  0.00     0.173 A 
ATOM     64  C   UNL A   1      36.791  33.051  29.161  1.00  0.00     0.173 A 
ATOM     65  F   UNL A   1      35.527  29.640  29.230  1.00  0.00    -0.203 F 
ATOM     66  C   UNL A   1      34.567  31.601  28.352  1.00  0.00     0.198 A 
ATOM     67  C   UNL A   1      35.733  33.692  28.523  1.00  0.00     0.198 A 
ATOM     68  F   UNL A   1      37.857  33.778  29.529  1.00  0.00    -0.203 F 
ATOM     69  F   UNL A   1      33.513  30.891  27.922  1.00  0.00    -0.200 F 
ATOM     70  C   UNL A   1      34.627  32.965  28.110  1.00  0.00     0.200 A 
ATOM     71  F   UNL A   1      35.787  35.013  28.304  1.00  0.00    -0.200 F 
ATOM     72  F   UNL A   1      33.621  33.579  27.470  1.00  0.00    -0.200 F 
ENDBRANCH  39  62
ENDBRANCH  13  14
ENDBRANCH   6   8
ENDBRANCH   3   4
ENDBRANCH   2   3
ENDBRANCH   1   2
BRANCH   1  73
ATOM     73  C   UNL A   1      46.114  21.540  40.002  1.00  0.00     0.116 C 
BRANCH  73  74
ATOM     74  N   UNL A   1      45.295  21.165  41.131  1.00  0.00    -0.354 N 
ATOM     75  C   UNL A   1      45.236  19.943  41.753  1.00  0.00     0.247 C 
ATOM     76  H   UNL A   1      44.710  21.868  41.496  1.00  0.00     0.163 HD
ATOM     77  O   UNL A   1      44.513  19.870  42.752  1.00  0.00    -0.272 OA
BRANCH  75  78
ATOM     78  C   UNL A   1      46.041  18.691  41.250  1.00  0.00     0.211 C 
BRANCH  78  79
ATOM     79  C   UNL A   1      46.830  18.007  42.387  1.00  0.00    -0.016 A 
ATOM     80  C   UNL A   1      46.697  16.649  42.715  1.00  0.00     0.006 A 
ATOM     81  C   UNL A   1      47.669  18.791  43.211  1.00  0.00     0.006 A 
ATOM     82  C   UNL A   1      47.171  16.159  43.936  1.00  0.00     0.000 A 
ATOM     83  C   UNL A   1      48.168  18.293  44.415  1.00  0.00     0.000 A 
ATOM     84  C   UNL A   1      47.878  16.989  44.800  1.00  0.00     0.000 A 
ENDBRANCH  78  79
BRANCH  78  85
ATOM     85  N   UNL A   1      45.180  17.854  40.350  1.00  0.00    -0.276 N 
ATOM     86  C   UNL A   1      44.150  17.073  40.824  1.00  0.00     0.267 C 
ATOM     87  C   UNL A   1      45.271  17.886  38.968  1.00  0.00     0.149 C 
ATOM     88  O   UNL A   1      43.737  17.029  41.976  1.00  0.00    -0.268 OA
ATOM     89  C   UNL A   1      43.531  16.239  39.769  1.00  0.00     0.084 C 
ATOM     90  S   UNL A   1      44.110  16.762  38.244  1.00  0.00    -0.054 SA
ATOM     91  S   UNL A   1      46.278  18.798  38.002  1.00  0.00    -0.052 S 
ATOM     92  C   UNL A   1      42.705  15.199  39.970  1.00  0.00     0.068 C 
BRANCH  92  93
ATOM     93  C   UNL A   1      42.326  14.765  41.274  1.00  0.00     0.128 A 
ATOM     94  C   UNL A   1      41.277  15.197  42.081  1.00  0.00     0.051 A 
ATOM     95  O   UNL A   1      43.028  13.815  41.986  1.00  0.00    -0.457 OA
ATOM     96  C   UNL A   1      41.397  14.556  43.333  1.00  0.00     0.051 A 
ATOM     97  C   UNL A   1      42.464  13.695  43.223  1.00  0.00     0.134 A 
BRANCH  97  98
ATOM     98  C   UNL A   1      43.042  12.706  44.121  1.00  0.00     0.017 A 
ATOM     99  C   UNL A   1      43.324  13.002  45.463  1.00  0.00     0.015 A 
ATOM    100  C   UNL A   1      43.326  11.417  43.637  1.00  0.00     0.015 A 
ATOM    101  C   UNL A   1      43.890  12.031  46.297  1.00  0.00     0.040 A 
ATOM    102  C   UNL A   1      43.901  10.453  44.466  1.00  0.00     0.040 A 
ATOM    103  C   UNL A   1      44.178  10.770  45.788  1.00  0.00     0.123 A 
ATOM    104  F   UNL A   1      44.735   9.847  46.583  1.00  0.00    -0.207 F 
ENDBRANCH  97  98
ENDBRANCH  92  93
ENDBRANCH  78  85
ENDBRANCH  75  78
ENDBRANCH  73  74
ENDBRANCH   1  73
TORSDOF 15
ENDMDL
MODEL 2
REMARK VINA RESULT:     -12.7     11.077     17.010
REMARK SMILES O=C(NCCCCNC(=O)[C@@H](c1ccccc1)N1C(=O)/C(=C\c2ccc(-c3ccc(F)cc3)o2)SC1=S)c1ccc(-c2c3nc(c(-c4c(F)c(F)c(F)c(F)c4F)c4ccc([nH]4)c(-c4c(F)c(F)c(F)c(F)c4F)c4nc(c(-c5c(F)c(F)c(F)c(F)c5F)c5ccc2[nH]5)C=C4)C=C3)cc1
REMARK SMILES IDX 6 1 5 2 4 3 3 4 1 5 2 6 38 8 39 9 100 10 40 11 99 12 41 13
REMARK SMILES IDX 42 14 43 15 93 16 44 17 98 18 92 19 94 20 45 21 97 22 91 23
REMARK SMILES IDX 90 24 46 26 78 27 58 28 77 29 59 30 62 31 76 32 95 33 60 34
REMARK SMILES IDX 61 35 75 37 96 38 63 39 47 40 48 41 56 42 49 43 50 44 54 45
REMARK SMILES IDX 57 46 51 47 52 48 55 49 53 50 79 51 80 52 88 53 81 54 82 55
REMARK SMILES IDX 86 56 89 57 83 58 84 59 87 60 85 61 64 62 65 63 73 64 66 65
REMARK SMILES IDX 67 66 71 67 74 68 68 69 69 70 72 71 70 72 7 73 8 74 9 75
REMARK SMILES IDX 10 77 11 78 12 79 13 80 17 81 14 82 16 83 15 84 18 85 19 86
REMARK SMILES IDX 36 87 20 88 21 89 35 90 37 91 22 92 23 93 24 94 34 95 25 96
REMARK SMILES IDX 26 97 27 98 28 99 33 100 29 101 32 102 30 103 31 104
REMARK H PARENT 3 7 94 25 62 36 8 76
REMARK Flexibility Score: inf
ROOT
ATOM      1  C   UNL A   1      40.024  25.973  28.736  1.00  0.00     0.023 C 
ENDROOT
BRANCH   1   2
ATOM      2  C   UNL A   1      39.238  25.038  27.842  1.00  0.00     0.023 C 
BRANCH   2   3
ATOM      3  C   UNL A   1      39.812  24.863  26.447  1.00  0.00     0.116 C 
BRANCH   3   4
ATOM      4  N   UNL A   1      40.630  23.665  26.292  1.00  0.00    -0.352 N 
ATOM      5  O   UNL A   1      42.521  22.464  25.960  1.00  0.00    -0.269 OA
ATOM      6  C   UNL A   1      41.999  23.548  26.195  1.00  0.00     0.251 C 
ATOM      7  H   UNL A   1      40.131  22.818  26.250  1.00  0.00     0.163 HD
BRANCH   6   8
ATOM      8  C   UNL A   1      42.832  24.758  26.339  1.00  0.00     0.039 A 
ATOM      9  C   UNL A   1      43.057  25.582  25.236  1.00  0.00     0.014 A 
ATOM     10  C   UNL A   1      43.449  25.034  27.562  1.00  0.00     0.014 A 
ATOM     11  C   UNL A   1      44.059  26.537  25.292  1.00  0.00     0.010 A 
ATOM     12  C   UNL A   1      44.363  26.088  27.652  1.00  0.00     0.010 A 
ATOM     13  C   UNL A   1      44.709  26.820  26.505  1.00  0.00    -0.014 A 
BRANCH  13  14
ATOM     14  C   UNL A   1      45.688  27.936  26.547  1.00  0.00     0.031 A 
ATOM     15  C   UNL A   1      45.263  29.345  26.855  1.00  0.00     0.074 A 
ATOM     16  C   UNL A   1      46.988  27.648  26.343  1.00  0.00     0.049 A 
ATOM     17  N   UNL A   1      45.998  30.427  26.935  1.00  0.00    -0.248 NA
ATOM     18  C   UNL A   1      43.831  29.577  27.098  1.00  0.00     0.031 C 
ATOM     19  C   UNL A   1      47.513  26.315  26.034  1.00  0.00     0.029 A 
ATOM     20  N   UNL A   1      48.104  28.441  26.385  1.00  0.00    -0.354 N 
ATOM     21  C   UNL A   1      45.122  31.466  27.221  1.00  0.00     0.074 A 
ATOM     22  C   UNL A   1      43.795  30.892  27.271  1.00  0.00     0.031 C 
ATOM     23  C   UNL A   1      48.850  26.371  25.970  1.00  0.00     0.029 A 
ATOM     24  C   UNL A   1      49.270  27.755  26.146  1.00  0.00     0.049 A 
ATOM     25  H   UNL A   1      48.074  29.408  26.569  1.00  0.00     0.167 HD
ATOM     26  C   UNL A   1      45.407  32.776  27.432  1.00  0.00     0.037 A 
ATOM     27  C   UNL A   1      50.537  28.193  26.046  1.00  0.00     0.037 A 
ATOM     28  C   UNL A   1      46.735  33.334  27.385  1.00  0.00     0.049 A 
ATOM     29  C   UNL A   1      50.811  29.656  26.234  1.00  0.00     0.074 A 
ATOM     30  C   UNL A   1      47.131  34.643  27.599  1.00  0.00     0.029 A 
ATOM     31  N   UNL A   1      47.888  32.614  27.098  1.00  0.00    -0.354 N 
ATOM     32  N   UNL A   1      49.976  30.623  26.526  1.00  0.00    -0.248 NA
ATOM     33  C   UNL A   1      52.204  30.088  26.073  1.00  0.00     0.031 C 
ATOM     34  C   UNL A   1      48.511  34.726  27.390  1.00  0.00     0.029 A 
ATOM     35  C   UNL A   1      48.989  33.457  27.106  1.00  0.00     0.049 A 
ATOM     36  H   UNL A   1      47.918  31.647  26.916  1.00  0.00     0.167 HD
ATOM     37  C   UNL A   1      50.743  31.775  26.607  1.00  0.00     0.074 A 
ATOM     38  C   UNL A   1      52.115  31.380  26.356  1.00  0.00     0.031 C 
ATOM     39  C   UNL A   1      50.348  33.046  26.860  1.00  0.00     0.037 A 
BRANCH  26  40
ATOM     40  C   UNL A   1      44.260  33.706  27.716  1.00  0.00     0.064 A 
ATOM     41  C   UNL A   1      43.685  33.802  28.992  1.00  0.00     0.173 A 
ATOM     42  C   UNL A   1      43.764  34.552  26.711  1.00  0.00     0.173 A 
ATOM     43  F   UNL A   1      44.113  33.012  29.987  1.00  0.00    -0.203 F 
ATOM     44  C   UNL A   1      42.643  34.693  29.246  1.00  0.00     0.198 A 
ATOM     45  C   UNL A   1      42.743  35.463  26.975  1.00  0.00     0.198 A 
ATOM     46  F   UNL A   1      44.281  34.509  25.474  1.00  0.00    -0.203 F 
ATOM     47  F   UNL A   1      42.081  34.735  30.461  1.00  0.00    -0.200 F 
ATOM     48  C   UNL A   1      42.179  35.527  28.239  1.00  0.00     0.200 A 
ATOM     49  F   UNL A   1      42.307  36.279  26.006  1.00  0.00    -0.200 F 
ATOM     50  F   UNL A   1      41.183  36.390  28.487  1.00  0.00    -0.200 F 
ENDBRANCH  26  40
BRANCH  27  51
ATOM     51  C   UNL A   1      51.629  27.235  25.732  1.00  0.00     0.064 A 
ATOM     52  C   UNL A   1      52.363  26.616  26.751  1.00  0.00     0.173 A 
ATOM     53  C   UNL A   1      51.958  26.918  24.405  1.00  0.00     0.173 A 
ATOM     54  F   UNL A   1      52.095  26.898  28.035  1.00  0.00    -0.203 F 
ATOM     55  C   UNL A   1      53.401  25.736  26.456  1.00  0.00     0.198 A 
ATOM     56  C   UNL A   1      52.971  26.010  24.111  1.00  0.00     0.198 A 
ATOM     57  F   UNL A   1      51.279  27.476  23.392  1.00  0.00    -0.203 F 
ATOM     58  F   UNL A   1      54.122  25.197  27.448  1.00  0.00    -0.200 F 
ATOM     59  C   UNL A   1      53.700  25.428  25.137  1.00  0.00     0.200 A 
ATOM     60  F   UNL A   1      53.240  25.700  22.837  1.00  0.00    -0.200 F 
ATOM     61  F   UNL A   1      54.695  24.577  24.854  1.00  0.00    -0.200 F 
ENDBRANCH  27  51
BRANCH  39  62
ATOM     62  C   UNL A   1      51.423  34.094  26.918  1.00  0.00     0.064 A 
ATOM     63  C   UNL A   1      52.108  34.383  28.107  1.00  0.00     0.173 A 
ATOM     64  C   UNL A   1      51.781  34.806  25.763  1.00  0.00     0.173 A 
ATOM     65  F   UNL A   1      51.790  33.743  29.243  1.00  0.00    -0.203 F 
ATOM     66  C   UNL A   1      53.089  35.369  28.146  1.00  0.00     0.198 A 
ATOM     67  C   UNL A   1      52.786  35.767  25.798  1.00  0.00     0.198 A 
ATOM     68  F   UNL A   1      51.160  34.564  24.599  1.00  0.00    -0.203 F 
ATOM     69  F   UNL A   1      53.688  35.672  29.306  1.00  0.00    -0.200 F 
ATOM     70  C   UNL A   1      53.432  36.056  26.990  1.00  0.00     0.200 A 
ATOM     71  F   UNL A   1      53.126  36.419  24.677  1.00  0.00    -0.200 F 
ATOM     72  F   UNL A   1      54.380  37.003  27.028  1.00  0.00    -0.200 F 
ENDBRANCH  39  62
ENDBRANCH  13  14
ENDBRANCH   6   8
ENDBRANCH   3   4
ENDBRANCH   2   3
ENDBRANCH   1   2
BRANCH   1  73
ATOM     73  C   UNL A   1      39.376  27.317  29.006  1.00  0.00     0.116 C 
BRANCH  73  74
ATOM     74  N   UNL A   1      38.653  27.455  30.249  1.00  0.00    -0.354 N 
ATOM     75  C   UNL A   1      38.299  28.618  30.887  1.00  0.00     0.247 C 
ATOM     76  H   UNL A   1      38.384  26.618  30.691  1.00  0.00     0.163 HD
ATOM     77  O   UNL A   1      37.615  28.498  31.908  1.00  0.00    -0.272 OA
BRANCH  75  78
ATOM     78  C   UNL A   1      38.717  30.040  30.363  1.00  0.00     0.211 C 
BRANCH  78  79
ATOM     79  C   UNL A   1      37.677  30.634  29.389  1.00  0.00    -0.016 A 
ATOM     80  C   UNL A   1      37.708  31.963  28.938  1.00  0.00     0.006 A 
ATOM     81  C   UNL A   1      36.578  29.842  28.988  1.00  0.00     0.006 A 
ATOM     82  C   UNL A   1      36.586  32.538  28.335  1.00  0.00     0.000 A 
ATOM     83  C   UNL A   1      35.469  30.410  28.358  1.00  0.00     0.000 A 
ATOM     84  C   UNL A   1      35.455  31.770  28.074  1.00  0.00     0.000 A 
ENDBRANCH  78  79
BRANCH  78  85
ATOM     85  N   UNL A   1      39.220  30.879  31.501  1.00  0.00    -0.276 N 
ATOM     86  C   UNL A   1      38.379  31.604  32.315  1.00  0.00     0.267 C 
ATOM     87  C   UNL A   1      40.547  30.902  31.897  1.00  0.00     0.149 C 
ATOM     88  O   UNL A   1      37.155  31.590  32.300  1.00  0.00    -0.268 OA
ATOM     89  C   UNL A   1      39.112  32.456  33.279  1.00  0.00     0.084 C 
ATOM     90  S   UNL A   1      40.766  32.012  33.260  1.00  0.00    -0.054 SA
ATOM     91  S   UNL A   1      41.846  30.064  31.274  1.00  0.00    -0.052 S 
ATOM     92  C   UNL A   1      38.586  33.458  34.003  1.00  0.00     0.068 C 
BRANCH  92  93
ATOM     93  C   UNL A   1      37.212  33.828  33.911  1.00  0.00     0.128 A 
ATOM     94  C   UNL A   1      36.212  33.766  34.877  1.00  0.00     0.051 A 
ATOM     95  O   UNL A   1      36.634  34.294  32.749  1.00  0.00    -0.457 OA
ATOM     96  C   UNL A   1      34.990  34.122  34.264  1.00  0.00     0.051 A 
ATOM     97  C   UNL A   1      35.297  34.466  32.968  1.00  0.00     0.134 A 
BRANCH  97  98
ATOM     98  C   UNL A   1      34.508  34.993  31.864  1.00  0.00     0.017 A 
ATOM     99  C   UNL A   1      33.752  36.168  31.991  1.00  0.00     0.015 A 
ATOM    100  C   UNL A   1      34.500  34.311  30.635  1.00  0.00     0.015 A 
ATOM    101  C   UNL A   1      32.995  36.642  30.914  1.00  0.00     0.040 A 
ATOM    102  C   UNL A   1      33.736  34.778  29.564  1.00  0.00     0.040 A 
ATOM    103  C   UNL A   1      32.990  35.939  29.715  1.00  0.00     0.123 A 
ATOM    104  F   UNL A   1      32.252  36.384  28.690  1.00  0.00    -0.207 F 
ENDBRANCH  97  98
ENDBRANCH  92  93
ENDBRANCH  78  85
ENDBRANCH  75  78
ENDBRANCH  73  74
ENDBRANCH   1  73
TORSDOF 15
ENDMDL
MODEL 3
REMARK VINA RESULT:     -12.6     11.083     15.913
REMARK SMILES O=C(NCCCCNC(=O)[C@@H](c1ccccc1)N1C(=O)/C(=C\c2ccc(-c3ccc(F)cc3)o2)SC1=S)c1ccc(-c2c3nc(c(-c4c(F)c(F)c(F)c(F)c4F)c4ccc([nH]4)c(-c4c(F)c(F)c(F)c(F)c4F)c4nc(c(-c5c(F)c(F)c(F)c(F)c5F)c5ccc2[nH]5)C=C4)C=C3)cc1
REMARK SMILES IDX 6 1 5 2 4 3 3 4 1 5 2 6 38 8 39 9 100 10 40 11 99 12 41 13
REMARK SMILES IDX 42 14 43 15 93 16 44 17 98 18 92 19 94 20 45 21 97 22 91 23
REMARK SMILES IDX 90 24 46 26 78 27 58 28 77 29 59 30 62 31 76 32 95 33 60 34
REMARK SMILES IDX 61 35 75 37 96 38 63 39 47 40 48 41 56 42 49 43 50 44 54 45
REMARK SMILES IDX 57 46 51 47 52 48 55 49 53 50 79 51 80 52 88 53 81 54 82 55
REMARK SMILES IDX 86 56 89 57 83 58 84 59 87 60 85 61 64 62 65 63 73 64 66 65
REMARK SMILES IDX 67 66 71 67 74 68 68 69 69 70 72 71 70 72 7 73 8 74 9 75
REMARK SMILES IDX 10 77 11 78 12 79 13 80 17 81 14 82 16 83 15 84 18 85 19 86
REMARK SMILES IDX 36 87 20 88 21 89 35 90 37 91 22 92 23 93 24 94 34 95 25 96
REMARK SMILES IDX 26 97 27 98 28 99 33 100 29 101 32 102 30 103 31 104
REMARK H PARENT 3 7 94 25 62 36 8 76
REMARK Flexibility Score: inf
ROOT
ATOM      1  C   UNL A   1      39.879  26.951  28.148  1.00  0.00     0.023 C 
ENDROOT
BRANCH   1   2
ATOM      2  C   UNL A   1      39.604  25.476  27.952  1.00  0.00     0.023 C 
BRANCH   2   3
ATOM      3  C   UNL A   1      39.720  24.994  26.516  1.00  0.00     0.116 C 
BRANCH   3   4
ATOM      4  N   UNL A   1      40.523  23.786  26.363  1.00  0.00    -0.352 N 
ATOM      5  O   UNL A   1      42.399  22.560  26.040  1.00  0.00    -0.269 OA
ATOM      6  C   UNL A   1      41.890  23.650  26.275  1.00  0.00     0.251 C 
ATOM      7  H   UNL A   1      40.012  22.945  26.315  1.00  0.00     0.163 HD
BRANCH   6   8
ATOM      8  C   UNL A   1      42.739  24.848  26.428  1.00  0.00     0.039 A 
ATOM      9  C   UNL A   1      43.041  25.633  25.315  1.00  0.00     0.014 A 
ATOM     10  C   UNL A   1      43.294  25.150  27.674  1.00  0.00     0.014 A 
ATOM     11  C   UNL A   1      44.058  26.569  25.397  1.00  0.00     0.010 A 
ATOM     12  C   UNL A   1      44.223  26.189  27.783  1.00  0.00     0.010 A 
ATOM     13  C   UNL A   1      44.646  26.878  26.635  1.00  0.00    -0.014 A 
BRANCH  13  14
ATOM     14  C   UNL A   1      45.644  27.977  26.698  1.00  0.00     0.031 A 
ATOM     15  C   UNL A   1      47.106  27.729  26.452  1.00  0.00     0.074 A 
ATOM     16  C   UNL A   1      45.198  29.225  26.940  1.00  0.00     0.049 A 
ATOM     17  N   UNL A   1      48.099  28.584  26.465  1.00  0.00    -0.248 NA
ATOM     18  C   UNL A   1      47.514  26.345  26.162  1.00  0.00     0.031 C 
ATOM     19  C   UNL A   1      43.799  29.581  27.195  1.00  0.00     0.029 A 
ATOM     20  N   UNL A   1      45.858  30.423  26.990  1.00  0.00    -0.354 N 
ATOM     21  C   UNL A   1      49.245  27.845  26.201  1.00  0.00     0.074 A 
ATOM     22  C   UNL A   1      48.831  26.465  26.063  1.00  0.00     0.031 C 
ATOM     23  C   UNL A   1      43.698  30.911  27.319  1.00  0.00     0.029 A 
ATOM     24  C   UNL A   1      45.032  31.492  27.240  1.00  0.00     0.049 A 
ATOM     25  H   UNL A   1      46.831  30.512  26.860  1.00  0.00     0.167 HD
ATOM     26  C   UNL A   1      50.522  28.285  26.077  1.00  0.00     0.037 A 
ATOM     27  C   UNL A   1      45.315  32.793  27.417  1.00  0.00     0.037 A 
ATOM     28  C   UNL A   1      50.921  29.664  26.212  1.00  0.00     0.049 A 
ATOM     29  C   UNL A   1      46.745  33.239  27.325  1.00  0.00     0.074 A 
ATOM     30  C   UNL A   1      52.186  30.214  26.089  1.00  0.00     0.029 A 
ATOM     31  N   UNL A   1      50.060  30.713  26.506  1.00  0.00    -0.354 N 
ATOM     32  N   UNL A   1      47.815  32.534  27.053  1.00  0.00    -0.248 NA
ATOM     33  C   UNL A   1      47.005  34.663  27.569  1.00  0.00     0.031 C 
ATOM     34  C   UNL A   1      52.098  31.583  26.361  1.00  0.00     0.029 A 
ATOM     35  C   UNL A   1      50.770  31.901  26.592  1.00  0.00     0.049 A 
ATOM     36  H   UNL A   1      49.088  30.626  26.634  1.00  0.00     0.167 HD
ATOM     37  C   UNL A   1      48.874  33.429  27.070  1.00  0.00     0.074 A 
ATOM     38  C   UNL A   1      48.312  34.733  27.356  1.00  0.00     0.031 C 
ATOM     39  C   UNL A   1      50.194  33.192  26.872  1.00  0.00     0.037 A 
BRANCH  26  40
ATOM     40  C   UNL A   1      51.591  27.265  25.798  1.00  0.00     0.064 A 
ATOM     41  C   UNL A   1      51.941  26.900  24.489  1.00  0.00     0.173 A 
ATOM     42  C   UNL A   1      52.315  26.685  26.852  1.00  0.00     0.173 A 
ATOM     43  F   UNL A   1      51.277  27.416  23.444  1.00  0.00    -0.203 F 
ATOM     44  C   UNL A   1      52.956  25.975  24.247  1.00  0.00     0.198 A 
ATOM     45  C   UNL A   1      53.349  25.785  26.607  1.00  0.00     0.198 A 
ATOM     46  F   UNL A   1      52.030  27.004  28.124  1.00  0.00    -0.203 F 
ATOM     47  F   UNL A   1      53.241  25.610  22.990  1.00  0.00    -0.200 F 
ATOM     48  C   UNL A   1      53.664  25.425  25.306  1.00  0.00     0.200 A 
ATOM     49  F   UNL A   1      54.043  25.267  27.630  1.00  0.00    -0.200 F 
ATOM     50  F   UNL A   1      54.647  24.544  25.071  1.00  0.00    -0.200 F 
ENDBRANCH  26  40
BRANCH  27  51
ATOM     51  C   UNL A   1      44.224  33.755  27.723  1.00  0.00     0.064 A 
ATOM     52  C   UNL A   1      43.724  34.618  26.740  1.00  0.00     0.173 A 
ATOM     53  C   UNL A   1      43.656  33.826  29.005  1.00  0.00     0.173 A 
ATOM     54  F   UNL A   1      44.244  34.597  25.504  1.00  0.00    -0.203 F 
ATOM     55  C   UNL A   1      42.717  35.534  27.032  1.00  0.00     0.198 A 
ATOM     56  C   UNL A   1      42.624  34.716  29.286  1.00  0.00     0.198 A 
ATOM     57  F   UNL A   1      44.091  33.014  29.979  1.00  0.00    -0.203 F 
ATOM     58  F   UNL A   1      42.293  36.385  26.088  1.00  0.00    -0.200 F 
ATOM     59  C   UNL A   1      42.162  35.578  28.303  1.00  0.00     0.200 A 
ATOM     60  F   UNL A   1      42.077  34.738  30.509  1.00  0.00    -0.200 F 
ATOM     61  F   UNL A   1      41.189  36.455  28.582  1.00  0.00    -0.200 F 
ENDBRANCH  27  51
BRANCH  39  62
ATOM     62  C   UNL A   1      51.112  34.380  26.919  1.00  0.00     0.064 A 
ATOM     63  C   UNL A   1      51.788  34.744  28.093  1.00  0.00     0.173 A 
ATOM     64  C   UNL A   1      51.328  35.154  25.768  1.00  0.00     0.173 A 
ATOM     65  F   UNL A   1      51.601  34.047  29.224  1.00  0.00    -0.203 F 
ATOM     66  C   UNL A   1      52.621  35.858  28.121  1.00  0.00     0.198 A 
ATOM     67  C   UNL A   1      52.188  36.247  25.792  1.00  0.00     0.198 A 
ATOM     68  F   UNL A   1      50.708  34.845  24.619  1.00  0.00    -0.203 F 
ATOM     69  F   UNL A   1      53.210  36.224  29.269  1.00  0.00    -0.200 F 
ATOM     70  C   UNL A   1      52.825  36.605  26.970  1.00  0.00     0.200 A 
ATOM     71  F   UNL A   1      52.395  36.958  24.676  1.00  0.00    -0.200 F 
ATOM     72  F   UNL A   1      53.631  37.676  26.999  1.00  0.00    -0.200 F 
ENDBRANCH  39  62
ENDBRANCH  13  14
ENDBRANCH   6   8
ENDBRANCH   3   4
ENDBRANCH   2   3
ENDBRANCH   1   2
BRANCH   1  73
ATOM     73  C   UNL A   1      40.282  27.359  29.552  1.00  0.00     0.116 C 
BRANCH  73  74
ATOM     74  N   UNL A   1      39.216  27.539  30.510  1.00  0.00    -0.354 N 
ATOM     75  C   UNL A   1      38.588  28.710  30.853  1.00  0.00     0.247 C 
ATOM     76  H   UNL A   1      38.906  26.728  30.972  1.00  0.00     0.163 HD
ATOM     77  O   UNL A   1      37.648  28.617  31.649  1.00  0.00    -0.272 OA
BRANCH  75  78
ATOM     78  C   UNL A   1      39.013  30.108  30.273  1.00  0.00     0.211 C 
BRANCH  78  79
ATOM     79  C   UNL A   1      37.989  30.655  29.255  1.00  0.00    -0.016 A 
ATOM     80  C   UNL A   1      37.769  32.024  29.037  1.00  0.00     0.006 A 
ATOM     81  C   UNL A   1      37.157  29.748  28.561  1.00  0.00     0.006 A 
ATOM     82  C   UNL A   1      36.626  32.464  28.363  1.00  0.00     0.000 A 
ATOM     83  C   UNL A   1      36.033  30.190  27.862  1.00  0.00     0.000 A 
ATOM     84  C   UNL A   1      35.741  31.547  27.803  1.00  0.00     0.000 A 
ENDBRANCH  78  79
BRANCH  78  85
ATOM     85  N   UNL A   1      39.493  31.000  31.381  1.00  0.00    -0.276 N 
ATOM     86  C   UNL A   1      38.632  31.687  32.206  1.00  0.00     0.267 C 
ATOM     87  C   UNL A   1      40.827  31.114  31.738  1.00  0.00     0.149 C 
ATOM     88  O   UNL A   1      37.411  31.596  32.227  1.00  0.00    -0.268 OA
ATOM     89  C   UNL A   1      39.336  32.601  33.133  1.00  0.00     0.084 C 
ATOM     90  S   UNL A   1      41.013  32.262  33.074  1.00  0.00    -0.054 SA
ATOM     91  S   UNL A   1      42.158  30.346  31.092  1.00  0.00    -0.052 S 
ATOM     92  C   UNL A   1      38.768  33.583  33.854  1.00  0.00     0.068 C 
BRANCH  92  93
ATOM     93  C   UNL A   1      37.371  33.864  33.796  1.00  0.00     0.128 A 
ATOM     94  C   UNL A   1      36.397  33.719  34.778  1.00  0.00     0.051 A 
ATOM     95  O   UNL A   1      36.741  34.313  32.654  1.00  0.00    -0.457 OA
ATOM     96  C   UNL A   1      35.142  34.006  34.196  1.00  0.00     0.051 A 
ATOM     97  C   UNL A   1      35.401  34.394  32.901  1.00  0.00     0.134 A 
BRANCH  97  98
ATOM     98  C   UNL A   1      34.557  34.890  31.824  1.00  0.00     0.017 A 
ATOM     99  C   UNL A   1      34.459  34.220  30.595  1.00  0.00     0.015 A 
ATOM    100  C   UNL A   1      33.818  36.070  32.013  1.00  0.00     0.015 A 
ATOM    101  C   UNL A   1      33.648  34.728  29.575  1.00  0.00     0.040 A 
ATOM    102  C   UNL A   1      33.018  36.583  30.991  1.00  0.00     0.040 A 
ATOM    103  C   UNL A   1      32.941  35.908  29.781  1.00  0.00     0.123 A 
ATOM    104  F   UNL A   1      32.178  36.403  28.799  1.00  0.00    -0.207 F 
ENDBRANCH  97  98
ENDBRANCH  92  93
ENDBRANCH  78  85
ENDBRANCH  75  78
ENDBRANCH  73  74
ENDBRANCH   1  73
TORSDOF 15
ENDMDL
