MODEL 1
REMARK VINA RESULT:     -13.1      0.000      0.000
REMARK SMILES CC1(C)[C@@]2(CC[C@@H]2C(=O)NCc2ccco2)[C@]1(C)C(=O)NCCCCNC(=O)c1ccc(-c2c3nc(c(-c4c(F)c(F)c(F)c(F)c4F)c4ccc([nH]4)c(-c4c(F)c(F)c(F)c(F)c4F)c4nc(c(-c5c(F)c(F)c(F)c(F)c5F)c5ccc2[nH]5)C=C4)C=C3)cc1
REMARK SMILES IDX 23 1 22 2 21 3 19 4 20 5 17 7 1 8 2 9 3 10 4 11 18 12 5 13
REMARK SMILES IDX 7 14 6 15 8 16 9 17 10 18 11 20 12 21 13 22 16 23 14 24
REMARK SMILES IDX 15 25 24 26 25 27 26 28 27 29 28 31 29 32 30 33 91 34 31 35
REMARK SMILES IDX 90 36 32 37 33 38 34 39 84 40 35 41 89 42 83 43 85 44 36 45
REMARK SMILES IDX 88 46 82 47 81 48 37 50 69 51 49 52 68 53 50 54 53 55 67 56
REMARK SMILES IDX 86 57 51 58 52 59 66 61 87 62 54 63 38 64 39 65 47 66 40 67
REMARK SMILES IDX 41 68 45 69 48 70 42 71 43 72 46 73 44 74 70 75 71 76 79 77
REMARK SMILES IDX 72 78 73 79 77 80 80 81 74 82 75 83 78 84 76 85 55 86 56 87
REMARK SMILES IDX 64 88 57 89 58 90 62 91 65 92 59 93 60 94 63 95 61 96
REMARK H PARENT 21 6 10 19 26 30 85 49 53 60
REMARK Flexibility Score: inf
ROOT
ATOM      1  C   UNL A   1      37.307  21.113  24.622  1.00  0.00     0.023 C 
ENDROOT
BRANCH   1   2
ATOM      2  C   UNL A   1      36.289  21.589  25.645  1.00  0.00     0.116 C 
BRANCH   2   3
ATOM      3  N   UNL A   1      34.989  20.966  25.595  1.00  0.00    -0.356 N 
ATOM      4  C   UNL A   1      33.882  21.373  24.892  1.00  0.00     0.227 C 
ATOM      5  O   UNL A   1      32.912  20.629  24.826  1.00  0.00    -0.274 OA
ATOM      6  H   UNL A   1      34.883  20.147  26.131  1.00  0.00     0.163 HD
BRANCH   4   7
ATOM      7  C   UNL A   1      33.784  22.791  24.370  1.00  0.00     0.059 C 
ATOM      8  C   UNL A   1      33.611  23.584  26.862  1.00  0.00     0.013 C 
ATOM      9  C   UNL A   1      33.681  23.954  25.391  1.00  0.00    -0.013 C 
ATOM     10  C   UNL A   1      34.430  25.251  25.185  1.00  0.00     0.013 C 
ATOM     11  C   UNL A   1      32.511  23.663  24.485  1.00  0.00     0.003 C 
ATOM     12  C   UNL A   1      34.751  23.014  23.209  1.00  0.00     0.023 C 
ATOM     13  C   UNL A   1      32.013  24.358  23.259  1.00  0.00     0.010 C 
ATOM     14  C   UNL A   1      31.119  23.366  24.972  1.00  0.00     0.086 C 
ATOM     15  C   UNL A   1      30.627  23.806  23.591  1.00  0.00     0.015 C 
BRANCH  14  16
ATOM     16  C   UNL A   1      30.562  23.998  26.260  1.00  0.00     0.224 C 
ATOM     17  O   UNL A   1      30.335  23.299  27.264  1.00  0.00    -0.275 OA
ATOM     18  N   UNL A   1      30.224  25.318  26.405  1.00  0.00    -0.349 N 
ATOM     19  H   UNL A   1      29.825  25.534  27.279  1.00  0.00     0.163 HD
BRANCH  18  20
ATOM     20  C   UNL A   1      30.342  26.453  25.520  1.00  0.00     0.191 C 
BRANCH  20  21
ATOM     21  C   UNL A   1      31.491  27.310  25.903  1.00  0.00     0.122 A 
ATOM     22  C   UNL A   1      32.166  27.567  27.081  1.00  0.00     0.047 A 
ATOM     23  O   UNL A   1      32.052  28.034  24.889  1.00  0.00    -0.467 OA
ATOM     24  C   UNL A   1      33.189  28.496  26.768  1.00  0.00     0.042 A 
ATOM     25  C   UNL A   1      33.079  28.744  25.421  1.00  0.00     0.195 A 
ENDBRANCH  20  21
ENDBRANCH  18  20
ENDBRANCH  14  16
ENDBRANCH   4   7
ENDBRANCH   2   3
ENDBRANCH   1   2
BRANCH   1  26
ATOM     26  C   UNL A   1      38.162  19.914  25.014  1.00  0.00     0.023 C 
BRANCH  26  27
ATOM     27  C   UNL A   1      39.444  20.206  25.784  1.00  0.00     0.116 C 
BRANCH  27  28
ATOM     28  N   UNL A   1      40.382  19.093  25.832  1.00  0.00    -0.352 N 
ATOM     29  C   UNL A   1      41.730  19.079  26.119  1.00  0.00     0.251 C 
ATOM     30  H   UNL A   1      39.991  18.213  25.629  1.00  0.00     0.163 HD
ATOM     31  O   UNL A   1      42.365  18.039  26.046  1.00  0.00    -0.269 OA
BRANCH  29  32
ATOM     32  C   UNL A   1      42.423  20.342  26.461  1.00  0.00     0.039 A 
ATOM     33  C   UNL A   1      43.101  21.032  25.452  1.00  0.00     0.014 A 
ATOM     34  C   UNL A   1      42.372  20.865  27.753  1.00  0.00     0.014 A 
ATOM     35  C   UNL A   1      43.633  22.297  25.714  1.00  0.00     0.010 A 
ATOM     36  C   UNL A   1      42.817  22.163  27.988  1.00  0.00     0.010 A 
ATOM     37  C   UNL A   1      43.443  22.897  26.969  1.00  0.00    -0.014 A 
BRANCH  37  38
ATOM     38  C   UNL A   1      43.883  24.290  27.245  1.00  0.00     0.031 A 
ATOM     39  C   UNL A   1      42.894  25.302  27.750  1.00  0.00     0.074 A 
ATOM     40  C   UNL A   1      45.143  24.668  26.951  1.00  0.00     0.049 A 
ATOM     41  N   UNL A   1      43.039  26.592  27.919  1.00  0.00    -0.248 NA
ATOM     42  C   UNL A   1      41.549  24.802  28.072  1.00  0.00     0.031 C 
ATOM     43  C   UNL A   1      46.188  23.797  26.409  1.00  0.00     0.029 A 
ATOM     44  N   UNL A   1      45.755  25.894  27.050  1.00  0.00    -0.354 N 
ATOM     45  C   UNL A   1      41.799  27.058  28.336  1.00  0.00     0.074 A 
ATOM     46  C   UNL A   1      40.902  25.924  28.346  1.00  0.00     0.031 C 
ATOM     47  C   UNL A   1      47.313  24.510  26.241  1.00  0.00     0.029 A 
ATOM     48  C   UNL A   1      47.061  25.896  26.625  1.00  0.00     0.049 A 
ATOM     49  H   UNL A   1      45.300  26.697  27.392  1.00  0.00     0.167 HD
ATOM     50  C   UNL A   1      41.447  28.315  28.699  1.00  0.00     0.037 A 
ATOM     51  C   UNL A   1      47.952  26.902  26.544  1.00  0.00     0.037 A 
ATOM     52  C   UNL A   1      42.351  29.433  28.729  1.00  0.00     0.049 A 
ATOM     53  C   UNL A   1      47.541  28.285  26.970  1.00  0.00     0.074 A 
ATOM     54  C   UNL A   1      42.106  30.730  29.145  1.00  0.00     0.029 A 
ATOM     55  N   UNL A   1      43.678  29.383  28.331  1.00  0.00    -0.354 N 
ATOM     56  N   UNL A   1      46.382  28.703  27.417  1.00  0.00    -0.248 NA
ATOM     57  C   UNL A   1      48.565  29.337  26.884  1.00  0.00     0.031 C 
ATOM     58  C   UNL A   1      43.278  31.474  28.966  1.00  0.00     0.029 A 
ATOM     59  C   UNL A   1      44.263  30.630  28.480  1.00  0.00     0.049 A 
ATOM     60  H   UNL A   1      44.137  28.581  27.993  1.00  0.00     0.167 HD
ATOM     61  C   UNL A   1      46.544  30.053  27.695  1.00  0.00     0.074 A 
ATOM     62  C   UNL A   1      47.916  30.384  27.374  1.00  0.00     0.031 C 
ATOM     63  C   UNL A   1      45.636  30.939  28.173  1.00  0.00     0.037 A 
BRANCH  50  64
ATOM     64  C   UNL A   1      40.018  28.542  29.099  1.00  0.00     0.064 A 
ATOM     65  C   UNL A   1      39.580  28.319  30.415  1.00  0.00     0.173 A 
ATOM     66  C   UNL A   1      39.080  29.005  28.165  1.00  0.00     0.173 A 
ATOM     67  F   UNL A   1      40.434  27.863  31.342  1.00  0.00    -0.203 F 
ATOM     68  C   UNL A   1      38.249  28.520  30.769  1.00  0.00     0.198 A 
ATOM     69  C   UNL A   1      37.757  29.235  28.531  1.00  0.00     0.198 A 
ATOM     70  F   UNL A   1      39.450  29.239  26.896  1.00  0.00    -0.203 F 
ATOM     71  F   UNL A   1      37.842  28.249  32.017  1.00  0.00    -0.200 F 
ATOM     72  C   UNL A   1      37.340  28.984  29.829  1.00  0.00     0.200 A 
ATOM     73  F   UNL A   1      36.883  29.694  27.625  1.00  0.00    -0.200 F 
ATOM     74  F   UNL A   1      36.060  29.181  30.173  1.00  0.00    -0.200 F 
ENDBRANCH  50  64
BRANCH  51  75
ATOM     75  C   UNL A   1      49.334  26.634  26.066  1.00  0.00     0.064 A 
ATOM     76  C   UNL A   1      49.696  26.904  24.738  1.00  0.00     0.173 A 
ATOM     77  C   UNL A   1      50.314  26.104  26.916  1.00  0.00     0.173 A 
ATOM     78  F   UNL A   1      48.785  27.392  23.883  1.00  0.00    -0.203 F 
ATOM     79  C   UNL A   1      50.982  26.638  24.275  1.00  0.00     0.198 A 
ATOM     80  C   UNL A   1      51.607  25.861  26.458  1.00  0.00     0.198 A 
ATOM     81  F   UNL A   1      50.018  25.832  28.196  1.00  0.00    -0.203 F 
ATOM     82  F   UNL A   1      51.290  26.866  22.991  1.00  0.00    -0.200 F 
ATOM     83  C   UNL A   1      51.939  26.121  25.136  1.00  0.00     0.200 A 
ATOM     84  F   UNL A   1      52.532  25.373  27.296  1.00  0.00    -0.200 F 
ATOM     85  F   UNL A   1      53.177  25.868  24.691  1.00  0.00    -0.200 F 
ENDBRANCH  51  75
BRANCH  63  86
ATOM     86  C   UNL A   1      46.106  32.340  28.424  1.00  0.00     0.064 A 
ATOM     87  C   UNL A   1      46.007  33.337  27.443  1.00  0.00     0.173 A 
ATOM     88  C   UNL A   1      46.617  32.701  29.680  1.00  0.00     0.173 A 
ATOM     89  F   UNL A   1      45.539  33.037  26.221  1.00  0.00    -0.203 F 
ATOM     90  C   UNL A   1      46.420  34.640  27.704  1.00  0.00     0.198 A 
ATOM     91  C   UNL A   1      47.005  34.011  29.945  1.00  0.00     0.198 A 
ATOM     92  F   UNL A   1      46.728  31.785  30.653  1.00  0.00    -0.203 F 
ATOM     93  F   UNL A   1      46.353  35.568  26.739  1.00  0.00    -0.200 F 
ATOM     94  C   UNL A   1      46.911  34.978  28.957  1.00  0.00     0.200 A 
ATOM     95  F   UNL A   1      47.469  34.337  31.161  1.00  0.00    -0.200 F 
ATOM     96  F   UNL A   1      47.300  36.235  29.209  1.00  0.00    -0.200 F 
ENDBRANCH  63  86
ENDBRANCH  37  38
ENDBRANCH  29  32
ENDBRANCH  27  28
ENDBRANCH  26  27
ENDBRANCH   1  26
TORSDOF 14
ENDMDL
MODEL 2
REMARK VINA RESULT:     -13.1      0.085      1.577
REMARK SMILES CC1(C)[C@@]2(CC[C@@H]2C(=O)NCc2ccco2)[C@]1(C)C(=O)NCCCCNC(=O)c1ccc(-c2c3nc(c(-c4c(F)c(F)c(F)c(F)c4F)c4ccc([nH]4)c(-c4c(F)c(F)c(F)c(F)c4F)c4nc(c(-c5c(F)c(F)c(F)c(F)c5F)c5ccc2[nH]5)C=C4)C=C3)cc1
REMARK SMILES IDX 23 1 22 2 21 3 19 4 20 5 17 7 1 8 2 9 3 10 4 11 18 12 5 13
REMARK SMILES IDX 7 14 6 15 8 16 9 17 10 18 11 20 12 21 13 22 16 23 14 24
REMARK SMILES IDX 15 25 24 26 25 27 26 28 27 29 28 31 29 32 30 33 91 34 31 35
REMARK SMILES IDX 90 36 32 37 33 38 34 39 84 40 35 41 89 42 83 43 85 44 36 45
REMARK SMILES IDX 88 46 82 47 81 48 37 50 69 51 49 52 68 53 50 54 53 55 67 56
REMARK SMILES IDX 86 57 51 58 52 59 66 61 87 62 54 63 38 64 39 65 47 66 40 67
REMARK SMILES IDX 41 68 45 69 48 70 42 71 43 72 46 73 44 74 70 75 71 76 79 77
REMARK SMILES IDX 72 78 73 79 77 80 80 81 74 82 75 83 78 84 76 85 55 86 56 87
REMARK SMILES IDX 64 88 57 89 58 90 62 91 65 92 59 93 60 94 63 95 61 96
REMARK H PARENT 21 6 10 19 26 30 85 49 53 60
REMARK Flexibility Score: inf
ROOT
ATOM      1  C   UNL A   1      37.265  21.166  24.687  1.00  0.00     0.023 C 
ENDROOT
BRANCH   1   2
ATOM      2  C   UNL A   1      36.243  21.604  25.725  1.00  0.00     0.116 C 
BRANCH   2   3
ATOM      3  N   UNL A   1      34.945  20.981  25.649  1.00  0.00    -0.356 N 
ATOM      4  C   UNL A   1      33.856  21.383  24.915  1.00  0.00     0.227 C 
ATOM      5  O   UNL A   1      32.886  20.639  24.833  1.00  0.00    -0.274 OA
ATOM      6  H   UNL A   1      34.825  20.168  26.190  1.00  0.00     0.163 HD
BRANCH   4   7
ATOM      7  C   UNL A   1      33.771  22.795  24.378  1.00  0.00     0.059 C 
ATOM      8  C   UNL A   1      33.592  23.616  26.861  1.00  0.00     0.013 C 
ATOM      9  C   UNL A   1      33.673  23.970  25.386  1.00  0.00    -0.013 C 
ATOM     10  C   UNL A   1      34.433  25.259  25.170  1.00  0.00     0.013 C 
ATOM     11  C   UNL A   1      32.505  23.679  24.477  1.00  0.00     0.003 C 
ATOM     12  C   UNL A   1      34.746  22.999  23.219  1.00  0.00     0.023 C 
ATOM     13  C   UNL A   1      32.019  24.365  23.242  1.00  0.00     0.010 C 
ATOM     14  C   UNL A   1      31.108  23.399  24.960  1.00  0.00     0.086 C 
ATOM     15  C   UNL A   1      30.627  23.828  23.572  1.00  0.00     0.015 C 
BRANCH  14  16
ATOM     16  C   UNL A   1      30.550  24.049  26.239  1.00  0.00     0.224 C 
ATOM     17  O   UNL A   1      30.268  23.356  27.233  1.00  0.00    -0.275 OA
ATOM     18  N   UNL A   1      30.267  25.382  26.383  1.00  0.00    -0.349 N 
ATOM     19  H   UNL A   1      29.858  25.611  27.249  1.00  0.00     0.163 HD
BRANCH  18  20
ATOM     20  C   UNL A   1      30.455  26.514  25.508  1.00  0.00     0.191 C 
BRANCH  20  21
ATOM     21  C   UNL A   1      31.591  27.355  25.961  1.00  0.00     0.122 A 
ATOM     22  C   UNL A   1      32.198  27.600  27.179  1.00  0.00     0.047 A 
ATOM     23  O   UNL A   1      32.220  28.076  24.985  1.00  0.00    -0.467 OA
ATOM     24  C   UNL A   1      33.249  28.517  26.931  1.00  0.00     0.042 A 
ATOM     25  C   UNL A   1      33.222  28.771  25.580  1.00  0.00     0.195 A 
ENDBRANCH  20  21
ENDBRANCH  18  20
ENDBRANCH  14  16
ENDBRANCH   4   7
ENDBRANCH   2   3
ENDBRANCH   1   2
BRANCH   1  26
ATOM     26  C   UNL A   1      38.125  19.959  25.040  1.00  0.00     0.023 C 
BRANCH  26  27
ATOM     27  C   UNL A   1      39.406  20.232  25.820  1.00  0.00     0.116 C 
BRANCH  27  28
ATOM     28  N   UNL A   1      40.347  19.121  25.836  1.00  0.00    -0.352 N 
ATOM     29  C   UNL A   1      41.698  19.106  26.105  1.00  0.00     0.251 C 
ATOM     30  H   UNL A   1      39.956  18.244  25.621  1.00  0.00     0.163 HD
ATOM     31  O   UNL A   1      42.335  18.070  26.004  1.00  0.00    -0.269 OA
BRANCH  29  32
ATOM     32  C   UNL A   1      42.392  20.365  26.462  1.00  0.00     0.039 A 
ATOM     33  C   UNL A   1      43.117  21.036  25.473  1.00  0.00     0.014 A 
ATOM     34  C   UNL A   1      42.298  20.902  27.746  1.00  0.00     0.014 A 
ATOM     35  C   UNL A   1      43.653  22.299  25.743  1.00  0.00     0.010 A 
ATOM     36  C   UNL A   1      42.748  22.197  27.985  1.00  0.00     0.010 A 
ATOM     37  C   UNL A   1      43.421  22.913  26.984  1.00  0.00    -0.014 A 
BRANCH  37  38
ATOM     38  C   UNL A   1      43.867  24.304  27.264  1.00  0.00     0.031 A 
ATOM     39  C   UNL A   1      42.880  25.319  27.766  1.00  0.00     0.074 A 
ATOM     40  C   UNL A   1      45.129  24.677  26.974  1.00  0.00     0.049 A 
ATOM     41  N   UNL A   1      43.031  26.608  27.938  1.00  0.00    -0.248 NA
ATOM     42  C   UNL A   1      41.532  24.824  28.084  1.00  0.00     0.031 C 
ATOM     43  C   UNL A   1      46.172  23.802  26.434  1.00  0.00     0.029 A 
ATOM     44  N   UNL A   1      45.746  25.900  27.077  1.00  0.00    -0.354 N 
ATOM     45  C   UNL A   1      41.791  27.079  28.351  1.00  0.00     0.074 A 
ATOM     46  C   UNL A   1      40.889  25.949  28.357  1.00  0.00     0.031 C 
ATOM     47  C   UNL A   1      47.301  24.510  26.271  1.00  0.00     0.029 A 
ATOM     48  C   UNL A   1      47.054  25.897  26.656  1.00  0.00     0.049 A 
ATOM     49  H   UNL A   1      45.293  26.704  27.419  1.00  0.00     0.167 HD
ATOM     50  C   UNL A   1      41.443  28.337  28.715  1.00  0.00     0.037 A 
ATOM     51  C   UNL A   1      47.949  26.899  26.579  1.00  0.00     0.037 A 
ATOM     52  C   UNL A   1      42.351  29.452  28.750  1.00  0.00     0.049 A 
ATOM     53  C   UNL A   1      47.543  28.283  27.006  1.00  0.00     0.074 A 
ATOM     54  C   UNL A   1      42.111  30.749  29.166  1.00  0.00     0.029 A 
ATOM     55  N   UNL A   1      43.680  29.397  28.355  1.00  0.00    -0.354 N 
ATOM     56  N   UNL A   1      46.384  28.706  27.450  1.00  0.00    -0.248 NA
ATOM     57  C   UNL A   1      48.571  29.331  26.925  1.00  0.00     0.031 C 
ATOM     58  C   UNL A   1      43.286  31.488  28.993  1.00  0.00     0.029 A 
ATOM     59  C   UNL A   1      44.269  30.641  28.508  1.00  0.00     0.049 A 
ATOM     60  H   UNL A   1      44.137  28.593  28.018  1.00  0.00     0.167 HD
ATOM     61  C   UNL A   1      46.551  30.055  27.730  1.00  0.00     0.074 A 
ATOM     62  C   UNL A   1      47.925  30.381  27.414  1.00  0.00     0.031 C 
ATOM     63  C   UNL A   1      45.645  30.944  28.206  1.00  0.00     0.037 A 
BRANCH  50  64
ATOM     64  C   UNL A   1      40.014  28.569  29.111  1.00  0.00     0.064 A 
ATOM     65  C   UNL A   1      39.569  28.343  30.423  1.00  0.00     0.173 A 
ATOM     66  C   UNL A   1      39.082  29.043  28.175  1.00  0.00     0.173 A 
ATOM     67  F   UNL A   1      40.417  27.877  31.352  1.00  0.00    -0.203 F 
ATOM     68  C   UNL A   1      38.238  28.549  30.774  1.00  0.00     0.198 A 
ATOM     69  C   UNL A   1      37.759  29.278  28.537  1.00  0.00     0.198 A 
ATOM     70  F   UNL A   1      39.458  29.282  26.908  1.00  0.00    -0.203 F 
ATOM     71  F   UNL A   1      37.824  28.273  32.018  1.00  0.00    -0.200 F 
ATOM     72  C   UNL A   1      37.335  29.022  29.832  1.00  0.00     0.200 A 
ATOM     73  F   UNL A   1      36.891  29.747  27.630  1.00  0.00    -0.200 F 
ATOM     74  F   UNL A   1      36.055  29.224  30.173  1.00  0.00    -0.200 F 
ENDBRANCH  50  64
BRANCH  51  75
ATOM     75  C   UNL A   1      49.331  26.626  26.106  1.00  0.00     0.064 A 
ATOM     76  C   UNL A   1      50.303  26.128  26.986  1.00  0.00     0.173 A 
ATOM     77  C   UNL A   1      49.710  26.858  24.777  1.00  0.00     0.173 A 
ATOM     78  F   UNL A   1      49.992  25.912  28.272  1.00  0.00    -0.203 F 
ATOM     79  C   UNL A   1      51.606  25.888  26.558  1.00  0.00     0.198 A 
ATOM     80  C   UNL A   1      51.009  26.594  24.343  1.00  0.00     0.198 A 
ATOM     81  F   UNL A   1      48.817  27.331  23.895  1.00  0.00    -0.203 F 
ATOM     82  F   UNL A   1      52.525  25.451  27.429  1.00  0.00    -0.200 F 
ATOM     83  C   UNL A   1      51.957  26.117  25.235  1.00  0.00     0.200 A 
ATOM     84  F   UNL A   1      51.341  26.804  23.062  1.00  0.00    -0.200 F 
ATOM     85  F   UNL A   1      53.210  25.882  24.823  1.00  0.00    -0.200 F 
ENDBRANCH  51  75
BRANCH  63  86
ATOM     86  C   UNL A   1      46.120  32.343  28.460  1.00  0.00     0.064 A 
ATOM     87  C   UNL A   1      46.662  32.723  29.696  1.00  0.00     0.173 A 
ATOM     88  C   UNL A   1      46.079  33.301  27.436  1.00  0.00     0.173 A 
ATOM     89  F   UNL A   1      46.709  31.847  30.711  1.00  0.00    -0.203 F 
ATOM     90  C   UNL A   1      47.127  34.019  29.904  1.00  0.00     0.198 A 
ATOM     91  C   UNL A   1      46.568  34.588  27.640  1.00  0.00     0.198 A 
ATOM     92  F   UNL A   1      45.575  32.984  26.235  1.00  0.00    -0.203 F 
ATOM     93  F   UNL A   1      47.604  34.373  31.106  1.00  0.00    -0.200 F 
ATOM     94  C   UNL A   1      47.087  34.947  28.873  1.00  0.00     0.200 A 
ATOM     95  F   UNL A   1      46.540  35.480  26.639  1.00  0.00    -0.200 F 
ATOM     96  F   UNL A   1      47.543  36.191  29.073  1.00  0.00    -0.200 F 
ENDBRANCH  63  86
ENDBRANCH  37  38
ENDBRANCH  29  32
ENDBRANCH  27  28
ENDBRANCH  26  27
ENDBRANCH   1  26
TORSDOF 14
ENDMDL
MODEL 3
REMARK VINA RESULT:     -13.1      5.622     11.196
REMARK SMILES CC1(C)[C@@]2(CC[C@@H]2C(=O)NCc2ccco2)[C@]1(C)C(=O)NCCCCNC(=O)c1ccc(-c2c3nc(c(-c4c(F)c(F)c(F)c(F)c4F)c4ccc([nH]4)c(-c4c(F)c(F)c(F)c(F)c4F)c4nc(c(-c5c(F)c(F)c(F)c(F)c5F)c5ccc2[nH]5)C=C4)C=C3)cc1
REMARK SMILES IDX 23 1 22 2 21 3 19 4 20 5 17 7 1 8 2 9 3 10 4 11 18 12 5 13
REMARK SMILES IDX 7 14 6 15 8 16 9 17 10 18 11 20 12 21 13 22 16 23 14 24
REMARK SMILES IDX 15 25 24 26 25 27 26 28 27 29 28 31 29 32 30 33 91 34 31 35
REMARK SMILES IDX 90 36 32 37 33 38 34 39 84 40 35 41 89 42 83 43 85 44 36 45
REMARK SMILES IDX 88 46 82 47 81 48 37 50 69 51 49 52 68 53 50 54 53 55 67 56
REMARK SMILES IDX 86 57 51 58 52 59 66 61 87 62 54 63 38 64 39 65 47 66 40 67
REMARK SMILES IDX 41 68 45 69 48 70 42 71 43 72 46 73 44 74 70 75 71 76 79 77
REMARK SMILES IDX 72 78 73 79 77 80 80 81 74 82 75 83 78 84 76 85 55 86 56 87
REMARK SMILES IDX 64 88 57 89 58 90 62 91 65 92 59 93 60 94 63 95 61 96
REMARK H PARENT 21 6 10 19 26 30 85 49 53 60
REMARK Flexibility Score: inf
ROOT
ATOM      1  C   UNL A   1      31.991  30.321  26.830  1.00  0.00     0.023 C 
ENDROOT
BRANCH   1   2
ATOM      2  C   UNL A   1      32.756  29.739  25.652  1.00  0.00     0.116 C 
BRANCH   2   3
ATOM      3  N   UNL A   1      31.990  29.464  24.462  1.00  0.00    -0.356 N 
ATOM      4  C   UNL A   1      31.299  28.320  24.146  1.00  0.00     0.227 C 
ATOM      5  O   UNL A   1      30.560  28.322  23.170  1.00  0.00    -0.274 OA
ATOM      6  H   UNL A   1      31.957  30.187  23.795  1.00  0.00     0.163 HD
BRANCH   4   7
ATOM      7  C   UNL A   1      31.592  27.023  24.869  1.00  0.00     0.059 C 
ATOM      8  C   UNL A   1      33.941  27.027  23.707  1.00  0.00     0.013 C 
ATOM      9  C   UNL A   1      32.981  26.361  24.678  1.00  0.00    -0.013 C 
ATOM     10  C   UNL A   1      33.719  25.730  25.836  1.00  0.00     0.013 C 
ATOM     11  C   UNL A   1      31.752  25.659  24.158  1.00  0.00     0.003 C 
ATOM     12  C   UNL A   1      31.074  27.070  26.306  1.00  0.00     0.023 C 
ATOM     13  C   UNL A   1      30.984  24.489  24.683  1.00  0.00     0.010 C 
ATOM     14  C   UNL A   1      31.563  25.232  22.727  1.00  0.00     0.086 C 
ATOM     15  C   UNL A   1      30.541  24.218  23.246  1.00  0.00     0.015 C 
BRANCH  14  16
ATOM     16  C   UNL A   1      32.751  24.797  21.851  1.00  0.00     0.224 C 
ATOM     17  O   UNL A   1      33.054  25.436  20.827  1.00  0.00    -0.275 OA
ATOM     18  N   UNL A   1      33.522  23.684  22.069  1.00  0.00    -0.349 N 
ATOM     19  H   UNL A   1      34.200  23.526  21.372  1.00  0.00     0.163 HD
BRANCH  18  20
ATOM     20  C   UNL A   1      33.528  22.700  23.124  1.00  0.00     0.191 C 
BRANCH  20  21
ATOM     21  C   UNL A   1      34.732  22.845  23.981  1.00  0.00     0.122 A 
ATOM     22  C   UNL A   1      35.987  23.400  23.812  1.00  0.00     0.047 A 
ATOM     23  O   UNL A   1      34.627  22.328  25.241  1.00  0.00    -0.467 OA
ATOM     24  C   UNL A   1      36.681  23.209  25.032  1.00  0.00     0.042 A 
ATOM     25  C   UNL A   1      35.808  22.556  25.870  1.00  0.00     0.195 A 
ENDBRANCH  20  21
ENDBRANCH  18  20
ENDBRANCH  14  16
ENDBRANCH   4   7
ENDBRANCH   2   3
ENDBRANCH   1   2
BRANCH   1  26
ATOM     26  C   UNL A   1      31.751  31.826  26.813  1.00  0.00     0.023 C 
BRANCH  26  27
ATOM     27  C   UNL A   1      32.878  32.708  27.338  1.00  0.00     0.116 C 
BRANCH  27  28
ATOM     28  N   UNL A   1      32.470  34.063  27.678  1.00  0.00    -0.352 N 
ATOM     29  C   UNL A   1      33.007  34.950  28.587  1.00  0.00     0.251 C 
ATOM     30  H   UNL A   1      31.690  34.398  27.181  1.00  0.00     0.163 HD
ATOM     31  O   UNL A   1      32.477  36.034  28.776  1.00  0.00    -0.269 OA
BRANCH  29  32
ATOM     32  C   UNL A   1      34.197  34.564  29.378  1.00  0.00     0.039 A 
ATOM     33  C   UNL A   1      34.012  34.047  30.663  1.00  0.00     0.014 A 
ATOM     34  C   UNL A   1      35.483  34.672  28.846  1.00  0.00     0.014 A 
ATOM     35  C   UNL A   1      35.104  33.536  31.369  1.00  0.00     0.010 A 
ATOM     36  C   UNL A   1      36.553  34.078  29.508  1.00  0.00     0.010 A 
ATOM     37  C   UNL A   1      36.374  33.495  30.772  1.00  0.00    -0.014 A 
BRANCH  37  38
ATOM     38  C   UNL A   1      37.533  32.846  31.440  1.00  0.00     0.031 A 
ATOM     39  C   UNL A   1      38.222  31.684  30.784  1.00  0.00     0.074 A 
ATOM     40  C   UNL A   1      37.901  33.236  32.677  1.00  0.00     0.049 A 
ATOM     41  N   UNL A   1      39.154  30.896  31.257  1.00  0.00    -0.248 NA
ATOM     42  C   UNL A   1      37.778  31.339  29.424  1.00  0.00     0.031 C 
ATOM     43  C   UNL A   1      37.283  34.318  33.446  1.00  0.00     0.029 A 
ATOM     44  N   UNL A   1      38.877  32.753  33.513  1.00  0.00    -0.354 N 
ATOM     45  C   UNL A   1      39.381  29.947  30.269  1.00  0.00     0.074 A 
ATOM     46  C   UNL A   1      38.459  30.227  29.192  1.00  0.00     0.031 C 
ATOM     47  C   UNL A   1      37.905  34.428  34.631  1.00  0.00     0.029 A 
ATOM     48  C   UNL A   1      38.939  33.401  34.724  1.00  0.00     0.049 A 
ATOM     49  H   UNL A   1      39.477  32.012  33.269  1.00  0.00     0.167 HD
ATOM     50  C   UNL A   1      40.294  28.945  30.252  1.00  0.00     0.037 A 
ATOM     51  C   UNL A   1      39.731  33.185  35.791  1.00  0.00     0.037 A 
ATOM     52  C   UNL A   1      41.241  28.694  31.306  1.00  0.00     0.049 A 
ATOM     53  C   UNL A   1      40.749  32.078  35.740  1.00  0.00     0.074 A 
ATOM     54  C   UNL A   1      42.248  27.747  31.354  1.00  0.00     0.029 A 
ATOM     55  N   UNL A   1      41.297  29.401  32.498  1.00  0.00    -0.354 N 
ATOM     56  N   UNL A   1      40.995  31.224  34.777  1.00  0.00    -0.248 NA
ATOM     57  C   UNL A   1      41.603  31.908  36.924  1.00  0.00     0.031 C 
ATOM     58  C   UNL A   1      42.894  27.858  32.590  1.00  0.00     0.029 A 
ATOM     59  C   UNL A   1      42.316  28.902  33.293  1.00  0.00     0.049 A 
ATOM     60  H   UNL A   1      40.703  30.146  32.743  1.00  0.00     0.167 HD
ATOM     61  C   UNL A   1      42.049  30.438  35.223  1.00  0.00     0.074 A 
ATOM     62  C   UNL A   1      42.402  30.922  36.541  1.00  0.00     0.031 C 
ATOM     63  C   UNL A   1      42.667  29.408  34.596  1.00  0.00     0.037 A 
BRANCH  50  64
ATOM     64  C   UNL A   1      40.314  28.051  29.048  1.00  0.00     0.064 A 
ATOM     65  C   UNL A   1      39.581  26.854  29.009  1.00  0.00     0.173 A 
ATOM     66  C   UNL A   1      41.057  28.402  27.911  1.00  0.00     0.173 A 
ATOM     67  F   UNL A   1      38.865  26.467  30.075  1.00  0.00    -0.203 F 
ATOM     68  C   UNL A   1      39.619  26.027  27.890  1.00  0.00     0.198 A 
ATOM     69  C   UNL A   1      41.067  27.587  26.782  1.00  0.00     0.198 A 
ATOM     70  F   UNL A   1      41.770  29.539  27.894  1.00  0.00    -0.203 F 
ATOM     71  F   UNL A   1      38.955  24.863  27.897  1.00  0.00    -0.200 F 
ATOM     72  C   UNL A   1      40.357  26.397  26.775  1.00  0.00     0.200 A 
ATOM     73  F   UNL A   1      41.771  27.951  25.701  1.00  0.00    -0.200 F 
ATOM     74  F   UNL A   1      40.389  25.601  25.697  1.00  0.00    -0.200 F 
ENDBRANCH  50  64
BRANCH  51  75
ATOM     75  C   UNL A   1      39.615  34.055  36.990  1.00  0.00     0.064 A 
ATOM     76  C   UNL A   1      40.304  35.275  37.057  1.00  0.00     0.173 A 
ATOM     77  C   UNL A   1      38.824  33.690  38.088  1.00  0.00     0.173 A 
ATOM     78  F   UNL A   1      41.091  35.655  36.039  1.00  0.00    -0.203 F 
ATOM     79  C   UNL A   1      40.219  36.088  38.184  1.00  0.00     0.198 A 
ATOM     80  C   UNL A   1      38.721  34.517  39.205  1.00  0.00     0.198 A 
ATOM     81  F   UNL A   1      38.143  32.535  38.071  1.00  0.00    -0.203 F 
ATOM     82  F   UNL A   1      40.920  37.229  38.239  1.00  0.00    -0.200 F 
ATOM     83  C   UNL A   1      39.423  35.711  39.256  1.00  0.00     0.200 A 
ATOM     84  F   UNL A   1      37.941  34.155  40.233  1.00  0.00    -0.200 F 
ATOM     85  F   UNL A   1      39.339  36.496  40.338  1.00  0.00    -0.200 F 
ENDBRANCH  51  75
BRANCH  63  86
ATOM     86  C   UNL A   1      43.820  28.762  35.305  1.00  0.00     0.064 A 
ATOM     87  C   UNL A   1      43.631  27.706  36.207  1.00  0.00     0.173 A 
ATOM     88  C   UNL A   1      45.134  29.175  35.039  1.00  0.00     0.173 A 
ATOM     89  F   UNL A   1      42.393  27.286  36.506  1.00  0.00    -0.203 F 
ATOM     90  C   UNL A   1      44.717  27.098  36.832  1.00  0.00     0.198 A 
ATOM     91  C   UNL A   1      46.218  28.548  35.646  1.00  0.00     0.198 A 
ATOM     92  F   UNL A   1      45.367  30.178  34.180  1.00  0.00    -0.203 F 
ATOM     93  F   UNL A   1      44.512  26.116  37.721  1.00  0.00    -0.200 F 
ATOM     94  C   UNL A   1      46.009  27.514  36.545  1.00  0.00     0.200 A 
ATOM     95  F   UNL A   1      47.467  28.944  35.359  1.00  0.00    -0.200 F 
ATOM     96  F   UNL A   1      47.052  26.922  37.141  1.00  0.00    -0.200 F 
ENDBRANCH  63  86
ENDBRANCH  37  38
ENDBRANCH  29  32
ENDBRANCH  27  28
ENDBRANCH  26  27
ENDBRANCH   1  26
TORSDOF 14
ENDMDL
