MODEL 1
REMARK VINA RESULT:     -13.6      0.000      0.000
REMARK SMILES Cc1cc2cc(-c3ccc([C@@H](C)C(=O)NCCCCNC(=O)c4ccc(-c5c6nc(c(-c7c(F)c(F)c(F)c(F)c7F)c7ccc([nH]7)c(-c7c(F)c(F)c(F)c(F)c7F)c7nc(c(-c8c(F)c(F)c(F)c(F)c8F)c8ccc5[nH]8)C=C7)C=C6)cc4)cc3)ccc2[nH]1
REMARK SMILES IDX 17 1 16 2 15 3 13 4 14 5 11 7 12 8 10 9 7 10 8 11 87 12 9 13
REMARK SMILES IDX 86 14 6 15 1 16 2 17 3 18 91 19 4 20 90 21 5 23 89 24 88 25
REMARK SMILES IDX 18 26 19 27 20 28 21 29 22 31 23 32 24 33 85 34 25 35 84 36
REMARK SMILES IDX 26 37 27 38 28 39 78 40 29 41 83 42 77 43 79 44 30 45 82 46
REMARK SMILES IDX 76 47 75 48 31 50 63 51 43 52 62 53 44 54 47 55 61 56 80 57
REMARK SMILES IDX 45 58 46 59 60 61 81 62 48 63 32 64 33 65 41 66 34 67 35 68
REMARK SMILES IDX 39 69 42 70 36 71 37 72 40 73 38 74 64 75 65 76 73 77 66 78
REMARK SMILES IDX 67 79 71 80 74 81 68 82 69 83 72 84 70 85 49 86 50 87 58 88
REMARK SMILES IDX 51 89 52 90 56 91 59 92 53 93 54 94 57 95 55 96
REMARK H PARENT 15 6 91 22 20 30 79 49 47 60
REMARK Flexibility Score: inf
ROOT
ATOM      1  C   UNL A   1      31.806  30.570  26.423  1.00  0.00     0.023 C 
ENDROOT
BRANCH   1   2
ATOM      2  C   UNL A   1      31.274  30.036  25.093  1.00  0.00     0.116 C 
BRANCH   2   3
ATOM      3  N   UNL A   1      32.326  29.496  24.256  1.00  0.00    -0.356 N 
ATOM      4  C   UNL A   1      33.251  28.523  24.485  1.00  0.00     0.227 C 
ATOM      5  O   UNL A   1      34.071  28.325  23.579  1.00  0.00    -0.274 OA
ATOM      6  H   UNL A   1      32.382  29.906  23.363  1.00  0.00     0.163 HD
BRANCH   4   7
ATOM      7  C   UNL A   1      33.308  27.678  25.768  1.00  0.00     0.105 C 
ATOM      8  C   UNL A   1      34.427  28.088  26.726  1.00  0.00     0.023 C 
BRANCH   7   9
ATOM      9  C   UNL A   1      33.161  26.186  25.513  1.00  0.00    -0.036 A 
ATOM     10  C   UNL A   1      32.772  23.429  24.859  1.00  0.00    -0.018 A 
ATOM     11  C   UNL A   1      34.034  24.040  24.784  1.00  0.00     0.009 A 
ATOM     12  C   UNL A   1      31.709  24.229  25.303  1.00  0.00     0.009 A 
ATOM     13  C   UNL A   1      34.234  25.376  25.143  1.00  0.00     0.005 A 
ATOM     14  C   UNL A   1      31.895  25.587  25.605  1.00  0.00     0.005 A 
BRANCH  10  15
ATOM     15  C   UNL A   1      32.600  22.008  24.469  1.00  0.00    -0.018 A 
ATOM     16  C   UNL A   1      32.686  15.908  25.121  1.00  0.00     0.064 C 
ATOM     17  C   UNL A   1      32.630  17.374  24.906  1.00  0.00     0.013 A 
ATOM     18  C   UNL A   1      32.785  18.415  25.797  1.00  0.00     0.031 A 
ATOM     19  N   UNL A   1      32.391  17.926  23.670  1.00  0.00    -0.359 N 
ATOM     20  C   UNL A   1      32.650  19.629  25.075  1.00  0.00     0.000 A 
ATOM     21  C   UNL A   1      32.413  19.300  23.745  1.00  0.00     0.046 A 
ATOM     22  H   UNL A   1      32.228  17.411  22.847  1.00  0.00     0.166 HD
ATOM     23  C   UNL A   1      32.718  20.988  25.435  1.00  0.00     0.019 A 
ATOM     24  C   UNL A   1      32.247  20.273  22.754  1.00  0.00     0.027 A 
ATOM     25  C   UNL A   1      32.356  21.620  23.140  1.00  0.00     0.011 A 
ENDBRANCH  10  15
ENDBRANCH   7   9
ENDBRANCH   4   7
ENDBRANCH   2   3
ENDBRANCH   1   2
BRANCH   1  26
ATOM     26  C   UNL A   1      31.537  32.050  26.683  1.00  0.00     0.023 C 
BRANCH  26  27
ATOM     27  C   UNL A   1      32.679  32.815  27.341  1.00  0.00     0.116 C 
BRANCH  27  28
ATOM     28  N   UNL A   1      32.369  34.204  27.649  1.00  0.00    -0.352 N 
ATOM     29  C   UNL A   1      32.982  35.025  28.572  1.00  0.00     0.251 C 
ATOM     30  H   UNL A   1      31.629  34.605  27.138  1.00  0.00     0.163 HD
ATOM     31  O   UNL A   1      32.577  36.159  28.775  1.00  0.00    -0.269 OA
BRANCH  29  32
ATOM     32  C   UNL A   1      34.114  34.485  29.353  1.00  0.00     0.039 A 
ATOM     33  C   UNL A   1      33.847  33.772  30.524  1.00  0.00     0.014 A 
ATOM     34  C   UNL A   1      35.423  34.613  28.882  1.00  0.00     0.014 A 
ATOM     35  C   UNL A   1      34.887  33.106  31.175  1.00  0.00     0.010 A 
ATOM     36  C   UNL A   1      36.442  33.888  29.488  1.00  0.00     0.010 A 
ATOM     37  C   UNL A   1      36.182  33.120  30.634  1.00  0.00    -0.014 A 
BRANCH  37  38
ATOM     38  C   UNL A   1      37.288  32.338  31.238  1.00  0.00     0.031 A 
ATOM     39  C   UNL A   1      37.793  32.695  32.607  1.00  0.00     0.074 A 
ATOM     40  C   UNL A   1      37.897  31.373  30.521  1.00  0.00     0.049 A 
ATOM     41  N   UNL A   1      38.829  32.229  33.258  1.00  0.00    -0.248 NA
ATOM     42  C   UNL A   1      37.052  33.744  33.326  1.00  0.00     0.031 C 
ATOM     43  C   UNL A   1      37.531  30.967  29.163  1.00  0.00     0.029 A 
ATOM     44  N   UNL A   1      38.968  30.572  30.829  1.00  0.00    -0.354 N 
ATOM     45  C   UNL A   1      38.877  32.943  34.447  1.00  0.00     0.074 A 
ATOM     46  C   UNL A   1      37.798  33.907  34.408  1.00  0.00     0.031 C 
ATOM     47  C   UNL A   1      38.352  29.983  28.762  1.00  0.00     0.029 A 
ATOM     48  C   UNL A   1      39.324  29.714  29.817  1.00  0.00     0.049 A 
ATOM     49  H   UNL A   1      39.438  30.609  31.693  1.00  0.00     0.167 HD
ATOM     50  C   UNL A   1      39.731  32.792  35.487  1.00  0.00     0.037 A 
ATOM     51  C   UNL A   1      40.329  28.820  29.746  1.00  0.00     0.037 A 
ATOM     52  C   UNL A   1      40.777  31.808  35.537  1.00  0.00     0.049 A 
ATOM     53  C   UNL A   1      41.256  28.664  30.921  1.00  0.00     0.074 A 
ATOM     54  C   UNL A   1      41.655  31.533  36.570  1.00  0.00     0.029 A 
ATOM     55  N   UNL A   1      41.081  30.930  34.507  1.00  0.00    -0.354 N 
ATOM     56  N   UNL A   1      41.258  29.305  32.064  1.00  0.00    -0.248 NA
ATOM     57  C   UNL A   1      42.322  27.659  30.796  1.00  0.00     0.031 C 
ATOM     58  C   UNL A   1      42.514  30.510  36.152  1.00  0.00     0.029 A 
ATOM     59  C   UNL A   1      42.144  30.121  34.876  1.00  0.00     0.049 A 
ATOM     60  H   UNL A   1      40.613  30.888  33.642  1.00  0.00     0.167 HD
ATOM     61  C   UNL A   1      42.299  28.763  32.804  1.00  0.00     0.074 A 
ATOM     62  C   UNL A   1      42.903  27.733  31.984  1.00  0.00     0.031 C 
ATOM     63  C   UNL A   1      42.719  29.090  34.051  1.00  0.00     0.037 A 
BRANCH  50  64
ATOM     64  C   UNL A   1      39.557  33.710  36.660  1.00  0.00     0.064 A 
ATOM     65  C   UNL A   1      40.156  34.978  36.694  1.00  0.00     0.173 A 
ATOM     66  C   UNL A   1      38.761  33.330  37.750  1.00  0.00     0.173 A 
ATOM     67  F   UNL A   1      40.939  35.382  35.682  1.00  0.00    -0.203 F 
ATOM     68  C   UNL A   1      39.991  35.819  37.791  1.00  0.00     0.198 A 
ATOM     69  C   UNL A   1      38.573  34.187  38.833  1.00  0.00     0.198 A 
ATOM     70  F   UNL A   1      38.161  32.131  37.766  1.00  0.00    -0.203 F 
ATOM     71  F   UNL A   1      40.617  37.004  37.823  1.00  0.00    -0.200 F 
ATOM     72  C   UNL A   1      39.196  35.425  38.856  1.00  0.00     0.200 A 
ATOM     73  F   UNL A   1      37.796  33.810  39.857  1.00  0.00    -0.200 F 
ATOM     74  F   UNL A   1      39.035  36.238  39.909  1.00  0.00    -0.200 F 
ENDBRANCH  50  64
BRANCH  51  75
ATOM     75  C   UNL A   1      40.495  27.982  28.531  1.00  0.00     0.064 A 
ATOM     76  C   UNL A   1      41.252  28.442  27.444  1.00  0.00     0.173 A 
ATOM     77  C   UNL A   1      39.902  26.717  28.425  1.00  0.00     0.173 A 
ATOM     78  F   UNL A   1      41.822  29.655  27.491  1.00  0.00    -0.203 F 
ATOM     79  C   UNL A   1      41.392  27.676  26.289  1.00  0.00     0.198 A 
ATOM     80  C   UNL A   1      40.063  25.941  27.278  1.00  0.00     0.198 A 
ATOM     81  F   UNL A   1      39.172  26.230  29.438  1.00  0.00    -0.203 F 
ATOM     82  F   UNL A   1      42.085  28.159  25.247  1.00  0.00    -0.200 F 
ATOM     83  C   UNL A   1      40.802  26.425  26.208  1.00  0.00     0.200 A 
ATOM     84  F   UNL A   1      39.501  24.727  27.208  1.00  0.00    -0.200 F 
ATOM     85  F   UNL A   1      40.938  25.687  25.097  1.00  0.00    -0.200 F 
ENDBRANCH  51  75
BRANCH  63  86
ATOM     86  C   UNL A   1      43.857  28.299  34.623  1.00  0.00     0.064 A 
ATOM     87  C   UNL A   1      43.642  27.106  35.326  1.00  0.00     0.173 A 
ATOM     88  C   UNL A   1      45.181  28.715  34.418  1.00  0.00     0.173 A 
ATOM     89  F   UNL A   1      42.392  26.677  35.562  1.00  0.00    -0.203 F 
ATOM     90  C   UNL A   1      44.713  26.365  35.818  1.00  0.00     0.198 A 
ATOM     91  C   UNL A   1      46.249  27.957  34.888  1.00  0.00     0.198 A 
ATOM     92  F   UNL A   1      45.438  29.848  33.745  1.00  0.00    -0.203 F 
ATOM     93  F   UNL A   1      44.484  25.245  36.519  1.00  0.00    -0.200 F 
ATOM     94  C   UNL A   1      46.015  26.786  35.591  1.00  0.00     0.200 A 
ATOM     95  F   UNL A   1      47.507  28.360  34.657  1.00  0.00    -0.200 F 
ATOM     96  F   UNL A   1      47.044  26.065  36.056  1.00  0.00    -0.200 F 
ENDBRANCH  63  86
ENDBRANCH  37  38
ENDBRANCH  29  32
ENDBRANCH  27  28
ENDBRANCH  26  27
ENDBRANCH   1  26
TORSDOF 13
ENDMDL
MODEL 2
REMARK VINA RESULT:     -13.4      1.087      2.112
REMARK SMILES Cc1cc2cc(-c3ccc([C@@H](C)C(=O)NCCCCNC(=O)c4ccc(-c5c6nc(c(-c7c(F)c(F)c(F)c(F)c7F)c7ccc([nH]7)c(-c7c(F)c(F)c(F)c(F)c7F)c7nc(c(-c8c(F)c(F)c(F)c(F)c8F)c8ccc5[nH]8)C=C7)C=C6)cc4)cc3)ccc2[nH]1
REMARK SMILES IDX 17 1 16 2 15 3 13 4 14 5 11 7 12 8 10 9 7 10 8 11 87 12 9 13
REMARK SMILES IDX 86 14 6 15 1 16 2 17 3 18 91 19 4 20 90 21 5 23 89 24 88 25
REMARK SMILES IDX 18 26 19 27 20 28 21 29 22 31 23 32 24 33 85 34 25 35 84 36
REMARK SMILES IDX 26 37 27 38 28 39 78 40 29 41 83 42 77 43 79 44 30 45 82 46
REMARK SMILES IDX 76 47 75 48 31 50 63 51 43 52 62 53 44 54 47 55 61 56 80 57
REMARK SMILES IDX 45 58 46 59 60 61 81 62 48 63 32 64 33 65 41 66 34 67 35 68
REMARK SMILES IDX 39 69 42 70 36 71 37 72 40 73 38 74 64 75 65 76 73 77 66 78
REMARK SMILES IDX 67 79 71 80 74 81 68 82 69 83 72 84 70 85 49 86 50 87 58 88
REMARK SMILES IDX 51 89 52 90 56 91 59 92 53 93 54 94 57 95 55 96
REMARK H PARENT 15 6 91 22 20 30 79 49 47 60
REMARK Flexibility Score: inf
ROOT
ATOM      1  C   UNL A   1      34.346  31.153  28.004  1.00  0.00     0.023 C 
ENDROOT
BRANCH   1   2
ATOM      2  C   UNL A   1      34.173  29.835  27.250  1.00  0.00     0.116 C 
BRANCH   2   3
ATOM      3  N   UNL A   1      33.049  29.064  27.741  1.00  0.00    -0.356 N 
ATOM      4  C   UNL A   1      32.157  28.259  27.099  1.00  0.00     0.227 C 
ATOM      5  O   UNL A   1      31.256  27.777  27.797  1.00  0.00    -0.274 OA
ATOM      6  H   UNL A   1      32.904  29.134  28.712  1.00  0.00     0.163 HD
BRANCH   4   7
ATOM      7  C   UNL A   1      32.230  27.921  25.601  1.00  0.00     0.105 C 
ATOM      8  C   UNL A   1      31.014  28.395  24.803  1.00  0.00     0.023 C 
BRANCH   7   9
ATOM      9  C   UNL A   1      32.697  26.501  25.326  1.00  0.00    -0.036 A 
ATOM     10  C   UNL A   1      33.603  23.805  25.019  1.00  0.00    -0.018 A 
ATOM     11  C   UNL A   1      32.271  24.176  24.769  1.00  0.00     0.009 A 
ATOM     12  C   UNL A   1      34.482  24.831  25.397  1.00  0.00     0.009 A 
ATOM     13  C   UNL A   1      31.837  25.499  24.877  1.00  0.00     0.005 A 
ATOM     14  C   UNL A   1      34.034  26.149  25.567  1.00  0.00     0.005 A 
BRANCH  10  15
ATOM     15  C   UNL A   1      34.027  22.389  24.892  1.00  0.00    -0.018 A 
ATOM     16  C   UNL A   1      33.378  16.319  24.279  1.00  0.00     0.064 C 
ATOM     17  C   UNL A   1      33.601  17.778  24.415  1.00  0.00     0.013 A 
ATOM     18  C   UNL A   1      32.716  18.831  24.316  1.00  0.00     0.031 A 
ATOM     19  N   UNL A   1      34.841  18.310  24.679  1.00  0.00    -0.359 N 
ATOM     20  C   UNL A   1      33.439  20.031  24.542  1.00  0.00     0.000 A 
ATOM     21  C   UNL A   1      34.765  19.682  24.776  1.00  0.00     0.046 A 
ATOM     22  H   UNL A   1      35.666  17.785  24.784  1.00  0.00     0.166 HD
ATOM     23  C   UNL A   1      33.081  21.391  24.578  1.00  0.00     0.019 A 
ATOM     24  C   UNL A   1      35.750  20.634  25.051  1.00  0.00     0.027 A 
ATOM     25  C   UNL A   1      35.353  21.981  25.115  1.00  0.00     0.011 A 
ENDBRANCH  10  15
ENDBRANCH   7   9
ENDBRANCH   4   7
ENDBRANCH   2   3
ENDBRANCH   1   2
BRANCH   1  26
ATOM     26  C   UNL A   1      33.141  32.089  27.962  1.00  0.00     0.023 C 
BRANCH  26  27
ATOM     27  C   UNL A   1      33.375  33.423  27.264  1.00  0.00     0.116 C 
BRANCH  27  28
ATOM     28  N   UNL A   1      32.767  34.564  27.935  1.00  0.00    -0.352 N 
ATOM     29  C   UNL A   1      33.128  35.131  29.139  1.00  0.00     0.251 C 
ATOM     30  H   UNL A   1      32.003  34.980  27.473  1.00  0.00     0.163 HD
ATOM     31  O   UNL A   1      32.487  36.053  29.619  1.00  0.00    -0.269 OA
BRANCH  29  32
ATOM     32  C   UNL A   1      34.281  34.564  29.869  1.00  0.00     0.039 A 
ATOM     33  C   UNL A   1      34.048  33.829  31.033  1.00  0.00     0.014 A 
ATOM     34  C   UNL A   1      35.573  34.688  29.353  1.00  0.00     0.014 A 
ATOM     35  C   UNL A   1      35.103  33.140  31.633  1.00  0.00     0.010 A 
ATOM     36  C   UNL A   1      36.606  33.942  29.907  1.00  0.00     0.010 A 
ATOM     37  C   UNL A   1      36.379  33.153  31.046  1.00  0.00    -0.014 A 
BRANCH  37  38
ATOM     38  C   UNL A   1      37.497  32.347  31.594  1.00  0.00     0.031 A 
ATOM     39  C   UNL A   1      38.063  32.678  32.945  1.00  0.00     0.074 A 
ATOM     40  C   UNL A   1      38.063  31.384  30.839  1.00  0.00     0.049 A 
ATOM     41  N   UNL A   1      39.117  32.190  33.547  1.00  0.00    -0.248 NA
ATOM     42  C   UNL A   1      37.367  33.728  33.708  1.00  0.00     0.031 C 
ATOM     43  C   UNL A   1      37.636  31.002  29.493  1.00  0.00     0.029 A 
ATOM     44  N   UNL A   1      39.134  30.564  31.093  1.00  0.00    -0.354 N 
ATOM     45  C   UNL A   1      39.225  32.887  34.742  1.00  0.00     0.074 A 
ATOM     46  C   UNL A   1      38.159  33.866  34.761  1.00  0.00     0.031 C 
ATOM     47  C   UNL A   1      38.426  30.012  29.045  1.00  0.00     0.029 A 
ATOM     48  C   UNL A   1      39.436  29.716  30.056  1.00  0.00     0.049 A 
ATOM     49  H   UNL A   1      39.639  30.582  31.938  1.00  0.00     0.167 HD
ATOM     50  C   UNL A   1      40.117  32.709  35.744  1.00  0.00     0.037 A 
ATOM     51  C   UNL A   1      40.425  28.808  29.932  1.00  0.00     0.037 A 
ATOM     52  C   UNL A   1      41.151  31.710  35.739  1.00  0.00     0.049 A 
ATOM     53  C   UNL A   1      41.397  28.624  31.065  1.00  0.00     0.074 A 
ATOM     54  C   UNL A   1      42.067  31.410  36.731  1.00  0.00     0.029 A 
ATOM     55  N   UNL A   1      41.400  30.843  34.685  1.00  0.00    -0.354 N 
ATOM     56  N   UNL A   1      41.455  29.250  32.216  1.00  0.00    -0.248 NA
ATOM     57  C   UNL A   1      42.442  27.606  30.884  1.00  0.00     0.031 C 
ATOM     58  C   UNL A   1      42.893  30.381  36.265  1.00  0.00     0.029 A 
ATOM     59  C   UNL A   1      42.466  30.014  35.000  1.00  0.00     0.049 A 
ATOM     60  H   UNL A   1      40.897  30.819  33.840  1.00  0.00     0.167 HD
ATOM     61  C   UNL A   1      42.517  28.683  32.906  1.00  0.00     0.074 A 
ATOM     62  C   UNL A   1      43.073  27.657  32.048  1.00  0.00     0.031 C 
ATOM     63  C   UNL A   1      42.992  28.987  34.139  1.00  0.00     0.037 A 
BRANCH  50  64
ATOM     64  C   UNL A   1      40.004  33.614  36.935  1.00  0.00     0.064 A 
ATOM     65  C   UNL A   1      40.745  34.802  37.028  1.00  0.00     0.173 A 
ATOM     66  C   UNL A   1      39.127  33.304  37.985  1.00  0.00     0.173 A 
ATOM     67  F   UNL A   1      41.609  35.135  36.057  1.00  0.00    -0.203 F 
ATOM     68  C   UNL A   1      40.635  35.630  38.141  1.00  0.00     0.198 A 
ATOM     69  C   UNL A   1      38.997  34.151  39.084  1.00  0.00     0.198 A 
ATOM     70  F   UNL A   1      38.392  32.183  37.945  1.00  0.00    -0.203 F 
ATOM     71  F   UNL A   1      41.392  36.733  38.230  1.00  0.00    -0.200 F 
ATOM     72  C   UNL A   1      39.758  35.307  39.164  1.00  0.00     0.200 A 
ATOM     73  F   UNL A   1      38.141  33.843  40.067  1.00  0.00    -0.200 F 
ATOM     74  F   UNL A   1      39.650  36.108  40.233  1.00  0.00    -0.200 F 
ENDBRANCH  50  64
BRANCH  51  75
ATOM     75  C   UNL A   1      40.530  27.986  28.700  1.00  0.00     0.064 A 
ATOM     76  C   UNL A   1      39.872  26.750  28.607  1.00  0.00     0.173 A 
ATOM     77  C   UNL A   1      41.287  28.407  27.599  1.00  0.00     0.173 A 
ATOM     78  F   UNL A   1      39.153  26.296  29.643  1.00  0.00    -0.203 F 
ATOM     79  C   UNL A   1      39.985  25.959  27.467  1.00  0.00     0.198 A 
ATOM     80  C   UNL A   1      41.380  27.625  26.448  1.00  0.00     0.198 A 
ATOM     81  F   UNL A   1      41.932  29.582  27.636  1.00  0.00    -0.203 F 
ATOM     82  F   UNL A   1      39.382  24.762  27.422  1.00  0.00    -0.200 F 
ATOM     83  C   UNL A   1      40.735  26.398  26.387  1.00  0.00     0.200 A 
ATOM     84  F   UNL A   1      42.096  28.058  25.402  1.00  0.00    -0.200 F 
ATOM     85  F   UNL A   1      40.843  25.637  25.288  1.00  0.00    -0.200 F 
ENDBRANCH  51  75
BRANCH  63  86
ATOM     86  C   UNL A   1      44.141  28.173  34.653  1.00  0.00     0.064 A 
ATOM     87  C   UNL A   1      45.469  28.585  34.476  1.00  0.00     0.173 A 
ATOM     88  C   UNL A   1      43.906  26.996  35.379  1.00  0.00     0.173 A 
ATOM     89  F   UNL A   1      45.744  29.695  33.774  1.00  0.00    -0.203 F 
ATOM     90  C   UNL A   1      46.523  27.836  34.994  1.00  0.00     0.198 A 
ATOM     91  C   UNL A   1      44.961  26.265  35.918  1.00  0.00     0.198 A 
ATOM     92  F   UNL A   1      42.651  26.565  35.580  1.00  0.00    -0.203 F 
ATOM     93  F   UNL A   1      47.787  28.228  34.782  1.00  0.00    -0.200 F 
ATOM     94  C   UNL A   1      46.267  26.683  35.721  1.00  0.00     0.200 A 
ATOM     95  F   UNL A   1      44.711  25.157  36.630  1.00  0.00    -0.200 F 
ATOM     96  F   UNL A   1      47.283  25.970  36.228  1.00  0.00    -0.200 F 
ENDBRANCH  63  86
ENDBRANCH  37  38
ENDBRANCH  29  32
ENDBRANCH  27  28
ENDBRANCH  26  27
ENDBRANCH   1  26
TORSDOF 13
ENDMDL
MODEL 3
REMARK VINA RESULT:     -13.4      3.606      5.288
REMARK SMILES Cc1cc2cc(-c3ccc([C@@H](C)C(=O)NCCCCNC(=O)c4ccc(-c5c6nc(c(-c7c(F)c(F)c(F)c(F)c7F)c7ccc([nH]7)c(-c7c(F)c(F)c(F)c(F)c7F)c7nc(c(-c8c(F)c(F)c(F)c(F)c8F)c8ccc5[nH]8)C=C7)C=C6)cc4)cc3)ccc2[nH]1
REMARK SMILES IDX 17 1 16 2 15 3 13 4 14 5 11 7 12 8 10 9 7 10 8 11 87 12 9 13
REMARK SMILES IDX 86 14 6 15 1 16 2 17 3 18 91 19 4 20 90 21 5 23 89 24 88 25
REMARK SMILES IDX 18 26 19 27 20 28 21 29 22 31 23 32 24 33 85 34 25 35 84 36
REMARK SMILES IDX 26 37 27 38 28 39 78 40 29 41 83 42 77 43 79 44 30 45 82 46
REMARK SMILES IDX 76 47 75 48 31 50 63 51 43 52 62 53 44 54 47 55 61 56 80 57
REMARK SMILES IDX 45 58 46 59 60 61 81 62 48 63 32 64 33 65 41 66 34 67 35 68
REMARK SMILES IDX 39 69 42 70 36 71 37 72 40 73 38 74 64 75 65 76 73 77 66 78
REMARK SMILES IDX 67 79 71 80 74 81 68 82 69 83 72 84 70 85 49 86 50 87 58 88
REMARK SMILES IDX 51 89 52 90 56 91 59 92 53 93 54 94 57 95 55 96
REMARK H PARENT 15 6 91 22 20 30 79 49 47 60
REMARK Flexibility Score: inf
ROOT
ATOM      1  C   UNL A   1      31.443  28.893  26.707  1.00  0.00     0.023 C 
ENDROOT
BRANCH   1   2
ATOM      2  C   UNL A   1      31.487  29.615  25.360  1.00  0.00     0.116 C 
BRANCH   2   3
ATOM      3  N   UNL A   1      31.028  28.776  24.272  1.00  0.00    -0.356 N 
ATOM      4  C   UNL A   1      31.707  27.986  23.394  1.00  0.00     0.227 C 
ATOM      5  O   UNL A   1      31.028  27.429  22.522  1.00  0.00    -0.274 OA
ATOM      6  H   UNL A   1      30.053  28.778  24.143  1.00  0.00     0.163 HD
BRANCH   4   7
ATOM      7  C   UNL A   1      33.225  27.748  23.449  1.00  0.00     0.105 C 
ATOM      8  C   UNL A   1      34.008  28.519  22.386  1.00  0.00     0.023 C 
BRANCH   7   9
ATOM      9  C   UNL A   1      33.600  26.286  23.625  1.00  0.00    -0.036 A 
ATOM     10  C   UNL A   1      34.135  23.513  24.081  1.00  0.00    -0.018 A 
ATOM     11  C   UNL A   1      33.731  23.996  22.826  1.00  0.00     0.009 A 
ATOM     12  C   UNL A   1      34.298  24.463  25.100  1.00  0.00     0.009 A 
ATOM     13  C   UNL A   1      33.510  25.356  22.590  1.00  0.00     0.005 A 
ATOM     14  C   UNL A   1      34.016  25.821  24.883  1.00  0.00     0.005 A 
BRANCH  10  15
ATOM     15  C   UNL A   1      34.360  22.062  24.292  1.00  0.00    -0.018 A 
ATOM     16  C   UNL A   1      32.902  16.128  24.842  1.00  0.00     0.064 C 
ATOM     17  C   UNL A   1      33.319  17.544  24.706  1.00  0.00     0.013 A 
ATOM     18  C   UNL A   1      32.607  18.651  24.295  1.00  0.00     0.031 A 
ATOM     19  N   UNL A   1      34.595  17.965  25.001  1.00  0.00    -0.359 N 
ATOM     20  C   UNL A   1      33.473  19.773  24.358  1.00  0.00     0.000 A 
ATOM     21  C   UNL A   1      34.709  19.323  24.810  1.00  0.00     0.046 A 
ATOM     22  H   UNL A   1      35.323  17.377  25.305  1.00  0.00     0.166 HD
ATOM     23  C   UNL A   1      33.312  21.143  24.077  1.00  0.00     0.019 A 
ATOM     24  C   UNL A   1      35.792  20.185  25.001  1.00  0.00     0.027 A 
ATOM     25  C   UNL A   1      35.589  21.552  24.746  1.00  0.00     0.011 A 
ENDBRANCH  10  15
ENDBRANCH   7   9
ENDBRANCH   4   7
ENDBRANCH   2   3
ENDBRANCH   1   2
BRANCH   1  26
ATOM     26  C   UNL A   1      32.713  28.133  27.078  1.00  0.00     0.023 C 
BRANCH  26  27
ATOM     27  C   UNL A   1      34.001  28.943  27.010  1.00  0.00     0.116 C 
BRANCH  27  28
ATOM     28  N   UNL A   1      33.940  30.225  27.700  1.00  0.00    -0.352 N 
ATOM     29  C   UNL A   1      34.914  30.819  28.474  1.00  0.00     0.251 C 
ATOM     30  H   UNL A   1      33.098  30.727  27.604  1.00  0.00     0.163 HD
ATOM     31  O   UNL A   1      34.705  31.875  29.050  1.00  0.00    -0.269 OA
BRANCH  29  32
ATOM     32  C   UNL A   1      36.208  30.123  28.636  1.00  0.00     0.039 A 
ATOM     33  C   UNL A   1      37.162  30.226  27.621  1.00  0.00     0.014 A 
ATOM     34  C   UNL A   1      36.502  29.448  29.823  1.00  0.00     0.014 A 
ATOM     35  C   UNL A   1      38.448  29.727  27.834  1.00  0.00     0.010 A 
ATOM     36  C   UNL A   1      37.802  29.019  30.061  1.00  0.00     0.010 A 
ATOM     37  C   UNL A   1      38.790  29.163  29.074  1.00  0.00    -0.014 A 
BRANCH  37  38
ATOM     38  C   UNL A   1      40.173  28.720  29.374  1.00  0.00     0.031 A 
ATOM     39  C   UNL A   1      41.100  29.630  30.128  1.00  0.00     0.074 A 
ATOM     40  C   UNL A   1      40.621  27.546  28.888  1.00  0.00     0.049 A 
ATOM     41  N   UNL A   1      42.378  29.493  30.377  1.00  0.00    -0.248 NA
ATOM     42  C   UNL A   1      40.518  30.881  30.641  1.00  0.00     0.031 C 
ATOM     43  C   UNL A   1      39.833  26.598  28.100  1.00  0.00     0.029 A 
ATOM     44  N   UNL A   1      41.860  26.960  28.970  1.00  0.00    -0.354 N 
ATOM     45  C   UNL A   1      42.755  30.646  31.051  1.00  0.00     0.074 A 
ATOM     46  C   UNL A   1      41.585  31.495  31.130  1.00  0.00     0.031 C 
ATOM     47  C   UNL A   1      40.601  25.541  27.786  1.00  0.00     0.029 A 
ATOM     48  C   UNL A   1      41.944  25.755  28.316  1.00  0.00     0.049 A 
ATOM     49  H   UNL A   1      42.617  27.364  29.452  1.00  0.00     0.167 HD
ATOM     50  C   UNL A   1      43.963  30.958  31.577  1.00  0.00     0.037 A 
ATOM     51  C   UNL A   1      42.991  24.922  28.155  1.00  0.00     0.037 A 
ATOM     52  C   UNL A   1      45.112  30.096  31.530  1.00  0.00     0.049 A 
ATOM     53  C   UNL A   1      44.319  25.288  28.759  1.00  0.00     0.074 A 
ATOM     54  C   UNL A   1      46.363  30.294  32.085  1.00  0.00     0.029 A 
ATOM     55  N   UNL A   1      45.146  28.865  30.891  1.00  0.00    -0.354 N 
ATOM     56  N   UNL A   1      44.650  26.355  29.444  1.00  0.00    -0.248 NA
ATOM     57  C   UNL A   1      45.419  24.332  28.569  1.00  0.00     0.031 C 
ATOM     58  C   UNL A   1      47.166  29.196  31.756  1.00  0.00     0.029 A 
ATOM     59  C   UNL A   1      46.402  28.297  31.029  1.00  0.00     0.049 A 
ATOM     60  H   UNL A   1      44.391  28.455  30.411  1.00  0.00     0.167 HD
ATOM     61  C   UNL A   1      45.983  26.187  29.792  1.00  0.00     0.074 A 
ATOM     62  C   UNL A   1      46.398  24.910  29.250  1.00  0.00     0.031 C 
ATOM     63  C   UNL A   1      46.790  27.017  30.497  1.00  0.00     0.037 A 
BRANCH  50  64
ATOM     64  C   UNL A   1      44.094  32.288  32.259  1.00  0.00     0.064 A 
ATOM     65  C   UNL A   1      44.489  33.436  31.556  1.00  0.00     0.173 A 
ATOM     66  C   UNL A   1      43.798  32.422  33.623  1.00  0.00     0.173 A 
ATOM     67  F   UNL A   1      44.798  33.357  30.253  1.00  0.00    -0.203 F 
ATOM     68  C   UNL A   1      44.612  34.663  32.201  1.00  0.00     0.198 A 
ATOM     69  C   UNL A   1      43.893  33.658  34.259  1.00  0.00     0.198 A 
ATOM     70  F   UNL A   1      43.411  31.356  34.340  1.00  0.00    -0.203 F 
ATOM     71  F   UNL A   1      45.042  35.735  31.521  1.00  0.00    -0.200 F 
ATOM     72  C   UNL A   1      44.309  34.774  33.549  1.00  0.00     0.200 A 
ATOM     73  F   UNL A   1      43.589  33.765  35.559  1.00  0.00    -0.200 F 
ATOM     74  F   UNL A   1      44.424  35.957  34.168  1.00  0.00    -0.200 F 
ENDBRANCH  50  64
BRANCH  51  75
ATOM     75  C   UNL A   1      42.819  23.647  27.411  1.00  0.00     0.064 A 
ATOM     76  C   UNL A   1      42.269  22.521  28.040  1.00  0.00     0.173 A 
ATOM     77  C   UNL A   1      43.204  23.523  26.069  1.00  0.00     0.173 A 
ATOM     78  F   UNL A   1      41.905  22.586  29.329  1.00  0.00    -0.203 F 
ATOM     79  C   UNL A   1      42.129  21.314  27.360  1.00  0.00     0.198 A 
ATOM     80  C   UNL A   1      43.041  22.321  25.383  1.00  0.00     0.198 A 
ATOM     81  F   UNL A   1      43.732  24.572  25.422  1.00  0.00    -0.203 F 
ATOM     82  F   UNL A   1      41.640  20.241  27.998  1.00  0.00    -0.200 F 
ATOM     83  C   UNL A   1      42.510  21.216  26.031  1.00  0.00     0.200 A 
ATOM     84  F   UNL A   1      43.400  22.233  24.095  1.00  0.00    -0.200 F 
ATOM     85  F   UNL A   1      42.374  20.054  25.376  1.00  0.00    -0.200 F 
ENDBRANCH  51  75
BRANCH  63  86
ATOM     86  C   UNL A   1      48.192  26.553  30.760  1.00  0.00     0.064 A 
ATOM     87  C   UNL A   1      48.501  25.735  31.855  1.00  0.00     0.173 A 
ATOM     88  C   UNL A   1      49.226  26.889  29.873  1.00  0.00     0.173 A 
ATOM     89  F   UNL A   1      47.548  25.402  32.739  1.00  0.00    -0.203 F 
ATOM     90  C   UNL A   1      49.802  25.283  32.062  1.00  0.00     0.198 A 
ATOM     91  C   UNL A   1      50.519  26.413  30.070  1.00  0.00     0.198 A 
ATOM     92  F   UNL A   1      48.978  27.665  28.807  1.00  0.00    -0.203 F 
ATOM     93  F   UNL A   1      50.083  24.531  33.136  1.00  0.00    -0.200 F 
ATOM     94  C   UNL A   1      50.807  25.614  31.165  1.00  0.00     0.200 A 
ATOM     95  F   UNL A   1      51.486  26.724  29.195  1.00  0.00    -0.200 F 
ATOM     96  F   UNL A   1      52.055  25.168  31.362  1.00  0.00    -0.200 F 
ENDBRANCH  63  86
ENDBRANCH  37  38
ENDBRANCH  29  32
ENDBRANCH  27  28
ENDBRANCH  26  27
ENDBRANCH   1  26
TORSDOF 13
ENDMDL
