MODEL 1
REMARK VINA RESULT:     -12.7      0.000      0.000
REMARK SMILES Nc1nc(N2CCOC[C@H]2C(=O)NCCCCNC(=O)c2ccc(-c3c4nc(c(-c5c(F)c(F)c(F)c(F)c5F)c5ccc([nH]5)c(-c5c(F)c(F)c(F)c(F)c5F)c5nc(c(-c6c(F)c(F)c(F)c(F)c6F)c6ccc3[nH]6)C=C5)C=C4)cc2)ccc1[N+](=O)[O-]
REMARK SMILES IDX 15 1 14 2 13 3 11 4 12 5 10 7 5 8 6 9 7 10 9 11 8 12 4 13
REMARK SMILES IDX 2 14 3 15 86 16 85 17 84 18 1 19 87 22 88 23 89 24 16 25
REMARK SMILES IDX 17 26 18 27 19 28 20 30 21 31 22 32 83 33 23 34 82 35 24 36
REMARK SMILES IDX 25 37 26 38 76 39 27 40 81 41 75 42 77 43 28 44 80 45 74 46
REMARK SMILES IDX 73 47 29 49 61 50 41 51 60 52 42 53 45 54 59 55 78 56 43 57
REMARK SMILES IDX 44 58 58 60 79 61 46 62 30 63 31 64 39 65 32 66 33 67 37 68
REMARK SMILES IDX 40 69 34 70 35 71 38 72 36 73 62 74 63 75 71 76 64 77 65 78
REMARK SMILES IDX 69 79 72 80 66 81 67 82 70 83 68 84 47 85 48 86 56 87 49 88
REMARK SMILES IDX 50 89 54 90 57 91 51 92 52 93 55 94 53 95
REMARK H PARENT 13 6 1 20 1 21 18 29 77 48 45 59
REMARK Flexibility Score: inf
ROOT
ATOM      1  C   UNL A   1      31.762  30.385  25.849  1.00  0.00     0.023 C 
ENDROOT
BRANCH   1   2
ATOM      2  C   UNL A   1      31.774  29.111  26.692  1.00  0.00     0.116 C 
BRANCH   2   3
ATOM      3  N   UNL A   1      32.905  28.273  26.370  1.00  0.00    -0.354 N 
ATOM      4  C   UNL A   1      32.998  26.978  25.964  1.00  0.00     0.245 C 
ATOM      5  O   UNL A   1      34.157  26.587  25.750  1.00  0.00    -0.273 OA
ATOM      6  H   UNL A   1      33.775  28.726  26.462  1.00  0.00     0.163 HD
BRANCH   4   7
ATOM      7  C   UNL A   1      31.804  26.044  25.655  1.00  0.00     0.199 C 
ATOM      8  N   UNL A   1      31.330  25.981  24.251  1.00  0.00    -0.340 N 
ATOM      9  C   UNL A   1      31.805  24.901  23.397  1.00  0.00     0.147 C 
ATOM     10  C   UNL A   1      31.801  23.569  24.147  1.00  0.00     0.181 C 
ATOM     11  C   UNL A   1      31.964  24.631  26.260  1.00  0.00     0.195 C 
ATOM     12  O   UNL A   1      32.530  23.648  25.376  1.00  0.00    -0.377 OA
BRANCH   8  13
ATOM     13  C   UNL A   1      30.504  26.971  23.760  1.00  0.00     0.132 A 
ATOM     14  C   UNL A   1      30.249  28.978  22.567  1.00  0.00     0.204 A 
ATOM     15  N   UNL A   1      31.046  28.023  23.112  1.00  0.00    -0.207 NA
ATOM     16  C   UNL A   1      28.865  28.908  22.674  1.00  0.00     0.311 A 
ATOM     17  C   UNL A   1      28.289  27.867  23.395  1.00  0.00     0.093 A 
ATOM     18  C   UNL A   1      29.123  26.899  23.942  1.00  0.00     0.054 A 
BRANCH  14  19
ATOM     19  N   UNL A   1      30.928  29.930  21.834  1.00  0.00    -0.378 N 
ATOM     20  H   UNL A   1      30.532  30.291  21.009  1.00  0.00     0.158 HD
ATOM     21  H   UNL A   1      31.810  30.248  22.136  1.00  0.00     0.158 HD
ENDBRANCH  14  19
BRANCH  16  22
ATOM     22  N   UNL A   1      27.990  29.896  22.060  1.00  0.00     0.066 N 
ATOM     23  O   UNL A   1      27.204  30.500  22.807  1.00  0.00    -0.258 OA
ATOM     24  O   UNL A   1      28.098  30.109  20.843  1.00  0.00    -0.258 OA
ENDBRANCH  16  22
ENDBRANCH   8  13
ENDBRANCH   4   7
ENDBRANCH   2   3
ENDBRANCH   1   2
BRANCH   1  25
ATOM     25  C   UNL A   1      31.457  31.658  26.632  1.00  0.00     0.023 C 
BRANCH  25  26
ATOM     26  C   UNL A   1      32.689  32.429  27.092  1.00  0.00     0.116 C 
BRANCH  26  27
ATOM     27  N   UNL A   1      32.421  33.803  27.494  1.00  0.00    -0.352 N 
ATOM     28  C   UNL A   1      33.085  34.559  28.434  1.00  0.00     0.251 C 
ATOM     29  H   UNL A   1      31.670  34.246  27.036  1.00  0.00     0.163 HD
ATOM     30  O   UNL A   1      32.701  35.681  28.723  1.00  0.00    -0.269 OA
BRANCH  28  31
ATOM     31  C   UNL A   1      34.252  33.968  29.120  1.00  0.00     0.039 A 
ATOM     32  C   UNL A   1      34.040  33.001  30.105  1.00  0.00     0.014 A 
ATOM     33  C   UNL A   1      35.548  34.325  28.743  1.00  0.00     0.014 A 
ATOM     34  C   UNL A   1      35.137  32.348  30.671  1.00  0.00     0.010 A 
ATOM     35  C   UNL A   1      36.629  33.607  29.236  1.00  0.00     0.010 A 
ATOM     36  C   UNL A   1      36.436  32.626  30.219  1.00  0.00    -0.014 A 
BRANCH  36  37
ATOM     37  C   UNL A   1      37.619  31.946  30.805  1.00  0.00     0.031 A 
ATOM     38  C   UNL A   1      38.062  32.306  32.197  1.00  0.00     0.074 A 
ATOM     39  C   UNL A   1      38.316  31.054  30.077  1.00  0.00     0.049 A 
ATOM     40  N   UNL A   1      39.097  31.880  32.876  1.00  0.00    -0.248 NA
ATOM     41  C   UNL A   1      37.254  33.311  32.908  1.00  0.00     0.031 C 
ATOM     42  C   UNL A   1      38.019  30.664  28.698  1.00  0.00     0.029 A 
ATOM     43  N   UNL A   1      39.423  30.310  30.401  1.00  0.00    -0.354 N 
ATOM     44  C   UNL A   1      39.069  32.575  34.078  1.00  0.00     0.074 A 
ATOM     45  C   UNL A   1      37.964  33.504  34.008  1.00  0.00     0.031 C 
ATOM     46  C   UNL A   1      38.899  29.727  28.306  1.00  0.00     0.029 A 
ATOM     47  C   UNL A   1      39.836  29.471  29.395  1.00  0.00     0.049 A 
ATOM     48  H   UNL A   1      39.877  30.372  31.272  1.00  0.00     0.167 HD
ATOM     49  C   UNL A   1      39.866  32.425  35.162  1.00  0.00     0.037 A 
ATOM     50  C   UNL A   1      40.852  28.587  29.368  1.00  0.00     0.037 A 
ATOM     51  C   UNL A   1      40.939  31.472  35.244  1.00  0.00     0.049 A 
ATOM     52  C   UNL A   1      41.707  28.421  30.596  1.00  0.00     0.074 A 
ATOM     53  C   UNL A   1      41.791  31.215  36.303  1.00  0.00     0.029 A 
ATOM     54  N   UNL A   1      41.298  30.605  34.221  1.00  0.00    -0.354 N 
ATOM     55  N   UNL A   1      41.637  29.043  31.748  1.00  0.00    -0.248 NA
ATOM     56  C   UNL A   1      42.774  27.413  30.525  1.00  0.00     0.031 C 
ATOM     57  C   UNL A   1      42.681  30.209  35.912  1.00  0.00     0.029 A 
ATOM     58  C   UNL A   1      42.355  29.810  34.625  1.00  0.00     0.049 A 
ATOM     59  H   UNL A   1      40.864  30.564  33.338  1.00  0.00     0.167 HD
ATOM     60  C   UNL A   1      42.618  28.475  32.550  1.00  0.00     0.074 A 
ATOM     61  C   UNL A   1      43.260  27.448  31.756  1.00  0.00     0.031 C 
ATOM     62  C   UNL A   1      42.958  28.774  33.828  1.00  0.00     0.037 A 
BRANCH  49  63
ATOM     63  C   UNL A   1      39.583  33.298  36.350  1.00  0.00     0.064 A 
ATOM     64  C   UNL A   1      38.706  32.887  37.368  1.00  0.00     0.173 A 
ATOM     65  C   UNL A   1      40.196  34.552  36.482  1.00  0.00     0.173 A 
ATOM     66  F   UNL A   1      38.079  31.703  37.281  1.00  0.00    -0.203 F 
ATOM     67  C   UNL A   1      38.428  33.713  38.452  1.00  0.00     0.198 A 
ATOM     68  C   UNL A   1      39.941  35.362  37.586  1.00  0.00     0.198 A 
ATOM     69  F   UNL A   1      41.043  34.994  35.540  1.00  0.00    -0.203 F 
ATOM     70  F   UNL A   1      37.541  33.323  39.379  1.00  0.00    -0.200 F 
ATOM     71  C   UNL A   1      39.050  34.946  38.564  1.00  0.00     0.200 A 
ATOM     72  F   UNL A   1      40.550  36.550  37.698  1.00  0.00    -0.200 F 
ATOM     73  F   UNL A   1      38.783  35.740  39.611  1.00  0.00    -0.200 F 
ENDBRANCH  49  63
BRANCH  50  74
ATOM     74  C   UNL A   1      41.085  27.747  28.164  1.00  0.00     0.064 A 
ATOM     75  C   UNL A   1      40.527  26.463  28.068  1.00  0.00     0.173 A 
ATOM     76  C   UNL A   1      41.891  28.187  27.105  1.00  0.00     0.173 A 
ATOM     77  F   UNL A   1      39.765  25.989  29.066  1.00  0.00    -0.203 F 
ATOM     78  C   UNL A   1      40.794  25.640  26.977  1.00  0.00     0.198 A 
ATOM     79  C   UNL A   1      42.134  27.372  25.999  1.00  0.00     0.198 A 
ATOM     80  F   UNL A   1      42.443  29.408  27.144  1.00  0.00    -0.203 F 
ATOM     81  F   UNL A   1      40.295  24.396  26.941  1.00  0.00    -0.200 F 
ATOM     82  C   UNL A   1      41.595  26.096  25.942  1.00  0.00     0.200 A 
ATOM     83  F   UNL A   1      42.898  27.822  24.995  1.00  0.00    -0.200 F 
ATOM     84  F   UNL A   1      41.856  25.302  24.895  1.00  0.00    -0.200 F 
ENDBRANCH  50  74
BRANCH  62  85
ATOM     85  C   UNL A   1      44.028  27.936  34.465  1.00  0.00     0.064 A 
ATOM     86  C   UNL A   1      45.378  28.313  34.440  1.00  0.00     0.173 A 
ATOM     87  C   UNL A   1      43.688  26.744  35.124  1.00  0.00     0.173 A 
ATOM     88  F   UNL A   1      45.753  29.437  33.809  1.00  0.00    -0.203 F 
ATOM     89  C   UNL A   1      46.355  27.509  35.020  1.00  0.00     0.198 A 
ATOM     90  C   UNL A   1      44.665  25.960  35.731  1.00  0.00     0.198 A 
ATOM     91  F   UNL A   1      42.410  26.344  35.184  1.00  0.00    -0.203 F 
ATOM     92  F   UNL A   1      47.645  27.860  34.932  1.00  0.00    -0.200 F 
ATOM     93  C   UNL A   1      45.998  26.336  35.668  1.00  0.00     0.200 A 
ATOM     94  F   UNL A   1      44.316  24.833  36.369  1.00  0.00    -0.200 F 
ATOM     95  F   UNL A   1      46.940  25.564  36.225  1.00  0.00    -0.200 F 
ENDBRANCH  62  85
ENDBRANCH  36  37
ENDBRANCH  28  31
ENDBRANCH  26  27
ENDBRANCH  25  26
ENDBRANCH   1  25
TORSDOF 14
ENDMDL
MODEL 2
REMARK VINA RESULT:     -12.6      5.698     11.220
REMARK SMILES Nc1nc(N2CCOC[C@H]2C(=O)NCCCCNC(=O)c2ccc(-c3c4nc(c(-c5c(F)c(F)c(F)c(F)c5F)c5ccc([nH]5)c(-c5c(F)c(F)c(F)c(F)c5F)c5nc(c(-c6c(F)c(F)c(F)c(F)c6F)c6ccc3[nH]6)C=C5)C=C4)cc2)ccc1[N+](=O)[O-]
REMARK SMILES IDX 15 1 14 2 13 3 11 4 12 5 10 7 5 8 6 9 7 10 9 11 8 12 4 13
REMARK SMILES IDX 2 14 3 15 86 16 85 17 84 18 1 19 87 22 88 23 89 24 16 25
REMARK SMILES IDX 17 26 18 27 19 28 20 30 21 31 22 32 83 33 23 34 82 35 24 36
REMARK SMILES IDX 25 37 26 38 76 39 27 40 81 41 75 42 77 43 28 44 80 45 74 46
REMARK SMILES IDX 73 47 29 49 61 50 41 51 60 52 42 53 45 54 59 55 78 56 43 57
REMARK SMILES IDX 44 58 58 60 79 61 46 62 30 63 31 64 39 65 32 66 33 67 37 68
REMARK SMILES IDX 40 69 34 70 35 71 38 72 36 73 62 74 63 75 71 76 64 77 65 78
REMARK SMILES IDX 69 79 72 80 66 81 67 82 70 83 68 84 47 85 48 86 56 87 49 88
REMARK SMILES IDX 50 89 54 90 57 91 51 92 52 93 55 94 53 95
REMARK H PARENT 13 6 1 20 1 21 18 29 77 48 45 59
REMARK Flexibility Score: inf
ROOT
ATOM      1  C   UNL A   1      36.764  20.543  25.031  1.00  0.00     0.023 C 
ENDROOT
BRANCH   1   2
ATOM      2  C   UNL A   1      36.815  22.024  25.402  1.00  0.00     0.116 C 
BRANCH   2   3
ATOM      3  N   UNL A   1      35.878  22.339  26.455  1.00  0.00    -0.354 N 
ATOM      4  C   UNL A   1      34.554  22.651  26.439  1.00  0.00     0.245 C 
ATOM      5  O   UNL A   1      34.056  22.840  27.560  1.00  0.00    -0.273 OA
ATOM      6  H   UNL A   1      36.274  22.325  27.357  1.00  0.00     0.163 HD
BRANCH   4   7
ATOM      7  C   UNL A   1      33.649  22.669  25.184  1.00  0.00     0.199 C 
ATOM      8  N   UNL A   1      32.502  21.730  25.154  1.00  0.00    -0.340 N 
ATOM      9  C   UNL A   1      31.186  22.217  25.548  1.00  0.00     0.147 C 
ATOM     10  C   UNL A   1      30.914  23.598  24.954  1.00  0.00     0.181 C 
ATOM     11  C   UNL A   1      33.224  24.093  24.761  1.00  0.00     0.195 C 
ATOM     12  O   UNL A   1      31.953  24.529  25.273  1.00  0.00    -0.377 OA
BRANCH   8  13
ATOM     13  C   UNL A   1      32.704  20.408  24.819  1.00  0.00     0.132 A 
ATOM     14  C   UNL A   1      32.553  18.682  23.233  1.00  0.00     0.204 A 
ATOM     15  N   UNL A   1      32.309  19.965  23.607  1.00  0.00    -0.207 NA
ATOM     16  C   UNL A   1      33.197  17.792  24.086  1.00  0.00     0.311 A 
ATOM     17  C   UNL A   1      33.552  18.211  25.364  1.00  0.00     0.093 A 
ATOM     18  C   UNL A   1      33.296  19.528  25.726  1.00  0.00     0.054 A 
BRANCH  14  19
ATOM     19  N   UNL A   1      32.203  18.398  21.928  1.00  0.00    -0.378 N 
ATOM     20  H   UNL A   1      31.303  18.057  21.723  1.00  0.00     0.158 HD
ATOM     21  H   UNL A   1      32.855  18.535  21.203  1.00  0.00     0.158 HD
ENDBRANCH  14  19
BRANCH  16  22
ATOM     22  N   UNL A   1      33.507  16.427  23.689  1.00  0.00     0.066 N 
ATOM     23  O   UNL A   1      33.091  15.515  24.420  1.00  0.00    -0.258 OA
ATOM     24  O   UNL A   1      34.133  16.244  22.634  1.00  0.00    -0.258 OA
ENDBRANCH  16  22
ENDBRANCH   8  13
ENDBRANCH   4   7
ENDBRANCH   2   3
ENDBRANCH   1   2
BRANCH   1  25
ATOM     25  C   UNL A   1      38.124  19.917  24.741  1.00  0.00     0.023 C 
BRANCH  25  26
ATOM     26  C   UNL A   1      39.178  20.168  25.813  1.00  0.00     0.116 C 
BRANCH  26  27
ATOM     27  N   UNL A   1      40.215  19.148  25.884  1.00  0.00    -0.352 N 
ATOM     28  C   UNL A   1      41.556  19.316  26.153  1.00  0.00     0.251 C 
ATOM     29  H   UNL A   1      39.921  18.223  25.720  1.00  0.00     0.163 HD
ATOM     30  O   UNL A   1      42.328  18.372  26.107  1.00  0.00    -0.269 OA
BRANCH  28  31
ATOM     31  C   UNL A   1      42.051  20.674  26.458  1.00  0.00     0.039 A 
ATOM     32  C   UNL A   1      42.250  21.574  25.409  1.00  0.00     0.014 A 
ATOM     33  C   UNL A   1      42.255  21.070  27.782  1.00  0.00     0.014 A 
ATOM     34  C   UNL A   1      42.598  22.895  25.696  1.00  0.00     0.010 A 
ATOM     35  C   UNL A   1      42.505  22.405  28.068  1.00  0.00     0.010 A 
ATOM     36  C   UNL A   1      42.699  23.326  27.028  1.00  0.00    -0.014 A 
BRANCH  36  37
ATOM     37  C   UNL A   1      43.069  24.725  27.360  1.00  0.00     0.031 A 
ATOM     38  C   UNL A   1      44.471  25.202  27.091  1.00  0.00     0.074 A 
ATOM     39  C   UNL A   1      42.172  25.542  27.944  1.00  0.00     0.049 A 
ATOM     40  N   UNL A   1      45.020  26.360  27.355  1.00  0.00    -0.248 NA
ATOM     41  C   UNL A   1      45.391  24.231  26.474  1.00  0.00     0.031 C 
ATOM     42  C   UNL A   1      40.801  25.179  28.307  1.00  0.00     0.029 A 
ATOM     43  N   UNL A   1      42.282  26.853  28.333  1.00  0.00    -0.354 N 
ATOM     44  C   UNL A   1      46.345  26.247  26.954  1.00  0.00     0.074 A 
ATOM     45  C   UNL A   1      46.539  24.888  26.500  1.00  0.00     0.031 C 
ATOM     46  C   UNL A   1      40.186  26.251  28.833  1.00  0.00     0.029 A 
ATOM     47  C   UNL A   1      41.126  27.367  28.869  1.00  0.00     0.049 A 
ATOM     48  H   UNL A   1      43.111  27.375  28.238  1.00  0.00     0.167 HD
ATOM     49  C   UNL A   1      47.305  27.200  26.926  1.00  0.00     0.037 A 
ATOM     50  C   UNL A   1      40.860  28.606  29.324  1.00  0.00     0.037 A 
ATOM     51  C   UNL A   1      47.099  28.561  27.341  1.00  0.00     0.049 A 
ATOM     52  C   UNL A   1      41.939  29.655  29.258  1.00  0.00     0.074 A 
ATOM     53  C   UNL A   1      47.993  29.616  27.329  1.00  0.00     0.029 A 
ATOM     54  N   UNL A   1      45.900  29.057  27.834  1.00  0.00    -0.354 N 
ATOM     55  N   UNL A   1      43.172  29.553  28.824  1.00  0.00    -0.248 NA
ATOM     56  C   UNL A   1      41.580  31.000  29.729  1.00  0.00     0.031 C 
ATOM     57  C   UNL A   1      47.342  30.745  27.837  1.00  0.00     0.029 A 
ATOM     58  C   UNL A   1      46.030  30.403  28.124  1.00  0.00     0.049 A 
ATOM     59  H   UNL A   1      45.079  28.528  27.959  1.00  0.00     0.167 HD
ATOM     60  C   UNL A   1      43.720  30.824  28.930  1.00  0.00     0.074 A 
ATOM     61  C   UNL A   1      42.681  31.683  29.456  1.00  0.00     0.031 C 
ATOM     62  C   UNL A   1      44.972  31.244  28.620  1.00  0.00     0.037 A 
BRANCH  49  63
ATOM     63  C   UNL A   1      48.656  26.801  26.405  1.00  0.00     0.064 A 
ATOM     64  C   UNL A   1      49.016  27.017  25.065  1.00  0.00     0.173 A 
ATOM     65  C   UNL A   1      49.604  26.205  27.249  1.00  0.00     0.173 A 
ATOM     66  F   UNL A   1      48.139  27.567  24.211  1.00  0.00    -0.203 F 
ATOM     67  C   UNL A   1      50.259  26.619  24.583  1.00  0.00     0.198 A 
ATOM     68  C   UNL A   1      50.860  25.839  26.771  1.00  0.00     0.198 A 
ATOM     69  F   UNL A   1      49.313  25.976  28.539  1.00  0.00    -0.203 F 
ATOM     70  F   UNL A   1      50.556  26.782  23.286  1.00  0.00    -0.200 F 
ATOM     71  C   UNL A   1      51.182  26.037  25.437  1.00  0.00     0.200 A 
ATOM     72  F   UNL A   1      51.755  25.285  27.600  1.00  0.00    -0.200 F 
ATOM     73  F   UNL A   1      52.380  25.658  24.972  1.00  0.00    -0.200 F 
ENDBRANCH  49  63
BRANCH  50  74
ATOM     74  C   UNL A   1      39.504  28.947  29.828  1.00  0.00     0.064 A 
ATOM     75  C   UNL A   1      39.156  28.707  31.167  1.00  0.00     0.173 A 
ATOM     76  C   UNL A   1      38.520  29.485  28.987  1.00  0.00     0.173 A 
ATOM     77  F   UNL A   1      40.058  28.175  32.006  1.00  0.00    -0.203 F 
ATOM     78  C   UNL A   1      37.869  28.958  31.634  1.00  0.00     0.198 A 
ATOM     79  C   UNL A   1      37.239  29.763  29.464  1.00  0.00     0.198 A 
ATOM     80  F   UNL A   1      38.802  29.739  27.701  1.00  0.00    -0.203 F 
ATOM     81  F   UNL A   1      37.549  28.663  32.902  1.00  0.00    -0.200 F 
ATOM     82  C   UNL A   1      36.912  29.489  30.783  1.00  0.00     0.200 A 
ATOM     83  F   UNL A   1      36.321  30.287  28.641  1.00  0.00    -0.200 F 
ATOM     84  F   UNL A   1      35.671  29.725  31.231  1.00  0.00    -0.200 F 
ENDBRANCH  50  74
BRANCH  62  85
ATOM     85  C   UNL A   1      45.260  32.708  28.780  1.00  0.00     0.064 A 
ATOM     86  C   UNL A   1      45.799  33.232  29.963  1.00  0.00     0.173 A 
ATOM     87  C   UNL A   1      45.008  33.595  27.721  1.00  0.00     0.173 A 
ATOM     88  F   UNL A   1      46.045  32.427  31.008  1.00  0.00    -0.203 F 
ATOM     89  C   UNL A   1      46.039  34.597  30.095  1.00  0.00     0.198 A 
ATOM     90  C   UNL A   1      45.279  34.954  27.846  1.00  0.00     0.198 A 
ATOM     91  F   UNL A   1      44.501  33.142  26.565  1.00  0.00    -0.203 F 
ATOM     92  F   UNL A   1      46.498  35.084  31.256  1.00  0.00    -0.200 F 
ATOM     93  C   UNL A   1      45.784  35.455  29.037  1.00  0.00     0.200 A 
ATOM     94  F   UNL A   1      45.045  35.780  26.817  1.00  0.00    -0.200 F 
ATOM     95  F   UNL A   1      46.016  36.769  29.166  1.00  0.00    -0.200 F 
ENDBRANCH  62  85
ENDBRANCH  36  37
ENDBRANCH  28  31
ENDBRANCH  26  27
ENDBRANCH  25  26
ENDBRANCH   1  25
TORSDOF 14
ENDMDL
MODEL 3
REMARK VINA RESULT:     -12.5      1.784      2.626
REMARK SMILES Nc1nc(N2CCOC[C@H]2C(=O)NCCCCNC(=O)c2ccc(-c3c4nc(c(-c5c(F)c(F)c(F)c(F)c5F)c5ccc([nH]5)c(-c5c(F)c(F)c(F)c(F)c5F)c5nc(c(-c6c(F)c(F)c(F)c(F)c6F)c6ccc3[nH]6)C=C5)C=C4)cc2)ccc1[N+](=O)[O-]
REMARK SMILES IDX 15 1 14 2 13 3 11 4 12 5 10 7 5 8 6 9 7 10 9 11 8 12 4 13
REMARK SMILES IDX 2 14 3 15 86 16 85 17 84 18 1 19 87 22 88 23 89 24 16 25
REMARK SMILES IDX 17 26 18 27 19 28 20 30 21 31 22 32 83 33 23 34 82 35 24 36
REMARK SMILES IDX 25 37 26 38 76 39 27 40 81 41 75 42 77 43 28 44 80 45 74 46
REMARK SMILES IDX 73 47 29 49 61 50 41 51 60 52 42 53 45 54 59 55 78 56 43 57
REMARK SMILES IDX 44 58 58 60 79 61 46 62 30 63 31 64 39 65 32 66 33 67 37 68
REMARK SMILES IDX 40 69 34 70 35 71 38 72 36 73 62 74 63 75 71 76 64 77 65 78
REMARK SMILES IDX 69 79 72 80 66 81 67 82 70 83 68 84 47 85 48 86 56 87 49 88
REMARK SMILES IDX 50 89 54 90 57 91 51 92 52 93 55 94 53 95
REMARK H PARENT 13 6 1 20 1 21 18 29 77 48 45 59
REMARK Flexibility Score: inf
ROOT
ATOM      1  C   UNL A   1      33.651  26.939  26.242  1.00  0.00     0.023 C 
ENDROOT
BRANCH   1   2
ATOM      2  C   UNL A   1      32.957  25.619  25.909  1.00  0.00     0.116 C 
BRANCH   2   3
ATOM      3  N   UNL A   1      31.583  25.617  26.350  1.00  0.00    -0.354 N 
ATOM      4  C   UNL A   1      30.403  25.600  25.671  1.00  0.00     0.245 C 
ATOM      5  O   UNL A   1      29.393  25.577  26.392  1.00  0.00    -0.273 OA
ATOM      6  H   UNL A   1      31.478  25.631  27.330  1.00  0.00     0.163 HD
BRANCH   4   7
ATOM      7  C   UNL A   1      30.252  25.493  24.134  1.00  0.00     0.199 C 
ATOM      8  N   UNL A   1      30.772  26.616  23.317  1.00  0.00    -0.340 N 
ATOM      9  C   UNL A   1      32.103  26.502  22.734  1.00  0.00     0.147 C 
ATOM     10  C   UNL A   1      32.325  25.109  22.147  1.00  0.00     0.181 C 
ATOM     11  C   UNL A   1      30.705  24.128  23.572  1.00  0.00     0.195 C 
ATOM     12  O   UNL A   1      32.065  24.079  23.106  1.00  0.00    -0.377 OA
BRANCH   8  13
ATOM     13  C   UNL A   1      30.024  27.765  23.172  1.00  0.00     0.132 A 
ATOM     14  C   UNL A   1      27.919  28.800  23.045  1.00  0.00     0.204 A 
ATOM     15  N   UNL A   1      28.678  27.677  23.126  1.00  0.00    -0.207 NA
ATOM     16  C   UNL A   1      28.502  30.061  22.992  1.00  0.00     0.311 A 
ATOM     17  C   UNL A   1      29.889  30.170  22.970  1.00  0.00     0.093 A 
ATOM     18  C   UNL A   1      30.647  29.008  23.057  1.00  0.00     0.054 A 
BRANCH  14  19
ATOM     19  N   UNL A   1      26.560  28.571  23.126  1.00  0.00    -0.378 N 
ATOM     20  H   UNL A   1      25.957  29.290  23.422  1.00  0.00     0.158 HD
ATOM     21  H   UNL A   1      26.195  27.688  22.888  1.00  0.00     0.158 HD
ENDBRANCH  14  19
BRANCH  16  22
ATOM     22  N   UNL A   1      27.707  31.280  22.949  1.00  0.00     0.066 N 
ATOM     23  O   UNL A   1      26.903  31.465  23.877  1.00  0.00    -0.258 OA
ATOM     24  O   UNL A   1      27.896  32.079  22.021  1.00  0.00    -0.258 OA
ENDBRANCH  16  22
ENDBRANCH   8  13
ENDBRANCH   4   7
ENDBRANCH   2   3
ENDBRANCH   1   2
BRANCH   1  25
ATOM     25  C   UNL A   1      32.771  28.174  26.074  1.00  0.00     0.023 C 
BRANCH  25  26
ATOM     26  C   UNL A   1      33.515  29.423  25.612  1.00  0.00     0.116 C 
BRANCH  26  27
ATOM     27  N   UNL A   1      33.008  30.665  26.177  1.00  0.00    -0.352 N 
ATOM     28  C   UNL A   1      33.539  31.410  27.207  1.00  0.00     0.251 C 
ATOM     29  H   UNL A   1      32.181  31.017  25.773  1.00  0.00     0.163 HD
ATOM     30  O   UNL A   1      32.963  32.399  27.629  1.00  0.00    -0.269 OA
BRANCH  28  31
ATOM     31  C   UNL A   1      34.805  30.962  27.822  1.00  0.00     0.039 A 
ATOM     32  C   UNL A   1      35.875  31.856  27.900  1.00  0.00     0.014 A 
ATOM     33  C   UNL A   1      34.908  29.682  28.374  1.00  0.00     0.014 A 
ATOM     34  C   UNL A   1      37.031  31.484  28.588  1.00  0.00     0.010 A 
ATOM     35  C   UNL A   1      36.018  29.352  29.139  1.00  0.00     0.010 A 
ATOM     36  C   UNL A   1      37.099  30.241  29.237  1.00  0.00    -0.014 A 
BRANCH  36  37
ATOM     37  C   UNL A   1      38.317  29.821  29.973  1.00  0.00     0.031 A 
ATOM     38  C   UNL A   1      38.554  30.340  31.366  1.00  0.00     0.074 A 
ATOM     39  C   UNL A   1      39.224  29.022  29.381  1.00  0.00     0.049 A 
ATOM     40  N   UNL A   1      39.575  30.148  32.162  1.00  0.00    -0.248 NA
ATOM     41  C   UNL A   1      37.520  31.229  31.924  1.00  0.00     0.031 C 
ATOM     42  C   UNL A   1      39.135  28.500  28.016  1.00  0.00     0.029 A 
ATOM     43  N   UNL A   1      40.405  28.508  29.856  1.00  0.00    -0.354 N 
ATOM     44  C   UNL A   1      39.312  30.902  33.298  1.00  0.00     0.074 A 
ATOM     45  C   UNL A   1      38.076  31.614  33.061  1.00  0.00     0.031 C 
ATOM     46  C   UNL A   1      40.196  27.711  27.776  1.00  0.00     0.029 A 
ATOM     47  C   UNL A   1      41.052  27.694  28.958  1.00  0.00     0.049 A 
ATOM     48  H   UNL A   1      40.754  28.705  30.754  1.00  0.00     0.167 HD
ATOM     49  C   UNL A   1      40.013  30.964  34.454  1.00  0.00     0.037 A 
ATOM     50  C   UNL A   1      42.201  27.004  29.088  1.00  0.00     0.037 A 
ATOM     51  C   UNL A   1      41.220  30.224  34.703  1.00  0.00     0.049 A 
ATOM     52  C   UNL A   1      42.948  27.071  30.394  1.00  0.00     0.074 A 
ATOM     53  C   UNL A   1      41.995  30.190  35.847  1.00  0.00     0.029 A 
ATOM     54  N   UNL A   1      41.819  29.372  33.786  1.00  0.00    -0.354 N 
ATOM     55  N   UNL A   1      42.660  27.742  31.482  1.00  0.00    -0.248 NA
ATOM     56  C   UNL A   1      44.173  26.265  30.493  1.00  0.00     0.031 C 
ATOM     57  C   UNL A   1      43.078  29.335  35.615  1.00  0.00     0.029 A 
ATOM     58  C   UNL A   1      42.953  28.804  34.341  1.00  0.00     0.049 A 
ATOM     59  H   UNL A   1      41.487  29.198  32.876  1.00  0.00     0.167 HD
ATOM     60  C   UNL A   1      43.641  27.408  32.407  1.00  0.00     0.074 A 
ATOM     61  C   UNL A   1      44.524  26.464  31.755  1.00  0.00     0.031 C 
ATOM     62  C   UNL A   1      43.799  27.844  33.682  1.00  0.00     0.037 A 
BRANCH  49  63
ATOM     63  C   UNL A   1      39.469  31.846  35.541  1.00  0.00     0.064 A 
ATOM     64  C   UNL A   1      38.569  31.355  36.501  1.00  0.00     0.173 A 
ATOM     65  C   UNL A   1      39.856  33.191  35.635  1.00  0.00     0.173 A 
ATOM     66  F   UNL A   1      38.152  30.080  36.445  1.00  0.00    -0.203 F 
ATOM     67  C   UNL A   1      38.049  32.186  37.488  1.00  0.00     0.198 A 
ATOM     68  C   UNL A   1      39.360  34.011  36.645  1.00  0.00     0.198 A 
ATOM     69  F   UNL A   1      40.716  33.711  34.746  1.00  0.00    -0.203 F 
ATOM     70  F   UNL A   1      37.144  31.709  38.354  1.00  0.00    -0.200 F 
ATOM     71  C   UNL A   1      38.450  33.510  37.564  1.00  0.00     0.200 A 
ATOM     72  F   UNL A   1      39.755  35.288  36.724  1.00  0.00    -0.200 F 
ATOM     73  F   UNL A   1      37.951  34.308  38.518  1.00  0.00    -0.200 F 
ENDBRANCH  49  63
BRANCH  50  74
ATOM     74  C   UNL A   1      42.691  26.145  27.979  1.00  0.00     0.064 A 
ATOM     75  C   UNL A   1      43.579  26.653  27.018  1.00  0.00     0.173 A 
ATOM     76  C   UNL A   1      42.265  24.817  27.832  1.00  0.00     0.173 A 
ATOM     77  F   UNL A   1      44.001  27.923  27.104  1.00  0.00    -0.203 F 
ATOM     78  C   UNL A   1      43.992  25.878  25.937  1.00  0.00     0.198 A 
ATOM     79  C   UNL A   1      42.702  24.034  26.765  1.00  0.00     0.198 A 
ATOM     80  F   UNL A   1      41.421  24.281  28.727  1.00  0.00    -0.203 F 
ATOM     81  F   UNL A   1      44.793  26.410  25.002  1.00  0.00    -0.200 F 
ATOM     82  C   UNL A   1      43.556  24.569  25.812  1.00  0.00     0.200 A 
ATOM     83  F   UNL A   1      42.287  22.765  26.656  1.00  0.00    -0.200 F 
ATOM     84  F   UNL A   1      43.948  23.826  24.769  1.00  0.00    -0.200 F 
ENDBRANCH  50  74
BRANCH  62  85
ATOM     85  C   UNL A   1      44.928  27.250  34.472  1.00  0.00     0.064 A 
ATOM     86  C   UNL A   1      46.201  27.837  34.500  1.00  0.00     0.173 A 
ATOM     87  C   UNL A   1      44.723  26.084  35.226  1.00  0.00     0.173 A 
ATOM     88  F   UNL A   1      46.450  28.944  33.784  1.00  0.00    -0.203 F 
ATOM     89  C   UNL A   1      47.239  27.256  35.223  1.00  0.00     0.198 A 
ATOM     90  C   UNL A   1      45.755  25.525  35.974  1.00  0.00     0.198 A 
ATOM     91  F   UNL A   1      43.521  25.489  35.240  1.00  0.00    -0.203 F 
ATOM     92  F   UNL A   1      48.463  27.801  35.187  1.00  0.00    -0.200 F 
ATOM     93  C   UNL A   1      47.015  26.105  35.963  1.00  0.00     0.200 A 
ATOM     94  F   UNL A   1      45.533  24.420  36.699  1.00  0.00    -0.200 F 
ATOM     95  F   UNL A   1      48.015  25.549  36.659  1.00  0.00    -0.200 F 
ENDBRANCH  62  85
ENDBRANCH  36  37
ENDBRANCH  28  31
ENDBRANCH  26  27
ENDBRANCH  25  26
ENDBRANCH   1  25
TORSDOF 14
ENDMDL
