MODEL 1
REMARK VINA RESULT:     -12.6      0.000      0.000
REMARK SMILES O=C(NCCCCNC(=O)C1CCN(C(=O)COc2ccc(Cl)cc2Cl)CC1)c1ccc(-c2c3nc(c(-c4c(F)c(F)c(F)c(F)c4F)c4ccc([nH]4)c(-c4c(F)c(F)c(F)c(F)c4F)c4nc(c(-c5c(F)c(F)c(F)c(F)c5F)c5ccc2[nH]5)C=C4)C=C3)cc1
REMARK SMILES IDX 6 1 5 2 4 3 3 4 1 5 2 6 29 8 30 9 91 10 31 11 90 12 32 13
REMARK SMILES IDX 33 14 34 15 84 16 35 17 89 18 83 19 85 20 36 21 88 22 82 23
REMARK SMILES IDX 81 24 37 26 69 27 49 28 68 29 50 30 53 31 67 32 86 33 51 34
REMARK SMILES IDX 52 35 66 37 87 38 54 39 38 40 39 41 47 42 40 43 41 44 45 45
REMARK SMILES IDX 48 46 42 47 43 48 46 49 44 50 70 51 71 52 79 53 72 54 73 55
REMARK SMILES IDX 77 56 80 57 74 58 75 59 78 60 76 61 55 62 56 63 64 64 57 65
REMARK SMILES IDX 58 66 62 67 65 68 59 69 60 70 63 71 61 72 7 73 8 74 9 75
REMARK SMILES IDX 10 77 11 78 12 79 28 80 13 81 27 82 14 83 15 84 16 85 17 86
REMARK SMILES IDX 18 87 19 88 20 89 25 90 21 91 24 92 26 93 22 94 23 95
REMARK H PARENT 3 7 85 25 53 36 8 76
REMARK Flexibility Score: inf
ROOT
ATOM      1  C   UNL A   1      37.350  21.053  24.677  1.00  0.00     0.023 C 
ENDROOT
BRANCH   1   2
ATOM      2  C   UNL A   1      38.226  19.853  25.020  1.00  0.00     0.023 C 
BRANCH   2   3
ATOM      3  C   UNL A   1      39.461  20.174  25.848  1.00  0.00     0.116 C 
BRANCH   3   4
ATOM      4  N   UNL A   1      40.456  19.112  25.832  1.00  0.00    -0.352 N 
ATOM      5  O   UNL A   1      42.523  18.201  25.898  1.00  0.00    -0.269 OA
ATOM      6  C   UNL A   1      41.810  19.185  26.067  1.00  0.00     0.251 C 
ATOM      7  H   UNL A   1      40.113  18.213  25.623  1.00  0.00     0.163 HD
BRANCH   6   8
ATOM      8  C   UNL A   1      42.407  20.471  26.484  1.00  0.00     0.039 A 
ATOM      9  C   UNL A   1      42.344  20.882  27.816  1.00  0.00     0.014 A 
ATOM     10  C   UNL A   1      42.998  21.292  25.521  1.00  0.00     0.014 A 
ATOM     11  C   UNL A   1      42.698  22.184  28.148  1.00  0.00     0.010 A 
ATOM     12  C   UNL A   1      43.445  22.568  25.878  1.00  0.00     0.010 A 
ATOM     13  C   UNL A   1      43.248  23.043  27.183  1.00  0.00    -0.014 A 
BRANCH  13  14
ATOM     14  C   UNL A   1      43.616  24.427  27.576  1.00  0.00     0.031 A 
ATOM     15  C   UNL A   1      45.040  24.903  27.500  1.00  0.00     0.074 A 
ATOM     16  C   UNL A   1      42.638  25.276  27.949  1.00  0.00     0.049 A 
ATOM     17  N   UNL A   1      45.527  26.095  27.750  1.00  0.00    -0.248 NA
ATOM     18  C   UNL A   1      46.056  23.918  27.102  1.00  0.00     0.031 C 
ATOM     19  C   UNL A   1      41.222  24.925  28.070  1.00  0.00     0.029 A 
ATOM     20  N   UNL A   1      42.680  26.610  28.264  1.00  0.00    -0.354 N 
ATOM     21  C   UNL A   1      46.899  25.994  27.569  1.00  0.00     0.074 A 
ATOM     22  C   UNL A   1      47.176  24.620  27.207  1.00  0.00     0.031 C 
ATOM     23  C   UNL A   1      40.522  26.027  28.372  1.00  0.00     0.029 A 
ATOM     24  C   UNL A   1      41.443  27.147  28.521  1.00  0.00     0.049 A 
ATOM     25  H   UNL A   1      43.514  27.130  28.302  1.00  0.00     0.167 HD
ATOM     26  C   UNL A   1      47.841  26.961  27.687  1.00  0.00     0.037 A 
ATOM     27  C   UNL A   1      41.089  28.405  28.843  1.00  0.00     0.037 A 
ATOM     28  C   UNL A   1      47.559  28.335  28.012  1.00  0.00     0.049 A 
ATOM     29  C   UNL A   1      42.154  29.459  28.954  1.00  0.00     0.074 A 
ATOM     30  C   UNL A   1      48.441  29.398  28.114  1.00  0.00     0.029 A 
ATOM     31  N   UNL A   1      46.295  28.838  28.285  1.00  0.00    -0.354 N 
ATOM     32  N   UNL A   1      43.443  29.355  28.749  1.00  0.00    -0.248 NA
ATOM     33  C   UNL A   1      41.710  30.804  29.341  1.00  0.00     0.031 C 
ATOM     34  C   UNL A   1      47.716  30.536  28.486  1.00  0.00     0.029 A 
ATOM     35  C   UNL A   1      46.376  30.192  28.571  1.00  0.00     0.049 A 
ATOM     36  H   UNL A   1      45.464  28.311  28.278  1.00  0.00     0.167 HD
ATOM     37  C   UNL A   1      43.964  30.623  28.961  1.00  0.00     0.074 A 
ATOM     38  C   UNL A   1      42.847  31.483  29.293  1.00  0.00     0.031 C 
ATOM     39  C   UNL A   1      45.253  31.035  28.890  1.00  0.00     0.037 A 
BRANCH  26  40
ATOM     40  C   UNL A   1      49.275  26.566  27.484  1.00  0.00     0.064 A 
ATOM     41  C   UNL A   1      50.129  26.299  28.564  1.00  0.00     0.173 A 
ATOM     42  C   UNL A   1      49.790  26.407  26.187  1.00  0.00     0.173 A 
ATOM     43  F   UNL A   1      49.691  26.446  29.823  1.00  0.00    -0.203 F 
ATOM     44  C   UNL A   1      51.451  25.909  28.354  1.00  0.00     0.198 A 
ATOM     45  C   UNL A   1      51.103  25.994  25.980  1.00  0.00     0.198 A 
ATOM     46  F   UNL A   1      49.013  26.645  25.119  1.00  0.00    -0.203 F 
ATOM     47  F   UNL A   1      52.260  25.698  29.400  1.00  0.00    -0.200 F 
ATOM     48  C   UNL A   1      51.934  25.751  27.064  1.00  0.00     0.200 A 
ATOM     49  F   UNL A   1      51.564  25.831  24.733  1.00  0.00    -0.200 F 
ATOM     50  F   UNL A   1      53.203  25.370  26.863  1.00  0.00    -0.200 F 
ENDBRANCH  26  40
BRANCH  27  51
ATOM     51  C   UNL A   1      39.659  28.733  29.060  1.00  0.00     0.064 A 
ATOM     52  C   UNL A   1      38.859  29.198  28.007  1.00  0.00     0.173 A 
ATOM     53  C   UNL A   1      39.057  28.573  30.317  1.00  0.00     0.173 A 
ATOM     54  F   UNL A   1      39.395  29.383  26.791  1.00  0.00    -0.203 F 
ATOM     55  C   UNL A   1      37.515  29.501  28.206  1.00  0.00     0.198 A 
ATOM     56  C   UNL A   1      37.706  28.849  30.508  1.00  0.00     0.198 A 
ATOM     57  F   UNL A   1      39.779  28.124  31.355  1.00  0.00    -0.203 F 
ATOM     58  F   UNL A   1      36.781  29.977  27.191  1.00  0.00    -0.200 F 
ATOM     59  C   UNL A   1      36.938  29.319  29.454  1.00  0.00     0.200 A 
ATOM     60  F   UNL A   1      37.148  28.656  31.710  1.00  0.00    -0.200 F 
ATOM     61  F   UNL A   1      35.641  29.601  29.641  1.00  0.00    -0.200 F 
ENDBRANCH  27  51
BRANCH  39  62
ATOM     62  C   UNL A   1      45.515  32.491  29.140  1.00  0.00     0.064 A 
ATOM     63  C   UNL A   1      45.818  32.974  30.421  1.00  0.00     0.173 A 
ATOM     64  C   UNL A   1      45.478  33.409  28.080  1.00  0.00     0.173 A 
ATOM     65  F   UNL A   1      45.848  32.137  31.469  1.00  0.00    -0.203 F 
ATOM     66  C   UNL A   1      46.045  34.331  30.637  1.00  0.00     0.198 A 
ATOM     67  C   UNL A   1      45.733  34.760  28.295  1.00  0.00     0.198 A 
ATOM     68  F   UNL A   1      45.197  32.994  26.835  1.00  0.00    -0.203 F 
ATOM     69  F   UNL A   1      46.282  34.778  31.877  1.00  0.00    -0.200 F 
ATOM     70  C   UNL A   1      46.007  35.221  29.574  1.00  0.00     0.200 A 
ATOM     71  F   UNL A   1      45.705  35.618  27.265  1.00  0.00    -0.200 F 
ATOM     72  F   UNL A   1      46.226  36.527  29.784  1.00  0.00    -0.200 F 
ENDBRANCH  39  62
ENDBRANCH  13  14
ENDBRANCH   6   8
ENDBRANCH   3   4
ENDBRANCH   2   3
ENDBRANCH   1   2
BRANCH   1  73
ATOM     73  C   UNL A   1      36.462  21.557  25.815  1.00  0.00     0.116 C 
BRANCH  73  74
ATOM     74  N   UNL A   1      35.141  20.951  25.811  1.00  0.00    -0.356 N 
ATOM     75  C   UNL A   1      33.911  21.541  25.716  1.00  0.00     0.223 C 
ATOM     76  H   UNL A   1      35.130  19.969  25.889  1.00  0.00     0.163 HD
ATOM     77  O   UNL A   1      32.918  20.818  25.663  1.00  0.00    -0.275 OA
BRANCH  75  78
ATOM     78  C   UNL A   1      33.817  23.064  25.704  1.00  0.00     0.082 C 
ATOM     79  C   UNL A   1      33.003  23.555  26.912  1.00  0.00     0.035 C 
ATOM     80  C   UNL A   1      33.246  23.610  24.378  1.00  0.00     0.035 C 
ATOM     81  C   UNL A   1      31.508  23.329  26.713  1.00  0.00     0.120 C 
ATOM     82  C   UNL A   1      31.719  23.537  24.288  1.00  0.00     0.120 C 
ATOM     83  N   UNL A   1      31.109  24.043  25.516  1.00  0.00    -0.340 N 
ATOM     84  C   UNL A   1      30.381  25.215  25.653  1.00  0.00     0.260 C 
ATOM     85  O   UNL A   1      29.828  25.519  26.715  1.00  0.00    -0.271 OA
BRANCH  84  86
ATOM     86  C   UNL A   1      30.334  26.193  24.476  1.00  0.00     0.329 C 
BRANCH  86  87
ATOM     87  O   UNL A   1      31.550  26.863  24.163  1.00  0.00    -0.482 OA
BRANCH  87  88
ATOM     88  C   UNL A   1      31.990  27.783  25.079  1.00  0.00     0.138 A 
ATOM     89  C   UNL A   1      32.968  27.487  26.033  1.00  0.00     0.049 A 
ATOM     90  C   UNL A   1      31.542  29.107  24.957  1.00  0.00     0.084 A 
ATOM     91  C   UNL A   1      33.492  28.493  26.850  1.00  0.00     0.024 A 
ATOM     92  C   UNL A   1      32.054  30.113  25.781  1.00  0.00     0.045 A 
ATOM     93  Cl  UNL A   1      30.340  29.538  23.793  1.00  0.00    -0.080 Cl
ATOM     94  C   UNL A   1      33.034  29.801  26.718  1.00  0.00     0.042 A 
ATOM     95  Cl  UNL A   1      33.701  31.038  27.709  1.00  0.00    -0.084 Cl
ENDBRANCH  87  88
ENDBRANCH  86  87
ENDBRANCH  84  86
ENDBRANCH  75  78
ENDBRANCH  73  74
ENDBRANCH   1  73
TORSDOF 14
ENDMDL
MODEL 2
REMARK VINA RESULT:     -12.5      5.673     11.116
REMARK SMILES O=C(NCCCCNC(=O)C1CCN(C(=O)COc2ccc(Cl)cc2Cl)CC1)c1ccc(-c2c3nc(c(-c4c(F)c(F)c(F)c(F)c4F)c4ccc([nH]4)c(-c4c(F)c(F)c(F)c(F)c4F)c4nc(c(-c5c(F)c(F)c(F)c(F)c5F)c5ccc2[nH]5)C=C4)C=C3)cc1
REMARK SMILES IDX 6 1 5 2 4 3 3 4 1 5 2 6 29 8 30 9 91 10 31 11 90 12 32 13
REMARK SMILES IDX 33 14 34 15 84 16 35 17 89 18 83 19 85 20 36 21 88 22 82 23
REMARK SMILES IDX 81 24 37 26 69 27 49 28 68 29 50 30 53 31 67 32 86 33 51 34
REMARK SMILES IDX 52 35 66 37 87 38 54 39 38 40 39 41 47 42 40 43 41 44 45 45
REMARK SMILES IDX 48 46 42 47 43 48 46 49 44 50 70 51 71 52 79 53 72 54 73 55
REMARK SMILES IDX 77 56 80 57 74 58 75 59 78 60 76 61 55 62 56 63 64 64 57 65
REMARK SMILES IDX 58 66 62 67 65 68 59 69 60 70 63 71 61 72 7 73 8 74 9 75
REMARK SMILES IDX 10 77 11 78 12 79 28 80 13 81 27 82 14 83 15 84 16 85 17 86
REMARK SMILES IDX 18 87 19 88 20 89 25 90 21 91 24 92 26 93 22 94 23 95
REMARK H PARENT 3 7 85 25 53 36 8 76
REMARK Flexibility Score: inf
ROOT
ATOM      1  C   UNL A   1      31.083  31.533  25.819  1.00  0.00     0.023 C 
ENDROOT
BRANCH   1   2
ATOM      2  C   UNL A   1      31.504  31.942  27.227  1.00  0.00     0.023 C 
BRANCH   2   3
ATOM      3  C   UNL A   1      32.716  32.858  27.295  1.00  0.00     0.116 C 
BRANCH   3   4
ATOM      4  N   UNL A   1      32.382  34.228  27.658  1.00  0.00    -0.352 N 
ATOM      5  O   UNL A   1      32.476  36.141  28.857  1.00  0.00    -0.269 OA
ATOM      6  C   UNL A   1      32.963  35.044  28.601  1.00  0.00     0.251 C 
ATOM      7  H   UNL A   1      31.634  34.627  27.159  1.00  0.00     0.163 HD
BRANCH   6   8
ATOM      8  C   UNL A   1      34.155  34.572  29.337  1.00  0.00     0.039 A 
ATOM      9  C   UNL A   1      35.428  34.706  28.782  1.00  0.00     0.014 A 
ATOM     10  C   UNL A   1      33.988  33.948  30.576  1.00  0.00     0.014 A 
ATOM     11  C   UNL A   1      36.504  34.055  29.372  1.00  0.00     0.010 A 
ATOM     12  C   UNL A   1      35.092  33.378  31.218  1.00  0.00     0.010 A 
ATOM     13  C   UNL A   1      36.348  33.380  30.594  1.00  0.00    -0.014 A 
BRANCH  13  14
ATOM     14  C   UNL A   1      37.522  32.697  31.195  1.00  0.00     0.031 A 
ATOM     15  C   UNL A   1      37.981  33.025  32.589  1.00  0.00     0.074 A 
ATOM     16  C   UNL A   1      38.139  31.729  30.490  1.00  0.00     0.049 A 
ATOM     17  N   UNL A   1      38.950  32.484  33.288  1.00  0.00    -0.248 NA
ATOM     18  C   UNL A   1      37.271  34.104  33.292  1.00  0.00     0.031 C 
ATOM     19  C   UNL A   1      37.789  31.330  29.125  1.00  0.00     0.029 A 
ATOM     20  N   UNL A   1      39.164  30.885  30.832  1.00  0.00    -0.354 N 
ATOM     21  C   UNL A   1      38.985  33.174  34.492  1.00  0.00     0.074 A 
ATOM     22  C   UNL A   1      37.953  34.188  34.426  1.00  0.00     0.031 C 
ATOM     23  C   UNL A   1      38.543  30.281  28.769  1.00  0.00     0.029 A 
ATOM     24  C   UNL A   1      39.465  29.970  29.854  1.00  0.00     0.049 A 
ATOM     25  H   UNL A   1      39.638  30.932  31.693  1.00  0.00     0.167 HD
ATOM     26  C   UNL A   1      39.798  32.975  35.557  1.00  0.00     0.037 A 
ATOM     27  C   UNL A   1      40.384  28.987  29.833  1.00  0.00     0.037 A 
ATOM     28  C   UNL A   1      40.799  31.942  35.634  1.00  0.00     0.049 A 
ATOM     29  C   UNL A   1      41.263  28.782  31.033  1.00  0.00     0.074 A 
ATOM     30  C   UNL A   1      41.644  31.634  36.686  1.00  0.00     0.029 A 
ATOM     31  N   UNL A   1      41.088  31.046  34.615  1.00  0.00    -0.354 N 
ATOM     32  N   UNL A   1      41.263  29.421  32.176  1.00  0.00    -0.248 NA
ATOM     33  C   UNL A   1      42.269  27.716  30.937  1.00  0.00     0.031 C 
ATOM     34  C   UNL A   1      42.470  30.575  36.291  1.00  0.00     0.029 A 
ATOM     35  C   UNL A   1      42.109  30.195  35.009  1.00  0.00     0.049 A 
ATOM     36  H   UNL A   1      40.635  31.019  33.741  1.00  0.00     0.167 HD
ATOM     37  C   UNL A   1      42.251  28.825  32.945  1.00  0.00     0.074 A 
ATOM     38  C   UNL A   1      42.818  27.760  32.143  1.00  0.00     0.031 C 
ATOM     39  C   UNL A   1      42.654  29.135  34.201  1.00  0.00     0.037 A 
BRANCH  26  40
ATOM     40  C   UNL A   1      39.656  33.905  36.726  1.00  0.00     0.064 A 
ATOM     41  C   UNL A   1      38.860  33.585  37.835  1.00  0.00     0.173 A 
ATOM     42  C   UNL A   1      40.367  35.116  36.759  1.00  0.00     0.173 A 
ATOM     43  F   UNL A   1      38.151  32.445  37.850  1.00  0.00    -0.203 F 
ATOM     44  C   UNL A   1      38.761  34.451  38.922  1.00  0.00     0.198 A 
ATOM     45  C   UNL A   1      40.286  35.968  37.856  1.00  0.00     0.198 A 
ATOM     46  F   UNL A   1      41.148  35.468  35.726  1.00  0.00    -0.203 F 
ATOM     47  F   UNL A   1      37.962  34.143  39.952  1.00  0.00    -0.200 F 
ATOM     48  C   UNL A   1      39.479  35.637  38.935  1.00  0.00     0.200 A 
ATOM     49  F   UNL A   1      40.990  37.108  37.872  1.00  0.00    -0.200 F 
ATOM     50  F   UNL A   1      39.388  36.467  39.984  1.00  0.00    -0.200 F 
ENDBRANCH  26  40
BRANCH  27  51
ATOM     51  C   UNL A   1      40.499  28.114  28.639  1.00  0.00     0.064 A 
ATOM     52  C   UNL A   1      41.297  28.488  27.549  1.00  0.00     0.173 A 
ATOM     53  C   UNL A   1      39.832  26.883  28.568  1.00  0.00     0.173 A 
ATOM     54  F   UNL A   1      41.941  29.665  27.564  1.00  0.00    -0.203 F 
ATOM     55  C   UNL A   1      41.413  27.669  26.429  1.00  0.00     0.198 A 
ATOM     56  C   UNL A   1      39.971  26.051  27.461  1.00  0.00     0.198 A 
ATOM     57  F   UNL A   1      39.062  26.477  29.589  1.00  0.00    -0.203 F 
ATOM     58  F   UNL A   1      42.154  28.067  25.385  1.00  0.00    -0.200 F 
ATOM     59  C   UNL A   1      40.756  26.448  26.389  1.00  0.00     0.200 A 
ATOM     60  F   UNL A   1      39.349  24.866  27.432  1.00  0.00    -0.200 F 
ATOM     61  F   UNL A   1      40.876  25.656  25.314  1.00  0.00    -0.200 F 
ENDBRANCH  27  51
BRANCH  39  62
ATOM     62  C   UNL A   1      43.736  28.283  34.797  1.00  0.00     0.064 A 
ATOM     63  C   UNL A   1      43.442  27.107  35.502  1.00  0.00     0.173 A 
ATOM     64  C   UNL A   1      45.084  28.640  34.644  1.00  0.00     0.173 A 
ATOM     65  F   UNL A   1      42.167  26.734  35.689  1.00  0.00    -0.203 F 
ATOM     66  C   UNL A   1      44.458  26.336  36.060  1.00  0.00     0.198 A 
ATOM     67  C   UNL A   1      46.098  27.852  35.179  1.00  0.00     0.198 A 
ATOM     68  F   UNL A   1      45.416  29.754  33.973  1.00  0.00    -0.203 F 
ATOM     69  F   UNL A   1      44.151  25.245  36.774  1.00  0.00    -0.200 F 
ATOM     70  C   UNL A   1      45.784  26.706  35.894  1.00  0.00     0.200 A 
ATOM     71  F   UNL A   1      47.380  28.207  35.010  1.00  0.00    -0.200 F 
ATOM     72  F   UNL A   1      46.761  25.962  36.432  1.00  0.00    -0.200 F 
ENDBRANCH  39  62
ENDBRANCH  13  14
ENDBRANCH   6   8
ENDBRANCH   3   4
ENDBRANCH   2   3
ENDBRANCH   1   2
BRANCH   1  73
ATOM     73  C   UNL A   1      31.653  30.202  25.330  1.00  0.00     0.116 C 
BRANCH  73  74
ATOM     74  N   UNL A   1      31.045  29.750  24.090  1.00  0.00    -0.356 N 
ATOM     75  C   UNL A   1      30.832  28.478  23.636  1.00  0.00     0.223 C 
ATOM     76  H   UNL A   1      30.741  30.466  23.486  1.00  0.00     0.163 HD
ATOM     77  O   UNL A   1      30.230  28.328  22.574  1.00  0.00    -0.275 OA
BRANCH  75  78
ATOM     78  C   UNL A   1      31.367  27.300  24.446  1.00  0.00     0.082 C 
ATOM     79  C   UNL A   1      32.881  27.153  24.232  1.00  0.00     0.035 C 
ATOM     80  C   UNL A   1      30.621  25.985  24.139  1.00  0.00     0.035 C 
ATOM     81  C   UNL A   1      33.201  26.535  22.875  1.00  0.00     0.120 C 
ATOM     82  C   UNL A   1      31.098  25.291  22.859  1.00  0.00     0.120 C 
ATOM     83  N   UNL A   1      32.558  25.236  22.820  1.00  0.00    -0.340 N 
ATOM     84  C   UNL A   1      33.344  24.100  22.936  1.00  0.00     0.260 C 
ATOM     85  O   UNL A   1      34.571  24.140  22.803  1.00  0.00    -0.271 OA
BRANCH  84  86
ATOM     86  C   UNL A   1      32.673  22.778  23.319  1.00  0.00     0.329 C 
BRANCH  86  87
ATOM     87  O   UNL A   1      33.219  22.096  24.443  1.00  0.00    -0.482 OA
BRANCH  87  88
ATOM     88  C   UNL A   1      33.311  20.732  24.340  1.00  0.00     0.138 A 
ATOM     89  C   UNL A   1      32.356  19.961  23.671  1.00  0.00     0.049 A 
ATOM     90  C   UNL A   1      34.481  20.110  24.801  1.00  0.00     0.084 A 
ATOM     91  C   UNL A   1      32.563  18.594  23.464  1.00  0.00     0.024 A 
ATOM     92  C   UNL A   1      34.686  18.740  24.608  1.00  0.00     0.045 A 
ATOM     93  Cl  UNL A   1      35.703  21.009  25.629  1.00  0.00    -0.080 Cl
ATOM     94  C   UNL A   1      33.728  17.991  23.931  1.00  0.00     0.042 A 
ATOM     95  Cl  UNL A   1      33.988  16.315  23.651  1.00  0.00    -0.084 Cl
ENDBRANCH  87  88
ENDBRANCH  86  87
ENDBRANCH  84  86
ENDBRANCH  75  78
ENDBRANCH  73  74
ENDBRANCH   1  73
TORSDOF 14
ENDMDL
MODEL 3
REMARK VINA RESULT:     -12.5      1.285      2.139
REMARK SMILES O=C(NCCCCNC(=O)C1CCN(C(=O)COc2ccc(Cl)cc2Cl)CC1)c1ccc(-c2c3nc(c(-c4c(F)c(F)c(F)c(F)c4F)c4ccc([nH]4)c(-c4c(F)c(F)c(F)c(F)c4F)c4nc(c(-c5c(F)c(F)c(F)c(F)c5F)c5ccc2[nH]5)C=C4)C=C3)cc1
REMARK SMILES IDX 6 1 5 2 4 3 3 4 1 5 2 6 29 8 30 9 91 10 31 11 90 12 32 13
REMARK SMILES IDX 33 14 34 15 84 16 35 17 89 18 83 19 85 20 36 21 88 22 82 23
REMARK SMILES IDX 81 24 37 26 69 27 49 28 68 29 50 30 53 31 67 32 86 33 51 34
REMARK SMILES IDX 52 35 66 37 87 38 54 39 38 40 39 41 47 42 40 43 41 44 45 45
REMARK SMILES IDX 48 46 42 47 43 48 46 49 44 50 70 51 71 52 79 53 72 54 73 55
REMARK SMILES IDX 77 56 80 57 74 58 75 59 78 60 76 61 55 62 56 63 64 64 57 65
REMARK SMILES IDX 58 66 62 67 65 68 59 69 60 70 63 71 61 72 7 73 8 74 9 75
REMARK SMILES IDX 10 77 11 78 12 79 28 80 13 81 27 82 14 83 15 84 16 85 17 86
REMARK SMILES IDX 18 87 19 88 20 89 25 90 21 91 24 92 26 93 22 94 23 95
REMARK H PARENT 3 7 85 25 53 36 8 76
REMARK Flexibility Score: inf
ROOT
ATOM      1  C   UNL A   1      39.291  22.714  26.397  1.00  0.00     0.023 C 
ENDROOT
BRANCH   1   2
ATOM      2  C   UNL A   1      39.282  21.352  25.711  1.00  0.00     0.023 C 
BRANCH   2   3
ATOM      3  C   UNL A   1      39.651  20.179  26.606  1.00  0.00     0.116 C 
BRANCH   3   4
ATOM      4  N   UNL A   1      40.703  19.340  26.050  1.00  0.00    -0.352 N 
ATOM      5  O   UNL A   1      42.767  18.830  25.287  1.00  0.00    -0.269 OA
ATOM      6  C   UNL A   1      42.039  19.618  25.883  1.00  0.00     0.251 C 
ATOM      7  H   UNL A   1      40.417  18.447  25.750  1.00  0.00     0.163 HD
BRANCH   6   8
ATOM      8  C   UNL A   1      42.586  20.894  26.390  1.00  0.00     0.039 A 
ATOM      9  C   UNL A   1      42.626  21.153  27.760  1.00  0.00     0.014 A 
ATOM     10  C   UNL A   1      43.022  21.859  25.478  1.00  0.00     0.014 A 
ATOM     11  C   UNL A   1      42.921  22.435  28.206  1.00  0.00     0.010 A 
ATOM     12  C   UNL A   1      43.413  23.120  25.938  1.00  0.00     0.010 A 
ATOM     13  C   UNL A   1      43.314  23.434  27.301  1.00  0.00    -0.014 A 
BRANCH  13  14
ATOM     14  C   UNL A   1      43.624  24.792  27.816  1.00  0.00     0.031 A 
ATOM     15  C   UNL A   1      45.044  25.275  27.929  1.00  0.00     0.074 A 
ATOM     16  C   UNL A   1      42.603  25.615  28.127  1.00  0.00     0.049 A 
ATOM     17  N   UNL A   1      45.488  26.450  28.303  1.00  0.00    -0.248 NA
ATOM     18  C   UNL A   1      46.106  24.317  27.588  1.00  0.00     0.031 C 
ATOM     19  C   UNL A   1      41.185  25.255  28.067  1.00  0.00     0.029 A 
ATOM     20  N   UNL A   1      42.598  26.927  28.524  1.00  0.00    -0.354 N 
ATOM     21  C   UNL A   1      46.874  26.363  28.272  1.00  0.00     0.074 A 
ATOM     22  C   UNL A   1      47.201  25.014  27.862  1.00  0.00     0.031 C 
ATOM     23  C   UNL A   1      40.446  26.335  28.354  1.00  0.00     0.029 A 
ATOM     24  C   UNL A   1      41.335  27.446  28.673  1.00  0.00     0.049 A 
ATOM     25  H   UNL A   1      43.418  27.446  28.688  1.00  0.00     0.167 HD
ATOM     26  C   UNL A   1      47.788  27.322  28.553  1.00  0.00     0.037 A 
ATOM     27  C   UNL A   1      40.937  28.681  29.029  1.00  0.00     0.037 A 
ATOM     28  C   UNL A   1      47.459  28.674  28.927  1.00  0.00     0.049 A 
ATOM     29  C   UNL A   1      41.973  29.728  29.322  1.00  0.00     0.074 A 
ATOM     30  C   UNL A   1      48.315  29.730  29.192  1.00  0.00     0.029 A 
ATOM     31  N   UNL A   1      46.168  29.157  29.087  1.00  0.00    -0.354 N 
ATOM     32  N   UNL A   1      43.278  29.639  29.258  1.00  0.00    -0.248 NA
ATOM     33  C   UNL A   1      41.477  31.046  29.737  1.00  0.00     0.031 C 
ATOM     34  C   UNL A   1      47.543  30.842  29.547  1.00  0.00     0.029 A 
ATOM     35  C   UNL A   1      46.205  30.491  29.461  1.00  0.00     0.049 A 
ATOM     36  H   UNL A   1      45.348  28.630  28.954  1.00  0.00     0.167 HD
ATOM     37  C   UNL A   1      43.761  30.892  29.603  1.00  0.00     0.074 A 
ATOM     38  C   UNL A   1      42.606  31.728  29.859  1.00  0.00     0.031 C 
ATOM     39  C   UNL A   1      45.046  31.311  29.702  1.00  0.00     0.037 A 
BRANCH  26  40
ATOM     40  C   UNL A   1      49.239  26.943  28.489  1.00  0.00     0.064 A 
ATOM     41  C   UNL A   1      49.975  27.035  27.299  1.00  0.00     0.173 A 
ATOM     42  C   UNL A   1      49.915  26.527  29.647  1.00  0.00     0.173 A 
ATOM     43  F   UNL A   1      49.375  27.416  26.161  1.00  0.00    -0.203 F 
ATOM     44  C   UNL A   1      51.328  26.703  27.265  1.00  0.00     0.198 A 
ATOM     45  C   UNL A   1      51.272  26.220  29.615  1.00  0.00     0.198 A 
ATOM     46  F   UNL A   1      49.258  26.428  30.813  1.00  0.00    -0.203 F 
ATOM     47  F   UNL A   1      52.002  26.759  26.108  1.00  0.00    -0.200 F 
ATOM     48  C   UNL A   1      51.976  26.302  28.423  1.00  0.00     0.200 A 
ATOM     49  F   UNL A   1      51.899  25.844  30.739  1.00  0.00    -0.200 F 
ATOM     50  F   UNL A   1      53.279  25.989  28.391  1.00  0.00    -0.200 F 
ENDBRANCH  26  40
BRANCH  27  51
ATOM     51  C   UNL A   1      39.488  28.993  29.104  1.00  0.00     0.064 A 
ATOM     52  C   UNL A   1      38.775  29.377  27.960  1.00  0.00     0.173 A 
ATOM     53  C   UNL A   1      38.783  28.896  30.312  1.00  0.00     0.173 A 
ATOM     54  F   UNL A   1      39.410  29.499  26.785  1.00  0.00    -0.203 F 
ATOM     55  C   UNL A   1      37.414  29.664  28.025  1.00  0.00     0.198 A 
ATOM     56  C   UNL A   1      37.417  29.155  30.371  1.00  0.00     0.198 A 
ATOM     57  F   UNL A   1      39.420  28.525  31.433  1.00  0.00    -0.203 F 
ATOM     58  F   UNL A   1      36.763  30.063  26.924  1.00  0.00    -0.200 F 
ATOM     59  C   UNL A   1      36.735  29.546  29.229  1.00  0.00     0.200 A 
ATOM     60  F   UNL A   1      36.761  29.024  31.531  1.00  0.00    -0.200 F 
ATOM     61  F   UNL A   1      35.423  29.813  29.288  1.00  0.00    -0.200 F 
ENDBRANCH  27  51
BRANCH  39  62
ATOM     62  C   UNL A   1      45.266  32.749  30.067  1.00  0.00     0.064 A 
ATOM     63  C   UNL A   1      45.428  33.153  31.400  1.00  0.00     0.173 A 
ATOM     64  C   UNL A   1      45.331  33.732  29.069  1.00  0.00     0.173 A 
ATOM     65  F   UNL A   1      45.356  32.252  32.392  1.00  0.00    -0.203 F 
ATOM     66  C   UNL A   1      45.617  34.494  31.723  1.00  0.00     0.198 A 
ATOM     67  C   UNL A   1      45.548  35.067  29.392  1.00  0.00     0.198 A 
ATOM     68  F   UNL A   1      45.186  33.394  27.778  1.00  0.00    -0.203 F 
ATOM     69  F   UNL A   1      45.719  34.864  33.006  1.00  0.00    -0.200 F 
ATOM     70  C   UNL A   1      45.682  35.448  30.719  1.00  0.00     0.200 A 
ATOM     71  F   UNL A   1      45.619  35.988  28.420  1.00  0.00    -0.200 F 
ATOM     72  F   UNL A   1      45.864  36.740  31.031  1.00  0.00    -0.200 F 
ENDBRANCH  39  62
ENDBRANCH  13  14
ENDBRANCH   6   8
ENDBRANCH   3   4
ENDBRANCH   2   3
ENDBRANCH   1   2
BRANCH   1  73
ATOM     73  C   UNL A   1      38.172  23.665  25.970  1.00  0.00     0.116 C 
BRANCH  73  74
ATOM     74  N   UNL A   1      37.493  23.229  24.760  1.00  0.00    -0.356 N 
ATOM     75  C   UNL A   1      36.248  23.550  24.296  1.00  0.00     0.223 C 
ATOM     76  H   UNL A   1      38.007  22.612  24.190  1.00  0.00     0.163 HD
ATOM     77  O   UNL A   1      35.902  23.113  23.199  1.00  0.00    -0.275 OA
BRANCH  75  78
ATOM     78  C   UNL A   1      35.332  24.412  25.160  1.00  0.00     0.082 C 
ATOM     79  C   UNL A   1      35.043  23.706  26.494  1.00  0.00     0.035 C 
ATOM     80  C   UNL A   1      34.027  24.800  24.432  1.00  0.00     0.035 C 
ATOM     81  C   UNL A   1      34.038  22.572  26.327  1.00  0.00     0.120 C 
ATOM     82  C   UNL A   1      32.964  23.698  24.444  1.00  0.00     0.120 C 
ATOM     83  N   UNL A   1      32.818  23.140  25.786  1.00  0.00    -0.340 N 
ATOM     84  C   UNL A   1      31.724  23.284  26.625  1.00  0.00     0.260 C 
ATOM     85  O   UNL A   1      31.654  22.702  27.712  1.00  0.00    -0.271 OA
BRANCH  84  86
ATOM     86  C   UNL A   1      30.611  24.256  26.222  1.00  0.00     0.329 C 
BRANCH  86  87
ATOM     87  O   UNL A   1      30.851  25.634  26.487  1.00  0.00    -0.482 OA
BRANCH  87  88
ATOM     88  C   UNL A   1      30.727  26.488  25.422  1.00  0.00     0.138 A 
ATOM     89  C   UNL A   1      29.700  26.374  24.480  1.00  0.00     0.049 A 
ATOM     90  C   UNL A   1      31.581  27.600  25.361  1.00  0.00     0.084 A 
ATOM     91  C   UNL A   1      29.526  27.351  23.496  1.00  0.00     0.024 A 
ATOM     92  C   UNL A   1      31.418  28.572  24.369  1.00  0.00     0.045 A 
ATOM     93  Cl  UNL A   1      32.865  27.802  26.499  1.00  0.00    -0.080 Cl
ATOM     94  C   UNL A   1      30.384  28.446  23.447  1.00  0.00     0.042 A 
ATOM     95  Cl  UNL A   1      30.148  29.657  22.249  1.00  0.00    -0.084 Cl
ENDBRANCH  87  88
ENDBRANCH  86  87
ENDBRANCH  84  86
ENDBRANCH  75  78
ENDBRANCH  73  74
ENDBRANCH   1  73
TORSDOF 14
ENDMDL
