MODEL 1
REMARK VINA RESULT:     -13.4      0.000      0.000
REMARK SMILES O=C(NCCCCNC(=O)c1sccc1S(=O)(=O)Nc1ccc(-c2nc3ccccc3n2C(F)F)cc1)c1ccc(-c2c3nc(c(-c4c(F)c(F)c(F)c(F)c4F)c4ccc([nH]4)c(-c4c(F)c(F)c(F)c(F)c4F)c4nc(c(-c5c(F)c(F)c(F)c(F)c5F)c5ccc2[nH]5)C=C4)C=C3)cc1
REMARK SMILES IDX 7 1 6 2 5 3 4 4 3 5 1 6 2 7 38 9 39 10 100 11 40 12 99 13
REMARK SMILES IDX 41 14 42 15 43 16 93 17 44 18 98 19 92 20 94 21 45 22 97 23
REMARK SMILES IDX 91 24 90 25 46 27 78 28 58 29 77 30 59 31 62 32 76 33 95 34
REMARK SMILES IDX 60 35 61 36 75 38 96 39 63 40 47 41 48 42 56 43 49 44 50 45
REMARK SMILES IDX 54 46 57 47 51 48 52 49 55 50 53 51 79 52 80 53 88 54 81 55
REMARK SMILES IDX 82 56 86 57 89 58 83 59 84 60 87 61 85 62 64 63 65 64 73 65
REMARK SMILES IDX 66 66 67 67 71 68 74 69 68 70 69 71 72 72 70 73 8 74 9 75
REMARK SMILES IDX 10 77 11 78 12 79 15 80 13 81 14 82 16 83 17 84 18 85 19 86
REMARK SMILES IDX 20 88 21 89 37 90 22 91 36 92 23 93 24 94 25 95 32 96 26 97
REMARK SMILES IDX 31 98 27 99 30 100 28 101 29 102 33 103 34 104 35 105
REMARK H PARENT 3 8 94 26 62 37 8 76 19 87
REMARK Flexibility Score: inf
ROOT
ATOM      1  C   UNL A   1      31.614  29.984  25.758  1.00  0.00     0.116 C 
ENDROOT
BRANCH   1   2
ATOM      2  C   UNL A   1      32.377  29.726  27.055  1.00  0.00     0.023 C 
BRANCH   2   3
ATOM      3  C   UNL A   1      33.899  29.886  26.959  1.00  0.00     0.023 C 
BRANCH   3   4
ATOM      4  C   UNL A   1      34.432  31.269  27.325  1.00  0.00     0.116 C 
BRANCH   4   5
ATOM      5  N   UNL A   1      34.266  31.678  28.701  1.00  0.00    -0.352 N 
ATOM      6  O   UNL A   1      34.705  32.327  30.779  1.00  0.00    -0.269 OA
ATOM      7  C   UNL A   1      35.110  31.740  29.775  1.00  0.00     0.251 C 
ATOM      8  H   UNL A   1      33.351  31.976  28.909  1.00  0.00     0.163 HD
BRANCH   7   9
ATOM      9  C   UNL A   1      36.433  31.073  29.824  1.00  0.00     0.039 A 
ATOM     10  C   UNL A   1      37.661  31.728  29.917  1.00  0.00     0.014 A 
ATOM     11  C   UNL A   1      36.407  29.669  29.787  1.00  0.00     0.014 A 
ATOM     12  C   UNL A   1      38.847  30.998  29.877  1.00  0.00     0.010 A 
ATOM     13  C   UNL A   1      37.586  28.935  29.784  1.00  0.00     0.010 A 
ATOM     14  C   UNL A   1      38.810  29.602  29.800  1.00  0.00    -0.014 A 
BRANCH  14  15
ATOM     15  C   UNL A   1      40.072  28.869  29.902  1.00  0.00     0.031 A 
ATOM     16  C   UNL A   1      40.611  28.683  31.285  1.00  0.00     0.074 A 
ATOM     17  C   UNL A   1      40.639  28.214  28.869  1.00  0.00     0.049 A 
ATOM     18  N   UNL A   1      41.803  28.922  31.732  1.00  0.00    -0.248 NA
ATOM     19  C   UNL A   1      39.678  28.190  32.312  1.00  0.00     0.031 C 
ATOM     20  C   UNL A   1      40.089  28.006  27.529  1.00  0.00     0.029 A 
ATOM     21  N   UNL A   1      41.794  27.486  28.851  1.00  0.00    -0.354 N 
ATOM     22  C   UNL A   1      41.817  28.482  33.056  1.00  0.00     0.074 A 
ATOM     23  C   UNL A   1      40.463  28.120  33.386  1.00  0.00     0.031 C 
ATOM     24  C   UNL A   1      40.798  27.038  26.906  1.00  0.00     0.029 A 
ATOM     25  C   UNL A   1      41.915  26.652  27.751  1.00  0.00     0.049 A 
ATOM     26  H   UNL A   1      42.478  27.547  29.556  1.00  0.00     0.167 HD
ATOM     27  C   UNL A   1      42.972  28.291  33.754  1.00  0.00     0.037 A 
ATOM     28  C   UNL A   1      42.824  25.662  27.578  1.00  0.00     0.037 A 
ATOM     29  C   UNL A   1      44.072  29.016  33.186  1.00  0.00     0.049 A 
ATOM     30  C   UNL A   1      43.944  25.890  28.521  1.00  0.00     0.074 A 
ATOM     31  C   UNL A   1      44.342  30.352  32.961  1.00  0.00     0.029 A 
ATOM     32  N   UNL A   1      45.026  28.328  32.482  1.00  0.00    -0.354 N 
ATOM     33  N   UNL A   1      44.817  26.851  28.416  1.00  0.00    -0.248 NA
ATOM     34  C   UNL A   1      43.893  25.231  29.816  1.00  0.00     0.031 C 
ATOM     35  C   UNL A   1      45.111  30.378  31.761  1.00  0.00     0.029 A 
ATOM     36  C   UNL A   1      45.275  29.056  31.348  1.00  0.00     0.049 A 
ATOM     37  H   UNL A   1      45.449  27.478  32.742  1.00  0.00     0.167 HD
ATOM     38  C   UNL A   1      45.120  27.192  29.725  1.00  0.00     0.074 A 
ATOM     39  C   UNL A   1      44.623  26.086  30.533  1.00  0.00     0.031 C 
ATOM     40  C   UNL A   1      45.490  28.464  30.051  1.00  0.00     0.037 A 
BRANCH  27  41
ATOM     41  C   UNL A   1      43.167  27.219  34.797  1.00  0.00     0.064 A 
ATOM     42  C   UNL A   1      43.400  27.581  36.140  1.00  0.00     0.173 A 
ATOM     43  C   UNL A   1      43.425  25.869  34.477  1.00  0.00     0.173 A 
ATOM     44  F   UNL A   1      43.217  28.845  36.549  1.00  0.00    -0.203 F 
ATOM     45  C   UNL A   1      43.911  26.673  37.073  1.00  0.00     0.198 A 
ATOM     46  C   UNL A   1      43.884  24.953  35.424  1.00  0.00     0.198 A 
ATOM     47  F   UNL A   1      43.346  25.415  33.219  1.00  0.00    -0.203 F 
ATOM     48  F   UNL A   1      44.228  27.093  38.304  1.00  0.00    -0.200 F 
ATOM     49  C   UNL A   1      44.155  25.361  36.712  1.00  0.00     0.200 A 
ATOM     50  F   UNL A   1      44.134  23.689  35.050  1.00  0.00    -0.200 F 
ATOM     51  F   UNL A   1      44.698  24.505  37.588  1.00  0.00    -0.200 F 
ENDBRANCH  27  41
BRANCH  28  52
ATOM     52  C   UNL A   1      42.680  24.396  26.826  1.00  0.00     0.064 A 
ATOM     53  C   UNL A   1      43.422  24.157  25.658  1.00  0.00     0.173 A 
ATOM     54  C   UNL A   1      42.008  23.290  27.380  1.00  0.00     0.173 A 
ATOM     55  F   UNL A   1      44.130  25.146  25.093  1.00  0.00    -0.203 F 
ATOM     56  C   UNL A   1      43.503  22.882  25.090  1.00  0.00     0.198 A 
ATOM     57  C   UNL A   1      42.078  22.021  26.805  1.00  0.00     0.198 A 
ATOM     58  F   UNL A   1      41.347  23.397  28.541  1.00  0.00    -0.203 F 
ATOM     59  F   UNL A   1      44.272  22.678  24.012  1.00  0.00    -0.200 F 
ATOM     60  C   UNL A   1      42.836  21.814  25.668  1.00  0.00     0.200 A 
ATOM     61  F   UNL A   1      41.456  20.990  27.395  1.00  0.00    -0.200 F 
ATOM     62  F   UNL A   1      42.958  20.581  25.157  1.00  0.00    -0.200 F 
ENDBRANCH  28  52
BRANCH  40  63
ATOM     63  C   UNL A   1      45.870  29.393  28.934  1.00  0.00     0.064 A 
ATOM     64  C   UNL A   1      44.941  30.139  28.189  1.00  0.00     0.173 A 
ATOM     65  C   UNL A   1      47.231  29.638  28.704  1.00  0.00     0.173 A 
ATOM     66  F   UNL A   1      43.627  30.045  28.431  1.00  0.00    -0.203 F 
ATOM     67  C   UNL A   1      45.359  31.048  27.220  1.00  0.00     0.198 A 
ATOM     68  C   UNL A   1      47.645  30.577  27.763  1.00  0.00     0.198 A 
ATOM     69  F   UNL A   1      48.163  29.002  29.432  1.00  0.00    -0.203 F 
ATOM     70  F   UNL A   1      44.453  31.739  26.512  1.00  0.00    -0.200 F 
ATOM     71  C   UNL A   1      46.710  31.272  27.012  1.00  0.00     0.200 A 
ATOM     72  F   UNL A   1      48.951  30.830  27.605  1.00  0.00    -0.200 F 
ATOM     73  F   UNL A   1      47.112  32.179  26.112  1.00  0.00    -0.200 F 
ENDBRANCH  40  63
ENDBRANCH  14  15
ENDBRANCH   7   9
ENDBRANCH   4   5
ENDBRANCH   3   4
ENDBRANCH   2   3
ENDBRANCH   1   2
BRANCH   1  74
ATOM     74  N   UNL A   1      32.406  29.659  24.593  1.00  0.00    -0.351 N 
ATOM     75  C   UNL A   1      32.011  29.141  23.390  1.00  0.00     0.262 C 
ATOM     76  H   UNL A   1      33.371  29.837  24.678  1.00  0.00     0.163 HD
ATOM     77  O   UNL A   1      32.913  28.744  22.648  1.00  0.00    -0.268 OA
BRANCH  75  78
ATOM     78  C   UNL A   1      30.608  29.003  23.071  1.00  0.00     0.112 A 
ATOM     79  S   UNL A   1      29.903  30.392  22.314  1.00  0.00    -0.137 S 
ATOM     80  C   UNL A   1      29.649  28.027  23.296  1.00  0.00     0.111 A 
ATOM     81  C   UNL A   1      28.369  29.668  22.212  1.00  0.00     0.067 A 
ATOM     82  C   UNL A   1      28.367  28.408  22.757  1.00  0.00     0.035 A 
BRANCH  80  83
ATOM     83  S   UNL A   1      29.778  26.506  24.128  1.00  0.00     0.263 S 
ATOM     84  O   UNL A   1      28.420  26.026  24.176  1.00  0.00    -0.201 OA
ATOM     85  O   UNL A   1      30.781  25.805  23.342  1.00  0.00    -0.201 OA
BRANCH  83  86
ATOM     86  N   UNL A   1      30.380  26.534  25.676  1.00  0.00    -0.280 N 
ATOM     87  H   UNL A   1      29.908  27.096  26.333  1.00  0.00     0.180 HD
BRANCH  86  88
ATOM     88  C   UNL A   1      31.513  25.818  26.130  1.00  0.00     0.049 A 
ATOM     89  C   UNL A   1      31.252  24.567  26.697  1.00  0.00     0.027 A 
ATOM     90  C   UNL A   1      32.822  26.194  25.883  1.00  0.00     0.027 A 
ATOM     91  C   UNL A   1      32.259  23.607  26.797  1.00  0.00     0.014 A 
ATOM     92  C   UNL A   1      33.831  25.236  26.001  1.00  0.00     0.014 A 
ATOM     93  C   UNL A   1      33.548  23.904  26.364  1.00  0.00     0.018 A 
BRANCH  93  94
ATOM     94  C   UNL A   1      34.624  22.915  26.203  1.00  0.00     0.145 A 
ATOM     95  N   UNL A   1      35.891  23.228  26.419  1.00  0.00    -0.228 NA
ATOM     96  N   UNL A   1      34.546  21.638  25.667  1.00  0.00    -0.266 N 
ATOM     97  C   UNL A   1      36.640  22.207  25.919  1.00  0.00     0.089 A 
ATOM     98  C   UNL A   1      35.834  21.188  25.433  1.00  0.00     0.074 A 
ATOM     99  C   UNL A   1      38.034  22.104  25.830  1.00  0.00     0.030 A 
ATOM    100  C   UNL A   1      36.370  20.031  24.847  1.00  0.00     0.029 A 
ATOM    101  C   UNL A   1      38.588  20.964  25.243  1.00  0.00     0.002 A 
ATOM    102  C   UNL A   1      37.766  19.946  24.760  1.00  0.00     0.002 A 
BRANCH  96 103
ATOM    103  C   UNL A   1      33.354  20.880  25.355  1.00  0.00     0.451 C 
ATOM    104  F   UNL A   1      33.230  20.690  24.012  1.00  0.00    -0.185 F 
ATOM    105  F   UNL A   1      33.343  19.645  25.925  1.00  0.00    -0.185 F 
ENDBRANCH  96 103
ENDBRANCH  93  94
ENDBRANCH  86  88
ENDBRANCH  83  86
ENDBRANCH  80  83
ENDBRANCH  75  78
ENDBRANCH   1  74
TORSDOF 16
ENDMDL
MODEL 2
REMARK VINA RESULT:     -13.3      2.010      2.826
REMARK SMILES O=C(NCCCCNC(=O)c1sccc1S(=O)(=O)Nc1ccc(-c2nc3ccccc3n2C(F)F)cc1)c1ccc(-c2c3nc(c(-c4c(F)c(F)c(F)c(F)c4F)c4ccc([nH]4)c(-c4c(F)c(F)c(F)c(F)c4F)c4nc(c(-c5c(F)c(F)c(F)c(F)c5F)c5ccc2[nH]5)C=C4)C=C3)cc1
REMARK SMILES IDX 7 1 6 2 5 3 4 4 3 5 1 6 2 7 38 9 39 10 100 11 40 12 99 13
REMARK SMILES IDX 41 14 42 15 43 16 93 17 44 18 98 19 92 20 94 21 45 22 97 23
REMARK SMILES IDX 91 24 90 25 46 27 78 28 58 29 77 30 59 31 62 32 76 33 95 34
REMARK SMILES IDX 60 35 61 36 75 38 96 39 63 40 47 41 48 42 56 43 49 44 50 45
REMARK SMILES IDX 54 46 57 47 51 48 52 49 55 50 53 51 79 52 80 53 88 54 81 55
REMARK SMILES IDX 82 56 86 57 89 58 83 59 84 60 87 61 85 62 64 63 65 64 73 65
REMARK SMILES IDX 66 66 67 67 71 68 74 69 68 70 69 71 72 72 70 73 8 74 9 75
REMARK SMILES IDX 10 77 11 78 12 79 15 80 13 81 14 82 16 83 17 84 18 85 19 86
REMARK SMILES IDX 20 88 21 89 37 90 22 91 36 92 23 93 24 94 25 95 32 96 26 97
REMARK SMILES IDX 31 98 27 99 30 100 28 101 29 102 33 103 34 104 35 105
REMARK H PARENT 3 8 94 26 62 37 8 76 19 87
REMARK Flexibility Score: inf
ROOT
ATOM      1  C   UNL A   1      31.672  30.071  25.424  1.00  0.00     0.116 C 
ENDROOT
BRANCH   1   2
ATOM      2  C   UNL A   1      31.883  29.121  26.600  1.00  0.00     0.023 C 
BRANCH   2   3
ATOM      3  C   UNL A   1      33.240  28.404  26.625  1.00  0.00     0.023 C 
BRANCH   3   4
ATOM      4  C   UNL A   1      34.453  29.316  26.791  1.00  0.00     0.116 C 
BRANCH   4   5
ATOM      5  N   UNL A   1      34.362  30.327  27.820  1.00  0.00    -0.352 N 
ATOM      6  O   UNL A   1      34.891  31.958  29.231  1.00  0.00    -0.269 OA
ATOM      7  C   UNL A   1      35.289  31.003  28.563  1.00  0.00     0.251 C 
ATOM      8  H   UNL A   1      33.435  30.585  28.028  1.00  0.00     0.163 HD
BRANCH   7   9
ATOM      9  C   UNL A   1      36.710  30.599  28.675  1.00  0.00     0.039 A 
ATOM     10  C   UNL A   1      37.742  31.407  29.153  1.00  0.00     0.014 A 
ATOM     11  C   UNL A   1      37.002  29.285  28.272  1.00  0.00     0.014 A 
ATOM     12  C   UNL A   1      39.056  30.945  29.139  1.00  0.00     0.010 A 
ATOM     13  C   UNL A   1      38.307  28.807  28.291  1.00  0.00     0.010 A 
ATOM     14  C   UNL A   1      39.340  29.649  28.697  1.00  0.00    -0.014 A 
BRANCH  14  15
ATOM     15  C   UNL A   1      40.711  29.157  28.831  1.00  0.00     0.031 A 
ATOM     16  C   UNL A   1      41.195  28.939  30.230  1.00  0.00     0.074 A 
ATOM     17  C   UNL A   1      41.452  28.723  27.792  1.00  0.00     0.049 A 
ATOM     18  N   UNL A   1      42.292  29.350  30.784  1.00  0.00    -0.248 NA
ATOM     19  C   UNL A   1      40.317  28.183  31.138  1.00  0.00     0.031 C 
ATOM     20  C   UNL A   1      41.030  28.549  26.401  1.00  0.00     0.029 A 
ATOM     21  N   UNL A   1      42.725  28.227  27.799  1.00  0.00    -0.354 N 
ATOM     22  C   UNL A   1      42.314  28.793  32.063  1.00  0.00     0.074 A 
ATOM     23  C   UNL A   1      41.037  28.155  32.258  1.00  0.00     0.031 C 
ATOM     24  C   UNL A   1      41.946  27.794  25.752  1.00  0.00     0.029 A 
ATOM     25  C   UNL A   1      43.067  27.542  26.643  1.00  0.00     0.049 A 
ATOM     26  H   UNL A   1      43.342  28.344  28.556  1.00  0.00     0.167 HD
ATOM     27  C   UNL A   1      43.441  28.752  32.827  1.00  0.00     0.037 A 
ATOM     28  C   UNL A   1      44.157  26.760  26.455  1.00  0.00     0.037 A 
ATOM     29  C   UNL A   1      44.413  29.721  32.407  1.00  0.00     0.049 A 
ATOM     30  C   UNL A   1      45.156  27.098  27.496  1.00  0.00     0.074 A 
ATOM     31  C   UNL A   1      44.434  31.099  32.318  1.00  0.00     0.029 A 
ATOM     32  N   UNL A   1      45.520  29.294  31.721  1.00  0.00    -0.354 N 
ATOM     33  N   UNL A   1      45.833  28.210  27.540  1.00  0.00    -0.248 NA
ATOM     34  C   UNL A   1      45.158  26.317  28.722  1.00  0.00     0.031 C 
ATOM     35  C   UNL A   1      45.252  31.385  31.185  1.00  0.00     0.029 A 
ATOM     36  C   UNL A   1      45.689  30.163  30.675  1.00  0.00     0.049 A 
ATOM     37  H   UNL A   1      46.083  28.516  31.938  1.00  0.00     0.167 HD
ATOM     38  C   UNL A   1      45.989  28.472  28.891  1.00  0.00     0.074 A 
ATOM     39  C   UNL A   1      45.667  27.219  29.562  1.00  0.00     0.031 C 
ATOM     40  C   UNL A   1      46.089  29.752  29.352  1.00  0.00     0.037 A 
BRANCH  27  41
ATOM     41  C   UNL A   1      43.778  27.637  33.786  1.00  0.00     0.064 A 
ATOM     42  C   UNL A   1      43.891  26.314  33.312  1.00  0.00     0.173 A 
ATOM     43  C   UNL A   1      43.705  27.777  35.189  1.00  0.00     0.173 A 
ATOM     44  F   UNL A   1      43.938  26.061  31.995  1.00  0.00    -0.203 F 
ATOM     45  C   UNL A   1      43.868  25.214  34.175  1.00  0.00     0.198 A 
ATOM     46  C   UNL A   1      43.736  26.680  36.049  1.00  0.00     0.198 A 
ATOM     47  F   UNL A   1      43.491  28.965  35.768  1.00  0.00    -0.203 F 
ATOM     48  F   UNL A   1      43.858  23.973  33.671  1.00  0.00    -0.200 F 
ATOM     49  C   UNL A   1      43.788  25.399  35.543  1.00  0.00     0.200 A 
ATOM     50  F   UNL A   1      43.637  26.878  37.372  1.00  0.00    -0.200 F 
ATOM     51  F   UNL A   1      43.708  24.346  36.368  1.00  0.00    -0.200 F 
ENDBRANCH  27  41
BRANCH  28  52
ATOM     52  C   UNL A   1      44.301  25.569  25.589  1.00  0.00     0.064 A 
ATOM     53  C   UNL A   1      45.540  25.232  25.020  1.00  0.00     0.173 A 
ATOM     54  C   UNL A   1      43.290  24.593  25.515  1.00  0.00     0.173 A 
ATOM     55  F   UNL A   1      46.571  26.086  25.090  1.00  0.00    -0.203 F 
ATOM     56  C   UNL A   1      45.758  23.983  24.430  1.00  0.00     0.198 A 
ATOM     57  C   UNL A   1      43.504  23.353  24.914  1.00  0.00     0.198 A 
ATOM     58  F   UNL A   1      42.103  24.786  26.106  1.00  0.00    -0.203 F 
ATOM     59  F   UNL A   1      46.972  23.672  23.953  1.00  0.00    -0.200 F 
ATOM     60  C   UNL A   1      44.742  23.043  24.383  1.00  0.00     0.200 A 
ATOM     61  F   UNL A   1      42.523  22.439  24.907  1.00  0.00    -0.200 F 
ATOM     62  F   UNL A   1      44.967  21.826  23.867  1.00  0.00    -0.200 F 
ENDBRANCH  28  52
BRANCH  40  63
ATOM     63  C   UNL A   1      46.347  30.840  28.350  1.00  0.00     0.064 A 
ATOM     64  C   UNL A   1      45.337  31.465  27.599  1.00  0.00     0.173 A 
ATOM     65  C   UNL A   1      47.645  31.360  28.250  1.00  0.00     0.173 A 
ATOM     66  F   UNL A   1      44.055  31.100  27.727  1.00  0.00    -0.203 F 
ATOM     67  C   UNL A   1      45.628  32.527  26.745  1.00  0.00     0.198 A 
ATOM     68  C   UNL A   1      47.924  32.447  27.426  1.00  0.00     0.198 A 
ATOM     69  F   UNL A   1      48.637  30.844  28.994  1.00  0.00    -0.203 F 
ATOM     70  F   UNL A   1      44.650  33.099  26.028  1.00  0.00    -0.200 F 
ATOM     71  C   UNL A   1      46.919  33.022  26.665  1.00  0.00     0.200 A 
ATOM     72  F   UNL A   1      49.163  32.958  27.394  1.00  0.00    -0.200 F 
ATOM     73  F   UNL A   1      47.190  34.072  25.878  1.00  0.00    -0.200 F 
ENDBRANCH  40  63
ENDBRANCH  14  15
ENDBRANCH   7   9
ENDBRANCH   4   5
ENDBRANCH   3   4
ENDBRANCH   2   3
ENDBRANCH   1   2
BRANCH   1  74
ATOM     74  N   UNL A   1      32.372  29.624  24.239  1.00  0.00    -0.351 N 
ATOM     75  C   UNL A   1      32.090  28.574  23.408  1.00  0.00     0.262 C 
ATOM     76  H   UNL A   1      33.166  30.152  23.997  1.00  0.00     0.163 HD
ATOM     77  O   UNL A   1      32.971  28.271  22.601  1.00  0.00    -0.268 OA
BRANCH  75  78
ATOM     78  C   UNL A   1      30.856  27.833  23.548  1.00  0.00     0.112 A 
ATOM     79  S   UNL A   1      29.432  28.718  23.112  1.00  0.00    -0.137 S 
ATOM     80  C   UNL A   1      30.525  26.575  24.026  1.00  0.00     0.111 A 
ATOM     81  C   UNL A   1      28.404  27.414  23.476  1.00  0.00     0.067 A 
ATOM     82  C   UNL A   1      29.107  26.331  23.940  1.00  0.00     0.035 A 
BRANCH  80  83
ATOM     83  S   UNL A   1      31.537  25.338  24.710  1.00  0.00     0.263 S 
ATOM     84  O   UNL A   1      31.377  25.511  26.132  1.00  0.00    -0.201 OA
ATOM     85  O   UNL A   1      31.047  24.136  24.054  1.00  0.00    -0.201 OA
BRANCH  83  86
ATOM     86  N   UNL A   1      33.158  25.398  24.353  1.00  0.00    -0.280 N 
ATOM     87  H   UNL A   1      33.481  26.183  23.854  1.00  0.00     0.180 HD
BRANCH  86  88
ATOM     88  C   UNL A   1      34.114  24.416  24.707  1.00  0.00     0.049 A 
ATOM     89  C   UNL A   1      34.932  23.964  23.668  1.00  0.00     0.027 A 
ATOM     90  C   UNL A   1      34.393  24.034  26.008  1.00  0.00     0.027 A 
ATOM     91  C   UNL A   1      36.149  23.337  23.940  1.00  0.00     0.014 A 
ATOM     92  C   UNL A   1      35.603  23.391  26.276  1.00  0.00     0.014 A 
ATOM     93  C   UNL A   1      36.540  23.124  25.258  1.00  0.00     0.018 A 
BRANCH  93  94
ATOM     94  C   UNL A   1      37.883  22.691  25.671  1.00  0.00     0.145 A 
ATOM     95  N   UNL A   1      38.343  21.485  25.380  1.00  0.00    -0.228 NA
ATOM     96  N   UNL A   1      38.770  23.334  26.523  1.00  0.00    -0.266 N 
ATOM     97  C   UNL A   1      39.465  21.299  26.130  1.00  0.00     0.089 A 
ATOM     98  C   UNL A   1      39.767  22.437  26.866  1.00  0.00     0.074 A 
ATOM     99  C   UNL A   1      40.265  20.156  26.243  1.00  0.00     0.030 A 
ATOM    100  C   UNL A   1      40.868  22.490  27.734  1.00  0.00     0.029 A 
ATOM    101  C   UNL A   1      41.362  20.185  27.107  1.00  0.00     0.002 A 
ATOM    102  C   UNL A   1      41.656  21.335  27.840  1.00  0.00     0.002 A 
BRANCH  96 103
ATOM    103  C   UNL A   1      38.693  24.689  27.023  1.00  0.00     0.451 C 
ATOM    104  F   UNL A   1      38.934  24.733  28.362  1.00  0.00    -0.185 F 
ATOM    105  F   UNL A   1      39.593  25.526  26.438  1.00  0.00    -0.185 F 
ENDBRANCH  96 103
ENDBRANCH  93  94
ENDBRANCH  86  88
ENDBRANCH  83  86
ENDBRANCH  80  83
ENDBRANCH  75  78
ENDBRANCH   1  74
TORSDOF 16
ENDMDL
MODEL 3
REMARK VINA RESULT:     -13.2      2.433      5.282
REMARK SMILES O=C(NCCCCNC(=O)c1sccc1S(=O)(=O)Nc1ccc(-c2nc3ccccc3n2C(F)F)cc1)c1ccc(-c2c3nc(c(-c4c(F)c(F)c(F)c(F)c4F)c4ccc([nH]4)c(-c4c(F)c(F)c(F)c(F)c4F)c4nc(c(-c5c(F)c(F)c(F)c(F)c5F)c5ccc2[nH]5)C=C4)C=C3)cc1
REMARK SMILES IDX 7 1 6 2 5 3 4 4 3 5 1 6 2 7 38 9 39 10 100 11 40 12 99 13
REMARK SMILES IDX 41 14 42 15 43 16 93 17 44 18 98 19 92 20 94 21 45 22 97 23
REMARK SMILES IDX 91 24 90 25 46 27 78 28 58 29 77 30 59 31 62 32 76 33 95 34
REMARK SMILES IDX 60 35 61 36 75 38 96 39 63 40 47 41 48 42 56 43 49 44 50 45
REMARK SMILES IDX 54 46 57 47 51 48 52 49 55 50 53 51 79 52 80 53 88 54 81 55
REMARK SMILES IDX 82 56 86 57 89 58 83 59 84 60 87 61 85 62 64 63 65 64 73 65
REMARK SMILES IDX 66 66 67 67 71 68 74 69 68 70 69 71 72 72 70 73 8 74 9 75
REMARK SMILES IDX 10 77 11 78 12 79 15 80 13 81 14 82 16 83 17 84 18 85 19 86
REMARK SMILES IDX 20 88 21 89 37 90 22 91 36 92 23 93 24 94 25 95 32 96 26 97
REMARK SMILES IDX 31 98 27 99 30 100 28 101 29 102 33 103 34 104 35 105
REMARK H PARENT 3 8 94 26 62 37 8 76 19 87
REMARK Flexibility Score: inf
ROOT
ATOM      1  C   UNL A   1      32.663  25.860  26.207  1.00  0.00     0.116 C 
ENDROOT
BRANCH   1   2
ATOM      2  C   UNL A   1      31.608  26.895  26.590  1.00  0.00     0.023 C 
BRANCH   2   3
ATOM      3  C   UNL A   1      32.068  27.952  27.601  1.00  0.00     0.023 C 
BRANCH   3   4
ATOM      4  C   UNL A   1      33.395  28.633  27.272  1.00  0.00     0.116 C 
BRANCH   4   5
ATOM      5  N   UNL A   1      33.531  30.010  27.690  1.00  0.00    -0.352 N 
ATOM      6  O   UNL A   1      34.406  31.993  28.174  1.00  0.00    -0.269 OA
ATOM      7  C   UNL A   1      34.597  30.782  28.059  1.00  0.00     0.251 C 
ATOM      8  H   UNL A   1      32.675  30.495  27.713  1.00  0.00     0.163 HD
BRANCH   7   9
ATOM      9  C   UNL A   1      35.930  30.236  28.408  1.00  0.00     0.039 A 
ATOM     10  C   UNL A   1      36.278  29.687  29.642  1.00  0.00     0.014 A 
ATOM     11  C   UNL A   1      36.891  30.279  27.384  1.00  0.00     0.014 A 
ATOM     12  C   UNL A   1      37.587  29.275  29.882  1.00  0.00     0.010 A 
ATOM     13  C   UNL A   1      38.189  29.836  27.607  1.00  0.00     0.010 A 
ATOM     14  C   UNL A   1      38.546  29.360  28.867  1.00  0.00    -0.014 A 
BRANCH  14  15
ATOM     15  C   UNL A   1      39.869  28.788  29.115  1.00  0.00     0.031 A 
ATOM     16  C   UNL A   1      40.259  28.640  30.552  1.00  0.00     0.074 A 
ATOM     17  C   UNL A   1      40.632  28.231  28.154  1.00  0.00     0.049 A 
ATOM     18  N   UNL A   1      41.351  29.017  31.141  1.00  0.00    -0.248 NA
ATOM     19  C   UNL A   1      39.281  28.013  31.456  1.00  0.00     0.031 C 
ATOM     20  C   UNL A   1      40.276  27.985  26.756  1.00  0.00     0.029 A 
ATOM     21  N   UNL A   1      41.864  27.653  28.270  1.00  0.00    -0.354 N 
ATOM     22  C   UNL A   1      41.263  28.553  32.454  1.00  0.00     0.074 A 
ATOM     23  C   UNL A   1      39.936  28.019  32.616  1.00  0.00     0.031 C 
ATOM     24  C   UNL A   1      41.170  27.126  26.216  1.00  0.00     0.029 A 
ATOM     25  C   UNL A   1      42.219  26.864  27.188  1.00  0.00     0.049 A 
ATOM     26  H   UNL A   1      42.446  27.783  29.053  1.00  0.00     0.167 HD
ATOM     27  C   UNL A   1      42.341  28.493  33.285  1.00  0.00     0.037 A 
ATOM     28  C   UNL A   1      43.260  25.999  27.119  1.00  0.00     0.037 A 
ATOM     29  C   UNL A   1      43.401  29.361  32.858  1.00  0.00     0.049 A 
ATOM     30  C   UNL A   1      44.222  26.345  28.191  1.00  0.00     0.074 A 
ATOM     31  C   UNL A   1      43.525  30.725  32.675  1.00  0.00     0.029 A 
ATOM     32  N   UNL A   1      44.510  28.813  32.269  1.00  0.00    -0.354 N 
ATOM     33  N   UNL A   1      44.973  27.409  28.198  1.00  0.00    -0.248 NA
ATOM     34  C   UNL A   1      44.102  25.656  29.466  1.00  0.00     0.031 C 
ATOM     35  C   UNL A   1      44.421  30.873  31.576  1.00  0.00     0.029 A 
ATOM     36  C   UNL A   1      44.798  29.590  31.178  1.00  0.00     0.049 A 
ATOM     37  H   UNL A   1      45.004  28.016  32.572  1.00  0.00     0.167 HD
ATOM     38  C   UNL A   1      45.073  27.757  29.536  1.00  0.00     0.074 A 
ATOM     39  C   UNL A   1      44.628  26.581  30.271  1.00  0.00     0.031 C 
ATOM     40  C   UNL A   1      45.239  29.058  29.912  1.00  0.00     0.037 A 
BRANCH  27  41
ATOM     41  C   UNL A   1      42.546  27.431  34.336  1.00  0.00     0.064 A 
ATOM     42  C   UNL A   1      43.097  26.184  33.976  1.00  0.00     0.173 A 
ATOM     43  C   UNL A   1      41.953  27.487  35.616  1.00  0.00     0.173 A 
ATOM     44  F   UNL A   1      43.658  26.007  32.771  1.00  0.00    -0.203 F 
ATOM     45  C   UNL A   1      43.003  25.065  34.810  1.00  0.00     0.198 A 
ATOM     46  C   UNL A   1      41.910  26.384  36.467  1.00  0.00     0.198 A 
ATOM     47  F   UNL A   1      41.302  28.577  36.044  1.00  0.00    -0.203 F 
ATOM     48  F   UNL A   1      43.435  23.874  34.376  1.00  0.00    -0.200 F 
ATOM     49  C   UNL A   1      42.408  25.166  36.053  1.00  0.00     0.200 A 
ATOM     50  F   UNL A   1      41.310  26.495  37.662  1.00  0.00    -0.200 F 
ATOM     51  F   UNL A   1      42.266  24.084  36.830  1.00  0.00    -0.200 F 
ENDBRANCH  27  41
BRANCH  28  52
ATOM     52  C   UNL A   1      43.367  24.742  26.346  1.00  0.00     0.064 A 
ATOM     53  C   UNL A   1      44.319  24.596  25.325  1.00  0.00     0.173 A 
ATOM     54  C   UNL A   1      42.715  23.568  26.769  1.00  0.00     0.173 A 
ATOM     55  F   UNL A   1      45.019  25.657  24.898  1.00  0.00    -0.203 F 
ATOM     56  C   UNL A   1      44.616  23.346  24.774  1.00  0.00     0.198 A 
ATOM     57  C   UNL A   1      43.001  22.323  26.209  1.00  0.00     0.198 A 
ATOM     58  F   UNL A   1      41.855  23.590  27.797  1.00  0.00    -0.203 F 
ATOM     59  F   UNL A   1      45.576  23.236  23.845  1.00  0.00    -0.200 F 
ATOM     60  C   UNL A   1      43.961  22.210  25.221  1.00  0.00     0.200 A 
ATOM     61  F   UNL A   1      42.386  21.227  26.675  1.00  0.00    -0.200 F 
ATOM     62  F   UNL A   1      44.284  21.004  24.732  1.00  0.00    -0.200 F 
ENDBRANCH  28  52
BRANCH  40  63
ATOM     63  C   UNL A   1      45.628  30.050  28.856  1.00  0.00     0.064 A 
ATOM     64  C   UNL A   1      44.707  30.691  28.009  1.00  0.00     0.173 A 
ATOM     65  C   UNL A   1      46.964  30.468  28.792  1.00  0.00     0.173 A 
ATOM     66  F   UNL A   1      43.396  30.429  28.090  1.00  0.00    -0.203 F 
ATOM     67  C   UNL A   1      45.118  31.666  27.103  1.00  0.00     0.198 A 
ATOM     68  C   UNL A   1      47.365  31.471  27.914  1.00  0.00     0.198 A 
ATOM     69  F   UNL A   1      47.876  29.938  29.622  1.00  0.00    -0.203 F 
ATOM     70  F   UNL A   1      44.223  32.254  26.296  1.00  0.00    -0.200 F 
ATOM     71  C   UNL A   1      46.446  32.060  27.061  1.00  0.00     0.200 A 
ATOM     72  F   UNL A   1      48.639  31.889  27.916  1.00  0.00    -0.200 F 
ATOM     73  F   UNL A   1      46.833  33.030  26.221  1.00  0.00    -0.200 F 
ENDBRANCH  40  63
ENDBRANCH  14  15
ENDBRANCH   7   9
ENDBRANCH   4   5
ENDBRANCH   3   4
ENDBRANCH   2   3
ENDBRANCH   1   2
BRANCH   1  74
ATOM     74  N   UNL A   1      32.223  24.512  26.493  1.00  0.00    -0.351 N 
ATOM     75  C   UNL A   1      32.649  23.327  25.958  1.00  0.00     0.262 C 
ATOM     76  H   UNL A   1      31.513  24.437  27.170  1.00  0.00     0.163 HD
ATOM     77  O   UNL A   1      31.954  22.339  26.206  1.00  0.00    -0.268 OA
BRANCH  75  78
ATOM     78  C   UNL A   1      33.804  23.282  25.089  1.00  0.00     0.112 A 
ATOM     79  S   UNL A   1      35.296  23.720  25.853  1.00  0.00    -0.137 S 
ATOM     80  C   UNL A   1      33.998  23.036  23.739  1.00  0.00     0.111 A 
ATOM     81  C   UNL A   1      36.193  23.500  24.427  1.00  0.00     0.067 A 
ATOM     82  C   UNL A   1      35.391  23.125  23.378  1.00  0.00     0.035 A 
BRANCH  80  83
ATOM     83  S   UNL A   1      32.841  22.689  22.490  1.00  0.00     0.263 S 
ATOM     84  O   UNL A   1      33.462  23.200  21.294  1.00  0.00    -0.201 OA
ATOM     85  O   UNL A   1      32.623  21.259  22.655  1.00  0.00    -0.201 OA
BRANCH  83  86
ATOM     86  N   UNL A   1      31.336  23.376  22.634  1.00  0.00    -0.280 N 
ATOM     87  H   UNL A   1      30.560  22.815  22.402  1.00  0.00     0.180 HD
BRANCH  86  88
ATOM     88  C   UNL A   1      31.074  24.699  23.064  1.00  0.00     0.049 A 
ATOM     89  C   UNL A   1      31.896  25.688  22.515  1.00  0.00     0.027 A 
ATOM     90  C   UNL A   1      29.977  25.070  23.822  1.00  0.00     0.027 A 
ATOM     91  C   UNL A   1      31.499  27.025  22.517  1.00  0.00     0.014 A 
ATOM     92  C   UNL A   1      29.592  26.412  23.838  1.00  0.00     0.014 A 
ATOM     93  C   UNL A   1      30.291  27.390  23.104  1.00  0.00     0.018 A 
BRANCH  93  94
ATOM     94  C   UNL A   1      29.662  28.712  22.968  1.00  0.00     0.145 A 
ATOM     95  N   UNL A   1      28.804  28.976  21.997  1.00  0.00    -0.228 NA
ATOM     96  N   UNL A   1      29.959  29.880  23.655  1.00  0.00    -0.266 N 
ATOM     97  C   UNL A   1      28.633  30.327  21.977  1.00  0.00     0.089 A 
ATOM     98  C   UNL A   1      29.344  30.935  23.002  1.00  0.00     0.074 A 
ATOM     99  C   UNL A   1      27.889  31.103  21.080  1.00  0.00     0.030 A 
ATOM    100  C   UNL A   1      29.345  32.327  23.182  1.00  0.00     0.029 A 
ATOM    101  C   UNL A   1      27.883  32.491  21.238  1.00  0.00     0.002 A 
ATOM    102  C   UNL A   1      28.601  33.090  22.273  1.00  0.00     0.002 A 
BRANCH  96 103
ATOM    103  C   UNL A   1      30.789  30.030  24.830  1.00  0.00     0.451 C 
ATOM    104  F   UNL A   1      32.100  29.801  24.539  1.00  0.00    -0.185 F 
ATOM    105  F   UNL A   1      30.724  31.275  25.375  1.00  0.00    -0.185 F 
ENDBRANCH  96 103
ENDBRANCH  93  94
ENDBRANCH  86  88
ENDBRANCH  83  86
ENDBRANCH  80  83
ENDBRANCH  75  78
ENDBRANCH   1  74
TORSDOF 16
ENDMDL
