MODEL 1
REMARK VINA RESULT:     -12.6      0.000      0.000
REMARK SMILES C[NH2+][C@@]1(C(=O)NCCCCNC(=O)c2ccc(-c3c4nc(c(-c5c(F)c(F)c(F)c(F)c5F)c5ccc([nH]5)c(-c5c(F)c(F)c(F)c(F)c5F)c5nc(c(-c6c(F)c(F)c(F)c(F)c6F)c6ccc3[nH]6)C=C5)C=C4)cc2)CCC[C@H]([N@H+](C)C2CC[NH+](C)CC2)C1
REMARK SMILES IDX 8 1 7 2 6 3 4 4 5 5 3 7 77 8 90 9 78 10 80 11 79 12 2 13
REMARK SMILES IDX 1 14 81 17 82 18 83 20 84 21 89 22 85 23 88 24 86 25 87 26
REMARK SMILES IDX 9 28 10 29 11 30 12 31 13 33 14 34 15 35 76 36 16 37 75 38
REMARK SMILES IDX 17 39 18 40 19 41 69 42 20 43 74 44 68 45 70 46 21 47 73 48
REMARK SMILES IDX 67 49 66 50 22 52 54 53 34 54 53 55 35 56 38 57 52 58 71 59
REMARK SMILES IDX 36 60 37 61 51 63 72 64 39 65 23 66 24 67 32 68 25 69 26 70
REMARK SMILES IDX 30 71 33 72 27 73 28 74 31 75 29 76 55 77 56 78 64 79 57 80
REMARK SMILES IDX 58 81 62 82 65 83 59 84 60 85 63 86 61 87 40 88 41 89 49 90
REMARK SMILES IDX 42 91 43 92 47 93 50 94 44 95 45 96 48 97 46 98
REMARK H PARENT 6 6 2 15 2 16 81 19 86 27 11 32 70 51 38 62
REMARK Flexibility Score: inf
ROOT
ATOM      1  C   UNL A   1      35.376  24.044  24.882  1.00  0.00     0.023 C 
ENDROOT
BRANCH   1   2
ATOM      2  C   UNL A   1      34.284  25.041  25.600  1.00  0.00     0.116 C 
BRANCH   2   3
ATOM      3  N   UNL A   1      34.330  26.548  25.598  1.00  0.00    -0.351 N 
ATOM      4  C   UNL A   1      33.159  27.351  25.797  1.00  0.00     0.281 C 
ATOM      5  O   UNL A   1      32.269  26.971  26.565  1.00  0.00    -0.268 OA
ATOM      6  H   UNL A   1      35.195  26.997  25.457  1.00  0.00     0.163 HD
BRANCH   4   7
ATOM      7  C   UNL A   1      33.041  28.827  25.087  1.00  0.00     0.181 C 
ATOM      8  C   UNL A   1      31.635  29.558  25.160  1.00  0.00     0.079 C 
ATOM      9  C   UNL A   1      33.398  28.707  23.601  1.00  0.00     0.144 C 
ATOM     10  C   UNL A   1      30.590  29.472  24.040  1.00  0.00     0.013 C 
ATOM     11  C   UNL A   1      32.240  28.025  22.801  1.00  0.00     0.190 C 
ATOM     12  C   UNL A   1      31.086  28.993  22.706  1.00  0.00     0.065 C 
BRANCH   7  13
ATOM     13  N   UNL A   1      34.040  29.725  25.792  1.00  0.00    -0.336 N 
ATOM     14  C   UNL A   1      33.519  30.357  27.022  1.00  0.00     0.331 C 
ATOM     15  H   UNL A   1      34.856  29.164  26.040  1.00  0.00     0.346 HD
ATOM     16  H   UNL A   1      34.265  30.481  25.145  1.00  0.00     0.346 HD
ENDBRANCH   7  13
BRANCH  11  17
ATOM     17  N   UNL A   1      32.078  26.611  23.229  1.00  0.00    -0.332 N 
ATOM     18  C   UNL A   1      33.154  25.915  22.470  1.00  0.00     0.333 C 
ATOM     19  H   UNL A   1      32.091  26.679  24.247  1.00  0.00     0.348 HD
BRANCH  17  20
ATOM     20  C   UNL A   1      30.800  25.806  23.407  1.00  0.00     0.195 C 
ATOM     21  C   UNL A   1      29.841  25.961  24.592  1.00  0.00     0.126 C 
ATOM     22  C   UNL A   1      30.784  24.199  23.327  1.00  0.00     0.126 C 
ATOM     23  C   UNL A   1      30.220  25.120  25.828  1.00  0.00     0.268 C 
ATOM     24  C   UNL A   1      31.041  23.322  24.549  1.00  0.00     0.268 C 
ATOM     25  N   UNL A   1      30.112  23.673  25.608  1.00  0.00    -0.337 N 
ATOM     26  C   UNL A   1      30.507  22.940  26.819  1.00  0.00     0.332 C 
ATOM     27  H   UNL A   1      29.151  23.432  25.367  1.00  0.00     0.347 HD
ENDBRANCH  17  20
ENDBRANCH  11  17
ENDBRANCH   4   7
ENDBRANCH   2   3
ENDBRANCH   1   2
BRANCH   1  28
ATOM     28  C   UNL A   1      35.713  22.386  24.875  1.00  0.00     0.023 C 
BRANCH  28  29
ATOM     29  C   UNL A   1      36.720  21.549  25.737  1.00  0.00     0.116 C 
BRANCH  29  30
ATOM     30  N   UNL A   1      38.054  21.174  25.245  1.00  0.00    -0.352 N 
ATOM     31  C   UNL A   1      39.234  21.289  25.997  1.00  0.00     0.251 C 
ATOM     32  H   UNL A   1      38.124  20.821  24.329  1.00  0.00     0.163 HD
ATOM     33  O   UNL A   1      40.092  20.432  25.980  1.00  0.00    -0.269 OA
BRANCH  31  34
ATOM     34  C   UNL A   1      39.502  22.571  26.686  1.00  0.00     0.039 A 
ATOM     35  C   UNL A   1      40.511  22.552  27.649  1.00  0.00     0.014 A 
ATOM     36  C   UNL A   1      38.862  23.764  26.351  1.00  0.00     0.014 A 
ATOM     37  C   UNL A   1      40.999  23.754  28.157  1.00  0.00     0.010 A 
ATOM     38  C   UNL A   1      39.395  24.973  26.815  1.00  0.00     0.010 A 
ATOM     39  C   UNL A   1      40.502  24.979  27.680  1.00  0.00    -0.014 A 
BRANCH  39  40
ATOM     40  C   UNL A   1      41.215  26.233  28.047  1.00  0.00     0.031 A 
ATOM     41  C   UNL A   1      42.623  26.486  27.600  1.00  0.00     0.074 A 
ATOM     42  C   UNL A   1      40.564  27.169  28.772  1.00  0.00     0.049 A 
ATOM     43  N   UNL A   1      43.350  27.567  27.738  1.00  0.00    -0.248 NA
ATOM     44  C   UNL A   1      43.311  25.380  26.922  1.00  0.00     0.031 C 
ATOM     45  C   UNL A   1      39.208  27.028  29.308  1.00  0.00     0.029 A 
ATOM     46  N   UNL A   1      40.943  28.431  29.164  1.00  0.00    -0.354 N 
ATOM     47  C   UNL A   1      44.573  27.276  27.152  1.00  0.00     0.074 A 
ATOM     48  C   UNL A   1      44.515  25.897  26.717  1.00  0.00     0.031 C 
ATOM     49  C   UNL A   1      38.850  28.174  29.909  1.00  0.00     0.029 A 
ATOM     50  C   UNL A   1      39.959  29.120  29.835  1.00  0.00     0.049 A 
ATOM     51  H   UNL A   1      41.834  28.807  28.981  1.00  0.00     0.167 HD
ATOM     52  C   UNL A   1      45.637  28.094  26.964  1.00  0.00     0.037 A 
ATOM     53  C   UNL A   1      39.948  30.375  30.326  1.00  0.00     0.037 A 
ATOM     54  C   UNL A   1      45.696  29.467  27.397  1.00  0.00     0.049 A 
ATOM     55  C   UNL A   1      41.158  31.249  30.136  1.00  0.00     0.074 A 
ATOM     56  C   UNL A   1      46.718  30.383  27.221  1.00  0.00     0.029 A 
ATOM     57  N   UNL A   1      44.694  30.118  28.103  1.00  0.00    -0.354 N 
ATOM     58  N   UNL A   1      42.278  30.989  29.507  1.00  0.00    -0.248 NA
ATOM     59  C   UNL A   1      41.099  32.599  30.717  1.00  0.00     0.031 C 
ATOM     60  C   UNL A   1      46.360  31.570  27.870  1.00  0.00     0.029 A 
ATOM     61  C   UNL A   1      45.087  31.416  28.393  1.00  0.00     0.049 A 
ATOM     62  H   UNL A   1      43.832  29.717  28.359  1.00  0.00     0.167 HD
ATOM     63  C   UNL A   1      43.042  32.145  29.589  1.00  0.00     0.074 A 
ATOM     64  C   UNL A   1      42.251  33.117  30.313  1.00  0.00     0.031 C 
ATOM     65  C   UNL A   1      44.288  32.379  29.108  1.00  0.00     0.037 A 
BRANCH  52  66
ATOM     66  C   UNL A   1      46.830  27.522  26.255  1.00  0.00     0.064 A 
ATOM     67  C   UNL A   1      46.981  27.636  24.863  1.00  0.00     0.173 A 
ATOM     68  C   UNL A   1      47.851  26.884  26.974  1.00  0.00     0.173 A 
ATOM     69  F   UNL A   1      46.030  28.230  24.127  1.00  0.00    -0.203 F 
ATOM     70  C   UNL A   1      48.093  27.102  24.217  1.00  0.00     0.198 A 
ATOM     71  C   UNL A   1      48.977  26.381  26.328  1.00  0.00     0.198 A 
ATOM     72  F   UNL A   1      47.762  26.755  28.307  1.00  0.00    -0.203 F 
ATOM     73  F   UNL A   1      48.189  27.177  22.882  1.00  0.00    -0.200 F 
ATOM     74  C   UNL A   1      49.093  26.482  24.950  1.00  0.00     0.200 A 
ATOM     75  F   UNL A   1      49.952  25.797  27.040  1.00  0.00    -0.200 F 
ATOM     76  F   UNL A   1      50.166  25.977  24.326  1.00  0.00    -0.200 F 
ENDBRANCH  52  66
BRANCH  53  77
ATOM     77  C   UNL A   1      38.741  30.895  31.027  1.00  0.00     0.064 A 
ATOM     78  C   UNL A   1      38.624  30.821  32.423  1.00  0.00     0.173 A 
ATOM     79  C   UNL A   1      37.669  31.452  30.315  1.00  0.00     0.173 A 
ATOM     80  F   UNL A   1      39.611  30.274  33.148  1.00  0.00    -0.203 F 
ATOM     81  C   UNL A   1      37.473  31.259  33.075  1.00  0.00     0.198 A 
ATOM     82  C   UNL A   1      36.532  31.921  30.971  1.00  0.00     0.198 A 
ATOM     83  F   UNL A   1      37.727  31.550  28.979  1.00  0.00    -0.203 F 
ATOM     84  F   UNL A   1      37.366  31.124  34.404  1.00  0.00    -0.200 F 
ATOM     85  C   UNL A   1      36.430  31.814  32.349  1.00  0.00     0.200 A 
ATOM     86  F   UNL A   1      35.533  32.469  30.267  1.00  0.00    -0.200 F 
ATOM     87  F   UNL A   1      35.324  32.236  32.976  1.00  0.00    -0.200 F 
ENDBRANCH  53  77
BRANCH  65  88
ATOM     88  C   UNL A   1      44.863  33.753  29.313  1.00  0.00     0.064 A 
ATOM     89  C   UNL A   1      44.641  34.793  28.398  1.00  0.00     0.173 A 
ATOM     90  C   UNL A   1      45.610  34.044  30.467  1.00  0.00     0.173 A 
ATOM     91  F   UNL A   1      43.947  34.566  27.274  1.00  0.00    -0.203 F 
ATOM     92  C   UNL A   1      45.169  36.064  28.616  1.00  0.00     0.198 A 
ATOM     93  C   UNL A   1      46.106  35.324  30.698  1.00  0.00     0.198 A 
ATOM     94  F   UNL A   1      45.846  33.089  31.378  1.00  0.00    -0.203 F 
ATOM     95  F   UNL A   1      44.987  37.028  27.702  1.00  0.00    -0.200 F 
ATOM     96  C   UNL A   1      45.892  36.331  29.768  1.00  0.00     0.200 A 
ATOM     97  F   UNL A   1      46.791  35.583  31.820  1.00  0.00    -0.200 F 
ATOM     98  F   UNL A   1      46.390  37.556  29.981  1.00  0.00    -0.200 F 
ENDBRANCH  65  88
ENDBRANCH  39  40
ENDBRANCH  31  34
ENDBRANCH  29  30
ENDBRANCH  28  29
ENDBRANCH   1  28
TORSDOF 14
ENDMDL
MODEL 2
REMARK VINA RESULT:     -12.6      4.053      9.732
REMARK SMILES C[NH2+][C@@]1(C(=O)NCCCCNC(=O)c2ccc(-c3c4nc(c(-c5c(F)c(F)c(F)c(F)c5F)c5ccc([nH]5)c(-c5c(F)c(F)c(F)c(F)c5F)c5nc(c(-c6c(F)c(F)c(F)c(F)c6F)c6ccc3[nH]6)C=C5)C=C4)cc2)CCC[C@H]([N@H+](C)C2CC[NH+](C)CC2)C1
REMARK SMILES IDX 8 1 7 2 6 3 4 4 5 5 3 7 77 8 90 9 78 10 80 11 79 12 2 13
REMARK SMILES IDX 1 14 81 17 82 18 83 20 84 21 89 22 85 23 88 24 86 25 87 26
REMARK SMILES IDX 9 28 10 29 11 30 12 31 13 33 14 34 15 35 76 36 16 37 75 38
REMARK SMILES IDX 17 39 18 40 19 41 69 42 20 43 74 44 68 45 70 46 21 47 73 48
REMARK SMILES IDX 67 49 66 50 22 52 54 53 34 54 53 55 35 56 38 57 52 58 71 59
REMARK SMILES IDX 36 60 37 61 51 63 72 64 39 65 23 66 24 67 32 68 25 69 26 70
REMARK SMILES IDX 30 71 33 72 27 73 28 74 31 75 29 76 55 77 56 78 64 79 57 80
REMARK SMILES IDX 58 81 62 82 65 83 59 84 60 85 63 86 61 87 40 88 41 89 49 90
REMARK SMILES IDX 42 91 43 92 47 93 50 94 44 95 45 96 48 97 46 98
REMARK H PARENT 6 6 2 15 2 16 81 19 86 27 11 32 70 51 38 62
REMARK Flexibility Score: inf
ROOT
ATOM      1  C   UNL A   1      31.148  28.606  24.555  1.00  0.00     0.023 C 
ENDROOT
BRANCH   1   2
ATOM      2  C   UNL A   1      30.668  27.075  24.193  1.00  0.00     0.116 C 
BRANCH   2   3
ATOM      3  N   UNL A   1      30.340  25.994  25.192  1.00  0.00    -0.351 N 
ATOM      4  C   UNL A   1      31.355  25.208  25.831  1.00  0.00     0.281 C 
ATOM      5  O   UNL A   1      32.441  25.718  26.124  1.00  0.00    -0.268 OA
ATOM      6  H   UNL A   1      29.396  25.821  25.412  1.00  0.00     0.163 HD
BRANCH   4   7
ATOM      7  C   UNL A   1      31.041  23.658  26.273  1.00  0.00     0.181 C 
ATOM      8  C   UNL A   1      32.017  22.994  27.333  1.00  0.00     0.079 C 
ATOM      9  C   UNL A   1      31.064  22.760  25.030  1.00  0.00     0.144 C 
ATOM     10  C   UNL A   1      33.218  22.126  26.932  1.00  0.00     0.013 C 
ATOM     11  C   UNL A   1      32.529  22.519  24.541  1.00  0.00     0.190 C 
ATOM     12  C   UNL A   1      33.220  21.607  25.525  1.00  0.00     0.065 C 
BRANCH   7  13
ATOM     13  N   UNL A   1      29.656  23.658  26.891  1.00  0.00    -0.336 N 
ATOM     14  C   UNL A   1      29.154  22.314  27.248  1.00  0.00     0.331 C 
ATOM     15  H   UNL A   1      29.683  24.226  27.739  1.00  0.00     0.346 HD
ATOM     16  H   UNL A   1      29.019  24.033  26.187  1.00  0.00     0.346 HD
ENDBRANCH   7  13
BRANCH  11  17
ATOM     17  N   UNL A   1      33.128  23.790  24.056  1.00  0.00    -0.332 N 
ATOM     18  C   UNL A   1      32.305  24.100  22.853  1.00  0.00     0.333 C 
ATOM     19  H   UNL A   1      33.114  24.380  24.887  1.00  0.00     0.348 HD
BRANCH  17  20
ATOM     20  C   UNL A   1      34.595  24.173  23.939  1.00  0.00     0.195 C 
ATOM     21  C   UNL A   1      35.630  23.384  23.129  1.00  0.00     0.126 C 
ATOM     22  C   UNL A   1      35.509  24.461  25.232  1.00  0.00     0.126 C 
ATOM     23  C   UNL A   1      36.278  22.213  23.897  1.00  0.00     0.268 C 
ATOM     24  C   UNL A   1      36.262  23.350  25.959  1.00  0.00     0.268 C 
ATOM     25  N   UNL A   1      37.116  22.643  25.022  1.00  0.00    -0.337 N 
ATOM     26  C   UNL A   1      37.680  21.476  25.715  1.00  0.00     0.332 C 
ATOM     27  H   UNL A   1      37.876  23.231  24.681  1.00  0.00     0.347 HD
ENDBRANCH  17  20
ENDBRANCH  11  17
ENDBRANCH   4   7
ENDBRANCH   2   3
ENDBRANCH   1   2
BRANCH   1  28
ATOM     28  C   UNL A   1      31.742  29.422  25.912  1.00  0.00     0.023 C 
BRANCH  28  29
ATOM     29  C   UNL A   1      32.587  30.739  26.018  1.00  0.00     0.116 C 
BRANCH  29  30
ATOM     30  N   UNL A   1      32.464  31.663  27.155  1.00  0.00    -0.352 N 
ATOM     31  C   UNL A   1      33.523  32.430  27.666  1.00  0.00     0.251 C 
ATOM     32  H   UNL A   1      31.583  31.749  27.585  1.00  0.00     0.163 HD
ATOM     33  O   UNL A   1      33.374  33.584  28.009  1.00  0.00    -0.269 OA
BRANCH  31  34
ATOM     34  C   UNL A   1      34.805  31.748  27.952  1.00  0.00     0.039 A 
ATOM     35  C   UNL A   1      35.930  32.569  28.051  1.00  0.00     0.014 A 
ATOM     36  C   UNL A   1      34.902  30.379  28.199  1.00  0.00     0.014 A 
ATOM     37  C   UNL A   1      37.115  32.050  28.563  1.00  0.00     0.010 A 
ATOM     38  C   UNL A   1      36.076  29.874  28.772  1.00  0.00     0.010 A 
ATOM     39  C   UNL A   1      37.174  30.719  29.008  1.00  0.00    -0.014 A 
BRANCH  39  40
ATOM     40  C   UNL A   1      38.365  30.273  29.782  1.00  0.00     0.031 A 
ATOM     41  C   UNL A   1      38.580  30.710  31.198  1.00  0.00     0.074 A 
ATOM     42  C   UNL A   1      39.249  29.434  29.198  1.00  0.00     0.049 A 
ATOM     43  N   UNL A   1      39.501  30.329  32.048  1.00  0.00    -0.248 NA
ATOM     44  C   UNL A   1      37.650  31.714  31.730  1.00  0.00     0.031 C 
ATOM     45  C   UNL A   1      39.181  28.968  27.811  1.00  0.00     0.029 A 
ATOM     46  N   UNL A   1      40.363  28.805  29.701  1.00  0.00    -0.354 N 
ATOM     47  C   UNL A   1      39.253  31.035  33.216  1.00  0.00     0.074 A 
ATOM     48  C   UNL A   1      38.137  31.916  32.946  1.00  0.00     0.031 C 
ATOM     49  C   UNL A   1      40.172  28.090  27.591  1.00  0.00     0.029 A 
ATOM     50  C   UNL A   1      40.969  27.954  28.806  1.00  0.00     0.049 A 
ATOM     51  H   UNL A   1      40.696  28.950  30.616  1.00  0.00     0.167 HD
ATOM     52  C   UNL A   1      39.878  30.935  34.415  1.00  0.00     0.037 A 
ATOM     53  C   UNL A   1      42.040  27.148  28.950  1.00  0.00     0.037 A 
ATOM     54  C   UNL A   1      40.988  30.058  34.684  1.00  0.00     0.049 A 
ATOM     55  C   UNL A   1      42.737  27.085  30.283  1.00  0.00     0.074 A 
ATOM     56  C   UNL A   1      41.664  29.863  35.876  1.00  0.00     0.029 A 
ATOM     57  N   UNL A   1      41.595  29.238  33.743  1.00  0.00    -0.354 N 
ATOM     58  N   UNL A   1      42.441  27.697  31.403  1.00  0.00    -0.248 NA
ATOM     59  C   UNL A   1      43.915  26.210  30.373  1.00  0.00     0.031 C 
ATOM     60  C   UNL A   1      42.715  28.969  35.644  1.00  0.00     0.029 A 
ATOM     61  C   UNL A   1      42.654  28.556  34.323  1.00  0.00     0.049 A 
ATOM     62  H   UNL A   1      41.315  29.152  32.804  1.00  0.00     0.167 HD
ATOM     63  C   UNL A   1      43.372  27.260  32.336  1.00  0.00     0.074 A 
ATOM     64  C   UNL A   1      44.233  26.316  31.656  1.00  0.00     0.031 C 
ATOM     65  C   UNL A   1      43.501  27.611  33.639  1.00  0.00     0.037 A 
BRANCH  52  66
ATOM     66  C   UNL A   1      39.369  31.799  35.531  1.00  0.00     0.064 A 
ATOM     67  C   UNL A   1      38.433  31.320  36.463  1.00  0.00     0.173 A 
ATOM     68  C   UNL A   1      39.846  33.108  35.697  1.00  0.00     0.173 A 
ATOM     69  F   UNL A   1      37.938  30.079  36.346  1.00  0.00    -0.203 F 
ATOM     70  C   UNL A   1      37.970  32.131  37.495  1.00  0.00     0.198 A 
ATOM     71  C   UNL A   1      39.405  33.904  36.750  1.00  0.00     0.198 A 
ATOM     72  F   UNL A   1      40.747  33.613  34.841  1.00  0.00    -0.203 F 
ATOM     73  F   UNL A   1      37.037  31.670  38.340  1.00  0.00    -0.200 F 
ATOM     74  C   UNL A   1      38.461  33.419  37.643  1.00  0.00     0.200 A 
ATOM     75  F   UNL A   1      39.894  35.143  36.902  1.00  0.00    -0.200 F 
ATOM     76  F   UNL A   1      38.021  34.195  38.643  1.00  0.00    -0.200 F 
ENDBRANCH  52  66
BRANCH  53  77
ATOM     77  C   UNL A   1      42.509  26.313  27.810  1.00  0.00     0.064 A 
ATOM     78  C   UNL A   1      43.489  26.782  26.922  1.00  0.00     0.173 A 
ATOM     79  C   UNL A   1      41.969  25.042  27.567  1.00  0.00     0.173 A 
ATOM     80  F   UNL A   1      44.020  28.001  27.095  1.00  0.00    -0.203 F 
ATOM     81  C   UNL A   1      43.891  26.023  25.825  1.00  0.00     0.198 A 
ATOM     82  C   UNL A   1      42.395  24.270  26.488  1.00  0.00     0.198 A 
ATOM     83  F   UNL A   1      41.030  24.543  28.385  1.00  0.00    -0.203 F 
ATOM     84  F   UNL A   1      44.788  26.519  24.962  1.00  0.00    -0.200 F 
ATOM     85  C   UNL A   1      43.347  24.765  25.611  1.00  0.00     0.200 A 
ATOM     86  F   UNL A   1      41.878  23.049  26.295  1.00  0.00    -0.200 F 
ATOM     87  F   UNL A   1      43.735  24.035  24.557  1.00  0.00    -0.200 F 
ENDBRANCH  53  77
BRANCH  65  88
ATOM     88  C   UNL A   1      44.591  26.944  34.432  1.00  0.00     0.064 A 
ATOM     89  C   UNL A   1      44.388  25.719  35.083  1.00  0.00     0.173 A 
ATOM     90  C   UNL A   1      45.870  27.520  34.501  1.00  0.00     0.173 A 
ATOM     91  F   UNL A   1      43.182  25.133  35.060  1.00  0.00    -0.203 F 
ATOM     92  C   UNL A   1      45.417  25.108  35.798  1.00  0.00     0.198 A 
ATOM     93  C   UNL A   1      46.905  26.890  35.188  1.00  0.00     0.198 A 
ATOM     94  F   UNL A   1      46.121  28.687  33.891  1.00  0.00    -0.203 F 
ATOM     95  F   UNL A   1      45.185  23.964  36.456  1.00  0.00    -0.200 F 
ATOM     96  C   UNL A   1      46.675  25.689  35.843  1.00  0.00     0.200 A 
ATOM     97  F   UNL A   1      48.124  27.445  35.215  1.00  0.00    -0.200 F 
ATOM     98  F   UNL A   1      47.665  25.096  36.522  1.00  0.00    -0.200 F 
ENDBRANCH  65  88
ENDBRANCH  39  40
ENDBRANCH  31  34
ENDBRANCH  29  30
ENDBRANCH  28  29
ENDBRANCH   1  28
TORSDOF 14
ENDMDL
MODEL 3
REMARK VINA RESULT:     -12.6      3.983      9.624
REMARK SMILES C[NH2+][C@@]1(C(=O)NCCCCNC(=O)c2ccc(-c3c4nc(c(-c5c(F)c(F)c(F)c(F)c5F)c5ccc([nH]5)c(-c5c(F)c(F)c(F)c(F)c5F)c5nc(c(-c6c(F)c(F)c(F)c(F)c6F)c6ccc3[nH]6)C=C5)C=C4)cc2)CCC[C@H]([N@H+](C)C2CC[NH+](C)CC2)C1
REMARK SMILES IDX 8 1 7 2 6 3 4 4 5 5 3 7 77 8 90 9 78 10 80 11 79 12 2 13
REMARK SMILES IDX 1 14 81 17 82 18 83 20 84 21 89 22 85 23 88 24 86 25 87 26
REMARK SMILES IDX 9 28 10 29 11 30 12 31 13 33 14 34 15 35 76 36 16 37 75 38
REMARK SMILES IDX 17 39 18 40 19 41 69 42 20 43 74 44 68 45 70 46 21 47 73 48
REMARK SMILES IDX 67 49 66 50 22 52 54 53 34 54 53 55 35 56 38 57 52 58 71 59
REMARK SMILES IDX 36 60 37 61 51 63 72 64 39 65 23 66 24 67 32 68 25 69 26 70
REMARK SMILES IDX 30 71 33 72 27 73 28 74 31 75 29 76 55 77 56 78 64 79 57 80
REMARK SMILES IDX 58 81 62 82 65 83 59 84 60 85 63 86 61 87 40 88 41 89 49 90
REMARK SMILES IDX 42 91 43 92 47 93 50 94 44 95 45 96 48 97 46 98
REMARK H PARENT 6 6 2 15 2 16 81 19 86 27 11 32 70 51 38 62
REMARK Flexibility Score: inf
ROOT
ATOM      1  C   UNL A   1      32.948  27.656  26.676  1.00  0.00     0.023 C 
ENDROOT
BRANCH   1   2
ATOM      2  C   UNL A   1      33.479  26.423  25.727  1.00  0.00     0.116 C 
BRANCH   2   3
ATOM      3  N   UNL A   1      34.503  25.387  26.117  1.00  0.00    -0.351 N 
ATOM      4  C   UNL A   1      34.810  24.261  25.283  1.00  0.00     0.281 C 
ATOM      5  O   UNL A   1      34.795  24.378  24.054  1.00  0.00    -0.268 OA
ATOM      6  H   UNL A   1      34.978  25.487  26.974  1.00  0.00     0.163 HD
BRANCH   4   7
ATOM      7  C   UNL A   1      35.286  22.841  25.958  1.00  0.00     0.181 C 
ATOM      8  C   UNL A   1      35.456  21.598  24.988  1.00  0.00     0.079 C 
ATOM      9  C   UNL A   1      34.275  22.426  27.033  1.00  0.00     0.144 C 
ATOM     10  C   UNL A   1      34.348  20.561  24.758  1.00  0.00     0.013 C 
ATOM     11  C   UNL A   1      32.957  21.889  26.385  1.00  0.00     0.190 C 
ATOM     12  C   UNL A   1      33.239  20.541  25.768  1.00  0.00     0.065 C 
BRANCH   7  13
ATOM     13  N   UNL A   1      36.641  23.096  26.588  1.00  0.00    -0.336 N 
ATOM     14  C   UNL A   1      37.785  22.785  25.704  1.00  0.00     0.331 C 
ATOM     15  H   UNL A   1      36.695  24.082  26.846  1.00  0.00     0.346 HD
ATOM     16  H   UNL A   1      36.714  22.475  27.393  1.00  0.00     0.346 HD
ENDBRANCH   7  13
BRANCH  11  17
ATOM     17  N   UNL A   1      32.255  22.981  25.660  1.00  0.00    -0.332 N 
ATOM     18  C   UNL A   1      31.527  23.684  26.755  1.00  0.00     0.333 C 
ATOM     19  H   UNL A   1      33.008  23.428  25.138  1.00  0.00     0.348 HD
BRANCH  17  20
ATOM     20  C   UNL A   1      31.513  22.926  24.334  1.00  0.00     0.195 C 
ATOM     21  C   UNL A   1      32.135  22.449  23.018  1.00  0.00     0.126 C 
ATOM     22  C   UNL A   1      30.715  24.194  23.747  1.00  0.00     0.126 C 
ATOM     23  C   UNL A   1      32.890  23.547  22.239  1.00  0.00     0.268 C 
ATOM     24  C   UNL A   1      31.393  25.248  22.877  1.00  0.00     0.268 C 
ATOM     25  N   UNL A   1      32.015  24.611  21.731  1.00  0.00    -0.337 N 
ATOM     26  C   UNL A   1      32.805  25.625  21.020  1.00  0.00     0.332 C 
ATOM     27  H   UNL A   1      31.325  24.214  21.094  1.00  0.00     0.347 HD
ENDBRANCH  17  20
ENDBRANCH  11  17
ENDBRANCH   4   7
ENDBRANCH   2   3
ENDBRANCH   1   2
BRANCH   1  28
ATOM     28  C   UNL A   1      32.026  29.060  26.470  1.00  0.00     0.023 C 
BRANCH  28  29
ATOM     29  C   UNL A   1      32.473  30.542  26.223  1.00  0.00     0.116 C 
BRANCH  29  30
ATOM     30  N   UNL A   1      32.409  31.568  27.274  1.00  0.00    -0.352 N 
ATOM     31  C   UNL A   1      33.487  32.391  27.641  1.00  0.00     0.251 C 
ATOM     32  H   UNL A   1      31.556  31.687  27.751  1.00  0.00     0.163 HD
ATOM     33  O   UNL A   1      33.342  33.570  27.883  1.00  0.00    -0.269 OA
BRANCH  31  34
ATOM     34  C   UNL A   1      34.795  31.750  27.905  1.00  0.00     0.039 A 
ATOM     35  C   UNL A   1      35.884  32.612  28.045  1.00  0.00     0.014 A 
ATOM     36  C   UNL A   1      34.948  30.378  28.096  1.00  0.00     0.014 A 
ATOM     37  C   UNL A   1      37.088  32.122  28.542  1.00  0.00     0.010 A 
ATOM     38  C   UNL A   1      36.139  29.898  28.654  1.00  0.00     0.010 A 
ATOM     39  C   UNL A   1      37.200  30.776  28.932  1.00  0.00    -0.014 A 
BRANCH  39  40
ATOM     40  C   UNL A   1      38.405  30.348  29.692  1.00  0.00     0.031 A 
ATOM     41  C   UNL A   1      38.635  30.798  31.103  1.00  0.00     0.074 A 
ATOM     42  C   UNL A   1      39.290  29.513  29.104  1.00  0.00     0.049 A 
ATOM     43  N   UNL A   1      39.572  30.433  31.943  1.00  0.00    -0.248 NA
ATOM     44  C   UNL A   1      37.702  31.798  31.639  1.00  0.00     0.031 C 
ATOM     45  C   UNL A   1      39.208  29.036  27.721  1.00  0.00     0.029 A 
ATOM     46  N   UNL A   1      40.417  28.899  29.596  1.00  0.00    -0.354 N 
ATOM     47  C   UNL A   1      39.332  31.146  33.108  1.00  0.00     0.074 A 
ATOM     48  C   UNL A   1      38.204  32.015  32.846  1.00  0.00     0.031 C 
ATOM     49  C   UNL A   1      40.204  28.165  27.495  1.00  0.00     0.029 A 
ATOM     50  C   UNL A   1      41.019  28.047  28.700  1.00  0.00     0.049 A 
ATOM     51  H   UNL A   1      40.760  29.054  30.506  1.00  0.00     0.167 HD
ATOM     52  C   UNL A   1      39.973  31.061  34.299  1.00  0.00     0.037 A 
ATOM     53  C   UNL A   1      42.099  27.252  28.836  1.00  0.00     0.037 A 
ATOM     54  C   UNL A   1      41.095  30.197  34.560  1.00  0.00     0.049 A 
ATOM     55  C   UNL A   1      42.815  27.206  30.160  1.00  0.00     0.074 A 
ATOM     56  C   UNL A   1      41.789  30.018  35.745  1.00  0.00     0.029 A 
ATOM     57  N   UNL A   1      41.698  29.375  33.619  1.00  0.00    -0.354 N 
ATOM     58  N   UNL A   1      42.527  27.824  31.280  1.00  0.00    -0.248 NA
ATOM     59  C   UNL A   1      44.002  26.343  30.242  1.00  0.00     0.031 C 
ATOM     60  C   UNL A   1      42.845  29.132  35.506  1.00  0.00     0.029 A 
ATOM     61  C   UNL A   1      42.771  28.708  34.189  1.00  0.00     0.049 A 
ATOM     62  H   UNL A   1      41.406  29.280  32.683  1.00  0.00     0.167 HD
ATOM     63  C   UNL A   1      43.475  27.403  32.203  1.00  0.00     0.074 A 
ATOM     64  C   UNL A   1      44.336  26.462  31.519  1.00  0.00     0.031 C 
ATOM     65  C   UNL A   1      43.618  27.766  33.502  1.00  0.00     0.037 A 
BRANCH  52  66
ATOM     66  C   UNL A   1      39.471  31.930  35.416  1.00  0.00     0.064 A 
ATOM     67  C   UNL A   1      39.890  33.264  35.554  1.00  0.00     0.173 A 
ATOM     68  C   UNL A   1      38.534  31.440  36.337  1.00  0.00     0.173 A 
ATOM     69  F   UNL A   1      40.791  33.780  34.705  1.00  0.00    -0.203 F 
ATOM     70  C   UNL A   1      39.415  34.060  36.592  1.00  0.00     0.198 A 
ATOM     71  C   UNL A   1      38.036  32.250  37.354  1.00  0.00     0.198 A 
ATOM     72  F   UNL A   1      38.093  30.176  36.246  1.00  0.00    -0.203 F 
ATOM     73  F   UNL A   1      39.870  35.312  36.735  1.00  0.00    -0.200 F 
ATOM     74  C   UNL A   1      38.484  33.556  37.487  1.00  0.00     0.200 A 
ATOM     75  F   UNL A   1      37.123  31.766  38.208  1.00  0.00    -0.200 F 
ATOM     76  F   UNL A   1      38.021  34.327  38.480  1.00  0.00    -0.200 F 
ENDBRANCH  52  66
BRANCH  53  77
ATOM     77  C   UNL A   1      42.560  26.412  27.697  1.00  0.00     0.064 A 
ATOM     78  C   UNL A   1      43.549  26.869  26.812  1.00  0.00     0.173 A 
ATOM     79  C   UNL A   1      42.005  25.148  27.451  1.00  0.00     0.173 A 
ATOM     80  F   UNL A   1      44.095  28.082  26.988  1.00  0.00    -0.203 F 
ATOM     81  C   UNL A   1      43.945  26.107  25.715  1.00  0.00     0.198 A 
ATOM     82  C   UNL A   1      42.425  24.372  26.372  1.00  0.00     0.198 A 
ATOM     83  F   UNL A   1      41.058  24.660  28.265  1.00  0.00    -0.203 F 
ATOM     84  F   UNL A   1      44.851  26.593  24.856  1.00  0.00    -0.200 F 
ATOM     85  C   UNL A   1      43.386  24.856  25.499  1.00  0.00     0.200 A 
ATOM     86  F   UNL A   1      41.893  23.158  26.176  1.00  0.00    -0.200 F 
ATOM     87  F   UNL A   1      43.767  24.123  24.445  1.00  0.00    -0.200 F 
ENDBRANCH  53  77
BRANCH  65  88
ATOM     88  C   UNL A   1      44.724  27.116  34.285  1.00  0.00     0.064 A 
ATOM     89  C   UNL A   1      44.539  25.898  34.956  1.00  0.00     0.173 A 
ATOM     90  C   UNL A   1      46.001  27.700  34.326  1.00  0.00     0.173 A 
ATOM     91  F   UNL A   1      43.337  25.305  34.960  1.00  0.00    -0.203 F 
ATOM     92  C   UNL A   1      45.583  25.303  35.662  1.00  0.00     0.198 A 
ATOM     93  C   UNL A   1      47.051  27.085  35.004  1.00  0.00     0.198 A 
ATOM     94  F   UNL A   1      46.235  28.860  33.696  1.00  0.00    -0.203 F 
ATOM     95  F   UNL A   1      45.369  24.166  36.338  1.00  0.00    -0.200 F 
ATOM     96  C   UNL A   1      46.839  25.891  35.678  1.00  0.00     0.200 A 
ATOM     97  F   UNL A   1      48.267  27.647  35.003  1.00  0.00    -0.200 F 
ATOM     98  F   UNL A   1      47.844  25.313  36.349  1.00  0.00    -0.200 F 
ENDBRANCH  65  88
ENDBRANCH  39  40
ENDBRANCH  31  34
ENDBRANCH  29  30
ENDBRANCH  28  29
ENDBRANCH   1  28
TORSDOF 14
ENDMDL
