MODEL 1
REMARK VINA RESULT:     -11.5      0.000      0.000
REMARK SMILES O=C(CSC(=S)NC(=O)c1ccc([N+](=O)[O-])cc1)NCCCCNC(=O)c1ccc(-c2c3nc(c(-c4c(F)c(F)c(F)c(F)c4F)c4ccc([nH]4)c(-c4c(F)c(F)c(F)c(F)c4F)c4nc(c(-c5c(F)c(F)c(F)c(F)c5F)c5ccc2[nH]5)C=C4)C=C3)cc1
REMARK SMILES IDX 20 1 19 2 1 3 2 4 3 6 4 7 5 8 6 9 7 10 8 11 9 13 10 14 11 15
REMARK SMILES IDX 18 16 12 17 17 18 13 19 14 20 15 21 16 22 21 23 22 24 23 25
REMARK SMILES IDX 24 26 25 27 26 29 27 30 28 31 89 32 29 33 88 34 30 35 31 36
REMARK SMILES IDX 32 37 82 38 33 39 87 40 81 41 83 42 34 43 86 44 80 45 79 46
REMARK SMILES IDX 35 48 67 49 47 50 66 51 48 52 51 53 65 54 84 55 49 56 50 57
REMARK SMILES IDX 64 59 85 60 52 61 36 62 37 63 45 64 38 65 39 66 43 67 46 68
REMARK SMILES IDX 40 69 41 70 44 71 42 72 68 73 69 74 77 75 70 76 71 77 75 78
REMARK SMILES IDX 78 79 72 80 73 81 76 82 74 83 53 84 54 85 62 86 55 87 56 88
REMARK SMILES IDX 60 89 63 90 57 91 58 92 61 93 59 94
REMARK H PARENT 19 5 7 12 24 28 83 47 51 58
REMARK Flexibility Score: inf
ROOT
ATOM      1  C   UNL A   1      34.631  32.482  28.290  1.00  0.00     0.116 C 
ENDROOT
BRANCH   1   2
ATOM      2  N   UNL A   1      33.490  32.000  27.548  1.00  0.00    -0.355 N 
ATOM      3  O   UNL A   1      34.164  29.813  27.334  1.00  0.00    -0.274 OA
ATOM      4  C   UNL A   1      33.306  30.678  27.195  1.00  0.00     0.230 C 
ATOM      5  H   UNL A   1      32.803  32.651  27.278  1.00  0.00     0.163 HD
BRANCH   4   6
ATOM      6  C   UNL A   1      31.969  30.396  26.525  1.00  0.00     0.177 C 
BRANCH   6   7
ATOM      7  S   UNL A   1      31.719  28.606  26.304  1.00  0.00    -0.087 SA
BRANCH   7   8
ATOM      8  C   UNL A   1      31.764  28.362  24.574  1.00  0.00     0.141 C 
ATOM      9  S   UNL A   1      32.959  28.916  23.545  1.00  0.00    -0.052 S 
BRANCH   8  10
ATOM     10  N   UNL A   1      30.790  27.521  24.026  1.00  0.00    -0.307 N 
ATOM     11  C   UNL A   1      29.487  27.650  23.537  1.00  0.00     0.256 C 
ATOM     12  H   UNL A   1      31.107  26.590  23.970  1.00  0.00     0.171 HD
ATOM     13  O   UNL A   1      28.701  26.710  23.591  1.00  0.00    -0.269 OA
BRANCH  11  14
ATOM     14  C   UNL A   1      29.038  28.945  22.993  1.00  0.00     0.040 A 
ATOM     15  C   UNL A   1      27.917  29.562  23.561  1.00  0.00     0.021 A 
ATOM     16  C   UNL A   1      29.771  29.577  21.979  1.00  0.00     0.021 A 
ATOM     17  C   UNL A   1      27.592  30.871  23.195  1.00  0.00     0.086 A 
ATOM     18  C   UNL A   1      29.456  30.888  21.618  1.00  0.00     0.086 A 
ATOM     19  C   UNL A   1      28.386  31.539  22.251  1.00  0.00     0.269 A 
BRANCH  19  20
ATOM     20  N   UNL A   1      28.136  32.958  21.968  1.00  0.00     0.062 N 
ATOM     21  O   UNL A   1      28.520  33.787  22.804  1.00  0.00    -0.258 OA
ATOM     22  O   UNL A   1      27.588  33.238  20.893  1.00  0.00    -0.258 OA
ENDBRANCH  19  20
ENDBRANCH  11  14
ENDBRANCH   8  10
ENDBRANCH   7   8
ENDBRANCH   6   7
ENDBRANCH   4   6
ENDBRANCH   1   2
BRANCH   1  23
ATOM     23  C   UNL A   1      34.617  33.997  28.459  1.00  0.00     0.023 C 
BRANCH  23  24
ATOM     24  C   UNL A   1      33.243  34.616  28.738  1.00  0.00     0.023 C 
BRANCH  24  25
ATOM     25  C   UNL A   1      33.253  36.049  29.264  1.00  0.00     0.116 C 
BRANCH  25  26
ATOM     26  N   UNL A   1      32.525  36.201  30.513  1.00  0.00    -0.352 N 
ATOM     27  C   UNL A   1      32.758  35.644  31.745  1.00  0.00     0.251 C 
ATOM     28  H   UNL A   1      31.742  36.797  30.468  1.00  0.00     0.163 HD
ATOM     29  O   UNL A   1      31.930  35.783  32.644  1.00  0.00    -0.269 OA
BRANCH  27  30
ATOM     30  C   UNL A   1      33.981  34.850  32.002  1.00  0.00     0.039 A 
ATOM     31  C   UNL A   1      35.213  35.510  32.044  1.00  0.00     0.014 A 
ATOM     32  C   UNL A   1      33.929  33.465  32.177  1.00  0.00     0.014 A 
ATOM     33  C   UNL A   1      36.378  34.795  32.333  1.00  0.00     0.010 A 
ATOM     34  C   UNL A   1      35.080  32.765  32.538  1.00  0.00     0.010 A 
ATOM     35  C   UNL A   1      36.318  33.422  32.622  1.00  0.00    -0.014 A 
BRANCH  35  36
ATOM     36  C   UNL A   1      37.533  32.666  33.028  1.00  0.00     0.031 A 
ATOM     37  C   UNL A   1      38.219  32.967  34.332  1.00  0.00     0.074 A 
ATOM     38  C   UNL A   1      38.056  31.748  32.191  1.00  0.00     0.049 A 
ATOM     39  N   UNL A   1      39.322  32.461  34.824  1.00  0.00    -0.248 NA
ATOM     40  C   UNL A   1      37.597  33.990  35.186  1.00  0.00     0.031 C 
ATOM     41  C   UNL A   1      37.511  31.393  30.881  1.00  0.00     0.029 A 
ATOM     42  N   UNL A   1      39.170  30.954  32.312  1.00  0.00    -0.354 N 
ATOM     43  C   UNL A   1      39.533  33.112  36.033  1.00  0.00     0.074 A 
ATOM     44  C   UNL A   1      38.472  34.086  36.176  1.00  0.00     0.031 C 
ATOM     45  C   UNL A   1      38.275  30.435  30.331  1.00  0.00     0.029 A 
ATOM     46  C   UNL A   1      39.390  30.141  31.227  1.00  0.00     0.049 A 
ATOM     47  H   UNL A   1      39.757  30.967  33.104  1.00  0.00     0.167 HD
ATOM     48  C   UNL A   1      40.509  32.901  36.949  1.00  0.00     0.037 A 
ATOM     49  C   UNL A   1      40.382  29.265  30.976  1.00  0.00     0.037 A 
ATOM     50  C   UNL A   1      41.551  31.916  36.814  1.00  0.00     0.049 A 
ATOM     51  C   UNL A   1      41.466  29.069  32.002  1.00  0.00     0.074 A 
ATOM     52  C   UNL A   1      42.546  31.584  37.718  1.00  0.00     0.029 A 
ATOM     53  N   UNL A   1      41.737  31.109  35.702  1.00  0.00    -0.354 N 
ATOM     54  N   UNL A   1      41.612  29.637  33.174  1.00  0.00    -0.248 NA
ATOM     55  C   UNL A   1      42.522  28.101  31.670  1.00  0.00     0.031 C 
ATOM     56  C   UNL A   1      43.370  30.620  37.127  1.00  0.00     0.029 A 
ATOM     57  C   UNL A   1      42.850  30.302  35.883  1.00  0.00     0.049 A 
ATOM     58  H   UNL A   1      41.163  31.108  34.901  1.00  0.00     0.167 HD
ATOM     59  C   UNL A   1      42.753  29.075  33.732  1.00  0.00     0.074 A 
ATOM     60  C   UNL A   1      43.252  28.108  32.776  1.00  0.00     0.031 C 
ATOM     61  C   UNL A   1      43.333  29.335  34.929  1.00  0.00     0.037 A 
BRANCH  48  62
ATOM     62  C   UNL A   1      40.503  33.759  38.184  1.00  0.00     0.064 A 
ATOM     63  C   UNL A   1      41.291  34.915  38.285  1.00  0.00     0.173 A 
ATOM     64  C   UNL A   1      39.663  33.444  39.264  1.00  0.00     0.173 A 
ATOM     65  F   UNL A   1      42.119  35.258  37.286  1.00  0.00    -0.203 F 
ATOM     66  C   UNL A   1      41.264  35.705  39.432  1.00  0.00     0.198 A 
ATOM     67  C   UNL A   1      39.613  34.255  40.394  1.00  0.00     0.198 A 
ATOM     68  F   UNL A   1      38.882  32.355  39.219  1.00  0.00    -0.203 F 
ATOM     69  F   UNL A   1      42.067  36.775  39.525  1.00  0.00    -0.200 F 
ATOM     70  C   UNL A   1      40.419  35.379  40.482  1.00  0.00     0.200 A 
ATOM     71  F   UNL A   1      38.784  33.947  41.402  1.00  0.00    -0.200 F 
ATOM     72  F   UNL A   1      40.388  36.146  41.581  1.00  0.00    -0.200 F 
ENDBRANCH  48  62
BRANCH  49  73
ATOM     73  C   UNL A   1      40.389  28.490  29.707  1.00  0.00     0.064 A 
ATOM     74  C   UNL A   1      41.112  28.943  28.593  1.00  0.00     0.173 A 
ATOM     75  C   UNL A   1      39.666  27.297  29.572  1.00  0.00     0.173 A 
ATOM     76  F   UNL A   1      41.802  30.090  28.664  1.00  0.00    -0.203 F 
ATOM     77  C   UNL A   1      41.091  28.243  27.388  1.00  0.00     0.198 A 
ATOM     78  C   UNL A   1      39.672  26.582  28.377  1.00  0.00     0.198 A 
ATOM     79  F   UNL A   1      38.962  26.817  30.608  1.00  0.00    -0.203 F 
ATOM     80  F   UNL A   1      41.747  28.727  26.325  1.00  0.00    -0.200 F 
ATOM     81  C   UNL A   1      40.375  27.060  27.282  1.00  0.00     0.200 A 
ATOM     82  F   UNL A   1      38.992  25.430  28.284  1.00  0.00    -0.200 F 
ATOM     83  F   UNL A   1      40.358  26.387  26.124  1.00  0.00    -0.200 F 
ENDBRANCH  49  73
BRANCH  61  84
ATOM     84  C   UNL A   1      44.550  28.534  35.297  1.00  0.00     0.064 A 
ATOM     85  C   UNL A   1      45.846  28.976  34.996  1.00  0.00     0.173 A 
ATOM     86  C   UNL A   1      44.415  27.324  35.996  1.00  0.00     0.173 A 
ATOM     87  F   UNL A   1      46.030  30.118  34.317  1.00  0.00    -0.203 F 
ATOM     88  C   UNL A   1      46.961  28.222  35.354  1.00  0.00     0.198 A 
ATOM     89  C   UNL A   1      45.533  26.591  36.384  1.00  0.00     0.198 A 
ATOM     90  F   UNL A   1      43.198  26.859  36.317  1.00  0.00    -0.203 F 
ATOM     91  F   UNL A   1      48.187  28.637  35.009  1.00  0.00    -0.200 F 
ATOM     92  C   UNL A   1      46.804  27.035  36.055  1.00  0.00     0.200 A 
ATOM     93  F   UNL A   1      45.379  25.453  37.075  1.00  0.00    -0.200 F 
ATOM     94  F   UNL A   1      47.879  26.316  36.407  1.00  0.00    -0.200 F 
ENDBRANCH  61  84
ENDBRANCH  35  36
ENDBRANCH  27  30
ENDBRANCH  25  26
ENDBRANCH  24  25
ENDBRANCH  23  24
ENDBRANCH   1  23
TORSDOF 16
ENDMDL
MODEL 2
REMARK VINA RESULT:     -11.5      0.538      2.083
REMARK SMILES O=C(CSC(=S)NC(=O)c1ccc([N+](=O)[O-])cc1)NCCCCNC(=O)c1ccc(-c2c3nc(c(-c4c(F)c(F)c(F)c(F)c4F)c4ccc([nH]4)c(-c4c(F)c(F)c(F)c(F)c4F)c4nc(c(-c5c(F)c(F)c(F)c(F)c5F)c5ccc2[nH]5)C=C4)C=C3)cc1
REMARK SMILES IDX 20 1 19 2 1 3 2 4 3 6 4 7 5 8 6 9 7 10 8 11 9 13 10 14 11 15
REMARK SMILES IDX 18 16 12 17 17 18 13 19 14 20 15 21 16 22 21 23 22 24 23 25
REMARK SMILES IDX 24 26 25 27 26 29 27 30 28 31 89 32 29 33 88 34 30 35 31 36
REMARK SMILES IDX 32 37 82 38 33 39 87 40 81 41 83 42 34 43 86 44 80 45 79 46
REMARK SMILES IDX 35 48 67 49 47 50 66 51 48 52 51 53 65 54 84 55 49 56 50 57
REMARK SMILES IDX 64 59 85 60 52 61 36 62 37 63 45 64 38 65 39 66 43 67 46 68
REMARK SMILES IDX 40 69 41 70 44 71 42 72 68 73 69 74 77 75 70 76 71 77 75 78
REMARK SMILES IDX 78 79 72 80 73 81 76 82 74 83 53 84 54 85 62 86 55 87 56 88
REMARK SMILES IDX 60 89 63 90 57 91 58 92 61 93 59 94
REMARK H PARENT 19 5 7 12 24 28 83 47 51 58
REMARK Flexibility Score: inf
ROOT
ATOM      1  C   UNL A   1      34.689  32.297  28.600  1.00  0.00     0.116 C 
ENDROOT
BRANCH   1   2
ATOM      2  N   UNL A   1      33.617  31.904  27.717  1.00  0.00    -0.355 N 
ATOM      3  O   UNL A   1      34.303  29.742  27.343  1.00  0.00    -0.274 OA
ATOM      4  C   UNL A   1      33.462  30.627  27.218  1.00  0.00     0.230 C 
ATOM      5  H   UNL A   1      32.958  32.587  27.455  1.00  0.00     0.163 HD
BRANCH   4   6
ATOM      6  C   UNL A   1      32.189  30.428  26.408  1.00  0.00     0.177 C 
BRANCH   6   7
ATOM      7  S   UNL A   1      31.678  28.681  26.421  1.00  0.00    -0.087 SA
BRANCH   7   8
ATOM      8  C   UNL A   1      31.984  28.117  24.795  1.00  0.00     0.141 C 
ATOM      9  S   UNL A   1      33.294  28.544  23.849  1.00  0.00    -0.052 S 
BRANCH   8  10
ATOM     10  N   UNL A   1      31.134  27.125  24.297  1.00  0.00    -0.307 N 
ATOM     11  C   UNL A   1      29.866  27.065  23.712  1.00  0.00     0.256 C 
ATOM     12  H   UNL A   1      31.536  26.229  24.380  1.00  0.00     0.171 HD
ATOM     13  O   UNL A   1      29.165  26.066  23.834  1.00  0.00    -0.269 OA
BRANCH  11  14
ATOM     14  C   UNL A   1      29.346  28.235  22.979  1.00  0.00     0.040 A 
ATOM     15  C   UNL A   1      27.997  28.579  23.130  1.00  0.00     0.021 A 
ATOM     16  C   UNL A   1      30.211  29.028  22.212  1.00  0.00     0.021 A 
ATOM     17  C   UNL A   1      27.532  29.787  22.603  1.00  0.00     0.086 A 
ATOM     18  C   UNL A   1      29.752  30.241  21.694  1.00  0.00     0.086 A 
ATOM     19  C   UNL A   1      28.423  30.629  21.920  1.00  0.00     0.269 A 
BRANCH  19  20
ATOM     20  N   UNL A   1      27.977  31.960  21.490  1.00  0.00     0.062 N 
ATOM     21  O   UNL A   1      28.156  32.905  22.270  1.00  0.00    -0.258 OA
ATOM     22  O   UNL A   1      27.481  32.059  20.359  1.00  0.00    -0.258 OA
ENDBRANCH  19  20
ENDBRANCH  11  14
ENDBRANCH   8  10
ENDBRANCH   7   8
ENDBRANCH   6   7
ENDBRANCH   4   6
ENDBRANCH   1   2
BRANCH   1  23
ATOM     23  C   UNL A   1      34.744  33.806  28.816  1.00  0.00     0.023 C 
BRANCH  23  24
ATOM     24  C   UNL A   1      33.384  34.502  28.939  1.00  0.00     0.023 C 
BRANCH  24  25
ATOM     25  C   UNL A   1      33.413  35.929  29.481  1.00  0.00     0.116 C 
BRANCH  25  26
ATOM     26  N   UNL A   1      32.519  36.125  30.610  1.00  0.00    -0.352 N 
ATOM     27  C   UNL A   1      32.621  35.686  31.906  1.00  0.00     0.251 C 
ATOM     28  H   UNL A   1      31.713  36.657  30.414  1.00  0.00     0.163 HD
ATOM     29  O   UNL A   1      31.674  35.836  32.678  1.00  0.00    -0.269 OA
BRANCH  27  30
ATOM     30  C   UNL A   1      33.847  35.009  32.385  1.00  0.00     0.039 A 
ATOM     31  C   UNL A   1      33.736  33.727  32.930  1.00  0.00     0.014 A 
ATOM     32  C   UNL A   1      35.096  35.632  32.325  1.00  0.00     0.014 A 
ATOM     33  C   UNL A   1      34.882  33.043  33.346  1.00  0.00     0.010 A 
ATOM     34  C   UNL A   1      36.246  34.922  32.670  1.00  0.00     0.010 A 
ATOM     35  C   UNL A   1      36.153  33.619  33.183  1.00  0.00    -0.014 A 
BRANCH  35  36
ATOM     36  C   UNL A   1      37.389  32.867  33.527  1.00  0.00     0.031 A 
ATOM     37  C   UNL A   1      38.124  33.151  34.808  1.00  0.00     0.074 A 
ATOM     38  C   UNL A   1      37.888  31.969  32.654  1.00  0.00     0.049 A 
ATOM     39  N   UNL A   1      39.250  32.647  35.248  1.00  0.00    -0.248 NA
ATOM     40  C   UNL A   1      37.527  34.153  35.704  1.00  0.00     0.031 C 
ATOM     41  C   UNL A   1      37.295  31.631  31.360  1.00  0.00     0.029 A 
ATOM     42  N   UNL A   1      39.013  31.184  32.717  1.00  0.00    -0.354 N 
ATOM     43  C   UNL A   1      39.503  33.279  36.459  1.00  0.00     0.074 A 
ATOM     44  C   UNL A   1      38.440  34.240  36.661  1.00  0.00     0.031 C 
ATOM     45  C   UNL A   1      38.045  30.691  30.763  1.00  0.00     0.029 A 
ATOM     46  C   UNL A   1      39.196  30.392  31.610  1.00  0.00     0.049 A 
ATOM     47  H   UNL A   1      39.630  31.189  33.485  1.00  0.00     0.167 HD
ATOM     48  C   UNL A   1      40.516  33.062  37.332  1.00  0.00     0.037 A 
ATOM     49  C   UNL A   1      40.185  29.530  31.304  1.00  0.00     0.037 A 
ATOM     50  C   UNL A   1      41.560  32.089  37.138  1.00  0.00     0.049 A 
ATOM     51  C   UNL A   1      41.311  29.326  32.283  1.00  0.00     0.074 A 
ATOM     52  C   UNL A   1      42.593  31.751  37.996  1.00  0.00     0.029 A 
ATOM     53  N   UNL A   1      41.709  31.303  36.006  1.00  0.00    -0.354 N 
ATOM     54  N   UNL A   1      41.498  29.875  33.458  1.00  0.00    -0.248 NA
ATOM     55  C   UNL A   1      42.361  28.374  31.893  1.00  0.00     0.031 C 
ATOM     56  C   UNL A   1      43.401  30.805  37.357  1.00  0.00     0.029 A 
ATOM     57  C   UNL A   1      42.836  30.504  36.129  1.00  0.00     0.049 A 
ATOM     58  H   UNL A   1      41.104  31.311  35.228  1.00  0.00     0.167 HD
ATOM     59  C   UNL A   1      42.665  29.314  33.961  1.00  0.00     0.074 A 
ATOM     60  C   UNL A   1      43.134  28.369  32.970  1.00  0.00     0.031 C 
ATOM     61  C   UNL A   1      43.289  29.559  35.139  1.00  0.00     0.037 A 
BRANCH  48  62
ATOM     62  C   UNL A   1      40.550  33.897  38.582  1.00  0.00     0.064 A 
ATOM     63  C   UNL A   1      39.839  33.532  39.735  1.00  0.00     0.173 A 
ATOM     64  C   UNL A   1      41.340  35.055  38.641  1.00  0.00     0.173 A 
ATOM     65  F   UNL A   1      39.061  32.438  39.731  1.00  0.00    -0.203 F 
ATOM     66  C   UNL A   1      39.893  34.311  40.888  1.00  0.00     0.198 A 
ATOM     67  C   UNL A   1      41.419  35.813  39.806  1.00  0.00     0.198 A 
ATOM     68  F   UNL A   1      42.047  35.448  37.571  1.00  0.00    -0.203 F 
ATOM     69  F   UNL A   1      39.162  33.969  41.960  1.00  0.00    -0.200 F 
ATOM     70  C   UNL A   1      40.688  35.446  40.926  1.00  0.00     0.200 A 
ATOM     71  F   UNL A   1      42.201  36.901  39.845  1.00  0.00    -0.200 F 
ATOM     72  F   UNL A   1      40.745  36.189  42.039  1.00  0.00    -0.200 F 
ENDBRANCH  48  62
BRANCH  49  73
ATOM     73  C   UNL A   1      40.149  28.778  30.022  1.00  0.00     0.064 A 
ATOM     74  C   UNL A   1      39.500  27.537  29.935  1.00  0.00     0.173 A 
ATOM     75  C   UNL A   1      40.769  29.270  28.865  1.00  0.00     0.173 A 
ATOM     76  F   UNL A   1      38.911  27.012  31.019  1.00  0.00    -0.203 F 
ATOM     77  C   UNL A   1      39.496  26.808  28.747  1.00  0.00     0.198 A 
ATOM     78  C   UNL A   1      40.736  28.556  27.670  1.00  0.00     0.198 A 
ATOM     79  F   UNL A   1      41.398  30.454  28.893  1.00  0.00    -0.203 F 
ATOM     80  F   UNL A   1      38.916  25.601  28.708  1.00  0.00    -0.200 F 
ATOM     81  C   UNL A   1      40.109  27.321  27.614  1.00  0.00     0.200 A 
ATOM     82  F   UNL A   1      41.316  29.062  26.573  1.00  0.00    -0.200 F 
ATOM     83  F   UNL A   1      40.102  26.620  26.472  1.00  0.00    -0.200 F 
ENDBRANCH  49  73
BRANCH  61  84
ATOM     84  C   UNL A   1      44.526  28.763  35.445  1.00  0.00     0.064 A 
ATOM     85  C   UNL A   1      44.466  27.518  36.088  1.00  0.00     0.173 A 
ATOM     86  C   UNL A   1      45.788  29.238  35.053  1.00  0.00     0.173 A 
ATOM     87  F   UNL A   1      43.287  27.025  36.496  1.00  0.00    -0.203 F 
ATOM     88  C   UNL A   1      45.624  26.792  36.353  1.00  0.00     0.198 A 
ATOM     89  C   UNL A   1      46.941  28.494  35.289  1.00  0.00     0.198 A 
ATOM     90  F   UNL A   1      45.902  30.419  34.429  1.00  0.00    -0.203 F 
ATOM     91  F   UNL A   1      45.547  25.630  37.016  1.00  0.00    -0.200 F 
ATOM     92  C   UNL A   1      46.859  27.276  35.947  1.00  0.00     0.200 A 
ATOM     93  F   UNL A   1      48.130  28.956  34.880  1.00  0.00    -0.200 F 
ATOM     94  F   UNL A   1      47.972  26.571  36.195  1.00  0.00    -0.200 F 
ENDBRANCH  61  84
ENDBRANCH  35  36
ENDBRANCH  27  30
ENDBRANCH  25  26
ENDBRANCH  24  25
ENDBRANCH  23  24
ENDBRANCH   1  23
TORSDOF 16
ENDMDL
MODEL 3
REMARK VINA RESULT:     -11.3      3.086      8.693
REMARK SMILES O=C(CSC(=S)NC(=O)c1ccc([N+](=O)[O-])cc1)NCCCCNC(=O)c1ccc(-c2c3nc(c(-c4c(F)c(F)c(F)c(F)c4F)c4ccc([nH]4)c(-c4c(F)c(F)c(F)c(F)c4F)c4nc(c(-c5c(F)c(F)c(F)c(F)c5F)c5ccc2[nH]5)C=C4)C=C3)cc1
REMARK SMILES IDX 20 1 19 2 1 3 2 4 3 6 4 7 5 8 6 9 7 10 8 11 9 13 10 14 11 15
REMARK SMILES IDX 18 16 12 17 17 18 13 19 14 20 15 21 16 22 21 23 22 24 23 25
REMARK SMILES IDX 24 26 25 27 26 29 27 30 28 31 89 32 29 33 88 34 30 35 31 36
REMARK SMILES IDX 32 37 82 38 33 39 87 40 81 41 83 42 34 43 86 44 80 45 79 46
REMARK SMILES IDX 35 48 67 49 47 50 66 51 48 52 51 53 65 54 84 55 49 56 50 57
REMARK SMILES IDX 64 59 85 60 52 61 36 62 37 63 45 64 38 65 39 66 43 67 46 68
REMARK SMILES IDX 40 69 41 70 44 71 42 72 68 73 69 74 77 75 70 76 71 77 75 78
REMARK SMILES IDX 78 79 72 80 73 81 76 82 74 83 53 84 54 85 62 86 55 87 56 88
REMARK SMILES IDX 60 89 63 90 57 91 58 92 61 93 59 94
REMARK H PARENT 19 5 7 12 24 28 83 47 51 58
REMARK Flexibility Score: inf
ROOT
ATOM      1  C   UNL A   1      31.830  29.942  25.323  1.00  0.00     0.116 C 
ENDROOT
BRANCH   1   2
ATOM      2  N   UNL A   1      30.989  28.804  25.035  1.00  0.00    -0.355 N 
ATOM      3  O   UNL A   1      31.525  28.581  22.811  1.00  0.00    -0.274 OA
ATOM      4  C   UNL A   1      30.962  28.159  23.816  1.00  0.00     0.230 C 
ATOM      5  H   UNL A   1      30.401  28.469  25.750  1.00  0.00     0.163 HD
BRANCH   4   6
ATOM      6  C   UNL A   1      30.089  26.912  23.794  1.00  0.00     0.177 C 
BRANCH   6   7
ATOM      7  S   UNL A   1      30.860  25.561  24.740  1.00  0.00    -0.087 SA
BRANCH   7   8
ATOM      8  C   UNL A   1      32.487  25.452  24.111  1.00  0.00     0.141 C 
ATOM      9  S   UNL A   1      33.884  25.780  24.968  1.00  0.00    -0.052 S 
BRANCH   8  10
ATOM     10  N   UNL A   1      32.636  24.918  22.828  1.00  0.00    -0.307 N 
ATOM     11  C   UNL A   1      33.079  23.717  22.265  1.00  0.00     0.256 C 
ATOM     12  H   UNL A   1      32.354  25.558  22.135  1.00  0.00     0.171 HD
ATOM     13  O   UNL A   1      33.574  23.695  21.143  1.00  0.00    -0.269 OA
BRANCH  11  14
ATOM     14  C   UNL A   1      32.993  22.470  23.049  1.00  0.00     0.040 A 
ATOM     15  C   UNL A   1      32.078  21.487  22.653  1.00  0.00     0.021 A 
ATOM     16  C   UNL A   1      33.869  22.249  24.121  1.00  0.00     0.021 A 
ATOM     17  C   UNL A   1      32.115  20.229  23.258  1.00  0.00     0.086 A 
ATOM     18  C   UNL A   1      33.916  20.990  24.721  1.00  0.00     0.086 A 
ATOM     19  C   UNL A   1      33.060  19.976  24.264  1.00  0.00     0.269 A 
BRANCH  19  20
ATOM     20  N   UNL A   1      33.199  18.618  24.803  1.00  0.00     0.062 N 
ATOM     21  O   UNL A   1      33.992  17.853  24.238  1.00  0.00    -0.258 OA
ATOM     22  O   UNL A   1      32.538  18.333  25.812  1.00  0.00    -0.258 OA
ENDBRANCH  19  20
ENDBRANCH  11  14
ENDBRANCH   8  10
ENDBRANCH   7   8
ENDBRANCH   6   7
ENDBRANCH   4   6
ENDBRANCH   1   2
BRANCH   1  23
ATOM     23  C   UNL A   1      31.466  30.616  26.642  1.00  0.00     0.023 C 
BRANCH  23  24
ATOM     24  C   UNL A   1      31.450  32.149  26.614  1.00  0.00     0.023 C 
BRANCH  24  25
ATOM     25  C   UNL A   1      32.685  32.838  27.191  1.00  0.00     0.116 C 
BRANCH  25  26
ATOM     26  N   UNL A   1      32.424  34.200  27.625  1.00  0.00    -0.352 N 
ATOM     27  C   UNL A   1      33.011  34.939  28.621  1.00  0.00     0.251 C 
ATOM     28  H   UNL A   1      31.713  34.666  27.126  1.00  0.00     0.163 HD
ATOM     29  O   UNL A   1      32.539  36.032  28.929  1.00  0.00    -0.269 OA
BRANCH  27  30
ATOM     30  C   UNL A   1      34.193  34.426  29.351  1.00  0.00     0.039 A 
ATOM     31  C   UNL A   1      33.999  33.803  30.587  1.00  0.00     0.014 A 
ATOM     32  C   UNL A   1      35.486  34.576  28.843  1.00  0.00     0.014 A 
ATOM     33  C   UNL A   1      35.091  33.267  31.276  1.00  0.00     0.010 A 
ATOM     34  C   UNL A   1      36.563  33.977  29.495  1.00  0.00     0.010 A 
ATOM     35  C   UNL A   1      36.378  33.313  30.718  1.00  0.00    -0.014 A 
BRANCH  35  36
ATOM     36  C   UNL A   1      37.534  32.661  31.390  1.00  0.00     0.031 A 
ATOM     37  C   UNL A   1      38.251  31.514  30.734  1.00  0.00     0.074 A 
ATOM     38  C   UNL A   1      37.899  33.062  32.624  1.00  0.00     0.049 A 
ATOM     39  N   UNL A   1      39.234  30.779  31.192  1.00  0.00    -0.248 NA
ATOM     40  C   UNL A   1      37.788  31.124  29.394  1.00  0.00     0.031 C 
ATOM     41  C   UNL A   1      37.259  34.134  33.387  1.00  0.00     0.029 A 
ATOM     42  N   UNL A   1      38.890  32.608  33.459  1.00  0.00    -0.354 N 
ATOM     43  C   UNL A   1      39.494  29.835  30.207  1.00  0.00     0.074 A 
ATOM     44  C   UNL A   1      38.534  30.057  29.148  1.00  0.00     0.031 C 
ATOM     45  C   UNL A   1      37.889  34.273  34.565  1.00  0.00     0.029 A 
ATOM     46  C   UNL A   1      38.946  33.270  34.662  1.00  0.00     0.049 A 
ATOM     47  H   UNL A   1      39.503  31.875  33.218  1.00  0.00     0.167 HD
ATOM     48  C   UNL A   1      40.461  28.886  30.179  1.00  0.00     0.037 A 
ATOM     49  C   UNL A   1      39.751  33.086  35.726  1.00  0.00     0.037 A 
ATOM     50  C   UNL A   1      41.429  28.682  31.225  1.00  0.00     0.049 A 
ATOM     51  C   UNL A   1      40.799  32.007  35.677  1.00  0.00     0.074 A 
ATOM     52  C   UNL A   1      42.487  27.788  31.259  1.00  0.00     0.029 A 
ATOM     53  N   UNL A   1      41.456  29.376  32.425  1.00  0.00    -0.354 N 
ATOM     54  N   UNL A   1      41.084  31.170  34.708  1.00  0.00    -0.248 NA
ATOM     55  C   UNL A   1      41.645  31.853  36.869  1.00  0.00     0.031 C 
ATOM     56  C   UNL A   1      43.115  27.899  32.504  1.00  0.00     0.029 A 
ATOM     57  C   UNL A   1      42.492  28.908  33.220  1.00  0.00     0.049 A 
ATOM     58  H   UNL A   1      40.832  30.095  32.676  1.00  0.00     0.167 HD
ATOM     59  C   UNL A   1      42.158  30.415  35.160  1.00  0.00     0.074 A 
ATOM     60  C   UNL A   1      42.485  30.903  36.483  1.00  0.00     0.031 C 
ATOM     61  C   UNL A   1      42.815  29.408  34.533  1.00  0.00     0.037 A 
BRANCH  48  62
ATOM     62  C   UNL A   1      40.518  27.984  28.977  1.00  0.00     0.064 A 
ATOM     63  C   UNL A   1      39.757  26.807  28.899  1.00  0.00     0.173 A 
ATOM     64  C   UNL A   1      41.310  28.324  27.870  1.00  0.00     0.173 A 
ATOM     65  F   UNL A   1      38.988  26.430  29.932  1.00  0.00    -0.203 F 
ATOM     66  C   UNL A   1      39.812  25.991  27.773  1.00  0.00     0.198 A 
ATOM     67  C   UNL A   1      41.336  27.523  26.732  1.00  0.00     0.198 A 
ATOM     68  F   UNL A   1      42.052  29.441  27.886  1.00  0.00    -0.203 F 
ATOM     69  F   UNL A   1      39.116  24.844  27.744  1.00  0.00    -0.200 F 
ATOM     70  C   UNL A   1      40.595  26.352  26.687  1.00  0.00     0.200 A 
ATOM     71  F   UNL A   1      42.082  27.883  25.677  1.00  0.00    -0.200 F 
ATOM     72  F   UNL A   1      40.640  25.569  25.600  1.00  0.00    -0.200 F 
ENDBRANCH  48  62
BRANCH  49  73
ATOM     73  C   UNL A   1      39.610  33.954  36.926  1.00  0.00     0.064 A 
ATOM     74  C   UNL A   1      38.858  33.533  38.033  1.00  0.00     0.173 A 
ATOM     75  C   UNL A   1      40.207  35.221  36.987  1.00  0.00     0.173 A 
ATOM     76  F   UNL A   1      38.250  32.339  38.014  1.00  0.00    -0.203 F 
ATOM     77  C   UNL A   1      38.690  34.357  39.144  1.00  0.00     0.198 A 
ATOM     78  C   UNL A   1      40.064  36.030  38.112  1.00  0.00     0.198 A 
ATOM     79  F   UNL A   1      40.941  35.669  35.958  1.00  0.00    -0.203 F 
ATOM     80  F   UNL A   1      37.922  33.952  40.164  1.00  0.00    -0.200 F 
ATOM     81  C   UNL A   1      39.297  35.603  39.185  1.00  0.00     0.200 A 
ATOM     82  F   UNL A   1      40.667  37.227  38.155  1.00  0.00    -0.200 F 
ATOM     83  F   UNL A   1      39.137  36.393  40.255  1.00  0.00    -0.200 F 
ENDBRANCH  49  73
BRANCH  61  84
ATOM     84  C   UNL A   1      43.984  28.793  35.249  1.00  0.00     0.064 A 
ATOM     85  C   UNL A   1      45.291  29.275  35.084  1.00  0.00     0.173 A 
ATOM     86  C   UNL A   1      43.785  27.729  36.143  1.00  0.00     0.173 A 
ATOM     87  F   UNL A   1      45.538  30.280  34.231  1.00  0.00    -0.203 F 
ATOM     88  C   UNL A   1      46.359  28.695  35.766  1.00  0.00     0.198 A 
ATOM     89  C   UNL A   1      44.850  27.175  36.849  1.00  0.00     0.198 A 
ATOM     90  F   UNL A   1      42.554  27.234  36.344  1.00  0.00    -0.203 F 
ATOM     91  F   UNL A   1      47.605  29.137  35.552  1.00  0.00    -0.200 F 
ATOM     92  C   UNL A   1      46.137  27.653  36.653  1.00  0.00     0.200 A 
ATOM     93  F   UNL A   1      44.630  26.180  37.718  1.00  0.00    -0.200 F 
ATOM     94  F   UNL A   1      47.164  27.103  37.314  1.00  0.00    -0.200 F 
ENDBRANCH  61  84
ENDBRANCH  35  36
ENDBRANCH  27  30
ENDBRANCH  25  26
ENDBRANCH  24  25
ENDBRANCH  23  24
ENDBRANCH   1  23
TORSDOF 16
ENDMDL
