MODEL 1
REMARK VINA RESULT:     -11.9      0.000      0.000
REMARK SMILES CC(C)(C)OC(=O)[C@]1(C(=O)NCCCCNC(=O)c2ccc(-c3c4nc(c(-c5c(F)c(F)c(F)c(F)c5F)c5ccc([nH]5)c(-c5c(F)c(F)c(F)c(F)c5F)c5nc(c(-c6c(F)c(F)c(F)c(F)c6F)c6ccc3[nH]6)C=C5)C=C4)cc2)CC=CC[C@@H]1[NH3+]
REMARK SMILES IDX 13 1 12 2 11 3 9 4 10 5 8 7 82 8 86 9 83 10 85 11 84 12 6 13
REMARK SMILES IDX 7 14 5 15 2 16 1 17 3 18 4 19 87 20 14 24 15 25 16 26 17 27
REMARK SMILES IDX 18 29 19 30 20 31 81 32 21 33 80 34 22 35 23 36 24 37 74 38
REMARK SMILES IDX 25 39 79 40 73 41 75 42 26 43 78 44 72 45 71 46 27 48 59 49
REMARK SMILES IDX 39 50 58 51 40 52 43 53 57 54 76 55 41 56 42 57 56 59 77 60
REMARK SMILES IDX 44 61 28 62 29 63 37 64 30 65 31 66 35 67 38 68 32 69 33 70
REMARK SMILES IDX 36 71 34 72 60 73 61 74 69 75 62 76 63 77 67 78 70 79 64 80
REMARK SMILES IDX 65 81 68 82 66 83 45 84 46 85 54 86 47 87 48 88 52 89 55 90
REMARK SMILES IDX 49 91 50 92 53 93 51 94
REMARK H PARENT 11 6 87 21 87 22 87 23 16 28 75 47 43 58
REMARK Flexibility Score: inf
ROOT
ATOM      1  C   UNL A   1      31.906  30.355  26.487  1.00  0.00     0.023 C 
ENDROOT
BRANCH   1   2
ATOM      2  C   UNL A   1      31.689  29.773  25.097  1.00  0.00     0.116 C 
BRANCH   2   3
ATOM      3  N   UNL A   1      32.897  29.643  24.302  1.00  0.00    -0.355 N 
ATOM      4  C   UNL A   1      33.470  28.553  23.697  1.00  0.00     0.244 C 
ATOM      5  O   UNL A   1      34.504  28.800  23.068  1.00  0.00    -0.274 OA
ATOM      6  H   UNL A   1      33.393  30.484  24.177  1.00  0.00     0.163 HD
BRANCH   4   7
ATOM      7  C   UNL A   1      32.977  27.099  23.938  1.00  0.00     0.201 C 
ATOM      8  C   UNL A   1      33.413  26.830  25.413  1.00  0.00     0.062 C 
ATOM      9  C   UNL A   1      31.448  26.947  23.582  1.00  0.00     0.212 C 
ATOM     10  C   UNL A   1      32.354  26.432  26.383  1.00  0.00    -0.029 C 
ATOM     11  C   UNL A   1      30.530  26.351  24.678  1.00  0.00     0.093 C 
ATOM     12  C   UNL A   1      31.077  26.230  26.059  1.00  0.00    -0.025 C 
BRANCH   7  13
ATOM     13  C   UNL A   1      33.722  26.122  23.014  1.00  0.00     0.328 C 
ATOM     14  O   UNL A   1      33.751  26.199  21.792  1.00  0.00    -0.251 OA
BRANCH  13  15
ATOM     15  O   UNL A   1      34.161  25.029  23.710  1.00  0.00    -0.459 OA
BRANCH  15  16
ATOM     16  C   UNL A   1      33.674  23.694  23.406  1.00  0.00     0.104 C 
ATOM     17  C   UNL A   1      34.882  22.778  23.656  1.00  0.00     0.056 C 
ATOM     18  C   UNL A   1      33.250  23.557  21.940  1.00  0.00     0.056 C 
ATOM     19  C   UNL A   1      32.548  23.284  24.362  1.00  0.00     0.056 C 
ENDBRANCH  15  16
ENDBRANCH  13  15
ENDBRANCH   7  13
BRANCH   9  20
ATOM     20  N   UNL A   1      31.083  26.269  22.311  1.00  0.00    -0.353 N 
ATOM     21  H   UNL A   1      31.560  26.727  21.533  1.00  0.00     0.344 HD
ATOM     22  H   UNL A   1      30.075  26.326  22.172  1.00  0.00     0.344 HD
ATOM     23  H   UNL A   1      31.366  25.290  22.355  1.00  0.00     0.344 HD
ENDBRANCH   9  20
ENDBRANCH   4   7
ENDBRANCH   2   3
ENDBRANCH   1   2
BRANCH   1  24
ATOM     24  C   UNL A   1      31.676  31.855  26.625  1.00  0.00     0.023 C 
BRANCH  24  25
ATOM     25  C   UNL A   1      32.797  32.642  27.296  1.00  0.00     0.116 C 
BRANCH  25  26
ATOM     26  N   UNL A   1      32.429  34.011  27.633  1.00  0.00    -0.352 N 
ATOM     27  C   UNL A   1      32.981  34.868  28.556  1.00  0.00     0.251 C 
ATOM     28  H   UNL A   1      31.672  34.377  27.123  1.00  0.00     0.163 HD
ATOM     29  O   UNL A   1      32.466  35.963  28.765  1.00  0.00    -0.269 OA
BRANCH  27  30
ATOM     30  C   UNL A   1      34.170  34.457  29.333  1.00  0.00     0.039 A 
ATOM     31  C   UNL A   1      33.985  33.868  30.587  1.00  0.00     0.014 A 
ATOM     32  C   UNL A   1      35.458  34.619  28.819  1.00  0.00     0.014 A 
ATOM     33  C   UNL A   1      35.083  33.355  31.281  1.00  0.00     0.010 A 
ATOM     34  C   UNL A   1      36.539  34.031  29.468  1.00  0.00     0.010 A 
ATOM     35  C   UNL A   1      36.363  33.386  30.702  1.00  0.00    -0.014 A 
BRANCH  35  36
ATOM     36  C   UNL A   1      37.527  32.737  31.360  1.00  0.00     0.031 A 
ATOM     37  C   UNL A   1      38.227  31.587  30.692  1.00  0.00     0.074 A 
ATOM     38  C   UNL A   1      37.898  33.127  32.596  1.00  0.00     0.049 A 
ATOM     39  N   UNL A   1      39.194  30.829  31.146  1.00  0.00    -0.248 NA
ATOM     40  C   UNL A   1      37.759  31.220  29.347  1.00  0.00     0.031 C 
ATOM     41  C   UNL A   1      37.264  34.192  33.375  1.00  0.00     0.029 A 
ATOM     42  N   UNL A   1      38.891  32.659  33.422  1.00  0.00    -0.354 N 
ATOM     43  C   UNL A   1      39.430  29.886  30.155  1.00  0.00     0.074 A 
ATOM     44  C   UNL A   1      38.474  30.134  29.097  1.00  0.00     0.031 C 
ATOM     45  C   UNL A   1      37.894  34.309  34.555  1.00  0.00     0.029 A 
ATOM     46  C   UNL A   1      38.952  33.305  34.632  1.00  0.00     0.049 A 
ATOM     47  H   UNL A   1      39.503  31.930  33.170  1.00  0.00     0.167 HD
ATOM     48  C   UNL A   1      40.374  28.916  30.119  1.00  0.00     0.037 A 
ATOM     49  C   UNL A   1      39.762  33.106  35.689  1.00  0.00     0.037 A 
ATOM     50  C   UNL A   1      41.347  28.693  31.156  1.00  0.00     0.049 A 
ATOM     51  C   UNL A   1      40.810  32.029  35.619  1.00  0.00     0.074 A 
ATOM     52  C   UNL A   1      42.390  27.783  31.180  1.00  0.00     0.029 A 
ATOM     53  N   UNL A   1      41.398  29.392  32.353  1.00  0.00    -0.354 N 
ATOM     54  N   UNL A   1      41.071  31.190  34.646  1.00  0.00    -0.248 NA
ATOM     55  C   UNL A   1      41.682  31.876  36.792  1.00  0.00     0.031 C 
ATOM     56  C   UNL A   1      43.044  27.901  32.410  1.00  0.00     0.029 A 
ATOM     57  C   UNL A   1      42.441  28.918  33.133  1.00  0.00     0.049 A 
ATOM     58  H   UNL A   1      40.783  30.116  32.612  1.00  0.00     0.167 HD
ATOM     59  C   UNL A   1      42.151  30.431  35.076  1.00  0.00     0.074 A 
ATOM     60  C   UNL A   1      42.506  30.917  36.393  1.00  0.00     0.031 C 
ATOM     61  C   UNL A   1      42.790  29.420  34.436  1.00  0.00     0.037 A 
BRANCH  48  62
ATOM     62  C   UNL A   1      40.406  28.024  28.913  1.00  0.00     0.064 A 
ATOM     63  C   UNL A   1      41.166  28.347  27.778  1.00  0.00     0.173 A 
ATOM     64  C   UNL A   1      39.697  26.812  28.904  1.00  0.00     0.173 A 
ATOM     65  F   UNL A   1      41.853  29.500  27.732  1.00  0.00    -0.203 F 
ATOM     66  C   UNL A   1      41.192  27.507  26.669  1.00  0.00     0.198 A 
ATOM     67  C   UNL A   1      39.750  25.960  27.804  1.00  0.00     0.198 A 
ATOM     68  F   UNL A   1      38.961  26.451  29.965  1.00  0.00    -0.203 F 
ATOM     69  F   UNL A   1      41.885  27.861  25.578  1.00  0.00    -0.200 F 
ATOM     70  C   UNL A   1      40.491  26.311  26.685  1.00  0.00     0.200 A 
ATOM     71  F   UNL A   1      39.083  24.797  27.827  1.00  0.00    -0.200 F 
ATOM     72  F   UNL A   1      40.522  25.499  25.620  1.00  0.00    -0.200 F 
ENDBRANCH  48  62
BRANCH  49  73
ATOM     73  C   UNL A   1      39.631  33.961  36.898  1.00  0.00     0.064 A 
ATOM     74  C   UNL A   1      38.856  33.547  37.990  1.00  0.00     0.173 A 
ATOM     75  C   UNL A   1      40.270  35.206  36.986  1.00  0.00     0.173 A 
ATOM     76  F   UNL A   1      38.208  32.372  37.944  1.00  0.00    -0.203 F 
ATOM     77  C   UNL A   1      38.709  34.353  39.116  1.00  0.00     0.198 A 
ATOM     78  C   UNL A   1      40.144  35.999  38.124  1.00  0.00     0.198 A 
ATOM     79  F   UNL A   1      41.027  35.646  35.970  1.00  0.00    -0.203 F 
ATOM     80  F   UNL A   1      37.925  33.953  40.127  1.00  0.00    -0.200 F 
ATOM     81  C   UNL A   1      39.357  35.576  39.185  1.00  0.00     0.200 A 
ATOM     82  F   UNL A   1      40.784  37.176  38.193  1.00  0.00    -0.200 F 
ATOM     83  F   UNL A   1      39.219  36.351  40.270  1.00  0.00    -0.200 F 
ENDBRANCH  49  73
BRANCH  61  84
ATOM     84  C   UNL A   1      43.962  28.797  35.134  1.00  0.00     0.064 A 
ATOM     85  C   UNL A   1      43.810  27.696  35.990  1.00  0.00     0.173 A 
ATOM     86  C   UNL A   1      45.260  29.280  34.908  1.00  0.00     0.173 A 
ATOM     87  F   UNL A   1      42.588  27.208  36.250  1.00  0.00    -0.203 F 
ATOM     88  C   UNL A   1      44.912  27.116  36.611  1.00  0.00     0.198 A 
ATOM     89  C   UNL A   1      46.362  28.679  35.508  1.00  0.00     0.198 A 
ATOM     90  F   UNL A   1      45.459  30.326  34.092  1.00  0.00    -0.203 F 
ATOM     91  F   UNL A   1      44.740  26.093  37.460  1.00  0.00    -0.200 F 
ATOM     92  C   UNL A   1      46.188  27.603  36.364  1.00  0.00     0.200 A 
ATOM     93  F   UNL A   1      47.596  29.142  35.258  1.00  0.00    -0.200 F 
ATOM     94  F   UNL A   1      47.249  27.037  36.957  1.00  0.00    -0.200 F 
ENDBRANCH  61  84
ENDBRANCH  35  36
ENDBRANCH  27  30
ENDBRANCH  25  26
ENDBRANCH  24  25
ENDBRANCH   1  24
TORSDOF 15
ENDMDL
MODEL 2
REMARK VINA RESULT:     -11.9      0.117      1.614
REMARK SMILES CC(C)(C)OC(=O)[C@]1(C(=O)NCCCCNC(=O)c2ccc(-c3c4nc(c(-c5c(F)c(F)c(F)c(F)c5F)c5ccc([nH]5)c(-c5c(F)c(F)c(F)c(F)c5F)c5nc(c(-c6c(F)c(F)c(F)c(F)c6F)c6ccc3[nH]6)C=C5)C=C4)cc2)CC=CC[C@@H]1[NH3+]
REMARK SMILES IDX 13 1 12 2 11 3 9 4 10 5 8 7 82 8 86 9 83 10 85 11 84 12 6 13
REMARK SMILES IDX 7 14 5 15 2 16 1 17 3 18 4 19 87 20 14 24 15 25 16 26 17 27
REMARK SMILES IDX 18 29 19 30 20 31 81 32 21 33 80 34 22 35 23 36 24 37 74 38
REMARK SMILES IDX 25 39 79 40 73 41 75 42 26 43 78 44 72 45 71 46 27 48 59 49
REMARK SMILES IDX 39 50 58 51 40 52 43 53 57 54 76 55 41 56 42 57 56 59 77 60
REMARK SMILES IDX 44 61 28 62 29 63 37 64 30 65 31 66 35 67 38 68 32 69 33 70
REMARK SMILES IDX 36 71 34 72 60 73 61 74 69 75 62 76 63 77 67 78 70 79 64 80
REMARK SMILES IDX 65 81 68 82 66 83 45 84 46 85 54 86 47 87 48 88 52 89 55 90
REMARK SMILES IDX 49 91 50 92 53 93 51 94
REMARK H PARENT 11 6 87 21 87 22 87 23 16 28 75 47 43 58
REMARK Flexibility Score: inf
ROOT
ATOM      1  C   UNL A   1      31.945  30.335  26.549  1.00  0.00     0.023 C 
ENDROOT
BRANCH   1   2
ATOM      2  C   UNL A   1      31.712  29.787  25.147  1.00  0.00     0.116 C 
BRANCH   2   3
ATOM      3  N   UNL A   1      32.914  29.661  24.341  1.00  0.00    -0.355 N 
ATOM      4  C   UNL A   1      33.481  28.575  23.724  1.00  0.00     0.244 C 
ATOM      5  O   UNL A   1      34.509  28.826  23.088  1.00  0.00    -0.274 OA
ATOM      6  H   UNL A   1      33.409  30.503  24.217  1.00  0.00     0.163 HD
BRANCH   4   7
ATOM      7  C   UNL A   1      32.989  27.120  23.959  1.00  0.00     0.201 C 
ATOM      8  C   UNL A   1      33.419  26.849  25.436  1.00  0.00     0.062 C 
ATOM      9  C   UNL A   1      31.463  26.965  23.595  1.00  0.00     0.212 C 
ATOM     10  C   UNL A   1      32.355  26.447  26.401  1.00  0.00    -0.029 C 
ATOM     11  C   UNL A   1      30.540  26.366  24.686  1.00  0.00     0.093 C 
ATOM     12  C   UNL A   1      31.081  26.243  26.069  1.00  0.00    -0.025 C 
BRANCH   7  13
ATOM     13  C   UNL A   1      33.742  26.146  23.037  1.00  0.00     0.328 C 
ATOM     14  O   UNL A   1      33.766  26.219  21.816  1.00  0.00    -0.251 OA
BRANCH  13  15
ATOM     15  O   UNL A   1      34.192  25.061  23.736  1.00  0.00    -0.459 OA
BRANCH  15  16
ATOM     16  C   UNL A   1      33.716  23.720  23.441  1.00  0.00     0.104 C 
ATOM     17  C   UNL A   1      34.948  22.823  23.633  1.00  0.00     0.056 C 
ATOM     18  C   UNL A   1      33.233  23.588  21.993  1.00  0.00     0.056 C 
ATOM     19  C   UNL A   1      32.638  23.283  24.441  1.00  0.00     0.056 C 
ENDBRANCH  15  16
ENDBRANCH  13  15
ENDBRANCH   7  13
BRANCH   9  20
ATOM     20  N   UNL A   1      31.106  26.289  22.321  1.00  0.00    -0.353 N 
ATOM     21  H   UNL A   1      30.842  26.989  21.628  1.00  0.00     0.344 HD
ATOM     22  H   UNL A   1      30.322  25.657  22.480  1.00  0.00     0.344 HD
ATOM     23  H   UNL A   1      31.908  25.759  21.982  1.00  0.00     0.344 HD
ENDBRANCH   9  20
ENDBRANCH   4   7
ENDBRANCH   2   3
ENDBRANCH   1   2
BRANCH   1  24
ATOM     24  C   UNL A   1      31.655  31.819  26.740  1.00  0.00     0.023 C 
BRANCH  24  25
ATOM     25  C   UNL A   1      32.814  32.662  27.260  1.00  0.00     0.116 C 
BRANCH  25  26
ATOM     26  N   UNL A   1      32.436  34.025  27.608  1.00  0.00    -0.352 N 
ATOM     27  C   UNL A   1      32.972  34.875  28.546  1.00  0.00     0.251 C 
ATOM     28  H   UNL A   1      31.682  34.393  27.093  1.00  0.00     0.163 HD
ATOM     29  O   UNL A   1      32.449  35.965  28.761  1.00  0.00    -0.269 OA
BRANCH  27  30
ATOM     30  C   UNL A   1      34.155  34.462  29.331  1.00  0.00     0.039 A 
ATOM     31  C   UNL A   1      33.960  33.885  30.589  1.00  0.00     0.014 A 
ATOM     32  C   UNL A   1      35.446  34.611  28.821  1.00  0.00     0.014 A 
ATOM     33  C   UNL A   1      35.052  33.370  31.292  1.00  0.00     0.010 A 
ATOM     34  C   UNL A   1      36.521  34.021  29.480  1.00  0.00     0.010 A 
ATOM     35  C   UNL A   1      36.335  33.387  30.718  1.00  0.00    -0.014 A 
BRANCH  35  36
ATOM     36  C   UNL A   1      37.492  32.736  31.387  1.00  0.00     0.031 A 
ATOM     37  C   UNL A   1      38.186  31.574  30.732  1.00  0.00     0.074 A 
ATOM     38  C   UNL A   1      37.861  33.134  32.621  1.00  0.00     0.049 A 
ATOM     39  N   UNL A   1      39.145  30.813  31.196  1.00  0.00    -0.248 NA
ATOM     40  C   UNL A   1      37.719  31.199  29.389  1.00  0.00     0.031 C 
ATOM     41  C   UNL A   1      37.232  34.210  33.388  1.00  0.00     0.029 A 
ATOM     42  N   UNL A   1      38.847  32.666  33.454  1.00  0.00    -0.354 N 
ATOM     43  C   UNL A   1      39.377  29.859  30.216  1.00  0.00     0.074 A 
ATOM     44  C   UNL A   1      38.428  30.105  29.151  1.00  0.00     0.031 C 
ATOM     45  C   UNL A   1      37.859  34.334  34.568  1.00  0.00     0.029 A 
ATOM     46  C   UNL A   1      38.908  33.323  34.659  1.00  0.00     0.049 A 
ATOM     47  H   UNL A   1      39.454  31.930  33.211  1.00  0.00     0.167 HD
ATOM     48  C   UNL A   1      40.314  28.882  30.192  1.00  0.00     0.037 A 
ATOM     49  C   UNL A   1      39.713  33.127  35.721  1.00  0.00     0.037 A 
ATOM     50  C   UNL A   1      41.282  28.661  31.234  1.00  0.00     0.049 A 
ATOM     51  C   UNL A   1      40.753  32.041  35.664  1.00  0.00     0.074 A 
ATOM     52  C   UNL A   1      42.317  27.743  31.271  1.00  0.00     0.029 A 
ATOM     53  N   UNL A   1      41.333  29.370  32.425  1.00  0.00    -0.354 N 
ATOM     54  N   UNL A   1      41.011  31.192  34.701  1.00  0.00    -0.248 NA
ATOM     55  C   UNL A   1      41.620  31.893  36.842  1.00  0.00     0.031 C 
ATOM     56  C   UNL A   1      42.968  27.868  32.502  1.00  0.00     0.029 A 
ATOM     57  C   UNL A   1      42.370  28.895  33.213  1.00  0.00     0.049 A 
ATOM     58  H   UNL A   1      40.722  30.101  32.675  1.00  0.00     0.167 HD
ATOM     59  C   UNL A   1      42.083  30.429  35.141  1.00  0.00     0.074 A 
ATOM     60  C   UNL A   1      42.438  30.924  36.455  1.00  0.00     0.031 C 
ATOM     61  C   UNL A   1      42.717  29.408  34.513  1.00  0.00     0.037 A 
BRANCH  48  62
ATOM     62  C   UNL A   1      40.344  27.979  28.994  1.00  0.00     0.064 A 
ATOM     63  C   UNL A   1      41.105  28.289  27.857  1.00  0.00     0.173 A 
ATOM     64  C   UNL A   1      39.632  26.769  28.996  1.00  0.00     0.173 A 
ATOM     65  F   UNL A   1      41.794  29.439  27.800  1.00  0.00    -0.203 F 
ATOM     66  C   UNL A   1      41.128  27.438  26.755  1.00  0.00     0.198 A 
ATOM     67  C   UNL A   1      39.683  25.906  27.905  1.00  0.00     0.198 A 
ATOM     68  F   UNL A   1      38.894  26.420  30.060  1.00  0.00    -0.203 F 
ATOM     69  F   UNL A   1      41.823  27.780  25.661  1.00  0.00    -0.200 F 
ATOM     70  C   UNL A   1      40.424  26.245  26.783  1.00  0.00     0.200 A 
ATOM     71  F   UNL A   1      39.012  24.745  27.938  1.00  0.00    -0.200 F 
ATOM     72  F   UNL A   1      40.454  25.423  25.724  1.00  0.00    -0.200 F 
ENDBRANCH  48  62
BRANCH  49  73
ATOM     73  C   UNL A   1      39.584  33.994  36.921  1.00  0.00     0.064 A 
ATOM     74  C   UNL A   1      40.237  35.233  36.985  1.00  0.00     0.173 A 
ATOM     75  C   UNL A   1      38.814  33.605  38.027  1.00  0.00     0.173 A 
ATOM     76  F   UNL A   1      41.003  35.639  35.960  1.00  0.00    -0.203 F 
ATOM     77  C   UNL A   1      40.142  36.040  38.116  1.00  0.00     0.198 A 
ATOM     78  C   UNL A   1      38.698  34.425  39.146  1.00  0.00     0.198 A 
ATOM     79  F   UNL A   1      38.166  32.432  38.013  1.00  0.00    -0.203 F 
ATOM     80  F   UNL A   1      40.813  37.199  38.168  1.00  0.00    -0.200 F 
ATOM     81  C   UNL A   1      39.368  35.639  39.193  1.00  0.00     0.200 A 
ATOM     82  F   UNL A   1      37.937  34.041  40.181  1.00  0.00    -0.200 F 
ATOM     83  F   UNL A   1      39.273  36.417  40.280  1.00  0.00    -0.200 F 
ENDBRANCH  49  73
BRANCH  61  84
ATOM     84  C   UNL A   1      43.883  28.782  35.222  1.00  0.00     0.064 A 
ATOM     85  C   UNL A   1      45.195  29.234  35.022  1.00  0.00     0.173 A 
ATOM     86  C   UNL A   1      43.676  27.746  36.146  1.00  0.00     0.173 A 
ATOM     87  F   UNL A   1      45.444  30.212  34.138  1.00  0.00    -0.203 F 
ATOM     88  C   UNL A   1      46.261  28.657  35.705  1.00  0.00     0.198 A 
ATOM     89  C   UNL A   1      44.742  27.191  36.848  1.00  0.00     0.198 A 
ATOM     90  F   UNL A   1      42.439  27.283  36.377  1.00  0.00    -0.203 F 
ATOM     91  F   UNL A   1      47.513  29.075  35.467  1.00  0.00    -0.200 F 
ATOM     92  C   UNL A   1      46.033  27.642  36.623  1.00  0.00     0.200 A 
ATOM     93  F   UNL A   1      44.519  26.219  37.744  1.00  0.00    -0.200 F 
ATOM     94  F   UNL A   1      47.061  27.093  37.286  1.00  0.00    -0.200 F 
ENDBRANCH  61  84
ENDBRANCH  35  36
ENDBRANCH  27  30
ENDBRANCH  25  26
ENDBRANCH  24  25
ENDBRANCH   1  24
TORSDOF 15
ENDMDL
MODEL 3
REMARK VINA RESULT:     -11.7      1.873      7.762
REMARK SMILES CC(C)(C)OC(=O)[C@]1(C(=O)NCCCCNC(=O)c2ccc(-c3c4nc(c(-c5c(F)c(F)c(F)c(F)c5F)c5ccc([nH]5)c(-c5c(F)c(F)c(F)c(F)c5F)c5nc(c(-c6c(F)c(F)c(F)c(F)c6F)c6ccc3[nH]6)C=C5)C=C4)cc2)CC=CC[C@@H]1[NH3+]
REMARK SMILES IDX 13 1 12 2 11 3 9 4 10 5 8 7 82 8 86 9 83 10 85 11 84 12 6 13
REMARK SMILES IDX 7 14 5 15 2 16 1 17 3 18 4 19 87 20 14 24 15 25 16 26 17 27
REMARK SMILES IDX 18 29 19 30 20 31 81 32 21 33 80 34 22 35 23 36 24 37 74 38
REMARK SMILES IDX 25 39 79 40 73 41 75 42 26 43 78 44 72 45 71 46 27 48 59 49
REMARK SMILES IDX 39 50 58 51 40 52 43 53 57 54 76 55 41 56 42 57 56 59 77 60
REMARK SMILES IDX 44 61 28 62 29 63 37 64 30 65 31 66 35 67 38 68 32 69 33 70
REMARK SMILES IDX 36 71 34 72 60 73 61 74 69 75 62 76 63 77 67 78 70 79 64 80
REMARK SMILES IDX 65 81 68 82 66 83 45 84 46 85 54 86 47 87 48 88 52 89 55 90
REMARK SMILES IDX 49 91 50 92 53 93 51 94
REMARK H PARENT 11 6 87 21 87 22 87 23 16 28 75 47 43 58
REMARK Flexibility Score: inf
ROOT
ATOM      1  C   UNL A   1      32.073  29.151  23.615  1.00  0.00     0.023 C 
ENDROOT
BRANCH   1   2
ATOM      2  C   UNL A   1      31.445  27.921  22.972  1.00  0.00     0.116 C 
BRANCH   2   3
ATOM      3  N   UNL A   1      32.337  27.171  22.107  1.00  0.00    -0.355 N 
ATOM      4  C   UNL A   1      32.917  25.936  22.255  1.00  0.00     0.244 C 
ATOM      5  O   UNL A   1      33.617  25.580  21.302  1.00  0.00    -0.274 OA
ATOM      6  H   UNL A   1      32.568  27.629  21.267  1.00  0.00     0.163 HD
BRANCH   4   7
ATOM      7  C   UNL A   1      32.861  25.133  23.584  1.00  0.00     0.201 C 
ATOM      8  C   UNL A   1      33.928  25.856  24.466  1.00  0.00     0.062 C 
ATOM      9  C   UNL A   1      31.387  25.043  24.137  1.00  0.00     0.212 C 
ATOM     10  C   UNL A   1      33.483  26.401  25.780  1.00  0.00    -0.029 C 
ATOM     11  C   UNL A   1      31.157  25.505  25.598  1.00  0.00     0.093 C 
ATOM     12  C   UNL A   1      32.254  26.253  26.275  1.00  0.00    -0.025 C 
BRANCH   7  13
ATOM     13  C   UNL A   1      33.312  23.681  23.351  1.00  0.00     0.328 C 
ATOM     14  O   UNL A   1      33.165  23.064  22.304  1.00  0.00    -0.251 OA
BRANCH  13  15
ATOM     15  O   UNL A   1      33.693  23.093  24.525  1.00  0.00    -0.459 OA
BRANCH  15  16
ATOM     16  C   UNL A   1      34.999  22.475  24.672  1.00  0.00     0.104 C 
ATOM     17  C   UNL A   1      35.795  22.961  23.452  1.00  0.00     0.056 C 
ATOM     18  C   UNL A   1      34.919  20.945  24.627  1.00  0.00     0.056 C 
ATOM     19  C   UNL A   1      35.707  22.968  25.940  1.00  0.00     0.056 C 
ENDBRANCH  15  16
ENDBRANCH  13  15
ENDBRANCH   7  13
BRANCH   9  20
ATOM     20  N   UNL A   1      30.651  23.761  23.979  1.00  0.00    -0.353 N 
ATOM     21  H   UNL A   1      30.440  23.376  24.899  1.00  0.00     0.344 HD
ATOM     22  H   UNL A   1      31.227  23.101  23.458  1.00  0.00     0.344 HD
ATOM     23  H   UNL A   1      29.782  23.929  23.472  1.00  0.00     0.344 HD
ENDBRANCH   9  20
ENDBRANCH   4   7
ENDBRANCH   2   3
ENDBRANCH   1   2
BRANCH   1  24
ATOM     24  C   UNL A   1      31.557  29.514  25.002  1.00  0.00     0.023 C 
BRANCH  24  25
ATOM     25  C   UNL A   1      32.612  29.958  26.009  1.00  0.00     0.116 C 
BRANCH  25  26
ATOM     26  N   UNL A   1      32.453  31.336  26.454  1.00  0.00    -0.352 N 
ATOM     27  C   UNL A   1      33.245  32.088  27.289  1.00  0.00     0.251 C 
ATOM     28  H   UNL A   1      31.658  31.798  26.104  1.00  0.00     0.163 HD
ATOM     29  O   UNL A   1      32.890  33.215  27.626  1.00  0.00    -0.269 OA
BRANCH  27  30
ATOM     30  C   UNL A   1      34.505  31.527  27.821  1.00  0.00     0.039 A 
ATOM     31  C   UNL A   1      35.559  32.397  28.114  1.00  0.00     0.014 A 
ATOM     32  C   UNL A   1      34.640  30.158  28.062  1.00  0.00     0.014 A 
ATOM     33  C   UNL A   1      36.709  31.908  28.738  1.00  0.00     0.010 A 
ATOM     34  C   UNL A   1      35.747  29.686  28.760  1.00  0.00     0.010 A 
ATOM     35  C   UNL A   1      36.790  30.556  29.113  1.00  0.00    -0.014 A 
BRANCH  35  36
ATOM     36  C   UNL A   1      37.946  30.034  29.888  1.00  0.00     0.031 A 
ATOM     37  C   UNL A   1      38.186  30.505  31.295  1.00  0.00     0.074 A 
ATOM     38  C   UNL A   1      38.827  29.204  29.294  1.00  0.00     0.049 A 
ATOM     39  N   UNL A   1      39.189  30.244  32.096  1.00  0.00    -0.248 NA
ATOM     40  C   UNL A   1      37.181  31.414  31.867  1.00  0.00     0.031 C 
ATOM     41  C   UNL A   1      38.738  28.717  27.917  1.00  0.00     0.029 A 
ATOM     42  N   UNL A   1      39.981  28.634  29.772  1.00  0.00    -0.354 N 
ATOM     43  C   UNL A   1      38.947  30.974  33.252  1.00  0.00     0.074 A 
ATOM     44  C   UNL A   1      37.730  31.726  33.031  1.00  0.00     0.031 C 
ATOM     45  C   UNL A   1      39.780  27.909  27.666  1.00  0.00     0.029 A 
ATOM     46  C   UNL A   1      40.631  27.849  28.852  1.00  0.00     0.049 A 
ATOM     47  H   UNL A   1      40.313  28.775  30.689  1.00  0.00     0.167 HD
ATOM     48  C   UNL A   1      39.660  30.996  34.402  1.00  0.00     0.037 A 
ATOM     49  C   UNL A   1      41.787  27.164  28.948  1.00  0.00     0.037 A 
ATOM     50  C   UNL A   1      40.851  30.220  34.633  1.00  0.00     0.049 A 
ATOM     51  C   UNL A   1      42.554  27.196  30.242  1.00  0.00     0.074 A 
ATOM     52  C   UNL A   1      41.604  30.119  35.789  1.00  0.00     0.029 A 
ATOM     53  N   UNL A   1      41.459  29.409  33.686  1.00  0.00    -0.354 N 
ATOM     54  N   UNL A   1      42.277  27.833  31.353  1.00  0.00    -0.248 NA
ATOM     55  C   UNL A   1      43.794  26.408  30.296  1.00  0.00     0.031 C 
ATOM     56  C   UNL A   1      42.693  29.281  35.529  1.00  0.00     0.029 A 
ATOM     57  C   UNL A   1      42.592  28.821  34.227  1.00  0.00     0.049 A 
ATOM     58  H   UNL A   1      41.135  29.273  32.766  1.00  0.00     0.167 HD
ATOM     59  C   UNL A   1      43.287  27.501  32.245  1.00  0.00     0.074 A 
ATOM     60  C   UNL A   1      44.179  26.596  31.551  1.00  0.00     0.031 C 
ATOM     61  C   UNL A   1      43.461  27.912  33.526  1.00  0.00     0.037 A 
BRANCH  48  62
ATOM     62  C   UNL A   1      39.168  31.885  35.506  1.00  0.00     0.064 A 
ATOM     63  C   UNL A   1      39.489  33.250  35.552  1.00  0.00     0.173 A 
ATOM     64  C   UNL A   1      38.333  31.374  36.513  1.00  0.00     0.173 A 
ATOM     65  F   UNL A   1      40.294  33.784  34.620  1.00  0.00    -0.203 F 
ATOM     66  C   UNL A   1      39.020  34.064  36.578  1.00  0.00     0.198 A 
ATOM     67  C   UNL A   1      37.840  32.199  37.521  1.00  0.00     0.198 A 
ATOM     68  F   UNL A   1      37.988  30.078  36.514  1.00  0.00    -0.203 F 
ATOM     69  F   UNL A   1      39.381  35.354  36.627  1.00  0.00    -0.200 F 
ATOM     70  C   UNL A   1      38.190  33.540  37.557  1.00  0.00     0.200 A 
ATOM     71  F   UNL A   1      37.026  31.694  38.459  1.00  0.00    -0.200 F 
ATOM     72  F   UNL A   1      37.732  34.327  38.541  1.00  0.00    -0.200 F 
ENDBRANCH  48  62
BRANCH  49  73
ATOM     73  C   UNL A   1      42.277  26.368  27.793  1.00  0.00     0.064 A 
ATOM     74  C   UNL A   1      43.220  26.900  26.903  1.00  0.00     0.173 A 
ATOM     75  C   UNL A   1      41.814  25.066  27.551  1.00  0.00     0.173 A 
ATOM     76  F   UNL A   1      43.677  28.149  27.081  1.00  0.00    -0.203 F 
ATOM     77  C   UNL A   1      43.667  26.169  25.804  1.00  0.00     0.198 A 
ATOM     78  C   UNL A   1      42.282  24.326  26.468  1.00  0.00     0.198 A 
ATOM     79  F   UNL A   1      40.915  24.510  28.376  1.00  0.00    -0.203 F 
ATOM     80  F   UNL A   1      44.535  26.719  24.944  1.00  0.00    -0.200 F 
ATOM     81  C   UNL A   1      43.202  24.881  25.590  1.00  0.00     0.200 A 
ATOM     82  F   UNL A   1      41.840  23.076  26.272  1.00  0.00    -0.200 F 
ATOM     83  F   UNL A   1      43.634  24.176  24.536  1.00  0.00    -0.200 F 
ENDBRANCH  49  73
BRANCH  61  84
ATOM     84  C   UNL A   1      44.639  27.357  34.272  1.00  0.00     0.064 A 
ATOM     85  C   UNL A   1      44.562  26.144  34.972  1.00  0.00     0.173 A 
ATOM     86  C   UNL A   1      45.872  28.027  34.249  1.00  0.00     0.173 A 
ATOM     87  F   UNL A   1      43.401  25.475  35.035  1.00  0.00    -0.203 F 
ATOM     88  C   UNL A   1      45.671  25.633  35.639  1.00  0.00     0.198 A 
ATOM     89  C   UNL A   1      46.986  27.498  34.894  1.00  0.00     0.198 A 
ATOM     90  F   UNL A   1      45.998  29.187  33.588  1.00  0.00    -0.203 F 
ATOM     91  F   UNL A   1      45.564  24.494  36.339  1.00  0.00    -0.200 F 
ATOM     92  C   UNL A   1      46.883  26.306  35.593  1.00  0.00     0.200 A 
ATOM     93  F   UNL A   1      48.160  28.143  34.838  1.00  0.00    -0.200 F 
ATOM     94  F   UNL A   1      47.952  25.807  36.230  1.00  0.00    -0.200 F 
ENDBRANCH  61  84
ENDBRANCH  35  36
ENDBRANCH  27  30
ENDBRANCH  25  26
ENDBRANCH  24  25
ENDBRANCH   1  24
TORSDOF 15
ENDMDL
