MODEL 1
REMARK VINA RESULT:     -14.0      0.000      0.000
REMARK SMILES COc1ccccc1N1C(=O)[C@@H]2[C@@H](C1=O)[C@@](Cc1ccccc1)(C(=O)NCCCCNC(=O)c1ccc(-c3c4nc(c(-c5c(F)c(F)c(F)c(F)c5F)c5ccc([nH]5)c(-c5c(F)c(F)c(F)c(F)c5F)c5nc(c(-c6c(F)c(F)c(F)c(F)c6F)c6ccc3[nH]6)C=C5)C=C4)cc1)[NH2+][C@H]2c1ccc(C)cc1
REMARK SMILES IDX 28 1 27 2 26 3 24 4 25 5 16 7 9 8 10 9 14 10 11 11 12 12
REMARK SMILES IDX 13 13 15 14 98 15 97 16 8 19 3 20 4 21 5 22 7 23 6 24 2 25
REMARK SMILES IDX 1 26 99 27 100 28 105 29 101 30 104 31 102 32 103 33 17 34
REMARK SMILES IDX 18 35 19 36 23 37 20 38 22 39 21 40 29 41 30 42 31 43 32 44
REMARK SMILES IDX 33 46 34 47 35 48 96 49 36 50 95 51 37 52 38 53 39 54 89 55
REMARK SMILES IDX 40 56 94 57 88 58 90 59 41 60 93 61 87 62 86 63 42 65 74 66
REMARK SMILES IDX 54 67 73 68 55 69 58 70 72 71 91 72 56 73 57 74 71 76 92 77
REMARK SMILES IDX 59 78 43 79 44 80 52 81 45 82 46 83 50 84 53 85 47 86 48 87
REMARK SMILES IDX 51 88 49 89 75 90 76 91 84 92 77 93 78 94 82 95 85 96 79 97
REMARK SMILES IDX 80 98 83 99 81 100 60 101 61 102 69 103 62 104 63 105 67 106
REMARK SMILES IDX 70 107 64 108 65 109 68 110 66 111
REMARK H PARENT 26 6 97 17 97 18 31 45 90 64 58 75
REMARK Flexibility Score: inf
ROOT
ATOM      1  C   UNL A   1      32.252  27.180  26.443  1.00  0.00     0.023 C 
ENDROOT
BRANCH   1   2
ATOM      2  C   UNL A   1      31.150  26.149  26.171  1.00  0.00     0.116 C 
BRANCH   2   3
ATOM      3  N   UNL A   1      31.379  24.952  26.957  1.00  0.00    -0.351 N 
ATOM      4  C   UNL A   1      31.228  23.645  26.628  1.00  0.00     0.282 C 
ATOM      5  O   UNL A   1      30.470  23.018  27.385  1.00  0.00    -0.268 OA
ATOM      6  H   UNL A   1      31.695  25.114  27.875  1.00  0.00     0.163 HD
BRANCH   4   7
ATOM      7  C   UNL A   1      31.958  22.883  25.479  1.00  0.00     0.192 C 
ATOM      8  N   UNL A   1      35.624  23.389  25.418  1.00  0.00    -0.246 N 
ATOM      9  C   UNL A   1      35.171  24.011  24.253  1.00  0.00     0.244 C 
ATOM     10  C   UNL A   1      34.569  22.928  26.203  1.00  0.00     0.245 C 
ATOM     11  O   UNL A   1      35.795  24.347  23.262  1.00  0.00    -0.273 OA
ATOM     12  C   UNL A   1      33.692  24.197  24.482  1.00  0.00     0.162 C 
ATOM     13  C   UNL A   1      33.431  22.911  25.248  1.00  0.00     0.170 C 
ATOM     14  O   UNL A   1      34.550  22.627  27.381  1.00  0.00    -0.273 OA
ATOM     15  C   UNL A   1      32.576  24.204  23.463  1.00  0.00     0.228 C 
ATOM     16  N   UNL A   1      31.502  23.423  24.133  1.00  0.00    -0.326 N 
ATOM     17  H   UNL A   1      30.693  24.028  24.276  1.00  0.00     0.347 HD
ATOM     18  H   UNL A   1      31.264  22.631  23.537  1.00  0.00     0.347 HD
BRANCH   8  19
ATOM     19  C   UNL A   1      36.967  23.083  25.701  1.00  0.00     0.094 A 
ATOM     20  C   UNL A   1      37.492  21.819  25.382  1.00  0.00     0.143 A 
ATOM     21  C   UNL A   1      38.791  21.469  25.751  1.00  0.00     0.048 A 
ATOM     22  C   UNL A   1      39.587  22.392  26.426  1.00  0.00     0.004 A 
ATOM     23  C   UNL A   1      37.787  24.017  26.341  1.00  0.00     0.031 A 
ATOM     24  C   UNL A   1      39.088  23.663  26.718  1.00  0.00     0.002 A 
BRANCH  20  25
ATOM     25  O   UNL A   1      36.756  20.885  24.695  1.00  0.00    -0.495 OA
ATOM     26  C   UNL A   1      37.209  19.562  25.001  1.00  0.00     0.278 C 
ENDBRANCH  20  25
ENDBRANCH   8  19
BRANCH  15  27
ATOM     27  C   UNL A   1      32.106  25.605  23.099  1.00  0.00     0.010 A 
ATOM     28  C   UNL A   1      30.740  25.907  22.995  1.00  0.00     0.010 A 
ATOM     29  C   UNL A   1      33.011  26.649  22.881  1.00  0.00     0.010 A 
ATOM     30  C   UNL A   1      30.279  27.198  22.752  1.00  0.00     0.004 A 
ATOM     31  C   UNL A   1      32.555  27.947  22.597  1.00  0.00     0.004 A 
ATOM     32  C   UNL A   1      31.185  28.233  22.542  1.00  0.00    -0.051 A 
ATOM     33  C   UNL A   1      30.675  29.625  22.315  1.00  0.00     0.044 C 
ENDBRANCH  15  27
BRANCH   7  34
ATOM     34  C   UNL A   1      31.401  21.419  25.486  1.00  0.00     0.115 C 
BRANCH  34  35
ATOM     35  C   UNL A   1      32.234  20.306  24.886  1.00  0.00    -0.041 A 
ATOM     36  C   UNL A   1      32.153  20.063  23.504  1.00  0.00     0.004 A 
ATOM     37  C   UNL A   1      32.984  19.425  25.672  1.00  0.00     0.004 A 
ATOM     38  C   UNL A   1      32.803  18.971  22.927  1.00  0.00     0.000 A 
ATOM     39  C   UNL A   1      33.644  18.337  25.093  1.00  0.00     0.000 A 
ATOM     40  C   UNL A   1      33.549  18.107  23.723  1.00  0.00     0.000 A 
ENDBRANCH  34  35
ENDBRANCH   7  34
ENDBRANCH   4   7
ENDBRANCH   2   3
ENDBRANCH   1   2
BRANCH   1  41
ATOM     41  C   UNL A   1      31.852  28.627  26.227  1.00  0.00     0.023 C 
BRANCH  41  42
ATOM     42  C   UNL A   1      33.022  29.585  26.195  1.00  0.00     0.116 C 
BRANCH  42  43
ATOM     43  N   UNL A   1      32.711  30.941  26.635  1.00  0.00    -0.352 N 
ATOM     44  C   UNL A   1      33.509  31.779  27.386  1.00  0.00     0.251 C 
ATOM     45  H   UNL A   1      31.835  31.298  26.365  1.00  0.00     0.163 HD
ATOM     46  O   UNL A   1      33.124  32.888  27.735  1.00  0.00    -0.269 OA
BRANCH  44  47
ATOM     47  C   UNL A   1      34.825  31.267  27.814  1.00  0.00     0.039 A 
ATOM     48  C   UNL A   1      35.877  32.163  28.000  1.00  0.00     0.014 A 
ATOM     49  C   UNL A   1      34.945  29.933  28.200  1.00  0.00     0.014 A 
ATOM     50  C   UNL A   1      37.027  31.733  28.663  1.00  0.00     0.010 A 
ATOM     51  C   UNL A   1      36.020  29.553  28.986  1.00  0.00     0.010 A 
ATOM     52  C   UNL A   1      37.087  30.439  29.206  1.00  0.00    -0.014 A 
BRANCH  52  53
ATOM     53  C   UNL A   1      38.277  29.948  29.947  1.00  0.00     0.031 A 
ATOM     54  C   UNL A   1      38.500  30.428  31.358  1.00  0.00     0.074 A 
ATOM     55  C   UNL A   1      39.180  29.147  29.348  1.00  0.00     0.049 A 
ATOM     56  N   UNL A   1      39.531  30.251  32.144  1.00  0.00    -0.248 NA
ATOM     57  C   UNL A   1      37.444  31.272  31.945  1.00  0.00     0.031 C 
ATOM     58  C   UNL A   1      39.116  28.667  27.965  1.00  0.00     0.029 A 
ATOM     59  N   UNL A   1      40.343  28.598  29.832  1.00  0.00    -0.354 N 
ATOM     60  C   UNL A   1      39.256  30.986  33.290  1.00  0.00     0.074 A 
ATOM     61  C   UNL A   1      38.014  31.685  33.064  1.00  0.00     0.031 C 
ATOM     62  C   UNL A   1      40.170  27.867  27.725  1.00  0.00     0.029 A 
ATOM     63  C   UNL A   1      41.003  27.807  28.922  1.00  0.00     0.049 A 
ATOM     64  H   UNL A   1      40.672  28.755  30.746  1.00  0.00     0.167 HD
ATOM     65  C   UNL A   1      39.948  31.033  34.451  1.00  0.00     0.037 A 
ATOM     66  C   UNL A   1      42.150  27.112  29.049  1.00  0.00     0.037 A 
ATOM     67  C   UNL A   1      41.145  30.281  34.698  1.00  0.00     0.049 A 
ATOM     68  C   UNL A   1      42.875  27.144  30.371  1.00  0.00     0.074 A 
ATOM     69  C   UNL A   1      41.909  30.224  35.849  1.00  0.00     0.029 A 
ATOM     70  N   UNL A   1      41.737  29.429  33.778  1.00  0.00    -0.354 N 
ATOM     71  N   UNL A   1      42.578  27.805  31.465  1.00  0.00    -0.248 NA
ATOM     72  C   UNL A   1      44.086  26.318  30.483  1.00  0.00     0.031 C 
ATOM     73  C   UNL A   1      42.975  29.349  35.620  1.00  0.00     0.029 A 
ATOM     74  C   UNL A   1      42.849  28.830  34.341  1.00  0.00     0.049 A 
ATOM     75  H   UNL A   1      41.413  29.274  32.861  1.00  0.00     0.167 HD
ATOM     76  C   UNL A   1      43.535  27.439  32.403  1.00  0.00     0.074 A 
ATOM     77  C   UNL A   1      44.413  26.490  31.755  1.00  0.00     0.031 C 
ATOM     78  C   UNL A   1      43.678  27.853  33.685  1.00  0.00     0.037 A 
BRANCH  65  79
ATOM     79  C   UNL A   1      39.393  31.889  35.552  1.00  0.00     0.064 A 
ATOM     80  C   UNL A   1      39.755  33.239  35.681  1.00  0.00     0.173 A 
ATOM     81  C   UNL A   1      38.477  31.366  36.476  1.00  0.00     0.173 A 
ATOM     82  F   UNL A   1      40.644  33.783  34.836  1.00  0.00    -0.203 F 
ATOM     83  C   UNL A   1      39.244  34.025  36.709  1.00  0.00     0.198 A 
ATOM     84  C   UNL A   1      37.941  32.163  37.483  1.00  0.00     0.198 A 
ATOM     85  F   UNL A   1      38.097  30.080  36.400  1.00  0.00    -0.203 F 
ATOM     86  F   UNL A   1      39.650  35.295  36.844  1.00  0.00    -0.200 F 
ATOM     87  C   UNL A   1      38.331  33.489  37.603  1.00  0.00     0.200 A 
ATOM     88  F   UNL A   1      37.049  31.648  38.341  1.00  0.00    -0.200 F 
ATOM     89  F   UNL A   1      37.832  34.250  38.588  1.00  0.00    -0.200 F 
ENDBRANCH  65  79
BRANCH  66  90
ATOM     90  C   UNL A   1      42.672  26.293  27.922  1.00  0.00     0.064 A 
ATOM     91  C   UNL A   1      42.377  24.924  27.829  1.00  0.00     0.173 A 
ATOM     92  C   UNL A   1      43.514  26.842  26.944  1.00  0.00     0.173 A 
ATOM     93  F   UNL A   1      41.590  24.346  28.750  1.00  0.00    -0.203 F 
ATOM     94  C   UNL A   1      42.939  24.128  26.832  1.00  0.00     0.198 A 
ATOM     95  C   UNL A   1      44.049  26.051  25.927  1.00  0.00     0.198 A 
ATOM     96  F   UNL A   1      43.820  28.146  26.978  1.00  0.00    -0.203 F 
ATOM     97  F   UNL A   1      42.695  22.811  26.813  1.00  0.00    -0.200 F 
ATOM     98  C   UNL A   1      43.774  24.692  25.881  1.00  0.00     0.200 A 
ATOM     99  F   UNL A   1      44.844  26.604  25.001  1.00  0.00    -0.200 F 
ATOM    100  F   UNL A   1      44.322  23.927  24.928  1.00  0.00    -0.200 F 
ENDBRANCH  66  90
BRANCH  78 101
ATOM    101  C   UNL A   1      44.772  27.223  34.495  1.00  0.00     0.064 A 
ATOM    102  C   UNL A   1      44.569  26.039  35.217  1.00  0.00     0.173 A 
ATOM    103  C   UNL A   1      46.053  27.796  34.509  1.00  0.00     0.173 A 
ATOM    104  F   UNL A   1      43.359  25.461  35.242  1.00  0.00    -0.203 F 
ATOM    105  C   UNL A   1      45.604  25.467  35.953  1.00  0.00     0.198 A 
ATOM    106  C   UNL A   1      47.092  27.204  35.220  1.00  0.00     0.198 A 
ATOM    107  F   UNL A   1      46.299  28.922  33.825  1.00  0.00    -0.203 F 
ATOM    108  F   UNL A   1      45.375  24.365  36.679  1.00  0.00    -0.200 F 
ATOM    109  C   UNL A   1      46.864  26.046  35.949  1.00  0.00     0.200 A 
ATOM    110  F   UNL A   1      48.313  27.755  35.202  1.00  0.00    -0.200 F 
ATOM    111  F   UNL A   1      47.859  25.491  36.653  1.00  0.00    -0.200 F 
ENDBRANCH  78 101
ENDBRANCH  52  53
ENDBRANCH  44  47
ENDBRANCH  42  43
ENDBRANCH  41  42
ENDBRANCH   1  41
TORSDOF 16
ENDMDL
MODEL 2
REMARK VINA RESULT:     -13.5      3.822      9.739
REMARK SMILES COc1ccccc1N1C(=O)[C@@H]2[C@@H](C1=O)[C@@](Cc1ccccc1)(C(=O)NCCCCNC(=O)c1ccc(-c3c4nc(c(-c5c(F)c(F)c(F)c(F)c5F)c5ccc([nH]5)c(-c5c(F)c(F)c(F)c(F)c5F)c5nc(c(-c6c(F)c(F)c(F)c(F)c6F)c6ccc3[nH]6)C=C5)C=C4)cc1)[NH2+][C@H]2c1ccc(C)cc1
REMARK SMILES IDX 28 1 27 2 26 3 24 4 25 5 16 7 9 8 10 9 14 10 11 11 12 12
REMARK SMILES IDX 13 13 15 14 98 15 97 16 8 19 3 20 4 21 5 22 7 23 6 24 2 25
REMARK SMILES IDX 1 26 99 27 100 28 105 29 101 30 104 31 102 32 103 33 17 34
REMARK SMILES IDX 18 35 19 36 23 37 20 38 22 39 21 40 29 41 30 42 31 43 32 44
REMARK SMILES IDX 33 46 34 47 35 48 96 49 36 50 95 51 37 52 38 53 39 54 89 55
REMARK SMILES IDX 40 56 94 57 88 58 90 59 41 60 93 61 87 62 86 63 42 65 74 66
REMARK SMILES IDX 54 67 73 68 55 69 58 70 72 71 91 72 56 73 57 74 71 76 92 77
REMARK SMILES IDX 59 78 43 79 44 80 52 81 45 82 46 83 50 84 53 85 47 86 48 87
REMARK SMILES IDX 51 88 49 89 75 90 76 91 84 92 77 93 78 94 82 95 85 96 79 97
REMARK SMILES IDX 80 98 83 99 81 100 60 101 61 102 69 103 62 104 63 105 67 106
REMARK SMILES IDX 70 107 64 108 65 109 68 110 66 111
REMARK H PARENT 26 6 97 17 97 18 31 45 90 64 58 75
REMARK Flexibility Score: inf
ROOT
ATOM      1  C   UNL A   1      35.365  24.044  24.137  1.00  0.00     0.023 C 
ENDROOT
BRANCH   1   2
ATOM      2  C   UNL A   1      33.998  24.206  23.461  1.00  0.00     0.116 C 
BRANCH   2   3
ATOM      3  N   UNL A   1      33.947  25.456  22.728  1.00  0.00    -0.351 N 
ATOM      4  C   UNL A   1      32.885  26.138  22.231  1.00  0.00     0.282 C 
ATOM      5  O   UNL A   1      32.955  26.364  21.013  1.00  0.00    -0.268 OA
ATOM      6  H   UNL A   1      34.822  25.877  22.565  1.00  0.00     0.163 HD
BRANCH   4   7
ATOM      7  C   UNL A   1      31.680  26.707  23.043  1.00  0.00     0.192 C 
ATOM      8  N   UNL A   1      32.656  28.875  25.880  1.00  0.00    -0.246 N 
ATOM      9  C   UNL A   1      32.090  27.751  26.484  1.00  0.00     0.244 C 
ATOM     10  C   UNL A   1      32.751  28.727  24.498  1.00  0.00     0.245 C 
ATOM     11  O   UNL A   1      31.680  27.608  27.623  1.00  0.00    -0.273 OA
ATOM     12  C   UNL A   1      32.097  26.702  25.401  1.00  0.00     0.162 C 
ATOM     13  C   UNL A   1      31.807  27.614  24.220  1.00  0.00     0.170 C 
ATOM     14  O   UNL A   1      33.440  29.330  23.697  1.00  0.00    -0.273 OA
ATOM     15  C   UNL A   1      31.125  25.566  25.184  1.00  0.00     0.228 C 
ATOM     16  N   UNL A   1      30.927  25.567  23.710  1.00  0.00    -0.326 N 
ATOM     17  H   UNL A   1      31.263  24.682  23.330  1.00  0.00     0.347 HD
ATOM     18  H   UNL A   1      29.932  25.691  23.522  1.00  0.00     0.347 HD
BRANCH   8  19
ATOM     19  C   UNL A   1      32.932  30.091  26.531  1.00  0.00     0.094 A 
ATOM     20  C   UNL A   1      34.128  30.256  27.251  1.00  0.00     0.143 A 
ATOM     21  C   UNL A   1      34.365  31.419  27.986  1.00  0.00     0.048 A 
ATOM     22  C   UNL A   1      33.415  32.437  27.991  1.00  0.00     0.004 A 
ATOM     23  C   UNL A   1      32.003  31.135  26.507  1.00  0.00     0.031 A 
ATOM     24  C   UNL A   1      32.239  32.297  27.250  1.00  0.00     0.002 A 
BRANCH  20  25
ATOM     25  O   UNL A   1      35.106  29.293  27.258  1.00  0.00    -0.495 OA
ATOM     26  C   UNL A   1      36.368  29.858  27.626  1.00  0.00     0.278 C 
ENDBRANCH  20  25
ENDBRANCH   8  19
BRANCH  15  27
ATOM     27  C   UNL A   1      31.649  24.226  25.678  1.00  0.00     0.010 A 
ATOM     28  C   UNL A   1      31.251  23.025  25.074  1.00  0.00     0.010 A 
ATOM     29  C   UNL A   1      32.565  24.140  26.732  1.00  0.00     0.010 A 
ATOM     30  C   UNL A   1      31.782  21.792  25.446  1.00  0.00     0.004 A 
ATOM     31  C   UNL A   1      33.078  22.897  27.138  1.00  0.00     0.004 A 
ATOM     32  C   UNL A   1      32.697  21.715  26.490  1.00  0.00    -0.051 A 
ATOM     33  C   UNL A   1      33.287  20.386  26.857  1.00  0.00     0.044 C 
ENDBRANCH  15  27
BRANCH   7  34
ATOM     34  C   UNL A   1      30.652  27.255  21.997  1.00  0.00     0.115 C 
BRANCH  34  35
ATOM     35  C   UNL A   1      29.758  28.416  22.375  1.00  0.00    -0.041 A 
ATOM     36  C   UNL A   1      28.532  28.155  23.010  1.00  0.00     0.004 A 
ATOM     37  C   UNL A   1      30.045  29.735  22.002  1.00  0.00     0.004 A 
ATOM     38  C   UNL A   1      27.620  29.182  23.263  1.00  0.00     0.000 A 
ATOM     39  C   UNL A   1      29.136  30.764  22.264  1.00  0.00     0.000 A 
ATOM     40  C   UNL A   1      27.923  30.488  22.889  1.00  0.00     0.000 A 
ENDBRANCH  34  35
ENDBRANCH   7  34
ENDBRANCH   4   7
ENDBRANCH   2   3
ENDBRANCH   1   2
BRANCH   1  41
ATOM     41  C   UNL A   1      35.747  22.619  24.490  1.00  0.00     0.023 C 
BRANCH  41  42
ATOM     42  C   UNL A   1      36.615  22.508  25.724  1.00  0.00     0.116 C 
BRANCH  42  43
ATOM     43  N   UNL A   1      37.632  21.464  25.662  1.00  0.00    -0.352 N 
ATOM     44  C   UNL A   1      38.933  21.539  26.111  1.00  0.00     0.251 C 
ATOM     45  H   UNL A   1      37.358  20.611  25.254  1.00  0.00     0.163 HD
ATOM     46  O   UNL A   1      39.716  20.608  25.967  1.00  0.00    -0.269 OA
BRANCH  44  47
ATOM     47  C   UNL A   1      39.375  22.810  26.718  1.00  0.00     0.039 A 
ATOM     48  C   UNL A   1      40.410  22.795  27.653  1.00  0.00     0.014 A 
ATOM     49  C   UNL A   1      38.883  24.013  26.215  1.00  0.00     0.014 A 
ATOM     50  C   UNL A   1      41.014  23.999  28.018  1.00  0.00     0.010 A 
ATOM     51  C   UNL A   1      39.580  25.183  26.464  1.00  0.00     0.010 A 
ATOM     52  C   UNL A   1      40.637  25.197  27.388  1.00  0.00    -0.014 A 
BRANCH  52  53
ATOM     53  C   UNL A   1      41.274  26.497  27.720  1.00  0.00     0.031 A 
ATOM     54  C   UNL A   1      42.691  26.744  27.272  1.00  0.00     0.074 A 
ATOM     55  C   UNL A   1      40.626  27.410  28.470  1.00  0.00     0.049 A 
ATOM     56  N   UNL A   1      43.495  27.735  27.564  1.00  0.00    -0.248 NA
ATOM     57  C   UNL A   1      43.309  25.707  26.426  1.00  0.00     0.031 C 
ATOM     58  C   UNL A   1      39.278  27.264  29.024  1.00  0.00     0.029 A 
ATOM     59  N   UNL A   1      41.025  28.651  28.904  1.00  0.00    -0.354 N 
ATOM     60  C   UNL A   1      44.709  27.417  26.968  1.00  0.00     0.074 A 
ATOM     61  C   UNL A   1      44.569  26.106  26.381  1.00  0.00     0.031 C 
ATOM     62  C   UNL A   1      38.949  28.384  29.691  1.00  0.00     0.029 A 
ATOM     63  C   UNL A   1      40.074  29.312  29.644  1.00  0.00     0.049 A 
ATOM     64  H   UNL A   1      41.910  29.032  28.702  1.00  0.00     0.167 HD
ATOM     65  C   UNL A   1      45.827  28.172  26.869  1.00  0.00     0.037 A 
ATOM     66  C   UNL A   1      40.113  30.532  30.214  1.00  0.00     0.037 A 
ATOM     67  C   UNL A   1      45.939  29.504  27.392  1.00  0.00     0.049 A 
ATOM     68  C   UNL A   1      41.354  31.372  30.046  1.00  0.00     0.074 A 
ATOM     69  C   UNL A   1      47.010  30.375  27.318  1.00  0.00     0.029 A 
ATOM     70  N   UNL A   1      44.924  30.167  28.065  1.00  0.00    -0.354 N 
ATOM     71  N   UNL A   1      42.479  31.079  29.438  1.00  0.00    -0.248 NA
ATOM     72  C   UNL A   1      41.324  32.721  30.629  1.00  0.00     0.031 C 
ATOM     73  C   UNL A   1      46.650  31.562  27.963  1.00  0.00     0.029 A 
ATOM     74  C   UNL A   1      45.340  31.444  28.398  1.00  0.00     0.049 A 
ATOM     75  H   UNL A   1      44.040  29.786  28.273  1.00  0.00     0.167 HD
ATOM     76  C   UNL A   1      43.268  32.218  29.525  1.00  0.00     0.074 A 
ATOM     77  C   UNL A   1      42.490  33.211  30.233  1.00  0.00     0.031 C 
ATOM     78  C   UNL A   1      44.526  32.425  29.065  1.00  0.00     0.037 A 
BRANCH  65  79
ATOM     79  C   UNL A   1      46.992  27.588  26.125  1.00  0.00     0.064 A 
ATOM     80  C   UNL A   1      47.975  26.833  26.785  1.00  0.00     0.173 A 
ATOM     81  C   UNL A   1      47.121  27.763  24.740  1.00  0.00     0.173 A 
ATOM     82  F   UNL A   1      47.910  26.654  28.113  1.00  0.00    -0.203 F 
ATOM     83  C   UNL A   1      49.059  26.302  26.092  1.00  0.00     0.198 A 
ATOM     84  C   UNL A   1      48.187  27.201  24.043  1.00  0.00     0.198 A 
ATOM     85  F   UNL A   1      46.210  28.476  24.060  1.00  0.00    -0.203 F 
ATOM     86  F   UNL A   1      50.014  25.636  26.754  1.00  0.00    -0.200 F 
ATOM     87  C   UNL A   1      49.158  26.478  24.721  1.00  0.00     0.200 A 
ATOM     88  F   UNL A   1      48.278  27.362  22.716  1.00  0.00    -0.200 F 
ATOM     89  F   UNL A   1      50.198  25.958  24.052  1.00  0.00    -0.200 F 
ENDBRANCH  65  79
BRANCH  66  90
ATOM     90  C   UNL A   1      38.939  31.062  30.959  1.00  0.00     0.064 A 
ATOM     91  C   UNL A   1      38.755  30.765  32.319  1.00  0.00     0.173 A 
ATOM     92  C   UNL A   1      37.952  31.829  30.324  1.00  0.00     0.173 A 
ATOM     93  F   UNL A   1      39.662  30.020  32.969  1.00  0.00    -0.203 F 
ATOM     94  C   UNL A   1      37.611  31.176  33.001  1.00  0.00     0.198 A 
ATOM     95  C   UNL A   1      36.824  32.268  31.016  1.00  0.00     0.198 A 
ATOM     96  F   UNL A   1      38.082  32.151  29.029  1.00  0.00    -0.203 F 
ATOM     97  F   UNL A   1      37.431  30.817  34.278  1.00  0.00    -0.200 F 
ATOM     98  C   UNL A   1      36.646  31.928  32.349  1.00  0.00     0.200 A 
ATOM     99  F   UNL A   1      35.901  33.007  30.386  1.00  0.00    -0.200 F 
ATOM    100  F   UNL A   1      35.541  32.315  33.000  1.00  0.00    -0.200 F 
ENDBRANCH  66  90
BRANCH  78 101
ATOM    101  C   UNL A   1      45.106  33.798  29.239  1.00  0.00     0.064 A 
ATOM    102  C   UNL A   1      45.866  34.142  30.365  1.00  0.00     0.173 A 
ATOM    103  C   UNL A   1      44.929  34.766  28.239  1.00  0.00     0.173 A 
ATOM    104  F   UNL A   1      46.052  33.253  31.352  1.00  0.00    -0.203 F 
ATOM    105  C   UNL A   1      46.402  35.420  30.499  1.00  0.00     0.198 A 
ATOM    106  C   UNL A   1      45.493  36.032  28.362  1.00  0.00     0.198 A 
ATOM    107  F   UNL A   1      44.219  34.481  27.138  1.00  0.00    -0.203 F 
ATOM    108  F   UNL A   1      47.080  35.745  31.608  1.00  0.00    -0.200 F 
ATOM    109  C   UNL A   1      46.221  36.360  29.496  1.00  0.00     0.200 A 
ATOM    110  F   UNL A   1      45.331  36.934  27.385  1.00  0.00    -0.200 F 
ATOM    111  F   UNL A   1      46.743  37.587  29.624  1.00  0.00    -0.200 F 
ENDBRANCH  78 101
ENDBRANCH  52  53
ENDBRANCH  44  47
ENDBRANCH  42  43
ENDBRANCH  41  42
ENDBRANCH   1  41
TORSDOF 16
ENDMDL
MODEL 3
REMARK VINA RESULT:     -12.7      3.675      7.500
REMARK SMILES COc1ccccc1N1C(=O)[C@@H]2[C@@H](C1=O)[C@@](Cc1ccccc1)(C(=O)NCCCCNC(=O)c1ccc(-c3c4nc(c(-c5c(F)c(F)c(F)c(F)c5F)c5ccc([nH]5)c(-c5c(F)c(F)c(F)c(F)c5F)c5nc(c(-c6c(F)c(F)c(F)c(F)c6F)c6ccc3[nH]6)C=C5)C=C4)cc1)[NH2+][C@H]2c1ccc(C)cc1
REMARK SMILES IDX 28 1 27 2 26 3 24 4 25 5 16 7 9 8 10 9 14 10 11 11 12 12
REMARK SMILES IDX 13 13 15 14 98 15 97 16 8 19 3 20 4 21 5 22 7 23 6 24 2 25
REMARK SMILES IDX 1 26 99 27 100 28 105 29 101 30 104 31 102 32 103 33 17 34
REMARK SMILES IDX 18 35 19 36 23 37 20 38 22 39 21 40 29 41 30 42 31 43 32 44
REMARK SMILES IDX 33 46 34 47 35 48 96 49 36 50 95 51 37 52 38 53 39 54 89 55
REMARK SMILES IDX 40 56 94 57 88 58 90 59 41 60 93 61 87 62 86 63 42 65 74 66
REMARK SMILES IDX 54 67 73 68 55 69 58 70 72 71 91 72 56 73 57 74 71 76 92 77
REMARK SMILES IDX 59 78 43 79 44 80 52 81 45 82 46 83 50 84 53 85 47 86 48 87
REMARK SMILES IDX 51 88 49 89 75 90 76 91 84 92 77 93 78 94 82 95 85 96 79 97
REMARK SMILES IDX 80 98 83 99 81 100 60 101 61 102 69 103 62 104 63 105 67 106
REMARK SMILES IDX 70 107 64 108 65 109 68 110 66 111
REMARK H PARENT 26 6 97 17 97 18 31 45 90 64 58 75
REMARK Flexibility Score: inf
ROOT
ATOM      1  C   UNL A   1      34.738  23.083  23.147  1.00  0.00     0.023 C 
ENDROOT
BRANCH   1   2
ATOM      2  C   UNL A   1      33.497  23.915  22.800  1.00  0.00     0.116 C 
BRANCH   2   3
ATOM      3  N   UNL A   1      33.852  25.315  22.675  1.00  0.00    -0.351 N 
ATOM      4  C   UNL A   1      33.088  26.388  22.352  1.00  0.00     0.282 C 
ATOM      5  O   UNL A   1      33.508  27.031  21.377  1.00  0.00    -0.268 OA
ATOM      6  H   UNL A   1      34.799  25.520  22.854  1.00  0.00     0.163 HD
BRANCH   4   7
ATOM      7  C   UNL A   1      31.831  26.902  23.120  1.00  0.00     0.192 C 
ATOM      8  N   UNL A   1      32.606  29.118  25.982  1.00  0.00    -0.246 N 
ATOM      9  C   UNL A   1      32.071  27.969  26.570  1.00  0.00     0.244 C 
ATOM     10  C   UNL A   1      32.756  28.971  24.604  1.00  0.00     0.245 C 
ATOM     11  O   UNL A   1      31.629  27.810  27.694  1.00  0.00    -0.273 OA
ATOM     12  C   UNL A   1      32.165  26.921  25.490  1.00  0.00     0.162 C 
ATOM     13  C   UNL A   1      31.874  27.816  24.297  1.00  0.00     0.170 C 
ATOM     14  O   UNL A   1      33.444  29.604  23.826  1.00  0.00    -0.273 OA
ATOM     15  C   UNL A   1      31.254  25.741  25.244  1.00  0.00     0.228 C 
ATOM     16  N   UNL A   1      31.108  25.730  23.764  1.00  0.00    -0.326 N 
ATOM     17  H   UNL A   1      31.497  24.860  23.399  1.00  0.00     0.347 HD
ATOM     18  H   UNL A   1      30.116  25.807  23.541  1.00  0.00     0.347 HD
BRANCH   8  19
ATOM     19  C   UNL A   1      32.803  30.346  26.638  1.00  0.00     0.094 A 
ATOM     20  C   UNL A   1      33.881  30.514  27.524  1.00  0.00     0.143 A 
ATOM     21  C   UNL A   1      34.026  31.691  28.259  1.00  0.00     0.048 A 
ATOM     22  C   UNL A   1      33.103  32.722  28.098  1.00  0.00     0.004 A 
ATOM     23  C   UNL A   1      31.906  31.401  26.451  1.00  0.00     0.031 A 
ATOM     24  C   UNL A   1      32.048  32.579  27.195  1.00  0.00     0.002 A 
BRANCH  20  25
ATOM     25  O   UNL A   1      34.831  29.538  27.699  1.00  0.00    -0.495 OA
ATOM     26  C   UNL A   1      36.123  30.017  27.314  1.00  0.00     0.278 C 
ENDBRANCH  20  25
ENDBRANCH   8  19
BRANCH  15  27
ATOM     27  C   UNL A   1      31.822  24.427  25.761  1.00  0.00     0.010 A 
ATOM     28  C   UNL A   1      31.301  23.196  25.337  1.00  0.00     0.010 A 
ATOM     29  C   UNL A   1      32.898  24.394  26.653  1.00  0.00     0.010 A 
ATOM     30  C   UNL A   1      31.858  21.979  25.722  1.00  0.00     0.004 A 
ATOM     31  C   UNL A   1      33.442  23.169  27.077  1.00  0.00     0.004 A 
ATOM     32  C   UNL A   1      32.932  21.953  26.605  1.00  0.00    -0.051 A 
ATOM     33  C   UNL A   1      33.544  20.638  26.985  1.00  0.00     0.044 C 
ENDBRANCH  15  27
BRANCH   7  34
ATOM     34  C   UNL A   1      30.815  27.400  22.037  1.00  0.00     0.115 C 
BRANCH  34  35
ATOM     35  C   UNL A   1      29.838  28.501  22.388  1.00  0.00    -0.041 A 
ATOM     36  C   UNL A   1      28.618  28.162  22.997  1.00  0.00     0.004 A 
ATOM     37  C   UNL A   1      30.045  29.834  22.013  1.00  0.00     0.004 A 
ATOM     38  C   UNL A   1      27.635  29.127  23.224  1.00  0.00     0.000 A 
ATOM     39  C   UNL A   1      29.065  30.802  22.249  1.00  0.00     0.000 A 
ATOM     40  C   UNL A   1      27.859  30.448  22.849  1.00  0.00     0.000 A 
ENDBRANCH  34  35
ENDBRANCH   7  34
ENDBRANCH   4   7
ENDBRANCH   2   3
ENDBRANCH   1   2
BRANCH   1  41
ATOM     41  C   UNL A   1      35.493  23.532  24.383  1.00  0.00     0.023 C 
BRANCH  41  42
ATOM     42  C   UNL A   1      36.986  23.296  24.305  1.00  0.00     0.116 C 
BRANCH  42  43
ATOM     43  N   UNL A   1      37.411  21.954  24.688  1.00  0.00    -0.352 N 
ATOM     44  C   UNL A   1      38.388  21.615  25.600  1.00  0.00     0.251 C 
ATOM     45  H   UNL A   1      36.947  21.206  24.247  1.00  0.00     0.163 HD
ATOM     46  O   UNL A   1      38.692  20.449  25.811  1.00  0.00    -0.269 OA
BRANCH  44  47
ATOM     47  C   UNL A   1      39.108  22.716  26.270  1.00  0.00     0.039 A 
ATOM     48  C   UNL A   1      40.357  22.468  26.838  1.00  0.00     0.014 A 
ATOM     49  C   UNL A   1      38.616  24.016  26.163  1.00  0.00     0.014 A 
ATOM     50  C   UNL A   1      41.156  23.545  27.221  1.00  0.00     0.010 A 
ATOM     51  C   UNL A   1      39.469  25.081  26.404  1.00  0.00     0.010 A 
ATOM     52  C   UNL A   1      40.739  24.862  26.960  1.00  0.00    -0.014 A 
BRANCH  52  53
ATOM     53  C   UNL A   1      41.570  26.039  27.320  1.00  0.00     0.031 A 
ATOM     54  C   UNL A   1      40.976  27.097  28.214  1.00  0.00     0.074 A 
ATOM     55  C   UNL A   1      42.804  26.197  26.802  1.00  0.00     0.049 A 
ATOM     56  N   UNL A   1      41.454  28.270  28.545  1.00  0.00    -0.248 NA
ATOM     57  C   UNL A   1      39.636  26.825  28.763  1.00  0.00     0.031 C 
ATOM     58  C   UNL A   1      43.466  25.280  25.871  1.00  0.00     0.029 A 
ATOM     59  N   UNL A   1      43.723  27.201  26.982  1.00  0.00    -0.354 N 
ATOM     60  C   UNL A   1      40.461  28.875  29.305  1.00  0.00     0.074 A 
ATOM     61  C   UNL A   1      39.322  27.987  29.309  1.00  0.00     0.031 C 
ATOM     62  C   UNL A   1      44.697  25.745  25.593  1.00  0.00     0.029 A 
ATOM     63  C   UNL A   1      44.898  27.009  26.294  1.00  0.00     0.049 A 
ATOM     64  H   UNL A   1      43.558  27.986  27.553  1.00  0.00     0.167 HD
ATOM     65  C   UNL A   1      40.509  30.041  29.987  1.00  0.00     0.037 A 
ATOM     66  C   UNL A   1      46.008  27.770  26.243  1.00  0.00     0.037 A 
ATOM     67  C   UNL A   1      41.668  30.887  30.040  1.00  0.00     0.049 A 
ATOM     68  C   UNL A   1      46.053  29.042  27.053  1.00  0.00     0.074 A 
ATOM     69  C   UNL A   1      41.843  32.074  30.728  1.00  0.00     0.029 A 
ATOM     70  N   UNL A   1      42.864  30.615  29.394  1.00  0.00    -0.354 N 
ATOM     71  N   UNL A   1      45.124  29.578  27.807  1.00  0.00    -0.248 NA
ATOM     72  C   UNL A   1      47.309  29.804  27.018  1.00  0.00     0.031 C 
ATOM     73  C   UNL A   1      43.142  32.530  30.485  1.00  0.00     0.029 A 
ATOM     74  C   UNL A   1      43.788  31.604  29.681  1.00  0.00     0.049 A 
ATOM     75  H   UNL A   1      43.031  29.834  28.818  1.00  0.00     0.167 HD
ATOM     76  C   UNL A   1      45.697  30.711  28.370  1.00  0.00     0.074 A 
ATOM     77  C   UNL A   1      47.057  30.778  27.881  1.00  0.00     0.031 C 
ATOM     78  C   UNL A   1      45.149  31.619  29.214  1.00  0.00     0.037 A 
BRANCH  65  79
ATOM     79  C   UNL A   1      39.290  30.438  30.768  1.00  0.00     0.064 A 
ATOM     80  C   UNL A   1      38.307  31.271  30.213  1.00  0.00     0.173 A 
ATOM     81  C   UNL A   1      39.090  29.967  32.073  1.00  0.00     0.173 A 
ATOM     82  F   UNL A   1      38.461  31.766  28.975  1.00  0.00    -0.203 F 
ATOM     83  C   UNL A   1      37.184  31.643  30.945  1.00  0.00     0.198 A 
ATOM     84  C   UNL A   1      37.947  30.312  32.791  1.00  0.00     0.198 A 
ATOM     85  F   UNL A   1      39.999  29.168  32.653  1.00  0.00    -0.203 F 
ATOM     86  F   UNL A   1      36.289  32.486  30.413  1.00  0.00    -0.200 F 
ATOM     87  C   UNL A   1      37.000  31.155  32.229  1.00  0.00     0.200 A 
ATOM     88  F   UNL A   1      37.765  29.832  34.029  1.00  0.00    -0.200 F 
ATOM     89  F   UNL A   1      35.913  31.507  32.931  1.00  0.00    -0.200 F 
ENDBRANCH  65  79
BRANCH  66  90
ATOM     90  C   UNL A   1      47.185  27.346  25.439  1.00  0.00     0.064 A 
ATOM     91  C   UNL A   1      48.220  26.594  26.017  1.00  0.00     0.173 A 
ATOM     92  C   UNL A   1      47.329  27.720  24.095  1.00  0.00     0.173 A 
ATOM     93  F   UNL A   1      48.139  26.225  27.305  1.00  0.00    -0.203 F 
ATOM     94  C   UNL A   1      49.371  26.274  25.299  1.00  0.00     0.198 A 
ATOM     95  C   UNL A   1      48.467  27.370  23.368  1.00  0.00     0.198 A 
ATOM     96  F   UNL A   1      46.366  28.428  23.489  1.00  0.00    -0.203 F 
ATOM     97  F   UNL A   1      50.372  25.617  25.901  1.00  0.00    -0.200 F 
ATOM     98  C   UNL A   1      49.493  26.661  23.974  1.00  0.00     0.200 A 
ATOM     99  F   UNL A   1      48.574  27.734  22.082  1.00  0.00    -0.200 F 
ATOM    100  F   UNL A   1      50.603  26.363  23.286  1.00  0.00    -0.200 F 
ENDBRANCH  66  90
BRANCH  78 101
ATOM    101  C   UNL A   1      46.041  32.712  29.724  1.00  0.00     0.064 A 
ATOM    102  C   UNL A   1      46.159  33.941  29.060  1.00  0.00     0.173 A 
ATOM    103  C   UNL A   1      46.752  32.535  30.920  1.00  0.00     0.173 A 
ATOM    104  F   UNL A   1      45.507  34.151  27.906  1.00  0.00    -0.203 F 
ATOM    105  C   UNL A   1      46.986  34.943  29.559  1.00  0.00     0.198 A 
ATOM    106  C   UNL A   1      47.552  33.552  31.433  1.00  0.00     0.198 A 
ATOM    107  F   UNL A   1      46.662  31.382  31.598  1.00  0.00    -0.203 F 
ATOM    108  F   UNL A   1      47.126  36.090  28.880  1.00  0.00    -0.200 F 
ATOM    109  C   UNL A   1      47.676  34.751  30.747  1.00  0.00     0.200 A 
ATOM    110  F   UNL A   1      48.205  33.370  32.588  1.00  0.00    -0.200 F 
ATOM    111  F   UNL A   1      48.466  35.719  31.228  1.00  0.00    -0.200 F 
ENDBRANCH  78 101
ENDBRANCH  52  53
ENDBRANCH  44  47
ENDBRANCH  42  43
ENDBRANCH  41  42
ENDBRANCH   1  41
TORSDOF 16
ENDMDL
