MODEL 1
REMARK VINA RESULT:     -12.1      0.000      0.000
REMARK SMILES O=C(CCSc1nc(-c2cccs2)cc(C(F)(F)F)n1)NCCCCNC(=O)c1ccc(-c2c3nc(c(-c4c(F)c(F)c(F)c(F)c4F)c4ccc([nH]4)c(-c4c(F)c(F)c(F)c(F)c4F)c4nc(c(-c5c(F)c(F)c(F)c(F)c5F)c5ccc2[nH]5)C=C4)C=C3)cc1
REMARK SMILES IDX 22 1 21 2 1 3 2 4 3 6 4 7 5 8 6 9 7 10 20 11 8 12 15 13
REMARK SMILES IDX 14 14 9 15 10 16 13 17 11 18 12 19 16 20 17 21 18 22 19 23
REMARK SMILES IDX 23 24 24 25 25 26 26 27 27 28 28 30 29 31 30 32 91 33 31 34
REMARK SMILES IDX 90 35 32 36 33 37 34 38 84 39 35 40 89 41 83 42 85 43 36 44
REMARK SMILES IDX 88 45 82 46 81 47 37 49 69 50 49 51 68 52 50 53 53 54 67 55
REMARK SMILES IDX 86 56 51 57 52 58 66 60 87 61 54 62 38 63 39 64 47 65 40 66
REMARK SMILES IDX 41 67 45 68 48 69 42 70 43 71 46 72 44 73 70 74 71 75 79 76
REMARK SMILES IDX 72 77 73 78 77 79 80 80 74 81 75 82 78 83 76 84 55 85 56 86
REMARK SMILES IDX 64 87 57 88 58 89 62 90 65 91 59 92 60 93 63 94 61 95
REMARK H PARENT 21 5 26 29 85 48 53 59
REMARK Flexibility Score: inf
ROOT
ATOM      1  C   UNL A   1      33.400  20.951  24.556  1.00  0.00     0.116 C 
ENDROOT
BRANCH   1   2
ATOM      2  N   UNL A   1      32.986  22.322  24.711  1.00  0.00    -0.356 N 
ATOM      3  O   UNL A   1      33.215  22.854  22.475  1.00  0.00    -0.275 OA
ATOM      4  C   UNL A   1      32.863  23.152  23.612  1.00  0.00     0.220 C 
ATOM      5  H   UNL A   1      32.789  22.673  25.610  1.00  0.00     0.163 HD
BRANCH   4   6
ATOM      6  C   UNL A   1      32.142  24.443  23.910  1.00  0.00     0.111 C 
BRANCH   6   7
ATOM      7  C   UNL A   1      31.277  24.882  22.729  1.00  0.00     0.088 C 
BRANCH   7   8
ATOM      8  S   UNL A   1      31.986  26.250  21.738  1.00  0.00    -0.086 SA
BRANCH   8   9
ATOM      9  C   UNL A   1      31.296  27.656  22.598  1.00  0.00     0.188 A 
ATOM     10  N   UNL A   1      32.000  28.134  23.625  1.00  0.00    -0.222 NA
ATOM     11  N   UNL A   1      30.065  28.086  22.247  1.00  0.00    -0.218 NA
ATOM     12  C   UNL A   1      31.415  29.138  24.299  1.00  0.00     0.085 A 
ATOM     13  C   UNL A   1      29.525  29.131  22.941  1.00  0.00     0.149 A 
ATOM     14  C   UNL A   1      30.189  29.684  24.000  1.00  0.00     0.063 A 
BRANCH  12  15
ATOM     15  C   UNL A   1      32.079  29.619  25.488  1.00  0.00     0.053 A 
ATOM     16  C   UNL A   1      31.766  30.744  26.223  1.00  0.00     0.022 A 
ATOM     17  S   UNL A   1      33.560  28.919  25.969  1.00  0.00    -0.142 S 
ATOM     18  C   UNL A   1      32.823  31.105  27.102  1.00  0.00     0.012 A 
ATOM     19  C   UNL A   1      33.868  30.209  27.048  1.00  0.00     0.065 A 
ENDBRANCH  12  15
BRANCH  13  20
ATOM     20  C   UNL A   1      28.170  29.739  22.578  1.00  0.00     0.433 C 
ATOM     21  F   UNL A   1      28.034  31.024  23.005  1.00  0.00    -0.165 F 
ATOM     22  F   UNL A   1      27.939  29.775  21.238  1.00  0.00    -0.165 F 
ATOM     23  F   UNL A   1      27.114  29.060  23.112  1.00  0.00    -0.165 F 
ENDBRANCH  13  20
ENDBRANCH   8   9
ENDBRANCH   7   8
ENDBRANCH   6   7
ENDBRANCH   4   6
ENDBRANCH   1   2
BRANCH   1  24
ATOM     24  C   UNL A   1      34.840  20.609  24.969  1.00  0.00     0.023 C 
BRANCH  24  25
ATOM     25  C   UNL A   1      35.719  21.514  25.856  1.00  0.00     0.023 C 
BRANCH  25  26
ATOM     26  C   UNL A   1      37.114  22.045  25.472  1.00  0.00     0.116 C 
BRANCH  26  27
ATOM     27  N   UNL A   1      38.203  21.095  25.492  1.00  0.00    -0.352 N 
ATOM     28  C   UNL A   1      39.435  21.135  26.098  1.00  0.00     0.251 C 
ATOM     29  H   UNL A   1      38.030  20.271  24.982  1.00  0.00     0.163 HD
ATOM     30  O   UNL A   1      40.172  20.152  26.096  1.00  0.00    -0.269 OA
BRANCH  28  31
ATOM     31  C   UNL A   1      39.886  22.378  26.743  1.00  0.00     0.039 A 
ATOM     32  C   UNL A   1      40.782  22.316  27.817  1.00  0.00     0.014 A 
ATOM     33  C   UNL A   1      39.441  23.604  26.253  1.00  0.00     0.014 A 
ATOM     34  C   UNL A   1      41.320  23.497  28.333  1.00  0.00     0.010 A 
ATOM     35  C   UNL A   1      40.012  24.774  26.735  1.00  0.00     0.010 A 
ATOM     36  C   UNL A   1      40.980  24.728  27.752  1.00  0.00    -0.014 A 
BRANCH  36  37
ATOM     37  C   UNL A   1      41.674  25.991  28.104  1.00  0.00     0.031 A 
ATOM     38  C   UNL A   1      40.917  27.096  28.777  1.00  0.00     0.074 A 
ATOM     39  C   UNL A   1      42.923  26.187  27.641  1.00  0.00     0.049 A 
ATOM     40  N   UNL A   1      41.265  28.343  28.970  1.00  0.00    -0.248 NA
ATOM     41  C   UNL A   1      39.566  26.765  29.254  1.00  0.00     0.031 C 
ATOM     42  C   UNL A   1      43.713  25.198  26.902  1.00  0.00     0.029 A 
ATOM     43  N   UNL A   1      43.732  27.293  27.681  1.00  0.00    -0.354 N 
ATOM     44  C   UNL A   1      40.167  28.950  29.563  1.00  0.00     0.074 A 
ATOM     45  C   UNL A   1      39.126  27.949  29.657  1.00  0.00     0.031 C 
ATOM     46  C   UNL A   1      44.890  25.742  26.558  1.00  0.00     0.029 A 
ATOM     47  C   UNL A   1      44.924  27.125  27.018  1.00  0.00     0.049 A 
ATOM     48  H   UNL A   1      43.483  28.128  28.138  1.00  0.00     0.167 HD
ATOM     49  C   UNL A   1      40.050  30.228  30.000  1.00  0.00     0.037 A 
ATOM     50  C   UNL A   1      45.924  27.997  26.796  1.00  0.00     0.037 A 
ATOM     51  C   UNL A   1      41.107  31.202  29.911  1.00  0.00     0.049 A 
ATOM     52  C   UNL A   1      45.791  29.394  27.336  1.00  0.00     0.074 A 
ATOM     53  C   UNL A   1      41.129  32.505  30.372  1.00  0.00     0.029 A 
ATOM     54  N   UNL A   1      42.340  30.967  29.315  1.00  0.00    -0.354 N 
ATOM     55  N   UNL A   1      44.776  29.943  27.959  1.00  0.00    -0.248 NA
ATOM     56  C   UNL A   1      46.942  30.286  27.157  1.00  0.00     0.031 C 
ATOM     57  C   UNL A   1      42.363  33.069  30.029  1.00  0.00     0.029 A 
ATOM     58  C   UNL A   1      43.128  32.104  29.393  1.00  0.00     0.049 A 
ATOM     59  H   UNL A   1      42.613  30.119  28.897  1.00  0.00     0.167 HD
ATOM     60  C   UNL A   1      45.172  31.235  28.269  1.00  0.00     0.074 A 
ATOM     61  C   UNL A   1      46.528  31.382  27.779  1.00  0.00     0.031 C 
ATOM     62  C   UNL A   1      44.478  32.213  28.901  1.00  0.00     0.037 A 
BRANCH  49  63
ATOM     63  C   UNL A   1      38.741  30.633  30.619  1.00  0.00     0.064 A 
ATOM     64  C   UNL A   1      38.556  30.633  32.011  1.00  0.00     0.173 A 
ATOM     65  C   UNL A   1      37.664  31.043  29.818  1.00  0.00     0.173 A 
ATOM     66  F   UNL A   1      39.550  30.243  32.824  1.00  0.00    -0.203 F 
ATOM     67  C   UNL A   1      37.332  30.987  32.575  1.00  0.00     0.198 A 
ATOM     68  C   UNL A   1      36.450  31.426  30.388  1.00  0.00     0.198 A 
ATOM     69  F   UNL A   1      37.784  31.070  28.482  1.00  0.00    -0.203 F 
ATOM     70  F   UNL A   1      37.164  30.919  33.902  1.00  0.00    -0.200 F 
ATOM     71  C   UNL A   1      36.283  31.388  31.764  1.00  0.00     0.200 A 
ATOM     72  F   UNL A   1      35.441  31.827  29.603  1.00  0.00    -0.200 F 
ATOM     73  F   UNL A   1      35.106  31.730  32.307  1.00  0.00    -0.200 F 
ENDBRANCH  49  63
BRANCH  50  74
ATOM     74  C   UNL A   1      47.146  27.556  26.074  1.00  0.00     0.064 A 
ATOM     75  C   UNL A   1      48.230  27.006  26.773  1.00  0.00     0.173 A 
ATOM     76  C   UNL A   1      47.251  27.646  24.678  1.00  0.00     0.173 A 
ATOM     77  F   UNL A   1      48.183  26.912  28.110  1.00  0.00    -0.203 F 
ATOM     78  C   UNL A   1      49.377  26.578  26.107  1.00  0.00     0.198 A 
ATOM     79  C   UNL A   1      48.387  27.192  24.011  1.00  0.00     0.198 A 
ATOM     80  F   UNL A   1      46.238  28.152  23.959  1.00  0.00    -0.203 F 
ATOM     81  F   UNL A   1      50.410  26.091  26.806  1.00  0.00    -0.200 F 
ATOM     82  C   UNL A   1      49.452  26.665  24.726  1.00  0.00     0.200 A 
ATOM     83  F   UNL A   1      48.450  27.261  22.673  1.00  0.00    -0.200 F 
ATOM     84  F   UNL A   1      50.552  26.244  24.086  1.00  0.00    -0.200 F 
ENDBRANCH  50  74
BRANCH  62  85
ATOM     85  C   UNL A   1      45.191  33.514  29.123  1.00  0.00     0.064 A 
ATOM     86  C   UNL A   1      45.967  33.739  30.268  1.00  0.00     0.173 A 
ATOM     87  C   UNL A   1      45.126  34.529  28.157  1.00  0.00     0.173 A 
ATOM     88  F   UNL A   1      46.045  32.804  31.227  1.00  0.00    -0.203 F 
ATOM     89  C   UNL A   1      46.635  34.947  30.450  1.00  0.00     0.198 A 
ATOM     90  C   UNL A   1      45.818  35.723  28.329  1.00  0.00     0.198 A 
ATOM     91  F   UNL A   1      44.399  34.358  27.043  1.00  0.00    -0.203 F 
ATOM     92  F   UNL A   1      47.335  35.161  31.572  1.00  0.00    -0.200 F 
ATOM     93  C   UNL A   1      46.566  35.934  29.477  1.00  0.00     0.200 A 
ATOM     94  F   UNL A   1      45.760  36.672  27.383  1.00  0.00    -0.200 F 
ATOM     95  F   UNL A   1      47.216  37.093  29.651  1.00  0.00    -0.200 F 
ENDBRANCH  62  85
ENDBRANCH  36  37
ENDBRANCH  28  31
ENDBRANCH  26  27
ENDBRANCH  25  26
ENDBRANCH  24  25
ENDBRANCH   1  24
TORSDOF 16
ENDMDL
MODEL 2
REMARK VINA RESULT:     -12.1      5.772      9.687
REMARK SMILES O=C(CCSc1nc(-c2cccs2)cc(C(F)(F)F)n1)NCCCCNC(=O)c1ccc(-c2c3nc(c(-c4c(F)c(F)c(F)c(F)c4F)c4ccc([nH]4)c(-c4c(F)c(F)c(F)c(F)c4F)c4nc(c(-c5c(F)c(F)c(F)c(F)c5F)c5ccc2[nH]5)C=C4)C=C3)cc1
REMARK SMILES IDX 22 1 21 2 1 3 2 4 3 6 4 7 5 8 6 9 7 10 20 11 8 12 15 13
REMARK SMILES IDX 14 14 9 15 10 16 13 17 11 18 12 19 16 20 17 21 18 22 19 23
REMARK SMILES IDX 23 24 24 25 25 26 26 27 27 28 28 30 29 31 30 32 91 33 31 34
REMARK SMILES IDX 90 35 32 36 33 37 34 38 84 39 35 40 89 41 83 42 85 43 36 44
REMARK SMILES IDX 88 45 82 46 81 47 37 49 69 50 49 51 68 52 50 53 53 54 67 55
REMARK SMILES IDX 86 56 51 57 52 58 66 60 87 61 54 62 38 63 39 64 47 65 40 66
REMARK SMILES IDX 41 67 45 68 48 69 42 70 43 71 46 72 44 73 70 74 71 75 79 76
REMARK SMILES IDX 72 77 73 78 77 79 80 80 74 81 75 82 78 83 76 84 55 85 56 86
REMARK SMILES IDX 64 87 57 88 58 89 62 90 65 91 59 92 60 93 63 94 61 95
REMARK H PARENT 21 5 26 29 85 48 53 59
REMARK Flexibility Score: inf
ROOT
ATOM      1  C   UNL A   1      35.759  32.311  28.393  1.00  0.00     0.116 C 
ENDROOT
BRANCH   1   2
ATOM      2  N   UNL A   1      35.154  31.309  27.554  1.00  0.00    -0.356 N 
ATOM      3  O   UNL A   1      36.589  29.617  28.197  1.00  0.00    -0.275 OA
ATOM      4  C   UNL A   1      35.596  29.999  27.587  1.00  0.00     0.220 C 
ATOM      5  H   UNL A   1      34.418  31.559  26.949  1.00  0.00     0.163 HD
BRANCH   4   6
ATOM      6  C   UNL A   1      34.674  29.035  26.882  1.00  0.00     0.111 C 
BRANCH   6   7
ATOM      7  C   UNL A   1      33.391  29.729  26.423  1.00  0.00     0.088 C 
BRANCH   7   8
ATOM      8  S   UNL A   1      31.873  28.724  26.625  1.00  0.00    -0.086 SA
BRANCH   8   9
ATOM      9  C   UNL A   1      31.386  28.536  24.916  1.00  0.00     0.188 A 
ATOM     10  N   UNL A   1      30.611  29.493  24.405  1.00  0.00    -0.222 NA
ATOM     11  N   UNL A   1      31.725  27.399  24.269  1.00  0.00    -0.218 NA
ATOM     12  C   UNL A   1      30.197  29.281  23.146  1.00  0.00     0.085 A 
ATOM     13  C   UNL A   1      31.308  27.243  22.979  1.00  0.00     0.149 A 
ATOM     14  C   UNL A   1      30.519  28.185  22.381  1.00  0.00     0.063 A 
BRANCH  12  15
ATOM     15  C   UNL A   1      29.263  30.228  22.582  1.00  0.00     0.053 A 
ATOM     16  C   UNL A   1      28.832  30.297  21.273  1.00  0.00     0.022 A 
ATOM     17  S   UNL A   1      28.774  31.580  23.501  1.00  0.00    -0.142 S 
ATOM     18  C   UNL A   1      28.205  31.543  20.995  1.00  0.00     0.012 A 
ATOM     19  C   UNL A   1      28.126  32.342  22.114  1.00  0.00     0.065 A 
ENDBRANCH  12  15
BRANCH  13  20
ATOM     20  C   UNL A   1      31.697  26.028  22.137  1.00  0.00     0.433 C 
ATOM     21  F   UNL A   1      31.424  26.191  20.813  1.00  0.00    -0.165 F 
ATOM     22  F   UNL A   1      33.023  25.731  22.202  1.00  0.00    -0.165 F 
ATOM     23  F   UNL A   1      31.050  24.885  22.508  1.00  0.00    -0.165 F 
ENDBRANCH  13  20
ENDBRANCH   8   9
ENDBRANCH   7   8
ENDBRANCH   6   7
ENDBRANCH   4   6
ENDBRANCH   1   2
BRANCH   1  24
ATOM     24  C   UNL A   1      35.528  33.778  28.000  1.00  0.00     0.023 C 
BRANCH  24  25
ATOM     25  C   UNL A   1      34.599  34.739  28.768  1.00  0.00     0.023 C 
BRANCH  25  26
ATOM     26  C   UNL A   1      33.246  34.350  29.395  1.00  0.00     0.116 C 
BRANCH  26  27
ATOM     27  N   UNL A   1      32.617  35.329  30.252  1.00  0.00    -0.352 N 
ATOM     28  C   UNL A   1      32.920  35.758  31.521  1.00  0.00     0.251 C 
ATOM     29  H   UNL A   1      31.830  35.768  29.854  1.00  0.00     0.163 HD
ATOM     30  O   UNL A   1      32.326  36.707  32.026  1.00  0.00    -0.269 OA
BRANCH  28  31
ATOM     31  C   UNL A   1      33.962  35.060  32.292  1.00  0.00     0.039 A 
ATOM     32  C   UNL A   1      33.656  33.853  32.934  1.00  0.00     0.014 A 
ATOM     33  C   UNL A   1      35.248  35.592  32.344  1.00  0.00     0.014 A 
ATOM     34  C   UNL A   1      34.678  33.119  33.541  1.00  0.00     0.010 A 
ATOM     35  C   UNL A   1      36.270  34.840  32.906  1.00  0.00     0.010 A 
ATOM     36  C   UNL A   1      36.000  33.585  33.477  1.00  0.00    -0.014 A 
BRANCH  36  37
ATOM     37  C   UNL A   1      37.154  32.758  33.906  1.00  0.00     0.031 A 
ATOM     38  C   UNL A   1      37.869  33.080  35.185  1.00  0.00     0.074 A 
ATOM     39  C   UNL A   1      37.651  31.851  33.044  1.00  0.00     0.049 A 
ATOM     40  N   UNL A   1      39.015  32.633  35.629  1.00  0.00    -0.248 NA
ATOM     41  C   UNL A   1      37.228  34.075  36.057  1.00  0.00     0.031 C 
ATOM     42  C   UNL A   1      37.072  31.526  31.737  1.00  0.00     0.029 A 
ATOM     43  N   UNL A   1      38.777  31.071  33.109  1.00  0.00    -0.354 N 
ATOM     44  C   UNL A   1      39.247  33.314  36.817  1.00  0.00     0.074 A 
ATOM     45  C   UNL A   1      38.145  34.235  37.001  1.00  0.00     0.031 C 
ATOM     46  C   UNL A   1      37.845  30.615  31.126  1.00  0.00     0.029 A 
ATOM     47  C   UNL A   1      38.991  30.321  31.978  1.00  0.00     0.049 A 
ATOM     48  H   UNL A   1      39.374  31.051  33.891  1.00  0.00     0.167 HD
ATOM     49  C   UNL A   1      40.282  33.169  37.679  1.00  0.00     0.037 A 
ATOM     50  C   UNL A   1      40.008  29.499  31.662  1.00  0.00     0.037 A 
ATOM     51  C   UNL A   1      41.358  32.232  37.483  1.00  0.00     0.049 A 
ATOM     52  C   UNL A   1      41.119  29.316  32.658  1.00  0.00     0.074 A 
ATOM     53  C   UNL A   1      42.428  31.951  38.313  1.00  0.00     0.029 A 
ATOM     54  N   UNL A   1      41.494  31.418  36.365  1.00  0.00    -0.354 N 
ATOM     55  N   UNL A   1      41.296  29.913  33.813  1.00  0.00    -0.248 NA
ATOM     56  C   UNL A   1      42.161  28.341  32.317  1.00  0.00     0.031 C 
ATOM     57  C   UNL A   1      43.227  30.989  37.685  1.00  0.00     0.029 A 
ATOM     58  C   UNL A   1      42.633  30.637  36.483  1.00  0.00     0.049 A 
ATOM     59  H   UNL A   1      40.874  31.399  35.601  1.00  0.00     0.167 HD
ATOM     60  C   UNL A   1      42.453  29.368  34.349  1.00  0.00     0.074 A 
ATOM     61  C   UNL A   1      42.927  28.381  33.399  1.00  0.00     0.031 C 
ATOM     62  C   UNL A   1      43.071  29.658  35.521  1.00  0.00     0.037 A 
BRANCH  49  63
ATOM     63  C   UNL A   1      40.289  34.033  38.909  1.00  0.00     0.064 A 
ATOM     64  C   UNL A   1      40.926  35.285  38.923  1.00  0.00     0.173 A 
ATOM     65  C   UNL A   1      39.641  33.619  40.083  1.00  0.00     0.173 A 
ATOM     66  F   UNL A   1      41.568  35.728  37.831  1.00  0.00    -0.203 F 
ATOM     67  C   UNL A   1      40.948  36.069  40.074  1.00  0.00     0.198 A 
ATOM     68  C   UNL A   1      39.638  34.420  41.224  1.00  0.00     0.198 A 
ATOM     69  F   UNL A   1      39.010  32.436  40.127  1.00  0.00    -0.203 F 
ATOM     70  F   UNL A   1      41.614  37.231  40.078  1.00  0.00    -0.200 F 
ATOM     71  C   UNL A   1      40.300  35.638  41.221  1.00  0.00     0.200 A 
ATOM     72  F   UNL A   1      39.000  34.009  42.328  1.00  0.00    -0.200 F 
ATOM     73  F   UNL A   1      40.321  36.394  42.328  1.00  0.00    -0.200 F 
ENDBRANCH  49  63
BRANCH  50  74
ATOM     74  C   UNL A   1      39.992  28.761  30.372  1.00  0.00     0.064 A 
ATOM     75  C   UNL A   1      40.598  29.304  29.231  1.00  0.00     0.173 A 
ATOM     76  C   UNL A   1      39.402  27.493  30.254  1.00  0.00     0.173 A 
ATOM     77  F   UNL A   1      41.163  30.519  29.289  1.00  0.00    -0.203 F 
ATOM     78  C   UNL A   1      40.601  28.618  28.018  1.00  0.00     0.198 A 
ATOM     79  C   UNL A   1      39.430  26.796  29.048  1.00  0.00     0.198 A 
ATOM     80  F   UNL A   1      38.821  26.922  31.318  1.00  0.00    -0.203 F 
ATOM     81  F   UNL A   1      41.156  29.179  26.935  1.00  0.00    -0.200 F 
ATOM     82  C   UNL A   1      40.023  27.361  27.929  1.00  0.00     0.200 A 
ATOM     83  F   UNL A   1      38.886  25.573  28.970  1.00  0.00    -0.200 F 
ATOM     84  F   UNL A   1      40.035  26.697  26.765  1.00  0.00    -0.200 F 
ENDBRANCH  50  74
BRANCH  62  85
ATOM     85  C   UNL A   1      44.306  28.872  35.848  1.00  0.00     0.064 A 
ATOM     86  C   UNL A   1      44.241  27.664  36.557  1.00  0.00     0.173 A 
ATOM     87  C   UNL A   1      45.562  29.317  35.412  1.00  0.00     0.173 A 
ATOM     88  F   UNL A   1      43.062  27.209  37.009  1.00  0.00    -0.203 F 
ATOM     89  C   UNL A   1      45.395  26.940  36.838  1.00  0.00     0.198 A 
ATOM     90  C   UNL A   1      46.711  28.576  35.669  1.00  0.00     0.198 A 
ATOM     91  F   UNL A   1      45.674  30.465  34.727  1.00  0.00    -0.203 F 
ATOM     92  F   UNL A   1      45.318  25.811  37.555  1.00  0.00    -0.200 F 
ATOM     93  C   UNL A   1      46.627  27.392  36.387  1.00  0.00     0.200 A 
ATOM     94  F   UNL A   1      47.900  29.007  35.224  1.00  0.00    -0.200 F 
ATOM     95  F   UNL A   1      47.737  26.689  36.653  1.00  0.00    -0.200 F 
ENDBRANCH  62  85
ENDBRANCH  36  37
ENDBRANCH  28  31
ENDBRANCH  26  27
ENDBRANCH  25  26
ENDBRANCH  24  25
ENDBRANCH   1  24
TORSDOF 16
ENDMDL
MODEL 3
REMARK VINA RESULT:     -12.1      4.501      9.840
REMARK SMILES O=C(CCSc1nc(-c2cccs2)cc(C(F)(F)F)n1)NCCCCNC(=O)c1ccc(-c2c3nc(c(-c4c(F)c(F)c(F)c(F)c4F)c4ccc([nH]4)c(-c4c(F)c(F)c(F)c(F)c4F)c4nc(c(-c5c(F)c(F)c(F)c(F)c5F)c5ccc2[nH]5)C=C4)C=C3)cc1
REMARK SMILES IDX 22 1 21 2 1 3 2 4 3 6 4 7 5 8 6 9 7 10 20 11 8 12 15 13
REMARK SMILES IDX 14 14 9 15 10 16 13 17 11 18 12 19 16 20 17 21 18 22 19 23
REMARK SMILES IDX 23 24 24 25 25 26 26 27 27 28 28 30 29 31 30 32 91 33 31 34
REMARK SMILES IDX 90 35 32 36 33 37 34 38 84 39 35 40 89 41 83 42 85 43 36 44
REMARK SMILES IDX 88 45 82 46 81 47 37 49 69 50 49 51 68 52 50 53 53 54 67 55
REMARK SMILES IDX 86 56 51 57 52 58 66 60 87 61 54 62 38 63 39 64 47 65 40 66
REMARK SMILES IDX 41 67 45 68 48 69 42 70 43 71 46 72 44 73 70 74 71 75 79 76
REMARK SMILES IDX 72 77 73 78 77 79 80 80 74 81 75 82 78 83 76 84 55 85 56 86
REMARK SMILES IDX 64 87 57 88 58 89 62 90 65 91 59 92 60 93 63 94 61 95
REMARK H PARENT 21 5 26 29 85 48 53 59
REMARK Flexibility Score: inf
ROOT
ATOM      1  C   UNL A   1      32.812  27.032  26.012  1.00  0.00     0.116 C 
ENDROOT
BRANCH   1   2
ATOM      2  N   UNL A   1      32.600  27.179  24.595  1.00  0.00    -0.356 N 
ATOM      3  O   UNL A   1      34.398  28.592  24.269  1.00  0.00    -0.275 OA
ATOM      4  C   UNL A   1      33.481  27.913  23.821  1.00  0.00     0.220 C 
ATOM      5  H   UNL A   1      31.820  26.752  24.172  1.00  0.00     0.163 HD
BRANCH   4   6
ATOM      6  C   UNL A   1      33.284  27.718  22.338  1.00  0.00     0.111 C 
BRANCH   6   7
ATOM      7  C   UNL A   1      32.064  26.842  22.050  1.00  0.00     0.088 C 
BRANCH   7   8
ATOM      8  S   UNL A   1      32.467  25.173  21.411  1.00  0.00    -0.086 SA
BRANCH   8   9
ATOM      9  C   UNL A   1      32.745  24.303  22.947  1.00  0.00     0.188 A 
ATOM     10  N   UNL A   1      33.882  23.614  23.047  1.00  0.00    -0.222 NA
ATOM     11  N   UNL A   1      31.759  24.291  23.870  1.00  0.00    -0.218 NA
ATOM     12  C   UNL A   1      34.023  22.907  24.180  1.00  0.00     0.085 A 
ATOM     13  C   UNL A   1      31.962  23.584  25.020  1.00  0.00     0.149 A 
ATOM     14  C   UNL A   1      33.106  22.861  25.204  1.00  0.00     0.063 A 
BRANCH  12  15
ATOM     15  C   UNL A   1      35.183  22.053  24.294  1.00  0.00     0.053 A 
ATOM     16  C   UNL A   1      35.237  20.787  24.838  1.00  0.00     0.022 A 
ATOM     17  S   UNL A   1      36.733  22.686  23.962  1.00  0.00    -0.142 S 
ATOM     18  C   UNL A   1      36.576  20.390  25.106  1.00  0.00     0.012 A 
ATOM     19  C   UNL A   1      37.487  21.339  24.697  1.00  0.00     0.065 A 
ENDBRANCH  12  15
BRANCH  13  20
ATOM     20  C   UNL A   1      30.939  23.564  26.157  1.00  0.00     0.433 C 
ATOM     21  F   UNL A   1      31.509  23.703  27.385  1.00  0.00    -0.165 F 
ATOM     22  F   UNL A   1      30.017  24.560  26.068  1.00  0.00    -0.165 F 
ATOM     23  F   UNL A   1      30.220  22.405  26.214  1.00  0.00    -0.165 F 
ENDBRANCH  13  20
ENDBRANCH   8   9
ENDBRANCH   7   8
ENDBRANCH   6   7
ENDBRANCH   4   6
ENDBRANCH   1   2
BRANCH   1  24
ATOM     24  C   UNL A   1      31.787  27.703  26.940  1.00  0.00     0.023 C 
BRANCH  24  25
ATOM     25  C   UNL A   1      31.784  29.208  27.274  1.00  0.00     0.023 C 
BRANCH  25  26
ATOM     26  C   UNL A   1      32.742  30.251  26.667  1.00  0.00     0.116 C 
BRANCH  26  27
ATOM     27  N   UNL A   1      32.595  31.616  27.121  1.00  0.00    -0.352 N 
ATOM     28  C   UNL A   1      33.489  32.485  27.698  1.00  0.00     0.251 C 
ATOM     29  H   UNL A   1      31.694  31.990  26.992  1.00  0.00     0.163 HD
ATOM     30  O   UNL A   1      33.191  33.660  27.893  1.00  0.00    -0.269 OA
BRANCH  28  31
ATOM     31  C   UNL A   1      34.816  31.995  28.105  1.00  0.00     0.039 A 
ATOM     32  C   UNL A   1      35.924  32.848  28.020  1.00  0.00     0.014 A 
ATOM     33  C   UNL A   1      34.946  30.701  28.601  1.00  0.00     0.014 A 
ATOM     34  C   UNL A   1      37.152  32.433  28.541  1.00  0.00     0.010 A 
ATOM     35  C   UNL A   1      36.154  30.307  29.160  1.00  0.00     0.010 A 
ATOM     36  C   UNL A   1      37.255  31.181  29.166  1.00  0.00    -0.014 A 
BRANCH  36  37
ATOM     37  C   UNL A   1      38.460  30.769  29.926  1.00  0.00     0.031 A 
ATOM     38  C   UNL A   1      39.389  29.742  29.353  1.00  0.00     0.074 A 
ATOM     39  C   UNL A   1      38.592  31.191  31.198  1.00  0.00     0.049 A 
ATOM     40  N   UNL A   1      40.363  29.088  29.933  1.00  0.00    -0.248 NA
ATOM     41  C   UNL A   1      39.160  29.366  27.949  1.00  0.00     0.031 C 
ATOM     42  C   UNL A   1      37.690  32.128  31.873  1.00  0.00     0.029 A 
ATOM     43  N   UNL A   1      39.504  30.855  32.166  1.00  0.00    -0.354 N 
ATOM     44  C   UNL A   1      40.842  28.204  28.975  1.00  0.00     0.074 A 
ATOM     45  C   UNL A   1      40.024  28.373  27.793  1.00  0.00     0.031 C 
ATOM     46  C   UNL A   1      38.092  32.291  33.143  1.00  0.00     0.029 A 
ATOM     47  C   UNL A   1      39.255  31.445  33.382  1.00  0.00     0.049 A 
ATOM     48  H   UNL A   1      40.262  30.250  32.005  1.00  0.00     0.167 HD
ATOM     49  C   UNL A   1      41.881  27.340  29.077  1.00  0.00     0.037 A 
ATOM     50  C   UNL A   1      39.889  31.305  34.560  1.00  0.00     0.037 A 
ATOM     51  C   UNL A   1      42.692  27.202  30.259  1.00  0.00     0.049 A 
ATOM     52  C   UNL A   1      41.071  30.379  34.633  1.00  0.00     0.074 A 
ATOM     53  C   UNL A   1      43.806  26.408  30.462  1.00  0.00     0.029 A 
ATOM     54  N   UNL A   1      42.467  27.887  31.447  1.00  0.00    -0.354 N 
ATOM     55  N   UNL A   1      41.563  29.596  33.702  1.00  0.00    -0.248 NA
ATOM     56  C   UNL A   1      41.793  30.325  35.909  1.00  0.00     0.031 C 
ATOM     57  C   UNL A   1      44.237  26.590  31.780  1.00  0.00     0.029 A 
ATOM     58  C   UNL A   1      43.420  27.531  32.388  1.00  0.00     0.049 A 
ATOM     59  H   UNL A   1      41.739  28.531  31.599  1.00  0.00     0.167 HD
ATOM     60  C   UNL A   1      42.666  28.976  34.269  1.00  0.00     0.074 A 
ATOM     61  C   UNL A   1      42.780  29.486  35.620  1.00  0.00     0.031 C 
ATOM     62  C   UNL A   1      43.509  28.065  33.723  1.00  0.00     0.037 A 
BRANCH  49  63
ATOM     63  C   UNL A   1      42.200  26.492  27.877  1.00  0.00     0.064 A 
ATOM     64  C   UNL A   1      43.180  26.876  26.946  1.00  0.00     0.173 A 
ATOM     65  C   UNL A   1      41.535  25.276  27.659  1.00  0.00     0.173 A 
ATOM     66  F   UNL A   1      43.841  28.033  27.101  1.00  0.00    -0.203 F 
ATOM     67  C   UNL A   1      43.451  26.096  25.825  1.00  0.00     0.198 A 
ATOM     68  C   UNL A   1      41.832  24.482  26.552  1.00  0.00     0.198 A 
ATOM     69  F   UNL A   1      40.594  24.854  28.518  1.00  0.00    -0.203 F 
ATOM     70  F   UNL A   1      44.347  26.515  24.921  1.00  0.00    -0.200 F 
ATOM     71  C   UNL A   1      42.781  24.898  25.631  1.00  0.00     0.200 A 
ATOM     72  F   UNL A   1      41.193  23.318  26.373  1.00  0.00    -0.200 F 
ATOM     73  F   UNL A   1      43.044  24.148  24.552  1.00  0.00    -0.200 F 
ENDBRANCH  49  63
BRANCH  50  74
ATOM     74  C   UNL A   1      39.446  32.093  35.740  1.00  0.00     0.064 A 
ATOM     75  C   UNL A   1      39.976  33.367  35.987  1.00  0.00     0.173 A 
ATOM     76  C   UNL A   1      38.470  31.611  36.625  1.00  0.00     0.173 A 
ATOM     77  F   UNL A   1      40.921  33.865  35.177  1.00  0.00    -0.203 F 
ATOM     78  C   UNL A   1      39.561  34.122  37.082  1.00  0.00     0.198 A 
ATOM     79  C   UNL A   1      38.036  32.378  37.704  1.00  0.00     0.198 A 
ATOM     80  F   UNL A   1      37.920  30.404  36.427  1.00  0.00    -0.203 F 
ATOM     81  F   UNL A   1      40.113  35.320  37.314  1.00  0.00    -0.200 F 
ATOM     82  C   UNL A   1      38.587  33.630  37.937  1.00  0.00     0.200 A 
ATOM     83  F   UNL A   1      37.080  31.907  38.518  1.00  0.00    -0.200 F 
ATOM     84  F   UNL A   1      38.180  34.360  38.984  1.00  0.00    -0.200 F 
ENDBRANCH  50  74
BRANCH  62  85
ATOM     85  C   UNL A   1      44.643  27.592  34.582  1.00  0.00     0.064 A 
ATOM     86  C   UNL A   1      44.506  26.489  35.437  1.00  0.00     0.173 A 
ATOM     87  C   UNL A   1      45.891  28.228  34.518  1.00  0.00     0.173 A 
ATOM     88  F   UNL A   1      43.326  25.860  35.544  1.00  0.00    -0.203 F 
ATOM     89  C   UNL A   1      45.575  26.054  36.215  1.00  0.00     0.198 A 
ATOM     90  C   UNL A   1      46.965  27.773  35.276  1.00  0.00     0.198 A 
ATOM     91  F   UNL A   1      46.071  29.285  33.712  1.00  0.00    -0.203 F 
ATOM     92  F   UNL A   1      45.411  25.026  37.059  1.00  0.00    -0.200 F 
ATOM     93  C   UNL A   1      46.804  26.691  36.128  1.00  0.00     0.200 A 
ATOM     94  F   UNL A   1      48.156  28.381  35.183  1.00  0.00    -0.200 F 
ATOM     95  F   UNL A   1      47.834  26.265  36.873  1.00  0.00    -0.200 F 
ENDBRANCH  62  85
ENDBRANCH  36  37
ENDBRANCH  28  31
ENDBRANCH  26  27
ENDBRANCH  25  26
ENDBRANCH  24  25
ENDBRANCH   1  24
TORSDOF 16
ENDMDL
