MODEL 1
REMARK VINA RESULT:     -12.5      0.000      0.000
REMARK SMILES O=C(NCCCCNC(=O)[C@H]1CC[C@H]2CCCC[C@@H]2N1C(=O)c1ccn[nH]1)c1ccc(-c2c3nc(c(-c4c(F)c(F)c(F)c(F)c4F)c4ccc([nH]4)c(-c4c(F)c(F)c(F)c(F)c4F)c4nc(c(-c5c(F)c(F)c(F)c(F)c5F)c5ccc2[nH]5)C=C4)C=C3)cc1
REMARK SMILES IDX 5 1 4 2 3 3 1 4 2 5 28 7 29 8 90 9 30 10 89 11 31 12 32 13
REMARK SMILES IDX 33 14 83 15 34 16 88 17 82 18 84 19 35 20 87 21 81 22 80 23
REMARK SMILES IDX 36 25 68 26 48 27 67 28 49 29 52 30 66 31 85 32 50 33 51 34
REMARK SMILES IDX 65 36 86 37 53 38 37 39 38 40 46 41 39 42 40 43 44 44 47 45
REMARK SMILES IDX 41 46 42 47 45 48 43 49 69 50 70 51 78 52 71 53 72 54 76 55
REMARK SMILES IDX 79 56 73 57 74 58 77 59 75 60 54 61 55 62 63 63 56 64 57 65
REMARK SMILES IDX 61 66 64 67 58 68 59 69 62 70 60 71 6 72 7 73 8 74 9 75
REMARK SMILES IDX 10 77 11 78 12 79 20 80 13 81 19 82 14 83 18 84 15 85 17 86
REMARK SMILES IDX 16 87 21 88 22 89 23 90 24 91 27 92 25 93 26 94
REMARK H PARENT 3 6 84 24 52 35 8 76 27 95
REMARK Flexibility Score: inf
ROOT
ATOM      1  C   UNL A   1      35.897  23.646  24.121  1.00  0.00     0.023 C 
ENDROOT
BRANCH   1   2
ATOM      2  C   UNL A   1      36.579  23.719  25.486  1.00  0.00     0.116 C 
BRANCH   2   3
ATOM      3  N   UNL A   1      37.661  22.765  25.638  1.00  0.00    -0.352 N 
ATOM      4  O   UNL A   1      39.702  21.981  26.142  1.00  0.00    -0.269 OA
ATOM      5  C   UNL A   1      38.911  22.921  26.182  1.00  0.00     0.251 C 
ATOM      6  H   UNL A   1      37.468  21.862  25.298  1.00  0.00     0.163 HD
BRANCH   5   7
ATOM      7  C   UNL A   1      39.343  24.204  26.785  1.00  0.00     0.039 A 
ATOM      8  C   UNL A   1      40.023  25.186  26.056  1.00  0.00     0.014 A 
ATOM      9  C   UNL A   1      38.983  24.454  28.115  1.00  0.00     0.014 A 
ATOM     10  C   UNL A   1      40.404  26.380  26.678  1.00  0.00     0.010 A 
ATOM     11  C   UNL A   1      39.345  25.655  28.731  1.00  0.00     0.010 A 
ATOM     12  C   UNL A   1      40.076  26.618  28.021  1.00  0.00    -0.014 A 
BRANCH  12  13
ATOM     13  C   UNL A   1      40.496  27.872  28.688  1.00  0.00     0.031 A 
ATOM     14  C   UNL A   1      41.923  28.062  29.112  1.00  0.00     0.074 A 
ATOM     15  C   UNL A   1      39.593  28.840  28.927  1.00  0.00     0.049 A 
ATOM     16  N   UNL A   1      42.477  29.080  29.720  1.00  0.00    -0.248 NA
ATOM     17  C   UNL A   1      42.850  26.959  28.815  1.00  0.00     0.031 C 
ATOM     18  C   UNL A   1      38.173  28.776  28.583  1.00  0.00     0.029 A 
ATOM     19  N   UNL A   1      39.741  30.069  29.518  1.00  0.00    -0.354 N 
ATOM     20  C   UNL A   1      43.808  28.738  29.896  1.00  0.00     0.074 A 
ATOM     21  C   UNL A   1      43.985  27.417  29.327  1.00  0.00     0.031 C 
ATOM     22  C   UNL A   1      37.581  29.922  28.960  1.00  0.00     0.029 A 
ATOM     23  C   UNL A   1      38.579  30.793  29.577  1.00  0.00     0.049 A 
ATOM     24  H   UNL A   1      40.601  30.399  29.868  1.00  0.00     0.167 HD
ATOM     25  C   UNL A   1      44.796  29.457  30.478  1.00  0.00     0.037 A 
ATOM     26  C   UNL A   1      38.346  32.021  30.073  1.00  0.00     0.037 A 
ATOM     27  C   UNL A   1      44.644  30.776  31.026  1.00  0.00     0.049 A 
ATOM     28  C   UNL A   1      39.464  32.811  30.688  1.00  0.00     0.074 A 
ATOM     29  C   UNL A   1      45.602  31.588  31.609  1.00  0.00     0.029 A 
ATOM     30  N   UNL A   1      43.452  31.480  31.055  1.00  0.00    -0.354 N 
ATOM     31  N   UNL A   1      40.721  32.479  30.836  1.00  0.00    -0.248 NA
ATOM     32  C   UNL A   1      39.126  34.144  31.207  1.00  0.00     0.031 C 
ATOM     33  C   UNL A   1      44.987  32.786  31.995  1.00  0.00     0.029 A 
ATOM     34  C   UNL A   1      43.648  32.717  31.648  1.00  0.00     0.049 A 
ATOM     35  H   UNL A   1      42.591  31.151  30.706  1.00  0.00     0.167 HD
ATOM     36  C   UNL A   1      41.325  33.557  31.464  1.00  0.00     0.074 A 
ATOM     37  C   UNL A   1      40.299  34.559  31.667  1.00  0.00     0.031 C 
ATOM     38  C   UNL A   1      42.618  33.700  31.841  1.00  0.00     0.037 A 
BRANCH  25  39
ATOM     39  C   UNL A   1      46.145  28.819  30.553  1.00  0.00     0.064 A 
ATOM     40  C   UNL A   1      46.503  28.016  31.644  1.00  0.00     0.173 A 
ATOM     41  C   UNL A   1      47.073  28.988  29.516  1.00  0.00     0.173 A 
ATOM     42  F   UNL A   1      45.647  27.840  32.661  1.00  0.00    -0.203 F 
ATOM     43  C   UNL A   1      47.752  27.404  31.696  1.00  0.00     0.198 A 
ATOM     44  C   UNL A   1      48.319  28.371  29.570  1.00  0.00     0.198 A 
ATOM     45  F   UNL A   1      46.771  29.754  28.458  1.00  0.00    -0.203 F 
ATOM     46  F   UNL A   1      48.082  26.647  32.752  1.00  0.00    -0.200 F 
ATOM     47  C   UNL A   1      48.657  27.579  30.658  1.00  0.00     0.200 A 
ATOM     48  F   UNL A   1      49.197  28.546  28.572  1.00  0.00    -0.200 F 
ATOM     49  F   UNL A   1      49.860  26.991  30.713  1.00  0.00    -0.200 F 
ENDBRANCH  25  39
BRANCH  26  50
ATOM     50  C   UNL A   1      36.983  32.589  29.995  1.00  0.00     0.064 A 
ATOM     51  C   UNL A   1      36.084  32.438  31.058  1.00  0.00     0.173 A 
ATOM     52  C   UNL A   1      36.560  33.298  28.864  1.00  0.00     0.173 A 
ATOM     53  F   UNL A   1      36.448  31.752  32.151  1.00  0.00    -0.203 F 
ATOM     54  C   UNL A   1      34.803  32.982  30.992  1.00  0.00     0.198 A 
ATOM     55  C   UNL A   1      35.280  33.842  28.800  1.00  0.00     0.198 A 
ATOM     56  F   UNL A   1      37.389  33.452  27.822  1.00  0.00    -0.203 F 
ATOM     57  F   UNL A   1      33.955  32.818  32.016  1.00  0.00    -0.200 F 
ATOM     58  C   UNL A   1      34.403  33.684  29.865  1.00  0.00     0.200 A 
ATOM     59  F   UNL A   1      34.893  34.515  27.709  1.00  0.00    -0.200 F 
ATOM     60  F   UNL A   1      33.170  34.203  29.801  1.00  0.00    -0.200 F 
ENDBRANCH  26  50
BRANCH  38  61
ATOM     61  C   UNL A   1      42.993  34.983  32.508  1.00  0.00     0.064 A 
ATOM     62  C   UNL A   1      43.457  36.073  31.757  1.00  0.00     0.173 A 
ATOM     63  C   UNL A   1      42.860  35.137  33.893  1.00  0.00     0.173 A 
ATOM     64  F   UNL A   1      43.610  35.962  30.429  1.00  0.00    -0.203 F 
ATOM     65  C   UNL A   1      43.778  37.277  32.377  1.00  0.00     0.198 A 
ATOM     66  C   UNL A   1      43.180  36.345  34.509  1.00  0.00     0.198 A 
ATOM     67  F   UNL A   1      42.429  34.116  34.649  1.00  0.00    -0.203 F 
ATOM     68  F   UNL A   1      44.231  38.305  31.645  1.00  0.00    -0.200 F 
ATOM     69  C   UNL A   1      43.638  37.412  33.750  1.00  0.00     0.200 A 
ATOM     70  F   UNL A   1      43.052  36.474  35.837  1.00  0.00    -0.200 F 
ATOM     71  F   UNL A   1      43.951  38.572  34.345  1.00  0.00    -0.200 F 
ENDBRANCH  38  61
ENDBRANCH  12  13
ENDBRANCH   5   7
ENDBRANCH   2   3
ENDBRANCH   1   2
BRANCH   1  72
ATOM     72  C   UNL A   1      34.620  22.801  24.035  1.00  0.00     0.023 C 
BRANCH  72  73
ATOM     73  C   UNL A   1      33.322  23.566  23.788  1.00  0.00     0.116 C 
BRANCH  73  74
ATOM     74  N   UNL A   1      33.215  24.129  22.457  1.00  0.00    -0.354 N 
ATOM     75  C   UNL A   1      33.213  25.436  22.051  1.00  0.00     0.242 C 
ATOM     76  H   UNL A   1      33.130  23.468  21.733  1.00  0.00     0.163 HD
ATOM     77  O   UNL A   1      33.278  25.657  20.838  1.00  0.00    -0.273 OA
BRANCH  75  78
ATOM     78  C   UNL A   1      33.234  26.576  23.099  1.00  0.00     0.175 C 
ATOM     79  C   UNL A   1      33.835  27.874  22.534  1.00  0.00     0.036 C 
ATOM     80  N   UNL A   1      32.010  26.924  23.854  1.00  0.00    -0.322 N 
ATOM     81  C   UNL A   1      34.015  28.955  23.621  1.00  0.00     0.008 C 
ATOM     82  C   UNL A   1      32.225  27.832  24.997  1.00  0.00     0.089 C 
ATOM     83  C   UNL A   1      33.651  28.433  25.019  1.00  0.00     0.012 C 
ATOM     84  C   UNL A   1      31.924  27.174  26.347  1.00  0.00     0.025 C 
ATOM     85  C   UNL A   1      33.744  29.509  26.106  1.00  0.00     0.006 C 
ATOM     86  C   UNL A   1      32.049  28.196  27.480  1.00  0.00     0.002 C 
ATOM     87  C   UNL A   1      33.398  28.918  27.475  1.00  0.00     0.000 C 
BRANCH  80  88
ATOM     88  C   UNL A   1      30.755  26.678  23.274  1.00  0.00     0.272 C 
ATOM     89  O   UNL A   1      30.279  25.547  23.226  1.00  0.00    -0.267 OA
BRANCH  88  90
ATOM     90  C   UNL A   1      29.943  27.780  22.817  1.00  0.00     0.123 A 
ATOM     91  C   UNL A   1      28.673  28.233  23.126  1.00  0.00     0.055 A 
ATOM     92  N   UNL A   1      30.464  28.751  22.000  1.00  0.00    -0.273 N 
ATOM     93  C   UNL A   1      28.501  29.404  22.366  1.00  0.00     0.135 A 
ATOM     94  N   UNL A   1      29.584  29.705  21.650  1.00  0.00    -0.183 NA
ATOM     95  H   UNL A   1      31.400  28.749  21.697  1.00  0.00     0.190 HD
ENDBRANCH  88  90
ENDBRANCH  80  88
ENDBRANCH  75  78
ENDBRANCH  73  74
ENDBRANCH  72  73
ENDBRANCH   1  72
TORSDOF 13
ENDMDL
MODEL 2
REMARK VINA RESULT:     -12.4      0.669      1.736
REMARK SMILES O=C(NCCCCNC(=O)[C@H]1CC[C@H]2CCCC[C@@H]2N1C(=O)c1ccn[nH]1)c1ccc(-c2c3nc(c(-c4c(F)c(F)c(F)c(F)c4F)c4ccc([nH]4)c(-c4c(F)c(F)c(F)c(F)c4F)c4nc(c(-c5c(F)c(F)c(F)c(F)c5F)c5ccc2[nH]5)C=C4)C=C3)cc1
REMARK SMILES IDX 5 1 4 2 3 3 1 4 2 5 28 7 29 8 90 9 30 10 89 11 31 12 32 13
REMARK SMILES IDX 33 14 83 15 34 16 88 17 82 18 84 19 35 20 87 21 81 22 80 23
REMARK SMILES IDX 36 25 68 26 48 27 67 28 49 29 52 30 66 31 85 32 50 33 51 34
REMARK SMILES IDX 65 36 86 37 53 38 37 39 38 40 46 41 39 42 40 43 44 44 47 45
REMARK SMILES IDX 41 46 42 47 45 48 43 49 69 50 70 51 78 52 71 53 72 54 76 55
REMARK SMILES IDX 79 56 73 57 74 58 77 59 75 60 54 61 55 62 63 63 56 64 57 65
REMARK SMILES IDX 61 66 64 67 58 68 59 69 62 70 60 71 6 72 7 73 8 74 9 75
REMARK SMILES IDX 10 77 11 78 12 79 20 80 13 81 19 82 14 83 18 84 15 85 17 86
REMARK SMILES IDX 16 87 21 88 22 89 23 90 24 91 27 92 25 93 26 94
REMARK H PARENT 3 6 84 24 52 35 8 76 27 95
REMARK Flexibility Score: inf
ROOT
ATOM      1  C   UNL A   1      36.370  23.715  24.439  1.00  0.00     0.023 C 
ENDROOT
BRANCH   1   2
ATOM      2  C   UNL A   1      36.634  23.354  25.900  1.00  0.00     0.116 C 
BRANCH   2   3
ATOM      3  N   UNL A   1      37.743  22.435  26.073  1.00  0.00    -0.352 N 
ATOM      4  O   UNL A   1      39.826  21.733  26.521  1.00  0.00    -0.269 OA
ATOM      5  C   UNL A   1      39.019  22.660  26.524  1.00  0.00     0.251 C 
ATOM      6  H   UNL A   1      37.549  21.502  25.828  1.00  0.00     0.163 HD
BRANCH   5   7
ATOM      7  C   UNL A   1      39.458  24.001  26.980  1.00  0.00     0.039 A 
ATOM      8  C   UNL A   1      40.031  24.939  26.115  1.00  0.00     0.014 A 
ATOM      9  C   UNL A   1      39.214  24.347  28.314  1.00  0.00     0.014 A 
ATOM     10  C   UNL A   1      40.424  26.190  26.602  1.00  0.00     0.010 A 
ATOM     11  C   UNL A   1      39.588  25.604  28.797  1.00  0.00     0.010 A 
ATOM     12  C   UNL A   1      40.214  26.527  27.948  1.00  0.00    -0.014 A 
BRANCH  12  13
ATOM     13  C   UNL A   1      40.649  27.843  28.472  1.00  0.00     0.031 A 
ATOM     14  C   UNL A   1      42.101  28.109  28.737  1.00  0.00     0.074 A 
ATOM     15  C   UNL A   1      39.737  28.799  28.723  1.00  0.00     0.049 A 
ATOM     16  N   UNL A   1      42.672  29.188  29.208  1.00  0.00    -0.248 NA
ATOM     17  C   UNL A   1      43.037  27.013  28.437  1.00  0.00     0.031 C 
ATOM     18  C   UNL A   1      38.294  28.665  28.526  1.00  0.00     0.029 A 
ATOM     19  N   UNL A   1      39.895  30.075  29.200  1.00  0.00    -0.354 N 
ATOM     20  C   UNL A   1      44.026  28.902  29.278  1.00  0.00     0.074 A 
ATOM     21  C   UNL A   1      44.198  27.545  28.798  1.00  0.00     0.031 C 
ATOM     22  C   UNL A   1      37.698  29.819  28.870  1.00  0.00     0.029 A 
ATOM     23  C   UNL A   1      38.717  30.767  29.317  1.00  0.00     0.049 A 
ATOM     24  H   UNL A   1      40.771  30.458  29.436  1.00  0.00     0.167 HD
ATOM     25  C   UNL A   1      45.038  29.695  29.702  1.00  0.00     0.037 A 
ATOM     26  C   UNL A   1      38.486  32.024  29.736  1.00  0.00     0.037 A 
ATOM     27  C   UNL A   1      44.889  31.049  30.160  1.00  0.00     0.049 A 
ATOM     28  C   UNL A   1      39.627  32.893  30.176  1.00  0.00     0.074 A 
ATOM     29  C   UNL A   1      45.867  31.933  30.581  1.00  0.00     0.029 A 
ATOM     30  N   UNL A   1      43.679  31.717  30.251  1.00  0.00    -0.354 N 
ATOM     31  N   UNL A   1      40.904  32.612  30.225  1.00  0.00    -0.248 NA
ATOM     32  C   UNL A   1      39.290  34.253  30.621  1.00  0.00     0.031 C 
ATOM     33  C   UNL A   1      45.247  33.139  30.932  1.00  0.00     0.029 A 
ATOM     34  C   UNL A   1      43.885  33.002  30.724  1.00  0.00     0.049 A 
ATOM     35  H   UNL A   1      42.802  31.335  30.015  1.00  0.00     0.167 HD
ATOM     36  C   UNL A   1      41.525  33.755  30.705  1.00  0.00     0.074 A 
ATOM     37  C   UNL A   1      40.486  34.738  30.930  1.00  0.00     0.031 C 
ATOM     38  C   UNL A   1      42.841  33.966  30.941  1.00  0.00     0.037 A 
BRANCH  25  39
ATOM     39  C   UNL A   1      46.410  29.106  29.694  1.00  0.00     0.064 A 
ATOM     40  C   UNL A   1      46.919  28.446  30.821  1.00  0.00     0.173 A 
ATOM     41  C   UNL A   1      47.210  29.176  28.545  1.00  0.00     0.173 A 
ATOM     42  F   UNL A   1      46.189  28.368  31.943  1.00  0.00    -0.203 F 
ATOM     43  C   UNL A   1      48.189  27.877  30.797  1.00  0.00     0.198 A 
ATOM     44  C   UNL A   1      48.477  28.602  28.524  1.00  0.00     0.198 A 
ATOM     45  F   UNL A   1      46.762  29.805  27.448  1.00  0.00    -0.203 F 
ATOM     46  F   UNL A   1      48.664  27.258  31.888  1.00  0.00    -0.200 F 
ATOM     47  C   UNL A   1      48.965  27.953  29.650  1.00  0.00     0.200 A 
ATOM     48  F   UNL A   1      49.232  28.683  27.419  1.00  0.00    -0.200 F 
ATOM     49  F   UNL A   1      50.189  27.408  29.632  1.00  0.00    -0.200 F 
ENDBRANCH  25  39
BRANCH  26  50
ATOM     50  C   UNL A   1      37.101  32.542  29.749  1.00  0.00     0.064 A 
ATOM     51  C   UNL A   1      36.589  33.239  28.648  1.00  0.00     0.173 A 
ATOM     52  C   UNL A   1      36.266  32.341  30.855  1.00  0.00     0.173 A 
ATOM     53  F   UNL A   1      37.364  33.465  27.578  1.00  0.00    -0.203 F 
ATOM     54  C   UNL A   1      35.281  33.719  28.654  1.00  0.00     0.198 A 
ATOM     55  C   UNL A   1      34.958  32.819  30.858  1.00  0.00     0.198 A 
ATOM     56  F   UNL A   1      36.726  31.688  31.932  1.00  0.00    -0.203 F 
ATOM     57  F   UNL A   1      34.813  34.392  27.594  1.00  0.00    -0.200 F 
ATOM     58  C   UNL A   1      34.467  33.507  29.757  1.00  0.00     0.200 A 
ATOM     59  F   UNL A   1      34.176  32.619  31.926  1.00  0.00    -0.200 F 
ATOM     60  F   UNL A   1      33.211  33.972  29.762  1.00  0.00    -0.200 F 
ENDBRANCH  26  50
BRANCH  38  61
ATOM     61  C   UNL A   1      43.230  35.310  31.467  1.00  0.00     0.064 A 
ATOM     62  C   UNL A   1      43.259  35.561  32.846  1.00  0.00     0.173 A 
ATOM     63  C   UNL A   1      43.605  36.340  30.595  1.00  0.00     0.173 A 
ATOM     64  F   UNL A   1      42.895  34.604  33.713  1.00  0.00    -0.203 F 
ATOM     65  C   UNL A   1      43.650  36.803  33.334  1.00  0.00     0.198 A 
ATOM     66  C   UNL A   1      43.998  37.582  31.088  1.00  0.00     0.198 A 
ATOM     67  F   UNL A   1      43.582  36.145  29.268  1.00  0.00    -0.203 F 
ATOM     68  F   UNL A   1      43.661  37.028  34.656  1.00  0.00    -0.200 F 
ATOM     69  C   UNL A   1      44.021  37.811  32.456  1.00  0.00     0.200 A 
ATOM     70  F   UNL A   1      44.349  38.558  30.240  1.00  0.00    -0.200 F 
ATOM     71  F   UNL A   1      44.393  39.009  32.929  1.00  0.00    -0.200 F 
ENDBRANCH  38  61
ENDBRANCH  12  13
ENDBRANCH   5   7
ENDBRANCH   2   3
ENDBRANCH   1   2
BRANCH   1  72
ATOM     72  C   UNL A   1      35.221  22.974  23.744  1.00  0.00     0.023 C 
BRANCH  72  73
ATOM     73  C   UNL A   1      33.873  23.692  23.722  1.00  0.00     0.116 C 
BRANCH  73  74
ATOM     74  N   UNL A   1      33.527  24.252  22.431  1.00  0.00    -0.354 N 
ATOM     75  C   UNL A   1      33.291  25.550  22.069  1.00  0.00     0.242 C 
ATOM     76  H   UNL A   1      33.448  23.596  21.702  1.00  0.00     0.163 HD
ATOM     77  O   UNL A   1      33.176  25.795  20.865  1.00  0.00    -0.273 OA
BRANCH  75  78
ATOM     78  C   UNL A   1      33.278  26.666  23.143  1.00  0.00     0.175 C 
ATOM     79  C   UNL A   1      33.867  27.987  22.616  1.00  0.00     0.036 C 
ATOM     80  N   UNL A   1      32.038  26.979  23.886  1.00  0.00    -0.322 N 
ATOM     81  C   UNL A   1      34.013  29.046  23.729  1.00  0.00     0.008 C 
ATOM     82  C   UNL A   1      32.221  27.865  25.052  1.00  0.00     0.089 C 
ATOM     83  C   UNL A   1      33.638  28.486  25.109  1.00  0.00     0.012 C 
ATOM     84  C   UNL A   1      31.910  27.171  26.383  1.00  0.00     0.025 C 
ATOM     85  C   UNL A   1      33.697  29.539  26.221  1.00  0.00     0.006 C 
ATOM     86  C   UNL A   1      32.003  28.170  27.540  1.00  0.00     0.002 C 
ATOM     87  C   UNL A   1      33.340  28.912  27.571  1.00  0.00     0.000 C 
BRANCH  80  88
ATOM     88  C   UNL A   1      30.795  26.726  23.282  1.00  0.00     0.272 C 
ATOM     89  O   UNL A   1      30.323  25.594  23.232  1.00  0.00    -0.267 OA
BRANCH  88  90
ATOM     90  C   UNL A   1      29.991  27.824  22.800  1.00  0.00     0.123 A 
ATOM     91  C   UNL A   1      28.720  28.285  23.089  1.00  0.00     0.055 A 
ATOM     92  N   UNL A   1      30.524  28.782  21.974  1.00  0.00    -0.273 N 
ATOM     93  C   UNL A   1      28.559  29.445  22.310  1.00  0.00     0.135 A 
ATOM     94  N   UNL A   1      29.651  29.732  21.601  1.00  0.00    -0.183 NA
ATOM     95  H   UNL A   1      31.463  28.772  21.681  1.00  0.00     0.190 HD
ENDBRANCH  88  90
ENDBRANCH  80  88
ENDBRANCH  75  78
ENDBRANCH  73  74
ENDBRANCH  72  73
ENDBRANCH   1  72
TORSDOF 13
ENDMDL
MODEL 3
REMARK VINA RESULT:     -12.3      3.304      8.792
REMARK SMILES O=C(NCCCCNC(=O)[C@H]1CC[C@H]2CCCC[C@@H]2N1C(=O)c1ccn[nH]1)c1ccc(-c2c3nc(c(-c4c(F)c(F)c(F)c(F)c4F)c4ccc([nH]4)c(-c4c(F)c(F)c(F)c(F)c4F)c4nc(c(-c5c(F)c(F)c(F)c(F)c5F)c5ccc2[nH]5)C=C4)C=C3)cc1
REMARK SMILES IDX 5 1 4 2 3 3 1 4 2 5 28 7 29 8 90 9 30 10 89 11 31 12 32 13
REMARK SMILES IDX 33 14 83 15 34 16 88 17 82 18 84 19 35 20 87 21 81 22 80 23
REMARK SMILES IDX 36 25 68 26 48 27 67 28 49 29 52 30 66 31 85 32 50 33 51 34
REMARK SMILES IDX 65 36 86 37 53 38 37 39 38 40 46 41 39 42 40 43 44 44 47 45
REMARK SMILES IDX 41 46 42 47 45 48 43 49 69 50 70 51 78 52 71 53 72 54 76 55
REMARK SMILES IDX 79 56 73 57 74 58 77 59 75 60 54 61 55 62 63 63 56 64 57 65
REMARK SMILES IDX 61 66 64 67 58 68 59 69 62 70 60 71 6 72 7 73 8 74 9 75
REMARK SMILES IDX 10 77 11 78 12 79 20 80 13 81 19 82 14 83 18 84 15 85 17 86
REMARK SMILES IDX 16 87 21 88 22 89 23 90 24 91 27 92 25 93 26 94
REMARK H PARENT 3 6 84 24 52 35 8 76 27 95
REMARK Flexibility Score: inf
ROOT
ATOM      1  C   UNL A   1      33.006  27.259  26.506  1.00  0.00     0.023 C 
ENDROOT
BRANCH   1   2
ATOM      2  C   UNL A   1      34.064  28.339  26.278  1.00  0.00     0.116 C 
BRANCH   2   3
ATOM      3  N   UNL A   1      33.763  29.588  26.950  1.00  0.00    -0.352 N 
ATOM      4  O   UNL A   1      34.026  31.333  28.336  1.00  0.00    -0.269 OA
ATOM      5  C   UNL A   1      34.516  30.327  27.827  1.00  0.00     0.251 C 
ATOM      6  H   UNL A   1      32.878  29.967  26.744  1.00  0.00     0.163 HD
BRANCH   5   7
ATOM      7  C   UNL A   1      35.892  29.922  28.204  1.00  0.00     0.039 A 
ATOM      8  C   UNL A   1      36.190  29.327  29.435  1.00  0.00     0.014 A 
ATOM      9  C   UNL A   1      36.903  30.083  27.249  1.00  0.00     0.014 A 
ATOM     10  C   UNL A   1      37.508  28.964  29.734  1.00  0.00     0.010 A 
ATOM     11  C   UNL A   1      38.216  29.702  27.540  1.00  0.00     0.010 A 
ATOM     12  C   UNL A   1      38.529  29.158  28.793  1.00  0.00    -0.014 A 
BRANCH  12  13
ATOM     13  C   UNL A   1      39.929  28.795  29.115  1.00  0.00     0.031 A 
ATOM     14  C   UNL A   1      40.779  29.715  29.940  1.00  0.00     0.074 A 
ATOM     15  C   UNL A   1      40.445  27.640  28.656  1.00  0.00     0.049 A 
ATOM     16  N   UNL A   1      42.026  29.578  30.312  1.00  0.00    -0.248 NA
ATOM     17  C   UNL A   1      40.144  30.958  30.405  1.00  0.00     0.031 C 
ATOM     18  C   UNL A   1      39.733  26.665  27.830  1.00  0.00     0.029 A 
ATOM     19  N   UNL A   1      41.693  27.095  28.822  1.00  0.00    -0.354 N 
ATOM     20  C   UNL A   1      42.333  30.718  31.039  1.00  0.00     0.074 A 
ATOM     21  C   UNL A   1      41.140  31.541  31.060  1.00  0.00     0.031 C 
ATOM     22  C   UNL A   1      40.554  25.633  27.570  1.00  0.00     0.029 A 
ATOM     23  C   UNL A   1      41.847  25.881  28.204  1.00  0.00     0.049 A 
ATOM     24  H   UNL A   1      42.409  27.534  29.335  1.00  0.00     0.167 HD
ATOM     25  C   UNL A   1      43.501  31.052  31.635  1.00  0.00     0.037 A 
ATOM     26  C   UNL A   1      42.912  25.061  28.156  1.00  0.00     0.037 A 
ATOM     27  C   UNL A   1      44.686  30.239  31.643  1.00  0.00     0.049 A 
ATOM     28  C   UNL A   1      44.188  25.441  28.848  1.00  0.00     0.074 A 
ATOM     29  C   UNL A   1      45.905  30.492  32.249  1.00  0.00     0.029 A 
ATOM     30  N   UNL A   1      44.798  29.010  31.015  1.00  0.00    -0.354 N 
ATOM     31  N   UNL A   1      44.459  26.517  29.542  1.00  0.00    -0.248 NA
ATOM     32  C   UNL A   1      45.305  24.490  28.747  1.00  0.00     0.031 C 
ATOM     33  C   UNL A   1      46.758  29.412  31.985  1.00  0.00     0.029 A 
ATOM     34  C   UNL A   1      46.066  28.491  31.218  1.00  0.00     0.049 A 
ATOM     35  H   UNL A   1      44.082  28.570  30.502  1.00  0.00     0.167 HD
ATOM     36  C   UNL A   1      45.773  26.377  29.959  1.00  0.00     0.074 A 
ATOM     37  C   UNL A   1      46.248  25.108  29.446  1.00  0.00     0.031 C 
ATOM     38  C   UNL A   1      46.520  27.229  30.701  1.00  0.00     0.037 A 
BRANCH  25  39
ATOM     39  C   UNL A   1      43.553  32.372  32.333  1.00  0.00     0.064 A 
ATOM     40  C   UNL A   1      43.902  33.540  31.643  1.00  0.00     0.173 A 
ATOM     41  C   UNL A   1      43.223  32.474  33.692  1.00  0.00     0.173 A 
ATOM     42  F   UNL A   1      44.235  33.482  30.346  1.00  0.00    -0.203 F 
ATOM     43  C   UNL A   1      43.923  34.770  32.294  1.00  0.00     0.198 A 
ATOM     44  C   UNL A   1      43.242  33.706  34.338  1.00  0.00     0.198 A 
ATOM     45  F   UNL A   1      42.891  31.378  34.390  1.00  0.00    -0.203 F 
ATOM     46  F   UNL A   1      44.270  35.877  31.621  1.00  0.00    -0.200 F 
ATOM     47  C   UNL A   1      43.591  34.852  33.638  1.00  0.00     0.200 A 
ATOM     48  F   UNL A   1      42.929  33.785  35.639  1.00  0.00    -0.200 F 
ATOM     49  F   UNL A   1      43.616  36.038  34.263  1.00  0.00    -0.200 F 
ENDBRANCH  25  39
BRANCH  26  50
ATOM     50  C   UNL A   1      42.810  23.780  27.424  1.00  0.00     0.064 A 
ATOM     51  C   UNL A   1      42.337  22.628  28.064  1.00  0.00     0.173 A 
ATOM     52  C   UNL A   1      43.172  23.689  26.075  1.00  0.00     0.173 A 
ATOM     53  F   UNL A   1      41.996  22.673  29.360  1.00  0.00    -0.203 F 
ATOM     54  C   UNL A   1      42.229  21.422  27.374  1.00  0.00     0.198 A 
ATOM     55  C   UNL A   1      43.061  22.484  25.386  1.00  0.00     0.198 A 
ATOM     56  F   UNL A   1      43.639  24.769  25.432  1.00  0.00    -0.203 F 
ATOM     57  F   UNL A   1      41.784  20.329  28.007  1.00  0.00    -0.200 F 
ATOM     58  C   UNL A   1      42.589  21.352  26.037  1.00  0.00     0.200 A 
ATOM     59  F   UNL A   1      43.415  22.416  24.096  1.00  0.00    -0.200 F 
ATOM     60  F   UNL A   1      42.488  20.191  25.375  1.00  0.00    -0.200 F 
ENDBRANCH  26  50
BRANCH  38  61
ATOM     61  C   UNL A   1      47.925  26.816  31.001  1.00  0.00     0.064 A 
ATOM     62  C   UNL A   1      48.209  25.978  32.088  1.00  0.00     0.173 A 
ATOM     63  C   UNL A   1      48.984  27.232  30.185  1.00  0.00     0.173 A 
ATOM     64  F   UNL A   1      47.224  25.568  32.901  1.00  0.00    -0.203 F 
ATOM     65  C   UNL A   1      49.514  25.571  32.349  1.00  0.00     0.198 A 
ATOM     66  C   UNL A   1      50.288  26.820  30.448  1.00  0.00     0.198 A 
ATOM     67  F   UNL A   1      48.756  28.042  29.141  1.00  0.00    -0.203 F 
ATOM     68  F   UNL A   1      49.769  24.778  33.399  1.00  0.00    -0.200 F 
ATOM     69  C   UNL A   1      50.551  25.990  31.528  1.00  0.00     0.200 A 
ATOM     70  F   UNL A   1      51.292  27.231  29.660  1.00  0.00    -0.200 F 
ATOM     71  F   UNL A   1      51.808  25.599  31.784  1.00  0.00    -0.200 F 
ENDBRANCH  38  61
ENDBRANCH  12  13
ENDBRANCH   5   7
ENDBRANCH   2   3
ENDBRANCH   1   2
BRANCH   1  72
ATOM     72  C   UNL A   1      31.727  27.362  25.666  1.00  0.00     0.023 C 
BRANCH  72  73
ATOM     73  C   UNL A   1      31.296  26.091  24.939  1.00  0.00     0.116 C 
BRANCH  73  74
ATOM     74  N   UNL A   1      30.583  25.147  25.776  1.00  0.00    -0.354 N 
ATOM     75  C   UNL A   1      31.044  24.063  26.472  1.00  0.00     0.242 C 
ATOM     76  H   UNL A   1      29.616  25.312  25.856  1.00  0.00     0.163 HD
ATOM     77  O   UNL A   1      30.263  23.509  27.251  1.00  0.00    -0.273 OA
BRANCH  75  78
ATOM     78  C   UNL A   1      32.527  23.632  26.345  1.00  0.00     0.175 C 
ATOM     79  C   UNL A   1      33.010  22.845  27.575  1.00  0.00     0.036 C 
ATOM     80  N   UNL A   1      33.003  22.931  25.132  1.00  0.00    -0.322 N 
ATOM     81  C   UNL A   1      34.527  22.564  27.528  1.00  0.00     0.008 C 
ATOM     82  C   UNL A   1      34.470  22.815  25.021  1.00  0.00     0.089 C 
ATOM     83  C   UNL A   1      35.200  23.232  26.320  1.00  0.00     0.012 C 
ATOM     84  C   UNL A   1      35.042  23.601  23.836  1.00  0.00     0.025 C 
ATOM     85  C   UNL A   1      36.693  22.903  26.205  1.00  0.00     0.006 C 
ATOM     86  C   UNL A   1      36.546  23.347  23.702  1.00  0.00     0.002 C 
ATOM     87  C   UNL A   1      37.307  23.620  25.001  1.00  0.00     0.000 C 
BRANCH  80  88
ATOM     88  C   UNL A   1      32.098  22.158  24.387  1.00  0.00     0.272 C 
ATOM     89  O   UNL A   1      31.255  22.677  23.661  1.00  0.00    -0.267 OA
BRANCH  88  90
ATOM     90  C   UNL A   1      32.214  20.719  24.379  1.00  0.00     0.123 A 
ATOM     91  C   UNL A   1      32.525  19.785  23.408  1.00  0.00     0.055 A 
ATOM     92  N   UNL A   1      32.168  19.999  25.545  1.00  0.00    -0.273 N 
ATOM     93  C   UNL A   1      32.530  18.545  24.072  1.00  0.00     0.135 A 
ATOM     94  N   UNL A   1      32.279  18.670  25.375  1.00  0.00    -0.183 NA
ATOM     95  H   UNL A   1      32.062  20.418  26.429  1.00  0.00     0.190 HD
ENDBRANCH  88  90
ENDBRANCH  80  88
ENDBRANCH  75  78
ENDBRANCH  73  74
ENDBRANCH  72  73
ENDBRANCH   1  72
TORSDOF 13
ENDMDL
