MODEL 1
REMARK VINA RESULT:     -14.4      0.000      0.000
REMARK SMILES Cc1ccccc1C(=O)Nc1ccc(OCC(=O)NCCCCNC(=O)c2ccc(-c3c4nc(c(-c5c(F)c(F)c(F)c(F)c5F)c5ccc([nH]5)c(-c5c(F)c(F)c(F)c(F)c5F)c5nc(c(-c6c(F)c(F)c(F)c(F)c6F)c6ccc3[nH]6)C=C5)C=C4)cc2)c(-c2nc3ccccc3s2)c1
REMARK SMILES IDX 20 1 19 2 17 3 18 4 16 6 15 7 14 8 11 9 12 10 100 11 13 12
REMARK SMILES IDX 90 13 10 14 8 15 9 16 7 18 1 19 2 20 3 21 4 22 6 23 5 24
REMARK SMILES IDX 91 25 92 26 99 27 93 28 98 29 94 30 97 31 95 32 96 33 21 34
REMARK SMILES IDX 22 35 23 36 24 37 25 38 26 40 27 41 28 42 89 43 29 44 88 45
REMARK SMILES IDX 30 46 31 47 32 48 82 49 33 50 87 51 81 52 83 53 34 54 86 55
REMARK SMILES IDX 80 56 79 57 35 59 67 60 47 61 66 62 48 63 51 64 65 65 84 66
REMARK SMILES IDX 49 67 50 68 64 70 85 71 52 72 36 73 37 74 45 75 38 76 39 77
REMARK SMILES IDX 43 78 46 79 40 80 41 81 44 82 42 83 68 84 69 85 77 86 70 87
REMARK SMILES IDX 71 88 75 89 78 90 72 91 73 92 76 93 74 94 53 95 54 96 62 97
REMARK SMILES IDX 55 98 56 99 60 100 63 101 57 102 58 103 61 104 59 105
REMARK H PARENT 19 5 10 17 24 39 83 58 51 69
REMARK Flexibility Score: inf
ROOT
ATOM      1  C   UNL A   1      32.771  30.546  26.579  1.00  0.00     0.116 C 
ENDROOT
BRANCH   1   2
ATOM      2  N   UNL A   1      33.170  29.723  25.455  1.00  0.00    -0.353 N 
ATOM      3  C   UNL A   1      33.414  28.381  25.393  1.00  0.00     0.257 C 
ATOM      4  O   UNL A   1      33.992  27.983  24.383  1.00  0.00    -0.271 OA
ATOM      5  H   UNL A   1      33.285  30.206  24.606  1.00  0.00     0.163 HD
BRANCH   3   6
ATOM      6  C   UNL A   1      32.906  27.447  26.523  1.00  0.00     0.329 C 
BRANCH   6   7
ATOM      7  O   UNL A   1      31.584  26.917  26.569  1.00  0.00    -0.483 OA
BRANCH   7   8
ATOM      8  C   UNL A   1      31.483  25.635  26.104  1.00  0.00     0.130 A 
ATOM      9  C   UNL A   1      31.447  22.991  25.206  1.00  0.00     0.042 A 
ATOM     10  C   UNL A   1      31.939  23.284  26.478  1.00  0.00     0.030 A 
ATOM     11  C   UNL A   1      30.845  24.001  24.454  1.00  0.00     0.041 A 
ATOM     12  C   UNL A   1      31.993  24.609  26.910  1.00  0.00     0.049 A 
ATOM     13  C   UNL A   1      30.809  25.342  24.903  1.00  0.00     0.055 A 
BRANCH   9  14
ATOM     14  N   UNL A   1      31.630  21.686  24.727  1.00  0.00    -0.322 N 
ATOM     15  C   UNL A   1      32.729  21.089  24.140  1.00  0.00     0.255 C 
ATOM     16  O   UNL A   1      32.591  19.977  23.628  1.00  0.00    -0.269 OA
ATOM     17  H   UNL A   1      30.848  21.098  24.826  1.00  0.00     0.170 HD
BRANCH  15  18
ATOM     18  C   UNL A   1      34.101  21.681  24.185  1.00  0.00     0.043 A 
ATOM     19  C   UNL A   1      33.714  23.445  22.353  1.00  0.00     0.045 C 
ATOM     20  C   UNL A   1      34.565  22.710  23.343  1.00  0.00    -0.038 A 
ATOM     21  C   UNL A   1      35.899  23.145  23.465  1.00  0.00     0.004 A 
ATOM     22  C   UNL A   1      36.718  22.672  24.486  1.00  0.00     0.000 A 
ATOM     23  C   UNL A   1      34.926  21.246  25.238  1.00  0.00     0.014 A 
ATOM     24  C   UNL A   1      36.219  21.749  25.397  1.00  0.00     0.001 A 
ENDBRANCH  15  18
ENDBRANCH   9  14
BRANCH  13  25
ATOM     25  C   UNL A   1      30.122  26.326  24.031  1.00  0.00     0.128 A 
ATOM     26  N   UNL A   1      30.771  27.178  23.255  1.00  0.00    -0.236 NA
ATOM     27  S   UNL A   1      28.406  26.490  23.929  1.00  0.00    -0.114 S 
ATOM     28  C   UNL A   1      29.917  28.174  22.820  1.00  0.00     0.082 A 
ATOM     29  C   UNL A   1      28.586  28.024  23.199  1.00  0.00     0.055 A 
ATOM     30  C   UNL A   1      30.285  29.318  22.088  1.00  0.00     0.030 A 
ATOM     31  C   UNL A   1      27.621  29.013  22.964  1.00  0.00     0.021 A 
ATOM     32  C   UNL A   1      29.332  30.311  21.839  1.00  0.00     0.002 A 
ATOM     33  C   UNL A   1      28.024  30.170  22.296  1.00  0.00     0.002 A 
ENDBRANCH  13  25
ENDBRANCH   7   8
ENDBRANCH   6   7
ENDBRANCH   3   6
ENDBRANCH   1   2
BRANCH   1  34
ATOM     34  C   UNL A   1      33.920  30.720  27.580  1.00  0.00     0.023 C 
BRANCH  34  35
ATOM     35  C   UNL A   1      34.522  32.128  27.628  1.00  0.00     0.023 C 
BRANCH  35  36
ATOM     36  C   UNL A   1      35.854  32.253  28.345  1.00  0.00     0.116 C 
BRANCH  36  37
ATOM     37  N   UNL A   1      35.795  32.124  29.789  1.00  0.00    -0.352 N 
ATOM     38  C   UNL A   1      36.238  31.075  30.582  1.00  0.00     0.251 C 
ATOM     39  H   UNL A   1      35.387  32.881  30.270  1.00  0.00     0.163 HD
ATOM     40  O   UNL A   1      36.040  31.085  31.784  1.00  0.00    -0.269 OA
BRANCH  38  41
ATOM     41  C   UNL A   1      37.071  30.008  29.969  1.00  0.00     0.039 A 
ATOM     42  C   UNL A   1      37.363  28.883  30.748  1.00  0.00     0.014 A 
ATOM     43  C   UNL A   1      37.715  30.198  28.749  1.00  0.00     0.014 A 
ATOM     44  C   UNL A   1      38.466  28.097  30.426  1.00  0.00     0.010 A 
ATOM     45  C   UNL A   1      38.862  29.477  28.473  1.00  0.00     0.010 A 
ATOM     46  C   UNL A   1      39.273  28.470  29.347  1.00  0.00    -0.014 A 
BRANCH  46  47
ATOM     47  C   UNL A   1      40.598  27.909  29.129  1.00  0.00     0.031 A 
ATOM     48  C   UNL A   1      40.755  26.500  28.728  1.00  0.00     0.074 A 
ATOM     49  C   UNL A   1      41.701  28.667  29.316  1.00  0.00     0.049 A 
ATOM     50  N   UNL A   1      41.713  25.743  29.150  1.00  0.00    -0.248 NA
ATOM     51  C   UNL A   1      39.826  25.822  27.828  1.00  0.00     0.031 C 
ATOM     52  C   UNL A   1      43.083  28.293  29.019  1.00  0.00     0.029 A 
ATOM     53  N   UNL A   1      41.809  29.880  30.017  1.00  0.00    -0.354 N 
ATOM     54  C   UNL A   1      41.683  24.596  28.398  1.00  0.00     0.074 A 
ATOM     55  C   UNL A   1      40.449  24.653  27.645  1.00  0.00     0.031 C 
ATOM     56  C   UNL A   1      43.901  29.039  29.777  1.00  0.00     0.029 A 
ATOM     57  C   UNL A   1      43.070  29.842  30.656  1.00  0.00     0.049 A 
ATOM     58  H   UNL A   1      41.145  30.607  30.055  1.00  0.00     0.167 HD
ATOM     59  C   UNL A   1      42.768  23.774  28.360  1.00  0.00     0.037 A 
ATOM     60  C   UNL A   1      43.194  29.914  32.011  1.00  0.00     0.037 A 
ATOM     61  C   UNL A   1      43.876  24.292  29.148  1.00  0.00     0.049 A 
ATOM     62  C   UNL A   1      43.887  28.726  32.626  1.00  0.00     0.074 A 
ATOM     63  C   UNL A   1      44.990  25.038  28.801  1.00  0.00     0.029 A 
ATOM     64  N   UNL A   1      43.769  24.367  30.534  1.00  0.00    -0.354 N 
ATOM     65  N   UNL A   1      44.018  27.576  32.025  1.00  0.00    -0.248 NA
ATOM     66  C   UNL A   1      44.460  28.722  33.969  1.00  0.00     0.031 C 
ATOM     67  C   UNL A   1      45.540  25.591  29.979  1.00  0.00     0.029 A 
ATOM     68  C   UNL A   1      44.771  25.169  31.049  1.00  0.00     0.049 A 
ATOM     69  H   UNL A   1      43.079  23.915  31.070  1.00  0.00     0.167 HD
ATOM     70  C   UNL A   1      44.656  26.693  32.859  1.00  0.00     0.074 A 
ATOM     71  C   UNL A   1      44.926  27.463  34.057  1.00  0.00     0.031 C 
ATOM     72  C   UNL A   1      44.901  25.403  32.478  1.00  0.00     0.037 A 
BRANCH  59  73
ATOM     73  C   UNL A   1      42.879  22.679  27.337  1.00  0.00     0.064 A 
ATOM     74  C   UNL A   1      42.126  21.494  27.434  1.00  0.00     0.173 A 
ATOM     75  C   UNL A   1      43.780  22.743  26.258  1.00  0.00     0.173 A 
ATOM     76  F   UNL A   1      41.198  21.328  28.385  1.00  0.00    -0.203 F 
ATOM     77  C   UNL A   1      42.324  20.415  26.570  1.00  0.00     0.198 A 
ATOM     78  C   UNL A   1      44.009  21.648  25.421  1.00  0.00     0.198 A 
ATOM     79  F   UNL A   1      44.465  23.869  26.006  1.00  0.00    -0.203 F 
ATOM     80  F   UNL A   1      41.594  19.301  26.720  1.00  0.00    -0.200 F 
ATOM     81  C   UNL A   1      43.287  20.480  25.584  1.00  0.00     0.200 A 
ATOM     82  F   UNL A   1      44.951  21.721  24.469  1.00  0.00    -0.200 F 
ATOM     83  F   UNL A   1      43.517  19.423  24.793  1.00  0.00    -0.200 F 
ENDBRANCH  59  73
BRANCH  60  84
ATOM     84  C   UNL A   1      42.133  30.731  32.651  1.00  0.00     0.064 A 
ATOM     85  C   UNL A   1      42.228  32.131  32.538  1.00  0.00     0.173 A 
ATOM     86  C   UNL A   1      40.887  30.190  32.987  1.00  0.00     0.173 A 
ATOM     87  F   UNL A   1      43.402  32.699  32.216  1.00  0.00    -0.203 F 
ATOM     88  C   UNL A   1      41.100  32.943  32.624  1.00  0.00     0.198 A 
ATOM     89  C   UNL A   1      39.762  31.011  33.096  1.00  0.00     0.198 A 
ATOM     90  F   UNL A   1      40.731  28.863  33.092  1.00  0.00    -0.203 F 
ATOM     91  F   UNL A   1      41.202  34.257  32.377  1.00  0.00    -0.200 F 
ATOM     92  C   UNL A   1      39.862  32.377  32.874  1.00  0.00     0.200 A 
ATOM     93  F   UNL A   1      38.560  30.465  33.334  1.00  0.00    -0.200 F 
ATOM     94  F   UNL A   1      38.763  33.145  32.858  1.00  0.00    -0.200 F 
ENDBRANCH  60  84
BRANCH  72  95
ATOM     95  C   UNL A   1      45.403  24.272  33.350  1.00  0.00     0.064 A 
ATOM     96  C   UNL A   1      44.651  23.135  33.682  1.00  0.00     0.173 A 
ATOM     97  C   UNL A   1      46.756  24.245  33.776  1.00  0.00     0.173 A 
ATOM     98  F   UNL A   1      43.397  22.974  33.242  1.00  0.00    -0.203 F 
ATOM     99  C   UNL A   1      45.188  22.084  34.434  1.00  0.00     0.198 A 
ATOM    100  C   UNL A   1      47.305  23.171  34.474  1.00  0.00     0.198 A 
ATOM    101  F   UNL A   1      47.601  25.252  33.507  1.00  0.00    -0.203 F 
ATOM    102  F   UNL A   1      44.413  21.041  34.761  1.00  0.00    -0.200 F 
ATOM    103  C   UNL A   1      46.516  22.096  34.819  1.00  0.00     0.200 A 
ATOM    104  F   UNL A   1      48.608  23.177  34.790  1.00  0.00    -0.200 F 
ATOM    105  F   UNL A   1      47.037  21.065  35.497  1.00  0.00    -0.200 F 
ENDBRANCH  72  95
ENDBRANCH  46  47
ENDBRANCH  38  41
ENDBRANCH  36  37
ENDBRANCH  35  36
ENDBRANCH  34  35
ENDBRANCH   1  34
TORSDOF 16
ENDMDL
MODEL 2
REMARK VINA RESULT:     -14.2      2.104      4.550
REMARK SMILES Cc1ccccc1C(=O)Nc1ccc(OCC(=O)NCCCCNC(=O)c2ccc(-c3c4nc(c(-c5c(F)c(F)c(F)c(F)c5F)c5ccc([nH]5)c(-c5c(F)c(F)c(F)c(F)c5F)c5nc(c(-c6c(F)c(F)c(F)c(F)c6F)c6ccc3[nH]6)C=C5)C=C4)cc2)c(-c2nc3ccccc3s2)c1
REMARK SMILES IDX 20 1 19 2 17 3 18 4 16 6 15 7 14 8 11 9 12 10 100 11 13 12
REMARK SMILES IDX 90 13 10 14 8 15 9 16 7 18 1 19 2 20 3 21 4 22 6 23 5 24
REMARK SMILES IDX 91 25 92 26 99 27 93 28 98 29 94 30 97 31 95 32 96 33 21 34
REMARK SMILES IDX 22 35 23 36 24 37 25 38 26 40 27 41 28 42 89 43 29 44 88 45
REMARK SMILES IDX 30 46 31 47 32 48 82 49 33 50 87 51 81 52 83 53 34 54 86 55
REMARK SMILES IDX 80 56 79 57 35 59 67 60 47 61 66 62 48 63 51 64 65 65 84 66
REMARK SMILES IDX 49 67 50 68 64 70 85 71 52 72 36 73 37 74 45 75 38 76 39 77
REMARK SMILES IDX 43 78 46 79 40 80 41 81 44 82 42 83 68 84 69 85 77 86 70 87
REMARK SMILES IDX 71 88 75 89 78 90 72 91 73 92 76 93 74 94 53 95 54 96 62 97
REMARK SMILES IDX 55 98 56 99 60 100 63 101 57 102 58 103 61 104 59 105
REMARK H PARENT 19 5 10 17 24 39 83 58 51 69
REMARK Flexibility Score: inf
ROOT
ATOM      1  C   UNL A   1      32.616  26.481  26.843  1.00  0.00     0.116 C 
ENDROOT
BRANCH   1   2
ATOM      2  N   UNL A   1      31.746  25.322  26.870  1.00  0.00    -0.353 N 
ATOM      3  C   UNL A   1      32.057  23.995  26.937  1.00  0.00     0.257 C 
ATOM      4  O   UNL A   1      31.143  23.212  26.679  1.00  0.00    -0.271 OA
ATOM      5  H   UNL A   1      30.784  25.523  26.834  1.00  0.00     0.163 HD
BRANCH   3   6
ATOM      6  C   UNL A   1      33.474  23.550  27.386  1.00  0.00     0.329 C 
BRANCH   6   7
ATOM      7  O   UNL A   1      34.531  23.257  26.476  1.00  0.00    -0.483 OA
BRANCH   7   8
ATOM      8  C   UNL A   1      34.242  23.556  25.174  1.00  0.00     0.130 A 
ATOM      9  C   UNL A   1      33.570  24.316  22.572  1.00  0.00     0.042 A 
ATOM     10  C   UNL A   1      34.151  25.244  23.437  1.00  0.00     0.030 A 
ATOM     11  C   UNL A   1      33.465  22.982  22.968  1.00  0.00     0.041 A 
ATOM     12  C   UNL A   1      34.450  24.875  24.748  1.00  0.00     0.049 A 
ATOM     13  C   UNL A   1      33.839  22.559  24.265  1.00  0.00     0.055 A 
BRANCH   9  14
ATOM     14  N   UNL A   1      33.074  24.794  21.350  1.00  0.00    -0.322 N 
ATOM     15  C   UNL A   1      32.062  25.695  21.081  1.00  0.00     0.255 C 
ATOM     16  O   UNL A   1      31.678  25.817  19.916  1.00  0.00    -0.269 OA
ATOM     17  H   UNL A   1      33.519  24.426  20.554  1.00  0.00     0.170 HD
BRANCH  15  18
ATOM     18  C   UNL A   1      31.480  26.602  22.116  1.00  0.00     0.043 A 
ATOM     19  C   UNL A   1      30.203  24.781  23.410  1.00  0.00     0.045 C 
ATOM     20  C   UNL A   1      30.598  26.201  23.139  1.00  0.00    -0.038 A 
ATOM     21  C   UNL A   1      30.089  27.171  24.024  1.00  0.00     0.004 A 
ATOM     22  C   UNL A   1      30.547  28.485  23.989  1.00  0.00     0.000 A 
ATOM     23  C   UNL A   1      31.965  27.922  22.122  1.00  0.00     0.014 A 
ATOM     24  C   UNL A   1      31.513  28.853  23.061  1.00  0.00     0.001 A 
ENDBRANCH  15  18
ENDBRANCH   9  14
BRANCH  13  25
ATOM     25  C   UNL A   1      33.706  21.112  24.567  1.00  0.00     0.128 A 
ATOM     26  N   UNL A   1      34.741  20.291  24.629  1.00  0.00    -0.236 NA
ATOM     27  S   UNL A   1      32.199  20.325  24.861  1.00  0.00    -0.114 S 
ATOM     28  C   UNL A   1      34.313  18.978  24.594  1.00  0.00     0.082 A 
ATOM     29  C   UNL A   1      32.931  18.804  24.597  1.00  0.00     0.055 A 
ATOM     30  C   UNL A   1      35.135  17.840  24.510  1.00  0.00     0.030 A 
ATOM     31  C   UNL A   1      32.331  17.549  24.421  1.00  0.00     0.021 A 
ATOM     32  C   UNL A   1      34.552  16.580  24.342  1.00  0.00     0.002 A 
ATOM     33  C   UNL A   1      33.168  16.442  24.271  1.00  0.00     0.002 A 
ENDBRANCH  13  25
ENDBRANCH   7   8
ENDBRANCH   6   7
ENDBRANCH   3   6
ENDBRANCH   1   2
BRANCH   1  34
ATOM     34  C   UNL A   1      31.873  27.747  27.288  1.00  0.00     0.023 C 
BRANCH  34  35
ATOM     35  C   UNL A   1      32.643  29.053  27.071  1.00  0.00     0.023 C 
BRANCH  35  36
ATOM     36  C   UNL A   1      34.079  29.064  27.567  1.00  0.00     0.116 C 
BRANCH  36  37
ATOM     37  N   UNL A   1      34.485  30.269  28.264  1.00  0.00    -0.352 N 
ATOM     38  C   UNL A   1      35.697  30.543  28.883  1.00  0.00     0.251 C 
ATOM     39  H   UNL A   1      33.813  30.988  28.304  1.00  0.00     0.163 HD
ATOM     40  O   UNL A   1      35.853  31.581  29.501  1.00  0.00    -0.269 OA
BRANCH  38  41
ATOM     41  C   UNL A   1      36.842  29.618  28.671  1.00  0.00     0.039 A 
ATOM     42  C   UNL A   1      37.227  28.806  29.742  1.00  0.00     0.014 A 
ATOM     43  C   UNL A   1      37.638  29.695  27.531  1.00  0.00     0.014 A 
ATOM     44  C   UNL A   1      38.517  28.280  29.771  1.00  0.00     0.010 A 
ATOM     45  C   UNL A   1      38.946  29.252  27.592  1.00  0.00     0.010 A 
ATOM     46  C   UNL A   1      39.403  28.601  28.739  1.00  0.00    -0.014 A 
BRANCH  46  47
ATOM     47  C   UNL A   1      40.836  28.367  28.836  1.00  0.00     0.031 A 
ATOM     48  C   UNL A   1      41.439  27.168  28.227  1.00  0.00     0.074 A 
ATOM     49  C   UNL A   1      41.628  29.233  29.508  1.00  0.00     0.049 A 
ATOM     50  N   UNL A   1      42.413  26.511  28.764  1.00  0.00    -0.248 NA
ATOM     51  C   UNL A   1      40.974  26.600  26.965  1.00  0.00     0.031 C 
ATOM     52  C   UNL A   1      43.086  29.207  29.587  1.00  0.00     0.029 A 
ATOM     53  N   UNL A   1      41.243  30.214  30.438  1.00  0.00    -0.354 N 
ATOM     54  C   UNL A   1      42.866  25.621  27.824  1.00  0.00     0.074 A 
ATOM     55  C   UNL A   1      41.896  25.654  26.752  1.00  0.00     0.031 C 
ATOM     56  C   UNL A   1      43.467  29.857  30.696  1.00  0.00     0.029 A 
ATOM     57  C   UNL A   1      42.264  30.233  31.416  1.00  0.00     0.049 A 
ATOM     58  H   UNL A   1      40.432  30.772  30.413  1.00  0.00     0.167 HD
ATOM     59  C   UNL A   1      44.093  25.048  27.961  1.00  0.00     0.037 A 
ATOM     60  C   UNL A   1      42.011  29.962  32.728  1.00  0.00     0.037 A 
ATOM     61  C   UNL A   1      44.794  25.526  29.143  1.00  0.00     0.049 A 
ATOM     62  C   UNL A   1      42.796  28.797  33.274  1.00  0.00     0.074 A 
ATOM     63  C   UNL A   1      45.737  26.526  29.319  1.00  0.00     0.029 A 
ATOM     64  N   UNL A   1      44.316  25.208  30.411  1.00  0.00    -0.354 N 
ATOM     65  N   UNL A   1      43.361  27.893  32.523  1.00  0.00    -0.248 NA
ATOM     66  C   UNL A   1      42.983  28.538  34.698  1.00  0.00     0.031 C 
ATOM     67  C   UNL A   1      45.806  26.834  30.696  1.00  0.00     0.029 A 
ATOM     68  C   UNL A   1      44.918  26.010  31.364  1.00  0.00     0.049 A 
ATOM     69  H   UNL A   1      43.647  24.513  30.602  1.00  0.00     0.167 HD
ATOM     70  C   UNL A   1      43.962  26.949  33.317  1.00  0.00     0.074 A 
ATOM     71  C   UNL A   1      43.711  27.406  34.670  1.00  0.00     0.031 C 
ATOM     72  C   UNL A   1      44.611  25.873  32.779  1.00  0.00     0.037 A 
BRANCH  59  73
ATOM     73  C   UNL A   1      44.736  24.305  26.824  1.00  0.00     0.064 A 
ATOM     74  C   UNL A   1      44.484  22.939  26.593  1.00  0.00     0.173 A 
ATOM     75  C   UNL A   1      45.669  24.906  25.959  1.00  0.00     0.173 A 
ATOM     76  F   UNL A   1      43.580  22.262  27.312  1.00  0.00    -0.203 F 
ATOM     77  C   UNL A   1      45.180  22.207  25.630  1.00  0.00     0.198 A 
ATOM     78  C   UNL A   1      46.397  24.165  25.025  1.00  0.00     0.198 A 
ATOM     79  F   UNL A   1      45.901  26.227  26.018  1.00  0.00    -0.203 F 
ATOM     80  F   UNL A   1      44.916  20.903  25.466  1.00  0.00    -0.200 F 
ATOM     81  C   UNL A   1      46.159  22.812  24.868  1.00  0.00     0.200 A 
ATOM     82  F   UNL A   1      47.349  24.763  24.294  1.00  0.00    -0.200 F 
ATOM     83  F   UNL A   1      46.868  22.096  23.985  1.00  0.00    -0.200 F 
ENDBRANCH  59  73
BRANCH  60  84
ATOM     84  C   UNL A   1      40.651  30.374  33.156  1.00  0.00     0.064 A 
ATOM     85  C   UNL A   1      40.358  31.750  33.167  1.00  0.00     0.173 A 
ATOM     86  C   UNL A   1      39.574  29.480  33.152  1.00  0.00     0.173 A 
ATOM     87  F   UNL A   1      41.356  32.648  33.169  1.00  0.00    -0.203 F 
ATOM     88  C   UNL A   1      39.050  32.213  33.042  1.00  0.00     0.198 A 
ATOM     89  C   UNL A   1      38.262  29.949  33.052  1.00  0.00     0.198 A 
ATOM     90  F   UNL A   1      39.791  28.158  33.125  1.00  0.00    -0.203 F 
ATOM     91  F   UNL A   1      38.815  33.528  32.918  1.00  0.00    -0.200 F 
ATOM     92  C   UNL A   1      38.006  31.310  32.955  1.00  0.00     0.200 A 
ATOM     93  F   UNL A   1      37.248  29.076  32.963  1.00  0.00    -0.200 F 
ATOM     94  F   UNL A   1      36.759  31.752  32.736  1.00  0.00    -0.200 F 
ENDBRANCH  60  84
BRANCH  72  95
ATOM     95  C   UNL A   1      45.137  24.660  33.515  1.00  0.00     0.064 A 
ATOM     96  C   UNL A   1      44.404  23.481  33.722  1.00  0.00     0.173 A 
ATOM     97  C   UNL A   1      46.493  24.607  33.927  1.00  0.00     0.173 A 
ATOM     98  F   UNL A   1      43.149  23.350  33.274  1.00  0.00    -0.203 F 
ATOM     99  C   UNL A   1      44.963  22.361  34.349  1.00  0.00     0.198 A 
ATOM    100  C   UNL A   1      47.063  23.469  34.497  1.00  0.00     0.198 A 
ATOM    101  F   UNL A   1      47.321  25.651  33.768  1.00  0.00    -0.203 F 
ATOM    102  F   UNL A   1      44.206  21.275  34.561  1.00  0.00    -0.200 F 
ATOM    103  C   UNL A   1      46.293  22.351  34.724  1.00  0.00     0.200 A 
ATOM    104  F   UNL A   1      48.369  23.461  34.804  1.00  0.00    -0.200 F 
ATOM    105  F   UNL A   1      46.835  21.259  35.279  1.00  0.00    -0.200 F 
ENDBRANCH  72  95
ENDBRANCH  46  47
ENDBRANCH  38  41
ENDBRANCH  36  37
ENDBRANCH  35  36
ENDBRANCH  34  35
ENDBRANCH   1  34
TORSDOF 16
ENDMDL
MODEL 3
REMARK VINA RESULT:     -14.1      3.983      9.835
REMARK SMILES Cc1ccccc1C(=O)Nc1ccc(OCC(=O)NCCCCNC(=O)c2ccc(-c3c4nc(c(-c5c(F)c(F)c(F)c(F)c5F)c5ccc([nH]5)c(-c5c(F)c(F)c(F)c(F)c5F)c5nc(c(-c6c(F)c(F)c(F)c(F)c6F)c6ccc3[nH]6)C=C5)C=C4)cc2)c(-c2nc3ccccc3s2)c1
REMARK SMILES IDX 20 1 19 2 17 3 18 4 16 6 15 7 14 8 11 9 12 10 100 11 13 12
REMARK SMILES IDX 90 13 10 14 8 15 9 16 7 18 1 19 2 20 3 21 4 22 6 23 5 24
REMARK SMILES IDX 91 25 92 26 99 27 93 28 98 29 94 30 97 31 95 32 96 33 21 34
REMARK SMILES IDX 22 35 23 36 24 37 25 38 26 40 27 41 28 42 89 43 29 44 88 45
REMARK SMILES IDX 30 46 31 47 32 48 82 49 33 50 87 51 81 52 83 53 34 54 86 55
REMARK SMILES IDX 80 56 79 57 35 59 67 60 47 61 66 62 48 63 51 64 65 65 84 66
REMARK SMILES IDX 49 67 50 68 64 70 85 71 52 72 36 73 37 74 45 75 38 76 39 77
REMARK SMILES IDX 43 78 46 79 40 80 41 81 44 82 42 83 68 84 69 85 77 86 70 87
REMARK SMILES IDX 71 88 75 89 78 90 72 91 73 92 76 93 74 94 53 95 54 96 62 97
REMARK SMILES IDX 55 98 56 99 60 100 63 101 57 102 58 103 61 104 59 105
REMARK H PARENT 19 5 10 17 24 39 83 58 51 69
REMARK Flexibility Score: inf
ROOT
ATOM      1  C   UNL A   1      38.782  22.800  26.435  1.00  0.00     0.116 C 
ENDROOT
BRANCH   1   2
ATOM      2  N   UNL A   1      38.114  21.612  25.942  1.00  0.00    -0.353 N 
ATOM      3  C   UNL A   1      37.076  21.490  25.064  1.00  0.00     0.257 C 
ATOM      4  O   UNL A   1      36.531  20.388  25.022  1.00  0.00    -0.271 OA
ATOM      5  H   UNL A   1      38.462  20.762  26.296  1.00  0.00     0.163 HD
BRANCH   3   6
ATOM      6  C   UNL A   1      36.692  22.680  24.145  1.00  0.00     0.329 C 
BRANCH   6   7
ATOM      7  O   UNL A   1      35.411  22.822  23.539  1.00  0.00    -0.483 OA
BRANCH   7   8
ATOM      8  C   UNL A   1      34.521  23.548  24.282  1.00  0.00     0.130 A 
ATOM      9  C   UNL A   1      32.846  25.110  25.878  1.00  0.00     0.042 A 
ATOM     10  C   UNL A   1      33.904  25.707  25.194  1.00  0.00     0.030 A 
ATOM     11  C   UNL A   1      32.547  23.767  25.643  1.00  0.00     0.041 A 
ATOM     12  C   UNL A   1      34.764  24.919  24.428  1.00  0.00     0.049 A 
ATOM     13  C   UNL A   1      33.352  22.961  24.804  1.00  0.00     0.055 A 
BRANCH   9  14
ATOM     14  N   UNL A   1      32.157  25.894  26.815  1.00  0.00    -0.322 N 
ATOM     15  C   UNL A   1      31.421  27.051  26.652  1.00  0.00     0.255 C 
ATOM     16  O   UNL A   1      31.063  27.667  27.658  1.00  0.00    -0.269 OA
ATOM     17  H   UNL A   1      32.207  25.566  27.741  1.00  0.00     0.170 HD
BRANCH  15  18
ATOM     18  C   UNL A   1      30.951  27.539  25.320  1.00  0.00     0.043 A 
ATOM     19  C   UNL A   1      32.740  29.366  25.034  1.00  0.00     0.045 C 
ATOM     20  C   UNL A   1      31.512  28.618  24.610  1.00  0.00    -0.038 A 
ATOM     21  C   UNL A   1      30.940  29.000  23.381  1.00  0.00     0.004 A 
ATOM     22  C   UNL A   1      29.925  28.249  22.796  1.00  0.00     0.000 A 
ATOM     23  C   UNL A   1      29.956  26.765  24.696  1.00  0.00     0.014 A 
ATOM     24  C   UNL A   1      29.457  27.108  23.437  1.00  0.00     0.001 A 
ENDBRANCH  15  18
ENDBRANCH   9  14
BRANCH  13  25
ATOM     25  C   UNL A   1      32.925  21.554  24.609  1.00  0.00     0.128 A 
ATOM     26  N   UNL A   1      32.992  20.642  25.563  1.00  0.00    -0.236 NA
ATOM     27  S   UNL A   1      32.304  20.934  23.122  1.00  0.00    -0.114 S 
ATOM     28  C   UNL A   1      32.851  19.376  25.026  1.00  0.00     0.082 A 
ATOM     29  C   UNL A   1      32.584  19.337  23.661  1.00  0.00     0.055 A 
ATOM     30  C   UNL A   1      32.999  18.161  25.719  1.00  0.00     0.030 A 
ATOM     31  C   UNL A   1      32.554  18.138  22.934  1.00  0.00     0.021 A 
ATOM     32  C   UNL A   1      32.964  16.956  25.011  1.00  0.00     0.002 A 
ATOM     33  C   UNL A   1      32.772  16.949  23.631  1.00  0.00     0.002 A 
ENDBRANCH  13  25
ENDBRANCH   7   8
ENDBRANCH   6   7
ENDBRANCH   3   6
ENDBRANCH   1   2
BRANCH   1  34
ATOM     34  C   UNL A   1      40.144  22.460  27.051  1.00  0.00     0.023 C 
BRANCH  34  35
ATOM     35  C   UNL A   1      41.266  22.216  26.036  1.00  0.00     0.023 C 
BRANCH  35  36
ATOM     36  C   UNL A   1      42.198  21.059  26.347  1.00  0.00     0.116 C 
BRANCH  36  37
ATOM     37  N   UNL A   1      43.073  20.659  25.262  1.00  0.00    -0.352 N 
ATOM     38  C   UNL A   1      44.127  21.362  24.696  1.00  0.00     0.251 C 
ATOM     39  H   UNL A   1      42.897  19.770  24.876  1.00  0.00     0.163 HD
ATOM     40  O   UNL A   1      44.717  20.916  23.728  1.00  0.00    -0.269 OA
BRANCH  38  41
ATOM     41  C   UNL A   1      44.611  22.599  25.364  1.00  0.00     0.039 A 
ATOM     42  C   UNL A   1      45.235  22.464  26.607  1.00  0.00     0.014 A 
ATOM     43  C   UNL A   1      44.278  23.864  24.883  1.00  0.00     0.014 A 
ATOM     44  C   UNL A   1      45.293  23.561  27.465  1.00  0.00     0.010 A 
ATOM     45  C   UNL A   1      44.251  24.932  25.759  1.00  0.00     0.010 A 
ATOM     46  C   UNL A   1      44.699  24.762  27.070  1.00  0.00    -0.014 A 
BRANCH  46  47
ATOM     47  C   UNL A   1      44.433  25.848  28.002  1.00  0.00     0.031 A 
ATOM     48  C   UNL A   1      43.078  26.416  28.118  1.00  0.00     0.074 A 
ATOM     49  C   UNL A   1      45.430  26.365  28.754  1.00  0.00     0.049 A 
ATOM     50  N   UNL A   1      42.848  27.673  28.307  1.00  0.00    -0.248 NA
ATOM     51  C   UNL A   1      41.867  25.609  28.010  1.00  0.00     0.031 C 
ATOM     52  C   UNL A   1      45.302  27.360  29.816  1.00  0.00     0.029 A 
ATOM     53  N   UNL A   1      46.816  26.234  28.561  1.00  0.00    -0.354 N 
ATOM     54  C   UNL A   1      41.515  27.801  28.602  1.00  0.00     0.074 A 
ATOM     55  C   UNL A   1      40.928  26.507  28.329  1.00  0.00     0.031 C 
ATOM     56  C   UNL A   1      46.481  27.982  29.965  1.00  0.00     0.029 A 
ATOM     57  C   UNL A   1      47.373  27.478  28.937  1.00  0.00     0.049 A 
ATOM     58  H   UNL A   1      47.299  25.441  28.233  1.00  0.00     0.167 HD
ATOM     59  C   UNL A   1      41.050  28.936  29.192  1.00  0.00     0.037 A 
ATOM     60  C   UNL A   1      48.082  28.245  28.061  1.00  0.00     0.037 A 
ATOM     61  C   UNL A   1      42.116  29.887  29.468  1.00  0.00     0.049 A 
ATOM     62  C   UNL A   1      47.507  29.622  27.849  1.00  0.00     0.074 A 
ATOM     63  C   UNL A   1      42.862  30.136  30.608  1.00  0.00     0.029 A 
ATOM     64  N   UNL A   1      42.787  30.505  28.416  1.00  0.00    -0.354 N 
ATOM     65  N   UNL A   1      46.278  29.943  28.143  1.00  0.00    -0.248 NA
ATOM     66  C   UNL A   1      48.252  30.734  27.267  1.00  0.00     0.031 C 
ATOM     67  C   UNL A   1      44.004  30.881  30.238  1.00  0.00     0.029 A 
ATOM     68  C   UNL A   1      43.947  31.102  28.874  1.00  0.00     0.049 A 
ATOM     69  H   UNL A   1      42.479  30.516  27.482  1.00  0.00     0.167 HD
ATOM     70  C   UNL A   1      46.052  31.251  27.797  1.00  0.00     0.074 A 
ATOM     71  C   UNL A   1      47.323  31.707  27.269  1.00  0.00     0.031 C 
ATOM     72  C   UNL A   1      44.830  31.836  27.981  1.00  0.00     0.037 A 
BRANCH  59  73
ATOM     73  C   UNL A   1      39.671  28.996  29.786  1.00  0.00     0.064 A 
ATOM     74  C   UNL A   1      38.555  29.404  29.031  1.00  0.00     0.173 A 
ATOM     75  C   UNL A   1      39.418  28.706  31.139  1.00  0.00     0.173 A 
ATOM     76  F   UNL A   1      38.651  29.660  27.720  1.00  0.00    -0.203 F 
ATOM     77  C   UNL A   1      37.299  29.598  29.607  1.00  0.00     0.198 A 
ATOM     78  C   UNL A   1      38.172  28.941  31.725  1.00  0.00     0.198 A 
ATOM     79  F   UNL A   1      40.385  28.202  31.921  1.00  0.00    -0.203 F 
ATOM     80  F   UNL A   1      36.274  30.009  28.847  1.00  0.00    -0.200 F 
ATOM     81  C   UNL A   1      37.114  29.397  30.960  1.00  0.00     0.200 A 
ATOM     82  F   UNL A   1      38.007  28.747  33.042  1.00  0.00    -0.200 F 
ATOM     83  F   UNL A   1      35.923  29.639  31.524  1.00  0.00    -0.200 F 
ENDBRANCH  59  73
BRANCH  60  84
ATOM     84  C   UNL A   1      48.823  27.446  27.054  1.00  0.00     0.064 A 
ATOM     85  C   UNL A   1      48.233  27.284  25.786  1.00  0.00     0.173 A 
ATOM     86  C   UNL A   1      50.197  27.207  27.166  1.00  0.00     0.173 A 
ATOM     87  F   UNL A   1      46.918  27.503  25.626  1.00  0.00    -0.203 F 
ATOM     88  C   UNL A   1      49.005  27.028  24.655  1.00  0.00     0.198 A 
ATOM     89  C   UNL A   1      50.964  26.927  26.032  1.00  0.00     0.198 A 
ATOM     90  F   UNL A   1      50.818  27.361  28.344  1.00  0.00    -0.203 F 
ATOM     91  F   UNL A   1      48.431  27.015  23.443  1.00  0.00    -0.200 F 
ATOM     92  C   UNL A   1      50.375  26.879  24.776  1.00  0.00     0.200 A 
ATOM     93  F   UNL A   1      52.293  26.787  26.146  1.00  0.00    -0.200 F 
ATOM     94  F   UNL A   1      51.129  26.732  23.678  1.00  0.00    -0.200 F 
ENDBRANCH  60  84
BRANCH  72  95
ATOM     95  C   UNL A   1      44.376  33.186  27.468  1.00  0.00     0.064 A 
ATOM     96  C   UNL A   1      43.899  33.420  26.169  1.00  0.00     0.173 A 
ATOM     97  C   UNL A   1      44.280  34.290  28.354  1.00  0.00     0.173 A 
ATOM     98  F   UNL A   1      43.820  32.435  25.266  1.00  0.00    -0.203 F 
ATOM     99  C   UNL A   1      43.426  34.674  25.768  1.00  0.00     0.198 A 
ATOM    100  C   UNL A   1      43.751  35.521  27.968  1.00  0.00     0.198 A 
ATOM    101  F   UNL A   1      44.672  34.205  29.634  1.00  0.00    -0.203 F 
ATOM    102  F   UNL A   1      43.023  34.855  24.502  1.00  0.00    -0.200 F 
ATOM    103  C   UNL A   1      43.340  35.719  26.668  1.00  0.00     0.200 A 
ATOM    104  F   UNL A   1      43.627  36.505  28.870  1.00  0.00    -0.200 F 
ATOM    105  F   UNL A   1      42.840  36.903  26.291  1.00  0.00    -0.200 F 
ENDBRANCH  72  95
ENDBRANCH  46  47
ENDBRANCH  38  41
ENDBRANCH  36  37
ENDBRANCH  35  36
ENDBRANCH  34  35
ENDBRANCH   1  34
TORSDOF 16
ENDMDL
