MODEL 1
REMARK VINA RESULT:     -12.7      0.000      0.000
REMARK SMILES CCc1ccc(C(=O)NCc2ccc(C(=O)NCCCCNC(=O)c3ccc(-c4c5nc(c(-c6c(F)c(F)c(F)c(F)c6F)c6ccc([nH]6)c(-c6c(F)c(F)c(F)c(F)c6F)c6nc(c(-c7c(F)c(F)c(F)c(F)c7F)c7ccc4[nH]7)C=C6)C=C5)cc3)cc2)cc1
REMARK SMILES IDX 18 1 17 2 15 3 16 4 14 6 11 7 12 8 89 9 13 10 88 11 10 12
REMARK SMILES IDX 9 13 7 14 8 15 6 17 3 18 4 19 91 20 5 21 90 22 2 23 1 24
REMARK SMILES IDX 19 25 20 26 21 27 22 28 23 29 24 31 25 32 26 33 87 34 27 35
REMARK SMILES IDX 86 36 28 37 29 38 30 39 80 40 31 41 85 42 79 43 81 44 32 45
REMARK SMILES IDX 84 46 78 47 77 48 33 50 65 51 45 52 64 53 46 54 49 55 63 56
REMARK SMILES IDX 82 57 47 58 48 59 62 61 83 62 50 63 34 64 35 65 43 66 36 67
REMARK SMILES IDX 37 68 41 69 44 70 38 71 39 72 42 73 40 74 66 75 67 76 75 77
REMARK SMILES IDX 68 78 69 79 73 80 76 81 70 82 71 83 74 84 72 85 51 86 52 87
REMARK SMILES IDX 60 88 53 89 54 90 58 91 61 92 55 93 56 94 59 95 57 96
REMARK H PARENT 17 5 9 16 22 30 81 49 49 60
REMARK Flexibility Score: inf
ROOT
ATOM      1  C   UNL A   1      30.944  30.354  24.926  1.00  0.00     0.116 C 
ENDROOT
BRANCH   1   2
ATOM      2  N   UNL A   1      30.292  30.426  23.632  1.00  0.00    -0.352 N 
ATOM      3  C   UNL A   1      29.917  29.454  22.740  1.00  0.00     0.251 C 
ATOM      4  O   UNL A   1      29.312  29.810  21.729  1.00  0.00    -0.269 OA
ATOM      5  H   UNL A   1      30.079  31.342  23.341  1.00  0.00     0.163 HD
BRANCH   3   6
ATOM      6  C   UNL A   1      30.167  28.003  22.960  1.00  0.00     0.039 A 
ATOM      7  C   UNL A   1      30.482  25.229  23.445  1.00  0.00    -0.029 A 
ATOM      8  C   UNL A   1      29.345  25.908  23.899  1.00  0.00     0.006 A 
ATOM      9  C   UNL A   1      31.441  25.953  22.723  1.00  0.00     0.006 A 
ATOM     10  C   UNL A   1      29.189  27.278  23.655  1.00  0.00     0.014 A 
ATOM     11  C   UNL A   1      31.275  27.316  22.466  1.00  0.00     0.014 A 
BRANCH   7  12
ATOM     12  C   UNL A   1      30.651  23.751  23.710  1.00  0.00     0.152 C 
BRANCH  12  13
ATOM     13  N   UNL A   1      30.706  23.483  25.129  1.00  0.00    -0.348 N 
ATOM     14  C   UNL A   1      31.274  24.086  26.215  1.00  0.00     0.251 C 
ATOM     15  O   UNL A   1      31.079  23.531  27.300  1.00  0.00    -0.269 OA
ATOM     16  H   UNL A   1      30.212  22.666  25.373  1.00  0.00     0.164 HD
BRANCH  14  17
ATOM     17  C   UNL A   1      32.094  25.337  26.195  1.00  0.00     0.039 A 
ATOM     18  C   UNL A   1      33.466  27.824  26.344  1.00  0.00    -0.048 A 
ATOM     19  C   UNL A   1      32.164  27.703  26.833  1.00  0.00     0.004 A 
ATOM     20  C   UNL A   1      34.081  26.690  25.803  1.00  0.00     0.004 A 
ATOM     21  C   UNL A   1      31.491  26.478  26.757  1.00  0.00     0.014 A 
ATOM     22  C   UNL A   1      33.405  25.462  25.734  1.00  0.00     0.014 A 
BRANCH  18  23
ATOM     23  C   UNL A   1      34.198  29.139  26.432  1.00  0.00     0.032 C 
ATOM     24  C   UNL A   1      34.838  29.372  27.794  1.00  0.00     0.009 C 
ENDBRANCH  18  23
ENDBRANCH  14  17
ENDBRANCH  12  13
ENDBRANCH   7  12
ENDBRANCH   3   6
ENDBRANCH   1   2
BRANCH   1  25
ATOM     25  C   UNL A   1      30.932  31.718  25.620  1.00  0.00     0.023 C 
BRANCH  25  26
ATOM     26  C   UNL A   1      31.539  31.718  27.027  1.00  0.00     0.023 C 
BRANCH  26  27
ATOM     27  C   UNL A   1      32.750  32.627  27.206  1.00  0.00     0.116 C 
BRANCH  27  28
ATOM     28  N   UNL A   1      32.395  33.998  27.536  1.00  0.00    -0.352 N 
ATOM     29  C   UNL A   1      32.964  34.830  28.473  1.00  0.00     0.251 C 
ATOM     30  H   UNL A   1      31.650  34.382  27.021  1.00  0.00     0.163 HD
ATOM     31  O   UNL A   1      32.483  35.928  28.703  1.00  0.00    -0.269 OA
BRANCH  29  32
ATOM     32  C   UNL A   1      34.143  34.360  29.232  1.00  0.00     0.039 A 
ATOM     33  C   UNL A   1      33.939  33.695  30.443  1.00  0.00     0.014 A 
ATOM     34  C   UNL A   1      35.436  34.551  28.737  1.00  0.00     0.014 A 
ATOM     35  C   UNL A   1      35.030  33.159  31.127  1.00  0.00     0.010 A 
ATOM     36  C   UNL A   1      36.515  33.960  29.387  1.00  0.00     0.010 A 
ATOM     37  C   UNL A   1      36.322  33.256  30.586  1.00  0.00    -0.014 A 
BRANCH  37  38
ATOM     38  C   UNL A   1      37.485  32.620  31.254  1.00  0.00     0.031 A 
ATOM     39  C   UNL A   1      38.215  31.490  30.584  1.00  0.00     0.074 A 
ATOM     40  C   UNL A   1      37.837  33.015  32.492  1.00  0.00     0.049 A 
ATOM     41  N   UNL A   1      39.201  30.758  31.036  1.00  0.00    -0.248 NA
ATOM     42  C   UNL A   1      37.758  31.114  29.237  1.00  0.00     0.031 C 
ATOM     43  C   UNL A   1      37.174  34.067  33.266  1.00  0.00     0.029 A 
ATOM     44  N   UNL A   1      38.834  32.570  33.325  1.00  0.00    -0.354 N 
ATOM     45  C   UNL A   1      39.469  29.829  30.041  1.00  0.00     0.074 A 
ATOM     46  C   UNL A   1      38.513  30.057  28.980  1.00  0.00     0.031 C 
ATOM     47  C   UNL A   1      37.791  34.197  34.452  1.00  0.00     0.029 A 
ATOM     48  C   UNL A   1      38.869  33.216  34.537  1.00  0.00     0.049 A 
ATOM     49  H   UNL A   1      39.463  31.854  33.078  1.00  0.00     0.167 HD
ATOM     50  C   UNL A   1      40.441  28.886  30.006  1.00  0.00     0.037 A 
ATOM     51  C   UNL A   1      39.675  33.031  35.600  1.00  0.00     0.037 A 
ATOM     52  C   UNL A   1      41.411  28.685  31.050  1.00  0.00     0.049 A 
ATOM     53  C   UNL A   1      40.751  31.979  35.530  1.00  0.00     0.074 A 
ATOM     54  C   UNL A   1      42.476  27.801  31.080  1.00  0.00     0.029 A 
ATOM     55  N   UNL A   1      41.435  29.380  32.250  1.00  0.00    -0.354 N 
ATOM     56  N   UNL A   1      41.042  31.157  34.552  1.00  0.00    -0.248 NA
ATOM     57  C   UNL A   1      41.615  31.836  36.710  1.00  0.00     0.031 C 
ATOM     58  C   UNL A   1      43.118  27.931  32.315  1.00  0.00     0.029 A 
ATOM     59  C   UNL A   1      42.484  28.930  33.036  1.00  0.00     0.049 A 
ATOM     60  H   UNL A   1      40.800  30.087  32.507  1.00  0.00     0.167 HD
ATOM     61  C   UNL A   1      42.138  30.424  34.984  1.00  0.00     0.074 A 
ATOM     62  C   UNL A   1      42.470  30.907  36.308  1.00  0.00     0.031 C 
ATOM     63  C   UNL A   1      42.810  29.436  34.343  1.00  0.00     0.037 A 
BRANCH  50  64
ATOM     64  C   UNL A   1      40.513  28.003  28.797  1.00  0.00     0.064 A 
ATOM     65  C   UNL A   1      39.797  26.798  28.723  1.00  0.00     0.173 A 
ATOM     66  C   UNL A   1      41.263  28.390  27.676  1.00  0.00     0.173 A 
ATOM     67  F   UNL A   1      39.074  26.377  29.772  1.00  0.00    -0.203 F 
ATOM     68  C   UNL A   1      39.846  26.005  27.580  1.00  0.00     0.198 A 
ATOM     69  C   UNL A   1      41.286  27.608  26.524  1.00  0.00     0.198 A 
ATOM     70  F   UNL A   1      41.963  29.534  27.692  1.00  0.00    -0.203 F 
ATOM     71  F   UNL A   1      39.185  24.839  27.547  1.00  0.00    -0.200 F 
ATOM     72  C   UNL A   1      40.582  26.414  26.479  1.00  0.00     0.200 A 
ATOM     73  F   UNL A   1      41.988  28.012  25.455  1.00  0.00    -0.200 F 
ATOM     74  F   UNL A   1      40.617  25.655  25.375  1.00  0.00    -0.200 F 
ENDBRANCH  50  64
BRANCH  51  75
ATOM     75  C   UNL A   1      39.516  33.872  36.815  1.00  0.00     0.064 A 
ATOM     76  C   UNL A   1      38.742  33.430  37.898  1.00  0.00     0.173 A 
ATOM     77  C   UNL A   1      40.109  35.139  36.911  1.00  0.00     0.173 A 
ATOM     78  F   UNL A   1      38.137  32.235  37.846  1.00  0.00    -0.203 F 
ATOM     79  C   UNL A   1      38.546  34.236  39.018  1.00  0.00     0.198 A 
ATOM     80  C   UNL A   1      39.936  35.931  38.043  1.00  0.00     0.198 A 
ATOM     81  F   UNL A   1      40.862  35.605  35.904  1.00  0.00    -0.203 F 
ATOM     82  F   UNL A   1      37.758  33.812  40.015  1.00  0.00    -0.200 F 
ATOM     83  C   UNL A   1      39.146  35.484  39.091  1.00  0.00     0.200 A 
ATOM     84  F   UNL A   1      40.528  37.131  38.117  1.00  0.00    -0.200 F 
ATOM     85  F   UNL A   1      38.955  36.259  40.168  1.00  0.00    -0.200 F 
ENDBRANCH  51  75
BRANCH  63  86
ATOM     86  C   UNL A   1      43.995  28.841  35.045  1.00  0.00     0.064 A 
ATOM     87  C   UNL A   1      45.284  29.371  34.892  1.00  0.00     0.173 A 
ATOM     88  C   UNL A   1      43.830  27.751  35.915  1.00  0.00     0.173 A 
ATOM     89  F   UNL A   1      45.496  30.402  34.061  1.00  0.00    -0.203 F 
ATOM     90  C   UNL A   1      46.369  28.817  35.565  1.00  0.00     0.198 A 
ATOM     91  C   UNL A   1      44.912  27.220  36.609  1.00  0.00     0.198 A 
ATOM     92  F   UNL A   1      42.616  27.212  36.101  1.00  0.00    -0.203 F 
ATOM     93  F   UNL A   1      47.600  29.310  35.370  1.00  0.00    -0.200 F 
ATOM     94  C   UNL A   1      46.181  27.748  36.429  1.00  0.00     0.200 A 
ATOM     95  F   UNL A   1      44.726  26.195  37.454  1.00  0.00    -0.200 F 
ATOM     96  F   UNL A   1      47.226  27.221  37.083  1.00  0.00    -0.200 F 
ENDBRANCH  63  86
ENDBRANCH  37  38
ENDBRANCH  29  32
ENDBRANCH  27  28
ENDBRANCH  26  27
ENDBRANCH  25  26
ENDBRANCH   1  25
TORSDOF 15
ENDMDL
MODEL 2
REMARK VINA RESULT:     -12.7      0.628      7.185
REMARK SMILES CCc1ccc(C(=O)NCc2ccc(C(=O)NCCCCNC(=O)c3ccc(-c4c5nc(c(-c6c(F)c(F)c(F)c(F)c6F)c6ccc([nH]6)c(-c6c(F)c(F)c(F)c(F)c6F)c6nc(c(-c7c(F)c(F)c(F)c(F)c7F)c7ccc4[nH]7)C=C6)C=C5)cc3)cc2)cc1
REMARK SMILES IDX 18 1 17 2 15 3 16 4 14 6 11 7 12 8 89 9 13 10 88 11 10 12
REMARK SMILES IDX 9 13 7 14 8 15 6 17 3 18 4 19 91 20 5 21 90 22 2 23 1 24
REMARK SMILES IDX 19 25 20 26 21 27 22 28 23 29 24 31 25 32 26 33 87 34 27 35
REMARK SMILES IDX 86 36 28 37 29 38 30 39 80 40 31 41 85 42 79 43 81 44 32 45
REMARK SMILES IDX 84 46 78 47 77 48 33 50 65 51 45 52 64 53 46 54 49 55 63 56
REMARK SMILES IDX 82 57 47 58 48 59 62 61 83 62 50 63 34 64 35 65 43 66 36 67
REMARK SMILES IDX 37 68 41 69 44 70 38 71 39 72 42 73 40 74 66 75 67 76 75 77
REMARK SMILES IDX 68 78 69 79 73 80 76 81 70 82 71 83 74 84 72 85 51 86 52 87
REMARK SMILES IDX 60 88 53 89 54 90 58 91 61 92 55 93 56 94 59 95 57 96
REMARK H PARENT 17 5 9 16 22 30 81 49 49 60
REMARK Flexibility Score: inf
ROOT
ATOM      1  C   UNL A   1      30.849  30.310  24.851  1.00  0.00     0.116 C 
ENDROOT
BRANCH   1   2
ATOM      2  N   UNL A   1      30.218  30.369  23.546  1.00  0.00    -0.352 N 
ATOM      3  C   UNL A   1      29.877  29.389  22.648  1.00  0.00     0.251 C 
ATOM      4  O   UNL A   1      29.281  29.731  21.627  1.00  0.00    -0.269 OA
ATOM      5  H   UNL A   1      29.991  31.280  23.251  1.00  0.00     0.163 HD
BRANCH   3   6
ATOM      6  C   UNL A   1      30.152  27.943  22.874  1.00  0.00     0.039 A 
ATOM      7  C   UNL A   1      30.516  25.176  23.369  1.00  0.00    -0.029 A 
ATOM      8  C   UNL A   1      29.363  25.836  23.814  1.00  0.00     0.006 A 
ATOM      9  C   UNL A   1      31.465  25.916  22.651  1.00  0.00     0.006 A 
ATOM     10  C   UNL A   1      29.183  27.202  23.565  1.00  0.00     0.014 A 
ATOM     11  C   UNL A   1      31.276  27.276  22.389  1.00  0.00     0.014 A 
BRANCH   7  12
ATOM     12  C   UNL A   1      30.710  23.702  23.638  1.00  0.00     0.152 C 
BRANCH  12  13
ATOM     13  N   UNL A   1      30.660  23.426  25.057  1.00  0.00    -0.348 N 
ATOM     14  C   UNL A   1      31.105  24.048  26.188  1.00  0.00     0.251 C 
ATOM     15  O   UNL A   1      30.848  23.474  27.250  1.00  0.00    -0.269 OA
ATOM     16  H   UNL A   1      30.190  22.583  25.255  1.00  0.00     0.164 HD
BRANCH  14  17
ATOM     17  C   UNL A   1      31.858  25.339  26.242  1.00  0.00     0.039 A 
ATOM     18  C   UNL A   1      33.485  27.670  26.177  1.00  0.00    -0.048 A 
ATOM     19  C   UNL A   1      33.993  26.440  25.756  1.00  0.00     0.004 A 
ATOM     20  C   UNL A   1      32.155  27.728  26.607  1.00  0.00     0.004 A 
ATOM     21  C   UNL A   1      33.190  25.294  25.790  1.00  0.00     0.014 A 
ATOM     22  C   UNL A   1      31.351  26.578  26.634  1.00  0.00     0.014 A 
BRANCH  18  23
ATOM     23  C   UNL A   1      34.344  28.909  26.132  1.00  0.00     0.032 C 
ATOM     24  C   UNL A   1      34.707  29.429  27.517  1.00  0.00     0.009 C 
ENDBRANCH  18  23
ENDBRANCH  14  17
ENDBRANCH  12  13
ENDBRANCH   7  12
ENDBRANCH   3   6
ENDBRANCH   1   2
BRANCH   1  25
ATOM     25  C   UNL A   1      30.776  31.668  25.553  1.00  0.00     0.023 C 
BRANCH  25  26
ATOM     26  C   UNL A   1      31.427  31.699  26.940  1.00  0.00     0.023 C 
BRANCH  26  27
ATOM     27  C   UNL A   1      32.680  32.561  27.046  1.00  0.00     0.116 C 
BRANCH  27  28
ATOM     28  N   UNL A   1      32.403  33.928  27.460  1.00  0.00    -0.352 N 
ATOM     29  C   UNL A   1      33.016  34.667  28.446  1.00  0.00     0.251 C 
ATOM     30  H   UNL A   1      31.683  34.385  26.969  1.00  0.00     0.163 HD
ATOM     31  O   UNL A   1      32.598  35.774  28.744  1.00  0.00    -0.269 OA
BRANCH  29  32
ATOM     32  C   UNL A   1      34.164  34.083  29.173  1.00  0.00     0.039 A 
ATOM     33  C   UNL A   1      33.912  33.254  30.268  1.00  0.00     0.014 A 
ATOM     34  C   UNL A   1      35.475  34.332  28.760  1.00  0.00     0.014 A 
ATOM     35  C   UNL A   1      34.975  32.617  30.910  1.00  0.00     0.010 A 
ATOM     36  C   UNL A   1      36.528  33.646  29.358  1.00  0.00     0.010 A 
ATOM     37  C   UNL A   1      36.286  32.779  30.436  1.00  0.00    -0.014 A 
BRANCH  37  38
ATOM     38  C   UNL A   1      37.421  32.045  31.050  1.00  0.00     0.031 A 
ATOM     39  C   UNL A   1      37.895  32.405  32.429  1.00  0.00     0.074 A 
ATOM     40  C   UNL A   1      38.066  31.103  30.336  1.00  0.00     0.049 A 
ATOM     41  N   UNL A   1      38.914  31.936  33.104  1.00  0.00    -0.248 NA
ATOM     42  C   UNL A   1      37.142  33.454  33.134  1.00  0.00     0.031 C 
ATOM     43  C   UNL A   1      37.731  30.699  28.968  1.00  0.00     0.029 A 
ATOM     44  N   UNL A   1      39.148  30.320  30.656  1.00  0.00    -0.354 N 
ATOM     45  C   UNL A   1      38.932  32.640  34.299  1.00  0.00     0.074 A 
ATOM     46  C   UNL A   1      37.853  33.602  34.242  1.00  0.00     0.031 C 
ATOM     47  C   UNL A   1      38.578  29.735  28.574  1.00  0.00     0.029 A 
ATOM     48  C   UNL A   1      39.537  29.476  29.644  1.00  0.00     0.049 A 
ATOM     49  H   UNL A   1      39.603  30.361  31.528  1.00  0.00     0.167 HD
ATOM     50  C   UNL A   1      39.761  32.482  35.359  1.00  0.00     0.037 A 
ATOM     51  C   UNL A   1      40.557  28.599  29.585  1.00  0.00     0.037 A 
ATOM     52  C   UNL A   1      40.811  31.501  35.426  1.00  0.00     0.049 A 
ATOM     53  C   UNL A   1      41.458  28.440  30.781  1.00  0.00     0.074 A 
ATOM     54  C   UNL A   1      41.662  31.217  36.481  1.00  0.00     0.029 A 
ATOM     55  N   UNL A   1      41.156  30.642  34.393  1.00  0.00    -0.354 N 
ATOM     56  N   UNL A   1      41.418  29.059  31.936  1.00  0.00    -0.248 NA
ATOM     57  C   UNL A   1      42.541  27.453  30.668  1.00  0.00     0.031 C 
ATOM     58  C   UNL A   1      42.547  30.216  36.071  1.00  0.00     0.029 A 
ATOM     59  C   UNL A   1      42.219  29.841  34.779  1.00  0.00     0.049 A 
ATOM     60  H   UNL A   1      40.712  30.606  33.515  1.00  0.00     0.167 HD
ATOM     61  C   UNL A   1      42.446  28.518  32.694  1.00  0.00     0.074 A 
ATOM     62  C   UNL A   1      43.084  27.508  31.876  1.00  0.00     0.031 C 
ATOM     63  C   UNL A   1      42.829  28.829  33.957  1.00  0.00     0.037 A 
BRANCH  50  64
ATOM     64  C   UNL A   1      39.561  33.382  36.542  1.00  0.00     0.064 A 
ATOM     65  C   UNL A   1      38.735  33.014  37.615  1.00  0.00     0.173 A 
ATOM     66  C   UNL A   1      40.246  34.604  36.630  1.00  0.00     0.173 A 
ATOM     67  F   UNL A   1      38.050  31.861  37.574  1.00  0.00    -0.203 F 
ATOM     68  C   UNL A   1      38.587  33.844  38.722  1.00  0.00     0.198 A 
ATOM     69  C   UNL A   1      40.117  35.419  37.752  1.00  0.00     0.198 A 
ATOM     70  F   UNL A   1      41.051  35.002  35.634  1.00  0.00    -0.203 F 
ATOM     71  F   UNL A   1      37.761  33.489  39.717  1.00  0.00    -0.200 F 
ATOM     72  C   UNL A   1      39.284  35.041  38.794  1.00  0.00     0.200 A 
ATOM     73  F   UNL A   1      40.801  36.569  37.826  1.00  0.00    -0.200 F 
ATOM     74  F   UNL A   1      39.149  35.833  39.867  1.00  0.00    -0.200 F 
ENDBRANCH  50  64
BRANCH  51  75
ATOM     75  C   UNL A   1      40.773  27.785  28.361  1.00  0.00     0.064 A 
ATOM     76  C   UNL A   1      40.196  26.513  28.232  1.00  0.00     0.173 A 
ATOM     77  C   UNL A   1      41.576  28.246  27.308  1.00  0.00     0.173 A 
ATOM     78  F   UNL A   1      39.438  26.018  29.221  1.00  0.00    -0.203 F 
ATOM     79  C   UNL A   1      40.437  25.724  27.109  1.00  0.00     0.198 A 
ATOM     80  C   UNL A   1      41.792  27.468  26.173  1.00  0.00     0.198 A 
ATOM     81  F   UNL A   1      42.146  29.458  27.379  1.00  0.00    -0.203 F 
ATOM     82  F   UNL A   1      39.918  24.490  27.037  1.00  0.00    -0.200 F 
ATOM     83  C   UNL A   1      41.232  26.203  26.079  1.00  0.00     0.200 A 
ATOM     84  F   UNL A   1      42.549  27.940  25.173  1.00  0.00    -0.200 F 
ATOM     85  F   UNL A   1      41.464  25.442  25.000  1.00  0.00    -0.200 F 
ENDBRANCH  51  75
BRANCH  63  86
ATOM     86  C   UNL A   1      43.963  28.042  34.547  1.00  0.00     0.064 A 
ATOM     87  C   UNL A   1      45.292  28.478  34.447  1.00  0.00     0.173 A 
ATOM     88  C   UNL A   1      43.708  26.858  35.256  1.00  0.00     0.173 A 
ATOM     89  F   UNL A   1      45.587  29.595  33.767  1.00  0.00    -0.203 F 
ATOM     90  C   UNL A   1      46.328  27.743  35.017  1.00  0.00     0.198 A 
ATOM     91  C   UNL A   1      44.744  26.143  35.849  1.00  0.00     0.198 A 
ATOM     92  F   UNL A   1      42.452  26.403  35.385  1.00  0.00    -0.203 F 
ATOM     93  F   UNL A   1      47.596  28.152  34.872  1.00  0.00    -0.200 F 
ATOM     94  C   UNL A   1      46.052  26.581  35.723  1.00  0.00     0.200 A 
ATOM     95  F   UNL A   1      44.474  25.027  36.543  1.00  0.00    -0.200 F 
ATOM     96  F   UNL A   1      47.051  25.880  36.278  1.00  0.00    -0.200 F 
ENDBRANCH  63  86
ENDBRANCH  37  38
ENDBRANCH  29  32
ENDBRANCH  27  28
ENDBRANCH  26  27
ENDBRANCH  25  26
ENDBRANCH   1  25
TORSDOF 15
ENDMDL
MODEL 3
REMARK VINA RESULT:     -12.4      0.559      7.435
REMARK SMILES CCc1ccc(C(=O)NCc2ccc(C(=O)NCCCCNC(=O)c3ccc(-c4c5nc(c(-c6c(F)c(F)c(F)c(F)c6F)c6ccc([nH]6)c(-c6c(F)c(F)c(F)c(F)c6F)c6nc(c(-c7c(F)c(F)c(F)c(F)c7F)c7ccc4[nH]7)C=C6)C=C5)cc3)cc2)cc1
REMARK SMILES IDX 18 1 17 2 15 3 16 4 14 6 11 7 12 8 89 9 13 10 88 11 10 12
REMARK SMILES IDX 9 13 7 14 8 15 6 17 3 18 4 19 91 20 5 21 90 22 2 23 1 24
REMARK SMILES IDX 19 25 20 26 21 27 22 28 23 29 24 31 25 32 26 33 87 34 27 35
REMARK SMILES IDX 86 36 28 37 29 38 30 39 80 40 31 41 85 42 79 43 81 44 32 45
REMARK SMILES IDX 84 46 78 47 77 48 33 50 65 51 45 52 64 53 46 54 49 55 63 56
REMARK SMILES IDX 82 57 47 58 48 59 62 61 83 62 50 63 34 64 35 65 43 66 36 67
REMARK SMILES IDX 37 68 41 69 44 70 38 71 39 72 42 73 40 74 66 75 67 76 75 77
REMARK SMILES IDX 68 78 69 79 73 80 76 81 70 82 71 83 74 84 72 85 51 86 52 87
REMARK SMILES IDX 60 88 53 89 54 90 58 91 61 92 55 93 56 94 59 95 57 96
REMARK H PARENT 17 5 9 16 22 30 81 49 49 60
REMARK Flexibility Score: inf
ROOT
ATOM      1  C   UNL A   1      31.699  30.198  25.104  1.00  0.00     0.116 C 
ENDROOT
BRANCH   1   2
ATOM      2  N   UNL A   1      30.624  30.395  24.150  1.00  0.00    -0.352 N 
ATOM      3  C   UNL A   1      29.901  29.512  23.389  1.00  0.00     0.251 C 
ATOM      4  O   UNL A   1      28.986  29.965  22.702  1.00  0.00    -0.269 OA
ATOM      5  H   UNL A   1      30.365  31.337  24.028  1.00  0.00     0.163 HD
BRANCH   3   6
ATOM      6  C   UNL A   1      30.142  28.042  23.394  1.00  0.00     0.039 A 
ATOM      7  C   UNL A   1      30.440  25.225  23.465  1.00  0.00    -0.029 A 
ATOM      8  C   UNL A   1      29.304  25.837  24.009  1.00  0.00     0.006 A 
ATOM      9  C   UNL A   1      31.407  26.042  22.862  1.00  0.00     0.006 A 
ATOM     10  C   UNL A   1      29.157  27.229  23.969  1.00  0.00     0.014 A 
ATOM     11  C   UNL A   1      31.250  27.430  22.809  1.00  0.00     0.014 A 
BRANCH   7  12
ATOM     12  C   UNL A   1      30.600  23.723  23.509  1.00  0.00     0.152 C 
BRANCH  12  13
ATOM     13  N   UNL A   1      30.694  23.253  24.873  1.00  0.00    -0.348 N 
ATOM     14  C   UNL A   1      31.271  23.709  26.024  1.00  0.00     0.251 C 
ATOM     15  O   UNL A   1      31.116  22.996  27.019  1.00  0.00    -0.269 OA
ATOM     16  H   UNL A   1      30.229  22.395  25.004  1.00  0.00     0.164 HD
BRANCH  14  17
ATOM     17  C   UNL A   1      32.055  24.974  26.172  1.00  0.00     0.039 A 
ATOM     18  C   UNL A   1      33.728  27.272  26.261  1.00  0.00    -0.048 A 
ATOM     19  C   UNL A   1      34.183  26.087  25.680  1.00  0.00     0.004 A 
ATOM     20  C   UNL A   1      32.427  27.304  26.774  1.00  0.00     0.004 A 
ATOM     21  C   UNL A   1      33.358  24.957  25.638  1.00  0.00     0.014 A 
ATOM     22  C   UNL A   1      31.600  26.172  26.725  1.00  0.00     0.014 A 
BRANCH  18  23
ATOM     23  C   UNL A   1      34.611  28.494  26.300  1.00  0.00     0.032 C 
ATOM     24  C   UNL A   1      34.513  29.256  27.615  1.00  0.00     0.009 C 
ENDBRANCH  18  23
ENDBRANCH  14  17
ENDBRANCH  12  13
ENDBRANCH   7  12
ENDBRANCH   3   6
ENDBRANCH   1   2
BRANCH   1  25
ATOM     25  C   UNL A   1      31.334  30.788  26.468  1.00  0.00     0.023 C 
BRANCH  25  26
ATOM     26  C   UNL A   1      31.361  32.318  26.525  1.00  0.00     0.023 C 
BRANCH  26  27
ATOM     27  C   UNL A   1      32.527  32.915  27.306  1.00  0.00     0.116 C 
BRANCH  27  28
ATOM     28  N   UNL A   1      32.317  34.306  27.677  1.00  0.00    -0.352 N 
ATOM     29  C   UNL A   1      32.993  35.056  28.611  1.00  0.00     0.251 C 
ATOM     30  H   UNL A   1      31.597  34.772  27.195  1.00  0.00     0.163 HD
ATOM     31  O   UNL A   1      32.628  36.189  28.881  1.00  0.00    -0.269 OA
BRANCH  29  32
ATOM     32  C   UNL A   1      34.145  34.456  29.319  1.00  0.00     0.039 A 
ATOM     33  C   UNL A   1      33.907  33.720  30.481  1.00  0.00     0.014 A 
ATOM     34  C   UNL A   1      35.443  34.597  28.823  1.00  0.00     0.014 A 
ATOM     35  C   UNL A   1      34.966  33.065  31.112  1.00  0.00     0.010 A 
ATOM     36  C   UNL A   1      36.487  33.892  29.415  1.00  0.00     0.010 A 
ATOM     37  C   UNL A   1      36.256  33.116  30.562  1.00  0.00    -0.014 A 
BRANCH  37  38
ATOM     38  C   UNL A   1      37.380  32.359  31.168  1.00  0.00     0.031 A 
ATOM     39  C   UNL A   1      37.887  32.725  32.534  1.00  0.00     0.074 A 
ATOM     40  C   UNL A   1      37.987  31.388  30.458  1.00  0.00     0.049 A 
ATOM     41  N   UNL A   1      38.903  32.237  33.199  1.00  0.00    -0.248 NA
ATOM     42  C   UNL A   1      37.175  33.804  33.236  1.00  0.00     0.031 C 
ATOM     43  C   UNL A   1      37.618  30.975  29.102  1.00  0.00     0.029 A 
ATOM     44  N   UNL A   1      39.051  30.580  30.772  1.00  0.00    -0.354 N 
ATOM     45  C   UNL A   1      38.961  32.957  34.384  1.00  0.00     0.074 A 
ATOM     46  C   UNL A   1      37.908  33.948  34.330  1.00  0.00     0.031 C 
ATOM     47  C   UNL A   1      38.431  29.982  28.708  1.00  0.00     0.029 A 
ATOM     48  C   UNL A   1      39.400  29.712  29.767  1.00  0.00     0.049 A 
ATOM     49  H   UNL A   1      39.522  30.621  31.636  1.00  0.00     0.167 HD
ATOM     50  C   UNL A   1      39.802  32.790  35.433  1.00  0.00     0.037 A 
ATOM     51  C   UNL A   1      40.394  28.805  29.704  1.00  0.00     0.037 A 
ATOM     52  C   UNL A   1      40.825  31.781  35.497  1.00  0.00     0.049 A 
ATOM     53  C   UNL A   1      41.309  28.638  30.888  1.00  0.00     0.074 A 
ATOM     54  C   UNL A   1      41.684  31.488  36.542  1.00  0.00     0.029 A 
ATOM     55  N   UNL A   1      41.128  30.898  34.471  1.00  0.00    -0.354 N 
ATOM     56  N   UNL A   1      41.306  29.274  32.033  1.00  0.00    -0.248 NA
ATOM     57  C   UNL A   1      42.362  27.619  30.772  1.00  0.00     0.031 C 
ATOM     58  C   UNL A   1      42.535  30.457  36.133  1.00  0.00     0.029 A 
ATOM     59  C   UNL A   1      42.175  30.072  34.852  1.00  0.00     0.049 A 
ATOM     60  H   UNL A   1      40.669  30.862  33.601  1.00  0.00     0.167 HD
ATOM     61  C   UNL A   1      42.330  28.714  32.783  1.00  0.00     0.074 A 
ATOM     62  C   UNL A   1      42.926  27.676  31.970  1.00  0.00     0.031 C 
ATOM     63  C   UNL A   1      42.743  29.033  34.035  1.00  0.00     0.037 A 
BRANCH  50  64
ATOM     64  C   UNL A   1      39.647  33.713  36.605  1.00  0.00     0.064 A 
ATOM     65  C   UNL A   1      40.267  34.971  36.637  1.00  0.00     0.173 A 
ATOM     66  C   UNL A   1      38.824  33.359  37.686  1.00  0.00     0.173 A 
ATOM     67  F   UNL A   1      41.073  35.351  35.633  1.00  0.00    -0.203 F 
ATOM     68  C   UNL A   1      40.086  35.832  37.716  1.00  0.00     0.198 A 
ATOM     69  C   UNL A   1      38.623  34.234  38.750  1.00  0.00     0.198 A 
ATOM     70  F   UNL A   1      38.205  32.170  37.704  1.00  0.00    -0.203 F 
ATOM     71  F   UNL A   1      40.720  37.012  37.742  1.00  0.00    -0.200 F 
ATOM     72  C   UNL A   1      39.258  35.467  38.766  1.00  0.00     0.200 A 
ATOM     73  F   UNL A   1      37.812  33.886  39.759  1.00  0.00    -0.200 F 
ATOM     74  F   UNL A   1      39.075  36.303  39.798  1.00  0.00    -0.200 F 
ENDBRANCH  50  64
BRANCH  51  75
ATOM     75  C   UNL A   1      40.566  27.968  28.488  1.00  0.00     0.064 A 
ATOM     76  C   UNL A   1      41.319  28.429  27.398  1.00  0.00     0.173 A 
ATOM     77  C   UNL A   1      39.966  26.705  28.378  1.00  0.00     0.173 A 
ATOM     78  F   UNL A   1      41.894  29.639  27.447  1.00  0.00    -0.203 F 
ATOM     79  C   UNL A   1      41.441  27.671  26.236  1.00  0.00     0.198 A 
ATOM     80  C   UNL A   1      40.114  25.936  27.227  1.00  0.00     0.198 A 
ATOM     81  F   UNL A   1      39.240  26.216  29.394  1.00  0.00    -0.203 F 
ATOM     82  F   UNL A   1      42.120  28.160  25.189  1.00  0.00    -0.200 F 
ATOM     83  C   UNL A   1      40.841  26.423  26.152  1.00  0.00     0.200 A 
ATOM     84  F   UNL A   1      39.545  24.725  27.154  1.00  0.00    -0.200 F 
ATOM     85  F   UNL A   1      40.959  25.696  25.033  1.00  0.00    -0.200 F 
ENDBRANCH  51  75
BRANCH  63  86
ATOM     86  C   UNL A   1      43.863  28.222  34.618  1.00  0.00     0.064 A 
ATOM     87  C   UNL A   1      43.627  27.017  35.293  1.00  0.00     0.173 A 
ATOM     88  C   UNL A   1      45.194  28.640  34.460  1.00  0.00     0.173 A 
ATOM     89  F   UNL A   1      42.372  26.584  35.482  1.00  0.00    -0.203 F 
ATOM     90  C   UNL A   1      44.681  26.270  35.811  1.00  0.00     0.198 A 
ATOM     91  C   UNL A   1      46.247  27.875  34.954  1.00  0.00     0.198 A 
ATOM     92  F   UNL A   1      45.474  29.783  33.816  1.00  0.00    -0.203 F 
ATOM     93  F   UNL A   1      44.431  25.144  36.493  1.00  0.00    -0.200 F 
ATOM     94  C   UNL A   1      45.990  26.695  35.634  1.00  0.00     0.200 A 
ATOM     95  F   UNL A   1      47.512  28.281  34.769  1.00  0.00    -0.200 F 
ATOM     96  F   UNL A   1      47.004  25.970  36.127  1.00  0.00    -0.200 F 
ENDBRANCH  63  86
ENDBRANCH  37  38
ENDBRANCH  29  32
ENDBRANCH  27  28
ENDBRANCH  26  27
ENDBRANCH  25  26
ENDBRANCH   1  25
TORSDOF 15
ENDMDL
