MODEL 1
REMARK VINA RESULT:     -13.8      0.000      0.000
REMARK SMILES Cc1ccc([C@@H]2[C@H](C(=O)NCCCCNC(=O)c3ccc(-c4c5nc(c(-c6c(F)c(F)c(F)c(F)c6F)c6ccc([nH]6)c(-c6c(F)c(F)c(F)c(F)c6F)c6nc(c(-c7c(F)c(F)c(F)c(F)c7F)c7ccc4[nH]7)C=C6)C=C5)cc3)c3ccccc3C(=O)N2c2ccccc2)cc1
REMARK SMILES IDX 13 1 12 2 11 3 10 4 8 5 9 6 7 8 6 9 89 10 81 11 87 12 82 13
REMARK SMILES IDX 86 14 88 15 83 16 85 17 84 18 5 19 1 20 2 21 3 22 97 23 4 24
REMARK SMILES IDX 96 25 90 26 91 27 95 28 92 29 94 30 93 31 14 32 15 33 16 34
REMARK SMILES IDX 17 36 18 37 19 38 80 39 20 40 79 41 21 42 22 43 23 44 73 45
REMARK SMILES IDX 24 46 78 47 72 48 74 49 25 50 77 51 71 52 70 53 26 55 58 56
REMARK SMILES IDX 38 57 57 58 39 59 42 60 56 61 75 62 40 63 41 64 55 66 76 67
REMARK SMILES IDX 43 68 27 69 28 70 36 71 29 72 30 73 34 74 37 75 31 76 32 77
REMARK SMILES IDX 35 78 33 79 59 80 60 81 68 82 61 83 62 84 66 85 69 86 63 87
REMARK SMILES IDX 64 88 67 89 65 90 44 91 45 92 53 93 46 94 47 95 51 96 54 97
REMARK SMILES IDX 48 98 49 99 52 100 50 101
REMARK H PARENT 10 7 15 35 74 54 42 65
REMARK Flexibility Score: inf
ROOT
ATOM      1  C   UNL A   1      37.660  23.343  25.018  1.00  0.00     0.023 C 
ENDROOT
BRANCH   1   2
ATOM      2  C   UNL A   1      36.280  23.995  25.118  1.00  0.00     0.023 C 
BRANCH   2   3
ATOM      3  C   UNL A   1      35.520  24.096  23.788  1.00  0.00     0.116 C 
BRANCH   3   4
ATOM      4  N   UNL A   1      34.200  24.680  23.957  1.00  0.00    -0.355 N 
ATOM      5  C   UNL A   1      34.021  25.782  24.765  1.00  0.00     0.230 C 
ATOM      6  O   UNL A   1      34.345  26.896  24.356  1.00  0.00    -0.274 OA
ATOM      7  H   UNL A   1      33.428  24.286  23.489  1.00  0.00     0.163 HD
BRANCH   5   8
ATOM      8  C   UNL A   1      33.336  25.577  26.126  1.00  0.00     0.137 C 
ATOM      9  C   UNL A   1      32.383  26.762  26.494  1.00  0.00     0.138 C 
ATOM     10  N   UNL A   1      31.118  26.611  25.754  1.00  0.00    -0.300 N 
ATOM     11  C   UNL A   1      32.558  24.264  26.266  1.00  0.00    -0.020 A 
ATOM     12  C   UNL A   1      30.364  25.541  26.269  1.00  0.00     0.259 C 
ATOM     13  C   UNL A   1      33.237  23.037  26.286  1.00  0.00     0.005 A 
ATOM     14  C   UNL A   1      31.148  24.262  26.367  1.00  0.00     0.044 A 
ATOM     15  O   UNL A   1      29.163  25.575  26.504  1.00  0.00    -0.269 OA
ATOM     16  C   UNL A   1      32.524  21.837  26.334  1.00  0.00     0.000 A 
ATOM     17  C   UNL A   1      30.443  23.057  26.453  1.00  0.00     0.014 A 
ATOM     18  C   UNL A   1      31.133  21.846  26.415  1.00  0.00     0.001 A 
BRANCH   9  19
ATOM     19  C   UNL A   1      32.984  28.131  26.807  1.00  0.00    -0.024 A 
ATOM     20  C   UNL A   1      34.362  32.034  28.096  1.00  0.00     0.044 C 
ATOM     21  C   UNL A   1      33.910  30.720  27.532  1.00  0.00    -0.051 A 
ATOM     22  C   UNL A   1      34.804  29.663  27.346  1.00  0.00     0.004 A 
ATOM     23  C   UNL A   1      32.562  30.509  27.249  1.00  0.00     0.004 A 
ATOM     24  C   UNL A   1      34.350  28.401  26.933  1.00  0.00     0.006 A 
ATOM     25  C   UNL A   1      32.110  29.235  26.897  1.00  0.00     0.006 A 
ENDBRANCH   9  19
BRANCH  10  26
ATOM     26  C   UNL A   1      30.969  26.870  24.335  1.00  0.00     0.045 A 
ATOM     27  C   UNL A   1      30.976  25.791  23.424  1.00  0.00     0.026 A 
ATOM     28  C   UNL A   1      30.944  28.154  23.777  1.00  0.00     0.026 A 
ATOM     29  C   UNL A   1      31.033  25.985  22.041  1.00  0.00     0.002 A 
ATOM     30  C   UNL A   1      30.956  28.354  22.389  1.00  0.00     0.002 A 
ATOM     31  C   UNL A   1      31.026  27.270  21.521  1.00  0.00     0.000 A 
ENDBRANCH  10  26
ENDBRANCH   5   8
ENDBRANCH   3   4
ENDBRANCH   2   3
ENDBRANCH   1   2
BRANCH   1  32
ATOM     32  C   UNL A   1      38.227  22.900  26.363  1.00  0.00     0.116 C 
BRANCH  32  33
ATOM     33  N   UNL A   1      39.686  22.937  26.454  1.00  0.00    -0.352 N 
ATOM     34  C   UNL A   1      40.521  24.009  26.753  1.00  0.00     0.251 C 
ATOM     35  H   UNL A   1      40.142  22.082  26.280  1.00  0.00     0.163 HD
ATOM     36  O   UNL A   1      41.728  23.877  26.765  1.00  0.00    -0.269 OA
BRANCH  34  37
ATOM     37  C   UNL A   1      39.905  25.288  27.188  1.00  0.00     0.039 A 
ATOM     38  C   UNL A   1      40.197  26.441  26.450  1.00  0.00     0.014 A 
ATOM     39  C   UNL A   1      39.283  25.383  28.428  1.00  0.00     0.014 A 
ATOM     40  C   UNL A   1      40.129  27.681  27.079  1.00  0.00     0.010 A 
ATOM     41  C   UNL A   1      39.321  26.592  29.089  1.00  0.00     0.010 A 
ATOM     42  C   UNL A   1      39.822  27.725  28.439  1.00  0.00    -0.014 A 
BRANCH  42  43
ATOM     43  C   UNL A   1      40.161  28.858  29.292  1.00  0.00     0.031 A 
ATOM     44  C   UNL A   1      39.164  29.901  29.601  1.00  0.00     0.074 A 
ATOM     45  C   UNL A   1      41.371  28.875  29.896  1.00  0.00     0.049 A 
ATOM     46  N   UNL A   1      39.459  31.101  29.975  1.00  0.00    -0.248 NA
ATOM     47  C   UNL A   1      37.731  29.673  29.480  1.00  0.00     0.031 C 
ATOM     48  C   UNL A   1      41.807  29.736  30.993  1.00  0.00     0.029 A 
ATOM     49  N   UNL A   1      42.542  28.208  29.492  1.00  0.00    -0.354 N 
ATOM     50  C   UNL A   1      38.298  31.703  30.406  1.00  0.00     0.074 A 
ATOM     51  C   UNL A   1      37.244  30.793  30.018  1.00  0.00     0.031 C 
ATOM     52  C   UNL A   1      43.149  29.792  30.990  1.00  0.00     0.029 A 
ATOM     53  C   UNL A   1      43.602  29.088  29.803  1.00  0.00     0.049 A 
ATOM     54  H   UNL A   1      42.608  27.316  29.079  1.00  0.00     0.167 HD
ATOM     55  C   UNL A   1      38.376  32.835  31.169  1.00  0.00     0.037 A 
ATOM     56  C   UNL A   1      44.384  29.632  28.826  1.00  0.00     0.037 A 
ATOM     57  C   UNL A   1      39.762  33.275  31.317  1.00  0.00     0.049 A 
ATOM     58  C   UNL A   1      44.360  31.142  28.796  1.00  0.00     0.074 A 
ATOM     59  C   UNL A   1      40.692  33.102  32.329  1.00  0.00     0.029 A 
ATOM     60  N   UNL A   1      40.470  33.719  30.205  1.00  0.00    -0.354 N 
ATOM     61  N   UNL A   1      43.414  31.863  29.328  1.00  0.00    -0.248 NA
ATOM     62  C   UNL A   1      45.376  31.950  28.129  1.00  0.00     0.031 C 
ATOM     63  C   UNL A   1      41.974  33.392  31.804  1.00  0.00     0.029 A 
ATOM     64  C   UNL A   1      41.825  33.758  30.479  1.00  0.00     0.049 A 
ATOM     65  H   UNL A   1      40.064  33.970  29.344  1.00  0.00     0.167 HD
ATOM     66  C   UNL A   1      43.653  33.188  29.069  1.00  0.00     0.074 A 
ATOM     67  C   UNL A   1      44.905  33.192  28.334  1.00  0.00     0.031 C 
ATOM     68  C   UNL A   1      42.791  34.168  29.471  1.00  0.00     0.037 A 
BRANCH  55  69
ATOM     69  C   UNL A   1      37.237  33.339  32.035  1.00  0.00     0.064 A 
ATOM     70  C   UNL A   1      36.162  34.063  31.474  1.00  0.00     0.173 A 
ATOM     71  C   UNL A   1      37.180  33.205  33.434  1.00  0.00     0.173 A 
ATOM     72  F   UNL A   1      35.996  34.162  30.149  1.00  0.00    -0.203 F 
ATOM     73  C   UNL A   1      35.207  34.721  32.255  1.00  0.00     0.198 A 
ATOM     74  C   UNL A   1      36.262  33.909  34.220  1.00  0.00     0.198 A 
ATOM     75  F   UNL A   1      37.973  32.342  34.081  1.00  0.00    -0.203 F 
ATOM     76  F   UNL A   1      34.220  35.408  31.661  1.00  0.00    -0.200 F 
ATOM     77  C   UNL A   1      35.284  34.683  33.631  1.00  0.00     0.200 A 
ATOM     78  F   UNL A   1      36.333  33.831  35.558  1.00  0.00    -0.200 F 
ATOM     79  F   UNL A   1      34.404  35.358  34.382  1.00  0.00    -0.200 F 
ENDBRANCH  55  69
BRANCH  56  80
ATOM     80  C   UNL A   1      44.523  28.762  27.628  1.00  0.00     0.064 A 
ATOM     81  C   UNL A   1      45.316  27.602  27.730  1.00  0.00     0.173 A 
ATOM     82  C   UNL A   1      43.635  28.845  26.549  1.00  0.00     0.173 A 
ATOM     83  F   UNL A   1      46.183  27.470  28.748  1.00  0.00    -0.203 F 
ATOM     84  C   UNL A   1      45.143  26.526  26.863  1.00  0.00     0.198 A 
ATOM     85  C   UNL A   1      43.476  27.770  25.673  1.00  0.00     0.198 A 
ATOM     86  F   UNL A   1      42.838  29.913  26.407  1.00  0.00    -0.203 F 
ATOM     87  F   UNL A   1      45.831  25.392  27.061  1.00  0.00    -0.200 F 
ATOM     88  C   UNL A   1      44.204  26.602  25.850  1.00  0.00     0.200 A 
ATOM     89  F   UNL A   1      42.543  27.827  24.711  1.00  0.00    -0.200 F 
ATOM     90  F   UNL A   1      43.967  25.535  25.073  1.00  0.00    -0.200 F 
ENDBRANCH  56  80
BRANCH  68  91
ATOM     91  C   UNL A   1      42.835  35.613  29.041  1.00  0.00     0.064 A 
ATOM     92  C   UNL A   1      42.146  36.120  27.927  1.00  0.00     0.173 A 
ATOM     93  C   UNL A   1      43.483  36.580  29.847  1.00  0.00     0.173 A 
ATOM     94  F   UNL A   1      41.389  35.328  27.157  1.00  0.00    -0.203 F 
ATOM     95  C   UNL A   1      42.164  37.479  27.602  1.00  0.00     0.198 A 
ATOM     96  C   UNL A   1      43.450  37.943  29.552  1.00  0.00     0.198 A 
ATOM     97  F   UNL A   1      44.147  36.235  30.960  1.00  0.00    -0.203 F 
ATOM     98  F   UNL A   1      41.528  37.905  26.501  1.00  0.00    -0.200 F 
ATOM     99  C   UNL A   1      42.806  38.390  28.418  1.00  0.00     0.200 A 
ATOM    100  F   UNL A   1      44.030  38.819  30.385  1.00  0.00    -0.200 F 
ATOM    101  F   UNL A   1      42.783  39.698  28.125  1.00  0.00    -0.200 F 
ENDBRANCH  68  91
ENDBRANCH  42  43
ENDBRANCH  34  37
ENDBRANCH  32  33
ENDBRANCH   1  32
TORSDOF 13
ENDMDL
MODEL 2
REMARK VINA RESULT:     -13.8      3.632      9.930
REMARK SMILES Cc1ccc([C@@H]2[C@H](C(=O)NCCCCNC(=O)c3ccc(-c4c5nc(c(-c6c(F)c(F)c(F)c(F)c6F)c6ccc([nH]6)c(-c6c(F)c(F)c(F)c(F)c6F)c6nc(c(-c7c(F)c(F)c(F)c(F)c7F)c7ccc4[nH]7)C=C6)C=C5)cc3)c3ccccc3C(=O)N2c2ccccc2)cc1
REMARK SMILES IDX 13 1 12 2 11 3 10 4 8 5 9 6 7 8 6 9 89 10 81 11 87 12 82 13
REMARK SMILES IDX 86 14 88 15 83 16 85 17 84 18 5 19 1 20 2 21 3 22 97 23 4 24
REMARK SMILES IDX 96 25 90 26 91 27 95 28 92 29 94 30 93 31 14 32 15 33 16 34
REMARK SMILES IDX 17 36 18 37 19 38 80 39 20 40 79 41 21 42 22 43 23 44 73 45
REMARK SMILES IDX 24 46 78 47 72 48 74 49 25 50 77 51 71 52 70 53 26 55 58 56
REMARK SMILES IDX 38 57 57 58 39 59 42 60 56 61 75 62 40 63 41 64 55 66 76 67
REMARK SMILES IDX 43 68 27 69 28 70 36 71 29 72 30 73 34 74 37 75 31 76 32 77
REMARK SMILES IDX 35 78 33 79 59 80 60 81 68 82 61 83 62 84 66 85 69 86 63 87
REMARK SMILES IDX 64 88 67 89 65 90 44 91 45 92 53 93 46 94 47 95 51 96 54 97
REMARK SMILES IDX 48 98 49 99 52 100 50 101
REMARK H PARENT 10 7 15 35 74 54 42 65
REMARK Flexibility Score: inf
ROOT
ATOM      1  C   UNL A   1      33.656  29.023  27.629  1.00  0.00     0.023 C 
ENDROOT
BRANCH   1   2
ATOM      2  C   UNL A   1      33.647  27.832  26.670  1.00  0.00     0.023 C 
BRANCH   2   3
ATOM      3  C   UNL A   1      32.493  26.843  26.884  1.00  0.00     0.116 C 
BRANCH   3   4
ATOM      4  N   UNL A   1      32.568  25.710  25.977  1.00  0.00    -0.355 N 
ATOM      5  C   UNL A   1      33.766  25.060  25.768  1.00  0.00     0.230 C 
ATOM      6  O   UNL A   1      34.188  24.274  26.616  1.00  0.00    -0.274 OA
ATOM      7  H   UNL A   1      31.757  25.403  25.510  1.00  0.00     0.163 HD
BRANCH   5   8
ATOM      8  C   UNL A   1      34.486  25.285  24.430  1.00  0.00     0.137 C 
ATOM      9  C   UNL A   1      35.157  23.979  23.891  1.00  0.00     0.138 C 
ATOM     10  N   UNL A   1      34.126  23.125  23.274  1.00  0.00    -0.300 N 
ATOM     11  C   UNL A   1      33.613  25.878  23.319  1.00  0.00    -0.020 A 
ATOM     12  C   UNL A   1      33.686  23.676  22.057  1.00  0.00     0.259 C 
ATOM     13  C   UNL A   1      33.133  27.192  23.420  1.00  0.00     0.005 A 
ATOM     14  C   UNL A   1      33.267  25.115  22.180  1.00  0.00     0.044 A 
ATOM     15  O   UNL A   1      33.525  23.050  21.018  1.00  0.00    -0.269 OA
ATOM     16  C   UNL A   1      32.273  27.707  22.447  1.00  0.00     0.000 A 
ATOM     17  C   UNL A   1      32.436  25.651  21.190  1.00  0.00     0.014 A 
ATOM     18  C   UNL A   1      31.924  26.939  21.337  1.00  0.00     0.001 A 
BRANCH   9  19
ATOM     19  C   UNL A   1      36.356  23.395  24.636  1.00  0.00    -0.024 A 
ATOM     20  C   UNL A   1      39.942  21.605  26.287  1.00  0.00     0.044 C 
ATOM     21  C   UNL A   1      38.641  22.188  25.821  1.00  0.00    -0.051 A 
ATOM     22  C   UNL A   1      38.284  23.503  26.126  1.00  0.00     0.004 A 
ATOM     23  C   UNL A   1      37.794  21.440  25.006  1.00  0.00     0.004 A 
ATOM     24  C   UNL A   1      37.124  24.078  25.584  1.00  0.00     0.006 A 
ATOM     25  C   UNL A   1      36.673  22.037  24.423  1.00  0.00     0.006 A 
ENDBRANCH   9  19
BRANCH  10  26
ATOM     26  C   UNL A   1      33.142  22.368  24.024  1.00  0.00     0.045 A 
ATOM     27  C   UNL A   1      31.846  22.898  24.209  1.00  0.00     0.026 A 
ATOM     28  C   UNL A   1      33.428  21.175  24.699  1.00  0.00     0.026 A 
ATOM     29  C   UNL A   1      30.921  22.314  25.079  1.00  0.00     0.002 A 
ATOM     30  C   UNL A   1      32.487  20.561  25.538  1.00  0.00     0.002 A 
ATOM     31  C   UNL A   1      31.243  21.142  25.747  1.00  0.00     0.000 A 
ENDBRANCH  10  26
ENDBRANCH   5   8
ENDBRANCH   3   4
ENDBRANCH   2   3
ENDBRANCH   1   2
BRANCH   1  32
ATOM     32  C   UNL A   1      34.368  30.252  27.073  1.00  0.00     0.116 C 
BRANCH  32  33
ATOM     33  N   UNL A   1      34.909  31.157  28.086  1.00  0.00    -0.352 N 
ATOM     34  C   UNL A   1      36.030  31.001  28.895  1.00  0.00     0.251 C 
ATOM     35  H   UNL A   1      34.410  31.995  28.213  1.00  0.00     0.163 HD
ATOM     36  O   UNL A   1      36.334  31.845  29.712  1.00  0.00    -0.269 OA
BRANCH  34  37
ATOM     37  C   UNL A   1      36.927  29.843  28.649  1.00  0.00     0.039 A 
ATOM     38  C   UNL A   1      37.112  28.924  29.687  1.00  0.00     0.014 A 
ATOM     39  C   UNL A   1      37.753  29.819  27.530  1.00  0.00     0.014 A 
ATOM     40  C   UNL A   1      38.290  28.184  29.734  1.00  0.00     0.010 A 
ATOM     41  C   UNL A   1      38.968  29.175  27.627  1.00  0.00     0.010 A 
ATOM     42  C   UNL A   1      39.268  28.425  28.768  1.00  0.00    -0.014 A 
BRANCH  42  43
ATOM     43  C   UNL A   1      40.672  28.078  28.959  1.00  0.00     0.031 A 
ATOM     44  C   UNL A   1      41.234  26.842  28.385  1.00  0.00     0.074 A 
ATOM     45  C   UNL A   1      41.482  28.973  29.571  1.00  0.00     0.049 A 
ATOM     46  N   UNL A   1      42.297  26.253  28.823  1.00  0.00    -0.248 NA
ATOM     47  C   UNL A   1      40.611  26.144  27.269  1.00  0.00     0.031 C 
ATOM     48  C   UNL A   1      42.942  28.970  29.612  1.00  0.00     0.029 A 
ATOM     49  N   UNL A   1      41.112  29.999  30.459  1.00  0.00    -0.354 N 
ATOM     50  C   UNL A   1      42.653  25.291  27.904  1.00  0.00     0.074 A 
ATOM     51  C   UNL A   1      41.536  25.223  26.990  1.00  0.00     0.031 C 
ATOM     52  C   UNL A   1      43.346  29.699  30.664  1.00  0.00     0.029 A 
ATOM     53  C   UNL A   1      42.155  30.066  31.410  1.00  0.00     0.049 A 
ATOM     54  H   UNL A   1      40.298  30.553  30.426  1.00  0.00     0.167 HD
ATOM     55  C   UNL A   1      43.914  24.765  27.943  1.00  0.00     0.037 A 
ATOM     56  C   UNL A   1      41.938  29.772  32.725  1.00  0.00     0.037 A 
ATOM     57  C   UNL A   1      44.669  25.288  29.081  1.00  0.00     0.049 A 
ATOM     58  C   UNL A   1      42.781  28.631  33.242  1.00  0.00     0.074 A 
ATOM     59  C   UNL A   1      45.603  26.305  29.191  1.00  0.00     0.029 A 
ATOM     60  N   UNL A   1      44.269  24.979  30.377  1.00  0.00    -0.354 N 
ATOM     61  N   UNL A   1      43.343  27.739  32.476  1.00  0.00    -0.248 NA
ATOM     62  C   UNL A   1      43.020  28.384  34.661  1.00  0.00     0.031 C 
ATOM     63  C   UNL A   1      45.725  26.644  30.560  1.00  0.00     0.029 A 
ATOM     64  C   UNL A   1      44.879  25.824  31.285  1.00  0.00     0.049 A 
ATOM     65  H   UNL A   1      43.641  24.259  30.614  1.00  0.00     0.167 HD
ATOM     66  C   UNL A   1      43.977  26.806  33.254  1.00  0.00     0.074 A 
ATOM     67  C   UNL A   1      43.765  27.266  34.614  1.00  0.00     0.031 C 
ATOM     68  C   UNL A   1      44.612  25.725  32.712  1.00  0.00     0.037 A 
BRANCH  55  69
ATOM     69  C   UNL A   1      44.553  24.040  26.774  1.00  0.00     0.064 A 
ATOM     70  C   UNL A   1      44.276  22.677  26.524  1.00  0.00     0.173 A 
ATOM     71  C   UNL A   1      45.501  24.609  25.904  1.00  0.00     0.173 A 
ATOM     72  F   UNL A   1      43.301  22.028  27.172  1.00  0.00    -0.203 F 
ATOM     73  C   UNL A   1      44.995  21.919  25.594  1.00  0.00     0.198 A 
ATOM     74  C   UNL A   1      46.261  23.842  25.015  1.00  0.00     0.198 A 
ATOM     75  F   UNL A   1      45.680  25.934  25.845  1.00  0.00    -0.203 F 
ATOM     76  F   UNL A   1      44.697  20.624  25.417  1.00  0.00    -0.200 F 
ATOM     77  C   UNL A   1      46.021  22.491  24.872  1.00  0.00     0.200 A 
ATOM     78  F   UNL A   1      47.233  24.425  24.296  1.00  0.00    -0.200 F 
ATOM     79  F   UNL A   1      46.749  21.756  24.022  1.00  0.00    -0.200 F 
ENDBRANCH  55  69
BRANCH  56  80
ATOM     80  C   UNL A   1      40.555  30.077  33.178  1.00  0.00     0.064 A 
ATOM     81  C   UNL A   1      40.186  31.427  33.342  1.00  0.00     0.173 A 
ATOM     82  C   UNL A   1      39.527  29.131  33.097  1.00  0.00     0.173 A 
ATOM     83  F   UNL A   1      41.133  32.376  33.424  1.00  0.00    -0.203 F 
ATOM     84  C   UNL A   1      38.851  31.824  33.307  1.00  0.00     0.198 A 
ATOM     85  C   UNL A   1      38.189  29.533  33.077  1.00  0.00     0.198 A 
ATOM     86  F   UNL A   1      39.810  27.834  32.919  1.00  0.00    -0.203 F 
ATOM     87  F   UNL A   1      38.542  33.128  33.348  1.00  0.00    -0.200 F 
ATOM     88  C   UNL A   1      37.855  30.878  33.148  1.00  0.00     0.200 A 
ATOM     89  F   UNL A   1      37.223  28.621  32.889  1.00  0.00    -0.200 F 
ATOM     90  F   UNL A   1      36.577  31.263  33.018  1.00  0.00    -0.200 F 
ENDBRANCH  56  80
BRANCH  68  91
ATOM     91  C   UNL A   1      45.130  24.531  33.475  1.00  0.00     0.064 A 
ATOM     92  C   UNL A   1      44.380  23.369  33.712  1.00  0.00     0.173 A 
ATOM     93  C   UNL A   1      46.487  24.473  33.877  1.00  0.00     0.173 A 
ATOM     94  F   UNL A   1      43.123  23.247  33.266  1.00  0.00    -0.203 F 
ATOM     95  C   UNL A   1      44.921  22.260  34.369  1.00  0.00     0.198 A 
ATOM     96  C   UNL A   1      47.040  23.343  34.480  1.00  0.00     0.198 A 
ATOM     97  F   UNL A   1      47.323  25.502  33.676  1.00  0.00    -0.203 F 
ATOM     98  F   UNL A   1      44.149  21.192  34.613  1.00  0.00    -0.200 F 
ATOM     99  C   UNL A   1      46.252  22.243  34.743  1.00  0.00     0.200 A 
ATOM    100  F   UNL A   1      48.345  23.323  34.785  1.00  0.00    -0.200 F 
ATOM    101  F   UNL A   1      46.777  21.161  35.333  1.00  0.00    -0.200 F 
ENDBRANCH  68  91
ENDBRANCH  42  43
ENDBRANCH  34  37
ENDBRANCH  32  33
ENDBRANCH   1  32
TORSDOF 13
ENDMDL
MODEL 3
REMARK VINA RESULT:     -13.5      3.393      9.670
REMARK SMILES Cc1ccc([C@@H]2[C@H](C(=O)NCCCCNC(=O)c3ccc(-c4c5nc(c(-c6c(F)c(F)c(F)c(F)c6F)c6ccc([nH]6)c(-c6c(F)c(F)c(F)c(F)c6F)c6nc(c(-c7c(F)c(F)c(F)c(F)c7F)c7ccc4[nH]7)C=C6)C=C5)cc3)c3ccccc3C(=O)N2c2ccccc2)cc1
REMARK SMILES IDX 13 1 12 2 11 3 10 4 8 5 9 6 7 8 6 9 89 10 81 11 87 12 82 13
REMARK SMILES IDX 86 14 88 15 83 16 85 17 84 18 5 19 1 20 2 21 3 22 97 23 4 24
REMARK SMILES IDX 96 25 90 26 91 27 95 28 92 29 94 30 93 31 14 32 15 33 16 34
REMARK SMILES IDX 17 36 18 37 19 38 80 39 20 40 79 41 21 42 22 43 23 44 73 45
REMARK SMILES IDX 24 46 78 47 72 48 74 49 25 50 77 51 71 52 70 53 26 55 58 56
REMARK SMILES IDX 38 57 57 58 39 59 42 60 56 61 75 62 40 63 41 64 55 66 76 67
REMARK SMILES IDX 43 68 27 69 28 70 36 71 29 72 30 73 34 74 37 75 31 76 32 77
REMARK SMILES IDX 35 78 33 79 59 80 60 81 68 82 61 83 62 84 66 85 69 86 63 87
REMARK SMILES IDX 64 88 67 89 65 90 44 91 45 92 53 93 46 94 47 95 51 96 54 97
REMARK SMILES IDX 48 98 49 99 52 100 50 101
REMARK H PARENT 10 7 15 35 74 54 42 65
REMARK Flexibility Score: inf
ROOT
ATOM      1  C   UNL A   1      32.517  30.490  27.161  1.00  0.00     0.023 C 
ENDROOT
BRANCH   1   2
ATOM      2  C   UNL A   1      32.229  28.998  27.335  1.00  0.00     0.023 C 
BRANCH   2   3
ATOM      3  C   UNL A   1      33.416  28.075  27.030  1.00  0.00     0.116 C 
BRANCH   3   4
ATOM      4  N   UNL A   1      32.996  26.835  26.398  1.00  0.00    -0.355 N 
ATOM      5  C   UNL A   1      33.924  26.001  25.811  1.00  0.00     0.230 C 
ATOM      6  O   UNL A   1      34.626  25.279  26.518  1.00  0.00    -0.274 OA
ATOM      7  H   UNL A   1      32.043  26.589  26.389  1.00  0.00     0.163 HD
BRANCH   5   8
ATOM      8  C   UNL A   1      33.980  25.948  24.276  1.00  0.00     0.137 C 
ATOM      9  C   UNL A   1      33.607  24.535  23.719  1.00  0.00     0.138 C 
ATOM     10  N   UNL A   1      32.141  24.378  23.742  1.00  0.00    -0.300 N 
ATOM     11  C   UNL A   1      33.120  26.997  23.562  1.00  0.00    -0.020 A 
ATOM     12  C   UNL A   1      31.539  25.181  22.756  1.00  0.00     0.259 C 
ATOM     13  C   UNL A   1      33.447  28.358  23.647  1.00  0.00     0.005 A 
ATOM     14  C   UNL A   1      31.982  26.616  22.815  1.00  0.00     0.044 A 
ATOM     15  O   UNL A   1      30.650  24.816  21.997  1.00  0.00    -0.269 OA
ATOM     16  C   UNL A   1      32.620  29.320  23.064  1.00  0.00     0.000 A 
ATOM     17  C   UNL A   1      31.179  27.584  22.201  1.00  0.00     0.014 A 
ATOM     18  C   UNL A   1      31.489  28.935  22.345  1.00  0.00     0.001 A 
BRANCH   9  19
ATOM     19  C   UNL A   1      34.554  23.362  23.966  1.00  0.00    -0.024 A 
ATOM     20  C   UNL A   1      37.491  20.345  24.998  1.00  0.00     0.044 C 
ATOM     21  C   UNL A   1      36.471  21.338  24.525  1.00  0.00    -0.051 A 
ATOM     22  C   UNL A   1      35.103  21.081  24.632  1.00  0.00     0.004 A 
ATOM     23  C   UNL A   1      36.879  22.577  24.034  1.00  0.00     0.004 A 
ATOM     24  C   UNL A   1      34.158  22.064  24.300  1.00  0.00     0.006 A 
ATOM     25  C   UNL A   1      35.935  23.570  23.763  1.00  0.00     0.006 A 
ENDBRANCH   9  19
BRANCH  10  26
ATOM     26  C   UNL A   1      31.366  24.160  24.948  1.00  0.00     0.045 A 
ATOM     27  C   UNL A   1      31.447  22.918  25.614  1.00  0.00     0.026 A 
ATOM     28  C   UNL A   1      30.424  25.070  25.442  1.00  0.00     0.026 A 
ATOM     29  C   UNL A   1      30.585  22.577  26.660  1.00  0.00     0.002 A 
ATOM     30  C   UNL A   1      29.587  24.750  26.521  1.00  0.00     0.002 A 
ATOM     31  C   UNL A   1      29.651  23.495  27.114  1.00  0.00     0.000 A 
ENDBRANCH  10  26
ENDBRANCH   5   8
ENDBRANCH   3   4
ENDBRANCH   2   3
ENDBRANCH   1   2
BRANCH   1  32
ATOM     32  C   UNL A   1      34.005  30.824  27.101  1.00  0.00     0.116 C 
BRANCH  32  33
ATOM     33  N   UNL A   1      34.497  31.627  28.219  1.00  0.00    -0.352 N 
ATOM     34  C   UNL A   1      35.483  31.324  29.152  1.00  0.00     0.251 C 
ATOM     35  H   UNL A   1      34.070  32.508  28.327  1.00  0.00     0.163 HD
ATOM     36  O   UNL A   1      35.761  32.100  30.043  1.00  0.00    -0.269 OA
BRANCH  34  37
ATOM     37  C   UNL A   1      36.286  30.089  28.960  1.00  0.00     0.039 A 
ATOM     38  C   UNL A   1      36.641  29.354  30.096  1.00  0.00     0.014 A 
ATOM     39  C   UNL A   1      36.883  29.822  27.733  1.00  0.00     0.014 A 
ATOM     40  C   UNL A   1      37.787  28.564  30.060  1.00  0.00     0.010 A 
ATOM     41  C   UNL A   1      38.077  29.134  27.721  1.00  0.00     0.010 A 
ATOM     42  C   UNL A   1      38.569  28.575  28.905  1.00  0.00    -0.014 A 
BRANCH  42  43
ATOM     43  C   UNL A   1      39.974  28.183  28.896  1.00  0.00     0.031 A 
ATOM     44  C   UNL A   1      40.383  26.832  28.468  1.00  0.00     0.074 A 
ATOM     45  C   UNL A   1      40.909  29.121  29.171  1.00  0.00     0.049 A 
ATOM     46  N   UNL A   1      41.495  26.267  28.805  1.00  0.00    -0.248 NA
ATOM     47  C   UNL A   1      39.539  25.987  27.635  1.00  0.00     0.031 C 
ATOM     48  C   UNL A   1      42.349  29.036  28.943  1.00  0.00     0.029 A 
ATOM     49  N   UNL A   1      40.743  30.309  29.907  1.00  0.00    -0.354 N 
ATOM     50  C   UNL A   1      41.642  25.138  28.032  1.00  0.00     0.074 A 
ATOM     51  C   UNL A   1      40.369  24.976  27.367  1.00  0.00     0.031 C 
ATOM     52  C   UNL A   1      42.966  29.915  29.750  1.00  0.00     0.029 A 
ATOM     53  C   UNL A   1      41.950  30.480  30.620  1.00  0.00     0.049 A 
ATOM     54  H   UNL A   1      39.952  30.897  29.921  1.00  0.00     0.167 HD
ATOM     55  C   UNL A   1      42.873  24.551  27.936  1.00  0.00     0.037 A 
ATOM     56  C   UNL A   1      41.981  30.439  31.984  1.00  0.00     0.037 A 
ATOM     57  C   UNL A   1      43.845  25.221  28.798  1.00  0.00     0.049 A 
ATOM     58  C   UNL A   1      42.878  29.358  32.540  1.00  0.00     0.074 A 
ATOM     59  C   UNL A   1      44.810  26.182  28.545  1.00  0.00     0.029 A 
ATOM     60  N   UNL A   1      43.693  25.172  30.180  1.00  0.00    -0.354 N 
ATOM     61  N   UNL A   1      43.259  28.312  31.863  1.00  0.00    -0.248 NA
ATOM     62  C   UNL A   1      43.378  29.353  33.912  1.00  0.00     0.031 C 
ATOM     63  C   UNL A   1      45.201  26.751  29.780  1.00  0.00     0.029 A 
ATOM     64  C   UNL A   1      44.488  26.126  30.788  1.00  0.00     0.049 A 
ATOM     65  H   UNL A   1      43.104  24.545  30.659  1.00  0.00     0.167 HD
ATOM     66  C   UNL A   1      44.006  27.495  32.672  1.00  0.00     0.074 A 
ATOM     67  C   UNL A   1      44.070  28.202  33.938  1.00  0.00     0.031 C 
ATOM     68  C   UNL A   1      44.497  26.298  32.232  1.00  0.00     0.037 A 
BRANCH  55  69
ATOM     69  C   UNL A   1      43.257  23.592  26.825  1.00  0.00     0.064 A 
ATOM     70  C   UNL A   1      42.899  22.226  26.886  1.00  0.00     0.173 A 
ATOM     71  C   UNL A   1      44.038  23.938  25.707  1.00  0.00     0.173 A 
ATOM     72  F   UNL A   1      42.047  21.764  27.810  1.00  0.00    -0.203 F 
ATOM     73  C   UNL A   1      43.406  21.273  25.998  1.00  0.00     0.198 A 
ATOM     74  C   UNL A   1      44.593  22.980  24.852  1.00  0.00     0.198 A 
ATOM     75  F   UNL A   1      44.240  25.218  25.372  1.00  0.00    -0.203 F 
ATOM     76  F   UNL A   1      43.042  19.989  26.121  1.00  0.00    -0.200 F 
ATOM     77  C   UNL A   1      44.292  21.643  25.008  1.00  0.00     0.200 A 
ATOM     78  F   UNL A   1      45.426  23.365  23.873  1.00  0.00    -0.200 F 
ATOM     79  F   UNL A   1      44.823  20.725  24.191  1.00  0.00    -0.200 F 
ENDBRANCH  55  69
BRANCH  56  80
ATOM     80  C   UNL A   1      40.720  30.903  32.618  1.00  0.00     0.064 A 
ATOM     81  C   UNL A   1      40.405  32.275  32.560  1.00  0.00     0.173 A 
ATOM     82  C   UNL A   1      39.685  30.016  32.938  1.00  0.00     0.173 A 
ATOM     83  F   UNL A   1      41.361  33.169  32.256  1.00  0.00    -0.203 F 
ATOM     84  C   UNL A   1      39.095  32.726  32.698  1.00  0.00     0.198 A 
ATOM     85  C   UNL A   1      38.375  30.475  33.090  1.00  0.00     0.198 A 
ATOM     86  F   UNL A   1      39.913  28.697  32.989  1.00  0.00    -0.203 F 
ATOM     87  F   UNL A   1      38.814  34.025  32.520  1.00  0.00    -0.200 F 
ATOM     88  C   UNL A   1      38.076  31.821  32.937  1.00  0.00     0.200 A 
ATOM     89  F   UNL A   1      37.381  29.596  33.289  1.00  0.00    -0.200 F 
ATOM     90  F   UNL A   1      36.803  32.239  32.976  1.00  0.00    -0.200 F 
ENDBRANCH  56  80
BRANCH  68  91
ATOM     91  C   UNL A   1      45.120  25.230  33.096  1.00  0.00     0.064 A 
ATOM     92  C   UNL A   1      46.502  24.991  33.169  1.00  0.00     0.173 A 
ATOM     93  C   UNL A   1      44.326  24.489  34.004  1.00  0.00     0.173 A 
ATOM     94  F   UNL A   1      47.374  25.715  32.455  1.00  0.00    -0.203 F 
ATOM     95  C   UNL A   1      47.042  24.032  34.031  1.00  0.00     0.198 A 
ATOM     96  C   UNL A   1      44.873  23.575  34.904  1.00  0.00     0.198 A 
ATOM     97  F   UNL A   1      42.995  24.648  34.063  1.00  0.00    -0.203 F 
ATOM     98  F   UNL A   1      48.365  23.810  34.029  1.00  0.00    -0.200 F 
ATOM     99  C   UNL A   1      46.231  23.333  34.904  1.00  0.00     0.200 A 
ATOM    100  F   UNL A   1      44.079  22.947  35.782  1.00  0.00    -0.200 F 
ATOM    101  F   UNL A   1      46.759  22.447  35.759  1.00  0.00    -0.200 F 
ENDBRANCH  68  91
ENDBRANCH  42  43
ENDBRANCH  34  37
ENDBRANCH  32  33
ENDBRANCH   1  32
TORSDOF 13
ENDMDL
