MODEL 1
REMARK VINA RESULT:     -14.1      0.000      0.000
REMARK SMILES Cc1ccc(NC(=O)[C@H]2CC(Cl)=CC[C@@H]2C(=O)NCCCCNC(=O)c2ccc(-c3c4nc(c(-c5c(F)c(F)c(F)c(F)c5F)c5ccc([nH]5)c(-c5c(F)c(F)c(F)c(F)c5F)c5nc(c(-c6c(F)c(F)c(F)c(F)c6F)c6ccc3[nH]6)C=C5)C=C4)cc2)cc1[N+](=O)[O-]
REMARK SMILES IDX 20 1 19 2 18 3 16 4 17 5 15 7 9 8 10 9 11 10 14 11 12 12
REMARK SMILES IDX 13 13 7 14 6 15 8 17 5 18 1 19 2 20 3 21 90 22 4 23 89 24
REMARK SMILES IDX 91 25 92 26 93 27 21 28 22 29 23 30 24 31 25 33 26 34 27 35
REMARK SMILES IDX 88 36 28 37 87 38 29 39 30 40 31 41 81 42 32 43 86 44 80 45
REMARK SMILES IDX 82 46 33 47 85 48 79 49 78 50 34 52 66 53 46 54 65 55 47 56
REMARK SMILES IDX 50 57 64 58 83 59 48 60 49 61 63 63 84 64 51 65 35 66 36 67
REMARK SMILES IDX 44 68 37 69 38 70 42 71 45 72 39 73 40 74 43 75 41 76 67 77
REMARK SMILES IDX 68 78 76 79 69 80 70 81 74 82 77 83 71 84 72 85 75 86 73 87
REMARK SMILES IDX 52 88 53 89 61 90 54 91 55 92 59 93 62 94 56 95 57 96 60 97
REMARK SMILES IDX 58 98
REMARK H PARENT 18 6 6 16 23 32 82 51 50 62
REMARK Flexibility Score: inf
ROOT
ATOM      1  C   UNL A   1      32.041  29.959  27.012  1.00  0.00     0.023 C 
ENDROOT
BRANCH   1   2
ATOM      2  C   UNL A   1      32.343  28.559  27.562  1.00  0.00     0.116 C 
BRANCH   2   3
ATOM      3  N   UNL A   1      31.365  27.547  27.196  1.00  0.00    -0.356 N 
ATOM      4  C   UNL A   1      31.472  26.324  26.616  1.00  0.00     0.224 C 
ATOM      5  O   UNL A   1      30.438  25.653  26.553  1.00  0.00    -0.275 OA
ATOM      6  H   UNL A   1      30.438  27.800  27.414  1.00  0.00     0.163 HD
BRANCH   4   7
ATOM      7  C   UNL A   1      32.785  25.803  26.034  1.00  0.00     0.095 C 
ATOM      8  C   UNL A   1      32.846  26.113  24.519  1.00  0.00     0.097 C 
ATOM      9  C   UNL A   1      34.061  25.426  23.863  1.00  0.00     0.062 C 
ATOM     10  C   UNL A   1      34.070  23.960  24.140  1.00  0.00     0.015 C 
ATOM     11  C   UNL A   1      32.830  24.265  26.288  1.00  0.00     0.043 C 
ATOM     12  Cl  UNL A   1      34.796  22.953  22.945  1.00  0.00    -0.089 Cl
ATOM     13  C   UNL A   1      33.511  23.435  25.235  1.00  0.00    -0.010 C 
BRANCH   8  14
ATOM     14  C   UNL A   1      32.972  27.601  24.236  1.00  0.00     0.228 C 
ATOM     15  N   UNL A   1      31.952  28.386  23.790  1.00  0.00    -0.326 N 
ATOM     16  H   UNL A   1      32.223  29.320  23.632  1.00  0.00     0.169 HD
ATOM     17  O   UNL A   1      34.029  28.189  24.502  1.00  0.00    -0.274 OA
BRANCH  15  18
ATOM     18  C   UNL A   1      30.597  28.152  23.506  1.00  0.00     0.048 A 
ATOM     19  C   UNL A   1      26.271  27.994  23.540  1.00  0.00     0.052 C 
ATOM     20  C   UNL A   1      27.763  28.062  23.395  1.00  0.00     0.027 A 
ATOM     21  C   UNL A   1      28.515  26.916  23.673  1.00  0.00     0.012 A 
ATOM     22  C   UNL A   1      28.473  29.222  23.064  1.00  0.00     0.274 A 
ATOM     23  C   UNL A   1      29.916  26.959  23.719  1.00  0.00     0.027 A 
ATOM     24  C   UNL A   1      29.874  29.252  23.045  1.00  0.00     0.112 A 
BRANCH  22  25
ATOM     25  N   UNL A   1      27.798  30.494  22.860  1.00  0.00     0.063 N 
ATOM     26  O   UNL A   1      27.305  31.036  23.856  1.00  0.00    -0.258 OA
ATOM     27  O   UNL A   1      27.700  30.902  21.694  1.00  0.00    -0.258 OA
ENDBRANCH  22  25
ENDBRANCH  15  18
ENDBRANCH   8  14
ENDBRANCH   4   7
ENDBRANCH   2   3
ENDBRANCH   1   2
BRANCH   1  28
ATOM     28  C   UNL A   1      33.157  30.996  27.156  1.00  0.00     0.023 C 
BRANCH  28  29
ATOM     29  C   UNL A   1      34.482  30.472  27.693  1.00  0.00     0.116 C 
BRANCH  29  30
ATOM     30  N   UNL A   1      34.936  31.187  28.888  1.00  0.00    -0.352 N 
ATOM     31  C   UNL A   1      36.081  30.958  29.641  1.00  0.00     0.251 C 
ATOM     32  H   UNL A   1      34.358  31.921  29.197  1.00  0.00     0.163 HD
ATOM     33  O   UNL A   1      36.415  31.685  30.554  1.00  0.00    -0.269 OA
BRANCH  31  34
ATOM     34  C   UNL A   1      36.942  29.840  29.206  1.00  0.00     0.039 A 
ATOM     35  C   UNL A   1      37.313  28.912  30.181  1.00  0.00     0.014 A 
ATOM     36  C   UNL A   1      37.652  29.978  28.014  1.00  0.00     0.014 A 
ATOM     37  C   UNL A   1      38.559  28.305  30.080  1.00  0.00     0.010 A 
ATOM     38  C   UNL A   1      38.919  29.426  27.950  1.00  0.00     0.010 A 
ATOM     39  C   UNL A   1      39.402  28.666  29.024  1.00  0.00    -0.014 A 
BRANCH  39  40
ATOM     40  C   UNL A   1      40.838  28.412  29.074  1.00  0.00     0.031 A 
ATOM     41  C   UNL A   1      41.404  27.200  28.451  1.00  0.00     0.074 A 
ATOM     42  C   UNL A   1      41.662  29.265  29.726  1.00  0.00     0.049 A 
ATOM     43  N   UNL A   1      42.438  26.573  28.906  1.00  0.00    -0.248 NA
ATOM     44  C   UNL A   1      40.815  26.570  27.276  1.00  0.00     0.031 C 
ATOM     45  C   UNL A   1      43.124  29.233  29.740  1.00  0.00     0.029 A 
ATOM     46  N   UNL A   1      41.327  30.227  30.698  1.00  0.00    -0.354 N 
ATOM     47  C   UNL A   1      42.798  25.628  27.976  1.00  0.00     0.074 A 
ATOM     48  C   UNL A   1      41.725  25.629  27.006  1.00  0.00     0.031 C 
ATOM     49  C   UNL A   1      43.557  29.855  30.846  1.00  0.00     0.029 A 
ATOM     50  C   UNL A   1      42.391  30.219  31.628  1.00  0.00     0.049 A 
ATOM     51  H   UNL A   1      40.517  30.788  30.724  1.00  0.00     0.167 HD
ATOM     52  C   UNL A   1      44.022  25.030  28.059  1.00  0.00     0.037 A 
ATOM     53  C   UNL A   1      42.205  29.935  32.948  1.00  0.00     0.037 A 
ATOM     54  C   UNL A   1      44.779  25.514  29.208  1.00  0.00     0.049 A 
ATOM     55  C   UNL A   1      43.013  28.765  33.451  1.00  0.00     0.074 A 
ATOM     56  C   UNL A   1      45.755  26.489  29.338  1.00  0.00     0.029 A 
ATOM     57  N   UNL A   1      44.361  25.201  30.495  1.00  0.00    -0.354 N 
ATOM     58  N   UNL A   1      43.590  27.898  32.668  1.00  0.00    -0.248 NA
ATOM     59  C   UNL A   1      43.192  28.444  34.865  1.00  0.00     0.031 C 
ATOM     60  C   UNL A   1      45.905  26.784  30.713  1.00  0.00     0.029 A 
ATOM     61  C   UNL A   1      45.031  25.979  31.420  1.00  0.00     0.049 A 
ATOM     62  H   UNL A   1      43.683  24.522  30.717  1.00  0.00     0.167 HD
ATOM     63  C   UNL A   1      44.164  26.909  33.424  1.00  0.00     0.074 A 
ATOM     64  C   UNL A   1      43.914  27.312  34.794  1.00  0.00     0.031 C 
ATOM     65  C   UNL A   1      44.777  25.835  32.844  1.00  0.00     0.037 A 
BRANCH  52  66
ATOM     66  C   UNL A   1      44.636  24.236  26.929  1.00  0.00     0.064 A 
ATOM     67  C   UNL A   1      44.307  22.878  26.727  1.00  0.00     0.173 A 
ATOM     68  C   UNL A   1      45.598  24.751  26.042  1.00  0.00     0.173 A 
ATOM     69  F   UNL A   1      43.323  22.284  27.412  1.00  0.00    -0.203 F 
ATOM     70  C   UNL A   1      44.988  22.072  25.812  1.00  0.00     0.198 A 
ATOM     71  C   UNL A   1      46.320  23.932  25.168  1.00  0.00     0.198 A 
ATOM     72  F   UNL A   1      45.833  26.068  25.968  1.00  0.00    -0.203 F 
ATOM     73  F   UNL A   1      44.643  20.784  25.675  1.00  0.00    -0.200 F 
ATOM     74  C   UNL A   1      46.026  22.588  25.065  1.00  0.00     0.200 A 
ATOM     75  F   UNL A   1      47.308  24.457  24.429  1.00  0.00    -0.200 F 
ATOM     76  F   UNL A   1      46.720  21.800  24.232  1.00  0.00    -0.200 F 
ENDBRANCH  52  66
BRANCH  53  77
ATOM     77  C   UNL A   1      40.878  30.350  33.462  1.00  0.00     0.064 A 
ATOM     78  C   UNL A   1      40.648  31.724  33.668  1.00  0.00     0.173 A 
ATOM     79  C   UNL A   1      39.763  29.508  33.401  1.00  0.00     0.173 A 
ATOM     80  F   UNL A   1      41.685  32.577  33.724  1.00  0.00    -0.203 F 
ATOM     81  C   UNL A   1      39.358  32.246  33.698  1.00  0.00     0.198 A 
ATOM     82  C   UNL A   1      38.470  30.035  33.444  1.00  0.00     0.198 A 
ATOM     83  F   UNL A   1      39.918  28.194  33.184  1.00  0.00    -0.203 F 
ATOM     84  F   UNL A   1      39.178  33.572  33.777  1.00  0.00    -0.200 F 
ATOM     85  C   UNL A   1      38.270  31.402  33.559  1.00  0.00     0.200 A 
ATOM     86  F   UNL A   1      37.415  29.222  33.288  1.00  0.00    -0.200 F 
ATOM     87  F   UNL A   1      37.032  31.914  33.493  1.00  0.00    -0.200 F 
ENDBRANCH  53  77
BRANCH  65  88
ATOM     88  C   UNL A   1      45.273  24.592  33.543  1.00  0.00     0.064 A 
ATOM     89  C   UNL A   1      44.493  23.445  33.759  1.00  0.00     0.173 A 
ATOM     90  C   UNL A   1      46.642  24.470  33.890  1.00  0.00     0.173 A 
ATOM     91  F   UNL A   1      43.211  23.393  33.374  1.00  0.00    -0.203 F 
ATOM     92  C   UNL A   1      45.026  22.284  34.328  1.00  0.00     0.198 A 
ATOM     93  C   UNL A   1      47.183  23.292  34.405  1.00  0.00     0.198 A 
ATOM     94  F   UNL A   1      47.503  25.485  33.717  1.00  0.00    -0.203 F 
ATOM     95  F   UNL A   1      44.231  21.228  34.548  1.00  0.00    -0.200 F 
ATOM     96  C   UNL A   1      46.372  22.203  34.637  1.00  0.00     0.200 A 
ATOM     97  F   UNL A   1      48.499  23.216  34.651  1.00  0.00    -0.200 F 
ATOM     98  F   UNL A   1      46.887  21.071  35.136  1.00  0.00    -0.200 F 
ENDBRANCH  65  88
ENDBRANCH  39  40
ENDBRANCH  31  34
ENDBRANCH  29  30
ENDBRANCH  28  29
ENDBRANCH   1  28
TORSDOF 14
ENDMDL
MODEL 2
REMARK VINA RESULT:     -13.9      4.576     10.495
REMARK SMILES Cc1ccc(NC(=O)[C@H]2CC(Cl)=CC[C@@H]2C(=O)NCCCCNC(=O)c2ccc(-c3c4nc(c(-c5c(F)c(F)c(F)c(F)c5F)c5ccc([nH]5)c(-c5c(F)c(F)c(F)c(F)c5F)c5nc(c(-c6c(F)c(F)c(F)c(F)c6F)c6ccc3[nH]6)C=C5)C=C4)cc2)cc1[N+](=O)[O-]
REMARK SMILES IDX 20 1 19 2 18 3 16 4 17 5 15 7 9 8 10 9 11 10 14 11 12 12
REMARK SMILES IDX 13 13 7 14 6 15 8 17 5 18 1 19 2 20 3 21 90 22 4 23 89 24
REMARK SMILES IDX 91 25 92 26 93 27 21 28 22 29 23 30 24 31 25 33 26 34 27 35
REMARK SMILES IDX 88 36 28 37 87 38 29 39 30 40 31 41 81 42 32 43 86 44 80 45
REMARK SMILES IDX 82 46 33 47 85 48 79 49 78 50 34 52 66 53 46 54 65 55 47 56
REMARK SMILES IDX 50 57 64 58 83 59 48 60 49 61 63 63 84 64 51 65 35 66 36 67
REMARK SMILES IDX 44 68 37 69 38 70 42 71 45 72 39 73 40 74 43 75 41 76 67 77
REMARK SMILES IDX 68 78 76 79 69 80 70 81 74 82 77 83 71 84 72 85 75 86 73 87
REMARK SMILES IDX 52 88 53 89 61 90 54 91 55 92 59 93 62 94 56 95 57 96 60 97
REMARK SMILES IDX 58 98
REMARK H PARENT 18 6 6 16 23 32 82 51 50 62
REMARK Flexibility Score: inf
ROOT
ATOM      1  C   UNL A   1      37.712  21.395  25.122  1.00  0.00     0.023 C 
ENDROOT
BRANCH   1   2
ATOM      2  C   UNL A   1      37.138  22.770  24.757  1.00  0.00     0.116 C 
BRANCH   2   3
ATOM      3  N   UNL A   1      36.144  22.742  23.696  1.00  0.00    -0.356 N 
ATOM      4  C   UNL A   1      35.037  23.488  23.448  1.00  0.00     0.224 C 
ATOM      5  O   UNL A   1      34.464  23.280  22.374  1.00  0.00    -0.275 OA
ATOM      6  H   UNL A   1      36.306  22.042  23.024  1.00  0.00     0.163 HD
BRANCH   4   7
ATOM      7  C   UNL A   1      34.492  24.509  24.444  1.00  0.00     0.095 C 
ATOM      8  C   UNL A   1      33.419  23.844  25.341  1.00  0.00     0.097 C 
ATOM      9  C   UNL A   1      32.707  24.893  26.220  1.00  0.00     0.062 C 
ATOM     10  C   UNL A   1      32.146  26.002  25.395  1.00  0.00     0.015 C 
ATOM     11  C   UNL A   1      33.878  25.683  23.622  1.00  0.00     0.043 C 
ATOM     12  Cl  UNL A   1      30.736  26.782  26.005  1.00  0.00    -0.089 Cl
ATOM     13  C   UNL A   1      32.673  26.357  24.219  1.00  0.00    -0.010 C 
BRANCH   8  14
ATOM     14  C   UNL A   1      34.009  22.806  26.281  1.00  0.00     0.228 C 
ATOM     15  N   UNL A   1      33.842  21.461  26.139  1.00  0.00    -0.326 N 
ATOM     16  H   UNL A   1      34.271  20.941  26.857  1.00  0.00     0.169 HD
ATOM     17  O   UNL A   1      34.770  23.163  27.189  1.00  0.00    -0.274 OA
BRANCH  15  18
ATOM     18  C   UNL A   1      33.190  20.657  25.191  1.00  0.00     0.048 A 
ATOM     19  C   UNL A   1      32.191  17.985  21.934  1.00  0.00     0.052 C 
ATOM     20  C   UNL A   1      32.438  18.853  23.133  1.00  0.00     0.027 A 
ATOM     21  C   UNL A   1      32.161  20.221  23.036  1.00  0.00     0.012 A 
ATOM     22  C   UNL A   1      32.997  18.402  24.334  1.00  0.00     0.274 A 
ATOM     23  C   UNL A   1      32.525  21.111  24.059  1.00  0.00     0.027 A 
ATOM     24  C   UNL A   1      33.302  19.280  25.384  1.00  0.00     0.112 A 
BRANCH  22  25
ATOM     25  N   UNL A   1      33.420  17.022  24.504  1.00  0.00     0.063 N 
ATOM     26  O   UNL A   1      32.606  16.241  25.012  1.00  0.00    -0.258 OA
ATOM     27  O   UNL A   1      34.589  16.746  24.199  1.00  0.00    -0.258 OA
ENDBRANCH  22  25
ENDBRANCH  15  18
ENDBRANCH   8  14
ENDBRANCH   4   7
ENDBRANCH   2   3
ENDBRANCH   1   2
BRANCH   1  28
ATOM     28  C   UNL A   1      39.093  21.393  25.782  1.00  0.00     0.023 C 
BRANCH  28  29
ATOM     29  C   UNL A   1      39.481  22.675  26.506  1.00  0.00     0.116 C 
BRANCH  29  30
ATOM     30  N   UNL A   1      40.897  23.015  26.347  1.00  0.00    -0.352 N 
ATOM     31  C   UNL A   1      41.490  24.270  26.405  1.00  0.00     0.251 C 
ATOM     32  H   UNL A   1      41.504  22.259  26.177  1.00  0.00     0.163 HD
ATOM     33  O   UNL A   1      42.694  24.422  26.366  1.00  0.00    -0.269 OA
BRANCH  31  34
ATOM     34  C   UNL A   1      40.585  25.415  26.628  1.00  0.00     0.039 A 
ATOM     35  C   UNL A   1      40.984  26.646  26.103  1.00  0.00     0.014 A 
ATOM     36  C   UNL A   1      39.643  25.322  27.651  1.00  0.00     0.014 A 
ATOM     37  C   UNL A   1      40.634  27.803  26.788  1.00  0.00     0.010 A 
ATOM     38  C   UNL A   1      39.354  26.469  28.369  1.00  0.00     0.010 A 
ATOM     39  C   UNL A   1      39.923  27.691  27.986  1.00  0.00    -0.014 A 
BRANCH  39  40
ATOM     40  C   UNL A   1      39.886  28.781  28.956  1.00  0.00     0.031 A 
ATOM     41  C   UNL A   1      38.845  29.822  28.869  1.00  0.00     0.074 A 
ATOM     42  C   UNL A   1      40.829  28.869  29.924  1.00  0.00     0.049 A 
ATOM     43  N   UNL A   1      39.030  31.054  29.211  1.00  0.00    -0.248 NA
ATOM     44  C   UNL A   1      37.511  29.560  28.345  1.00  0.00     0.031 C 
ATOM     45  C   UNL A   1      40.846  29.803  31.048  1.00  0.00     0.029 A 
ATOM     46  N   UNL A   1      42.096  28.257  29.961  1.00  0.00    -0.354 N 
ATOM     47  C   UNL A   1      37.809  31.683  29.189  1.00  0.00     0.074 A 
ATOM     48  C   UNL A   1      36.904  30.726  28.592  1.00  0.00     0.031 C 
ATOM     49  C   UNL A   1      42.112  29.954  31.463  1.00  0.00     0.029 A 
ATOM     50  C   UNL A   1      42.961  29.202  30.558  1.00  0.00     0.049 A 
ATOM     51  H   UNL A   1      42.331  27.356  29.639  1.00  0.00     0.167 HD
ATOM     52  C   UNL A   1      37.665  32.900  29.790  1.00  0.00     0.037 A 
ATOM     53  C   UNL A   1      44.063  29.689  29.921  1.00  0.00     0.037 A 
ATOM     54  C   UNL A   1      38.920  33.364  30.370  1.00  0.00     0.049 A 
ATOM     55  C   UNL A   1      44.077  31.189  29.765  1.00  0.00     0.074 A 
ATOM     56  C   UNL A   1      39.432  33.303  31.656  1.00  0.00     0.029 A 
ATOM     57  N   UNL A   1      39.977  33.719  29.542  1.00  0.00    -0.354 N 
ATOM     58  N   UNL A   1      43.023  31.940  29.922  1.00  0.00    -0.248 NA
ATOM     59  C   UNL A   1      45.254  31.958  29.368  1.00  0.00     0.031 C 
ATOM     60  C   UNL A   1      40.815  33.596  31.596  1.00  0.00     0.029 A 
ATOM     61  C   UNL A   1      41.140  33.849  30.276  1.00  0.00     0.049 A 
ATOM     62  H   UNL A   1      39.908  33.857  28.569  1.00  0.00     0.167 HD
ATOM     63  C   UNL A   1      43.338  33.240  29.621  1.00  0.00     0.074 A 
ATOM     64  C   UNL A   1      44.753  33.204  29.309  1.00  0.00     0.031 C 
ATOM     65  C   UNL A   1      42.391  34.224  29.638  1.00  0.00     0.037 A 
BRANCH  52  66
ATOM     66  C   UNL A   1      36.321  33.517  30.104  1.00  0.00     0.064 A 
ATOM     67  C   UNL A   1      35.497  34.034  29.082  1.00  0.00     0.173 A 
ATOM     68  C   UNL A   1      35.816  33.672  31.408  1.00  0.00     0.173 A 
ATOM     69  F   UNL A   1      35.785  33.853  27.787  1.00  0.00    -0.203 F 
ATOM     70  C   UNL A   1      34.340  34.769  29.353  1.00  0.00     0.198 A 
ATOM     71  C   UNL A   1      34.692  34.457  31.683  1.00  0.00     0.198 A 
ATOM     72  F   UNL A   1      36.373  33.032  32.445  1.00  0.00    -0.203 F 
ATOM     73  F   UNL A   1      33.605  35.250  28.341  1.00  0.00    -0.200 F 
ATOM     74  C   UNL A   1      33.963  35.019  30.656  1.00  0.00     0.200 A 
ATOM     75  F   UNL A   1      34.323  34.667  32.955  1.00  0.00    -0.200 F 
ATOM     76  F   UNL A   1      32.888  35.776  30.917  1.00  0.00    -0.200 F 
ENDBRANCH  52  66
BRANCH  53  77
ATOM     77  C   UNL A   1      44.683  28.720  28.986  1.00  0.00     0.064 A 
ATOM     78  C   UNL A   1      45.460  27.679  29.531  1.00  0.00     0.173 A 
ATOM     79  C   UNL A   1      44.244  28.579  27.666  1.00  0.00     0.173 A 
ATOM     80  F   UNL A   1      45.897  27.761  30.799  1.00  0.00    -0.203 F 
ATOM     81  C   UNL A   1      45.690  26.502  28.825  1.00  0.00     0.198 A 
ATOM     82  C   UNL A   1      44.490  27.400  26.956  1.00  0.00     0.198 A 
ATOM     83  F   UNL A   1      43.483  29.526  27.101  1.00  0.00    -0.203 F 
ATOM     84  F   UNL A   1      46.333  25.485  29.418  1.00  0.00    -0.200 F 
ATOM     85  C   UNL A   1      45.181  26.353  27.547  1.00  0.00     0.200 A 
ATOM     86  F   UNL A   1      43.979  27.246  25.727  1.00  0.00    -0.200 F 
ATOM     87  F   UNL A   1      45.322  25.186  26.903  1.00  0.00    -0.200 F 
ENDBRANCH  53  77
BRANCH  65  88
ATOM     88  C   UNL A   1      42.553  35.642  29.147  1.00  0.00     0.064 A 
ATOM     89  C   UNL A   1      41.916  36.159  28.008  1.00  0.00     0.173 A 
ATOM     90  C   UNL A   1      43.264  36.588  29.927  1.00  0.00     0.173 A 
ATOM     91  F   UNL A   1      41.124  35.393  27.246  1.00  0.00    -0.203 F 
ATOM     92  C   UNL A   1      42.025  37.506  27.647  1.00  0.00     0.198 A 
ATOM     93  C   UNL A   1      43.323  37.941  29.595  1.00  0.00     0.198 A 
ATOM     94  F   UNL A   1      43.904  36.231  31.052  1.00  0.00    -0.203 F 
ATOM     95  F   UNL A   1      41.427  37.942  26.529  1.00  0.00    -0.200 F 
ATOM     96  C   UNL A   1      42.715  38.398  28.447  1.00  0.00     0.200 A 
ATOM     97  F   UNL A   1      43.955  38.799  30.409  1.00  0.00    -0.200 F 
ATOM     98  F   UNL A   1      42.774  39.696  28.122  1.00  0.00    -0.200 F 
ENDBRANCH  65  88
ENDBRANCH  39  40
ENDBRANCH  31  34
ENDBRANCH  29  30
ENDBRANCH  28  29
ENDBRANCH   1  28
TORSDOF 14
ENDMDL
MODEL 3
REMARK VINA RESULT:     -13.4      3.776      9.664
REMARK SMILES Cc1ccc(NC(=O)[C@H]2CC(Cl)=CC[C@@H]2C(=O)NCCCCNC(=O)c2ccc(-c3c4nc(c(-c5c(F)c(F)c(F)c(F)c5F)c5ccc([nH]5)c(-c5c(F)c(F)c(F)c(F)c5F)c5nc(c(-c6c(F)c(F)c(F)c(F)c6F)c6ccc3[nH]6)C=C5)C=C4)cc2)cc1[N+](=O)[O-]
REMARK SMILES IDX 20 1 19 2 18 3 16 4 17 5 15 7 9 8 10 9 11 10 14 11 12 12
REMARK SMILES IDX 13 13 7 14 6 15 8 17 5 18 1 19 2 20 3 21 90 22 4 23 89 24
REMARK SMILES IDX 91 25 92 26 93 27 21 28 22 29 23 30 24 31 25 33 26 34 27 35
REMARK SMILES IDX 88 36 28 37 87 38 29 39 30 40 31 41 81 42 32 43 86 44 80 45
REMARK SMILES IDX 82 46 33 47 85 48 79 49 78 50 34 52 66 53 46 54 65 55 47 56
REMARK SMILES IDX 50 57 64 58 83 59 48 60 49 61 63 63 84 64 51 65 35 66 36 67
REMARK SMILES IDX 44 68 37 69 38 70 42 71 45 72 39 73 40 74 43 75 41 76 67 77
REMARK SMILES IDX 68 78 76 79 69 80 70 81 74 82 77 83 71 84 72 85 75 86 73 87
REMARK SMILES IDX 52 88 53 89 61 90 54 91 55 92 59 93 62 94 56 95 57 96 60 97
REMARK SMILES IDX 58 98
REMARK H PARENT 18 6 6 16 23 32 82 51 50 62
REMARK Flexibility Score: inf
ROOT
ATOM      1  C   UNL A   1      36.757  21.617  25.104  1.00  0.00     0.023 C 
ENDROOT
BRANCH   1   2
ATOM      2  C   UNL A   1      36.303  22.561  23.984  1.00  0.00     0.116 C 
BRANCH   2   3
ATOM      3  N   UNL A   1      35.893  23.880  24.441  1.00  0.00    -0.356 N 
ATOM      4  C   UNL A   1      34.758  24.345  25.024  1.00  0.00     0.224 C 
ATOM      5  O   UNL A   1      34.778  25.519  25.406  1.00  0.00    -0.275 OA
ATOM      6  H   UNL A   1      36.577  24.574  24.301  1.00  0.00     0.163 HD
BRANCH   4   7
ATOM      7  C   UNL A   1      33.502  23.489  25.175  1.00  0.00     0.095 C 
ATOM      8  C   UNL A   1      32.252  24.324  24.806  1.00  0.00     0.097 C 
ATOM      9  C   UNL A   1      30.957  23.556  25.140  1.00  0.00     0.062 C 
ATOM     10  C   UNL A   1      30.940  23.114  26.565  1.00  0.00     0.015 C 
ATOM     11  C   UNL A   1      33.435  23.016  26.660  1.00  0.00     0.043 C 
ATOM     12  Cl  UNL A   1      29.394  22.976  27.313  1.00  0.00    -0.089 Cl
ATOM     13  C   UNL A   1      32.061  22.873  27.253  1.00  0.00    -0.010 C 
BRANCH   8  14
ATOM     14  C   UNL A   1      32.197  24.664  23.326  1.00  0.00     0.228 C 
ATOM     15  N   UNL A   1      31.711  25.834  22.825  1.00  0.00    -0.326 N 
ATOM     16  H   UNL A   1      31.726  25.869  21.841  1.00  0.00     0.169 HD
ATOM     17  O   UNL A   1      32.698  23.890  22.500  1.00  0.00    -0.274 OA
BRANCH  15  18
ATOM     18  C   UNL A   1      31.195  27.001  23.409  1.00  0.00     0.048 A 
ATOM     19  C   UNL A   1      29.982  31.059  24.308  1.00  0.00     0.052 C 
ATOM     20  C   UNL A   1      30.287  29.613  24.052  1.00  0.00     0.027 A 
ATOM     21  C   UNL A   1      31.341  29.017  24.754  1.00  0.00     0.012 A 
ATOM     22  C   UNL A   1      29.632  28.822  23.101  1.00  0.00     0.274 A 
ATOM     23  C   UNL A   1      31.783  27.723  24.441  1.00  0.00     0.027 A 
ATOM     24  C   UNL A   1      30.030  27.505  22.832  1.00  0.00     0.112 A 
BRANCH  22  25
ATOM     25  N   UNL A   1      28.594  29.370  22.242  1.00  0.00     0.063 N 
ATOM     26  O   UNL A   1      28.955  29.855  21.163  1.00  0.00    -0.258 OA
ATOM     27  O   UNL A   1      27.437  29.381  22.687  1.00  0.00    -0.258 OA
ENDBRANCH  22  25
ENDBRANCH  15  18
ENDBRANCH   8  14
ENDBRANCH   4   7
ENDBRANCH   2   3
ENDBRANCH   1   2
BRANCH   1  28
ATOM     28  C   UNL A   1      38.253  21.624  25.428  1.00  0.00     0.023 C 
BRANCH  28  29
ATOM     29  C   UNL A   1      38.757  22.838  26.198  1.00  0.00     0.116 C 
BRANCH  29  30
ATOM     30  N   UNL A   1      40.216  22.963  26.174  1.00  0.00    -0.352 N 
ATOM     31  C   UNL A   1      40.990  24.049  26.564  1.00  0.00     0.251 C 
ATOM     32  H   UNL A   1      40.710  22.180  25.840  1.00  0.00     0.163 HD
ATOM     33  O   UNL A   1      42.202  24.002  26.603  1.00  0.00    -0.269 OA
BRANCH  31  34
ATOM     34  C   UNL A   1      40.259  25.241  27.038  1.00  0.00     0.039 A 
ATOM     35  C   UNL A   1      40.609  26.466  26.465  1.00  0.00     0.014 A 
ATOM     36  C   UNL A   1      39.594  25.164  28.261  1.00  0.00     0.014 A 
ATOM     37  C   UNL A   1      40.529  27.611  27.248  1.00  0.00     0.010 A 
ATOM     38  C   UNL A   1      39.580  26.294  29.060  1.00  0.00     0.010 A 
ATOM     39  C   UNL A   1      40.130  27.491  28.582  1.00  0.00    -0.014 A 
BRANCH  39  40
ATOM     40  C   UNL A   1      40.418  28.535  29.562  1.00  0.00     0.031 A 
ATOM     41  C   UNL A   1      39.408  29.564  29.873  1.00  0.00     0.074 A 
ATOM     42  C   UNL A   1      41.628  28.592  30.166  1.00  0.00     0.049 A 
ATOM     43  N   UNL A   1      39.698  30.782  30.193  1.00  0.00    -0.248 NA
ATOM     44  C   UNL A   1      37.975  29.308  29.807  1.00  0.00     0.031 C 
ATOM     45  C   UNL A   1      42.017  29.474  31.265  1.00  0.00     0.029 A 
ATOM     46  N   UNL A   1      42.835  27.997  29.754  1.00  0.00    -0.354 N 
ATOM     47  C   UNL A   1      38.539  31.394  30.607  1.00  0.00     0.074 A 
ATOM     48  C   UNL A   1      37.486  30.452  30.297  1.00  0.00     0.031 C 
ATOM     49  C   UNL A   1      43.349  29.623  31.246  1.00  0.00     0.029 A 
ATOM     50  C   UNL A   1      43.850  28.926  30.076  1.00  0.00     0.049 A 
ATOM     51  H   UNL A   1      42.948  27.115  29.329  1.00  0.00     0.167 HD
ATOM     52  C   UNL A   1      38.604  32.580  31.279  1.00  0.00     0.037 A 
ATOM     53  C   UNL A   1      44.680  29.457  29.135  1.00  0.00     0.037 A 
ATOM     54  C   UNL A   1      39.981  33.035  31.433  1.00  0.00     0.049 A 
ATOM     55  C   UNL A   1      44.644  30.963  29.054  1.00  0.00     0.074 A 
ATOM     56  C   UNL A   1      40.890  32.921  32.473  1.00  0.00     0.029 A 
ATOM     57  N   UNL A   1      40.706  33.442  30.320  1.00  0.00    -0.354 N 
ATOM     58  N   UNL A   1      43.703  31.691  29.586  1.00  0.00    -0.248 NA
ATOM     59  C   UNL A   1      45.625  31.766  28.328  1.00  0.00     0.031 C 
ATOM     60  C   UNL A   1      42.175  33.237  31.974  1.00  0.00     0.029 A 
ATOM     61  C   UNL A   1      42.046  33.555  30.634  1.00  0.00     0.049 A 
ATOM     62  H   UNL A   1      40.319  33.624  29.433  1.00  0.00     0.167 HD
ATOM     63  C   UNL A   1      43.903  33.008  29.262  1.00  0.00     0.074 A 
ATOM     64  C   UNL A   1      45.135  33.006  28.498  1.00  0.00     0.031 C 
ATOM     65  C   UNL A   1      43.017  33.976  29.637  1.00  0.00     0.037 A 
BRANCH  52  66
ATOM     66  C   UNL A   1      37.441  33.162  32.048  1.00  0.00     0.064 A 
ATOM     67  C   UNL A   1      36.391  33.836  31.388  1.00  0.00     0.173 A 
ATOM     68  C   UNL A   1      37.335  33.131  33.450  1.00  0.00     0.173 A 
ATOM     69  F   UNL A   1      36.290  33.844  30.053  1.00  0.00    -0.203 F 
ATOM     70  C   UNL A   1      35.402  34.539  32.080  1.00  0.00     0.198 A 
ATOM     71  C   UNL A   1      36.381  33.882  34.143  1.00  0.00     0.198 A 
ATOM     72  F   UNL A   1      38.126  32.336  34.185  1.00  0.00    -0.203 F 
ATOM     73  F   UNL A   1      34.438  35.174  31.398  1.00  0.00    -0.200 F 
ATOM     74  C   UNL A   1      35.423  34.600  33.457  1.00  0.00     0.200 A 
ATOM     75  F   UNL A   1      36.399  33.907  35.484  1.00  0.00    -0.200 F 
ATOM     76  F   UNL A   1      34.510  35.325  34.118  1.00  0.00    -0.200 F 
ENDBRANCH  52  66
BRANCH  53  77
ATOM     77  C   UNL A   1      44.955  28.541  28.002  1.00  0.00     0.064 A 
ATOM     78  C   UNL A   1      45.775  27.421  28.241  1.00  0.00     0.173 A 
ATOM     79  C   UNL A   1      44.166  28.533  26.847  1.00  0.00     0.173 A 
ATOM     80  F   UNL A   1      46.543  27.375  29.342  1.00  0.00    -0.203 F 
ATOM     81  C   UNL A   1      45.722  26.298  27.421  1.00  0.00     0.198 A 
ATOM     82  C   UNL A   1      44.127  27.408  26.019  1.00  0.00     0.198 A 
ATOM     83  F   UNL A   1      43.348  29.561  26.578  1.00  0.00    -0.203 F 
ATOM     84  F   UNL A   1      46.428  25.205  27.744  1.00  0.00    -0.200 F 
ATOM     85  C   UNL A   1      44.878  26.282  26.325  1.00  0.00     0.200 A 
ATOM     86  F   UNL A   1      43.293  27.383  24.970  1.00  0.00    -0.200 F 
ATOM     87  F   UNL A   1      44.757  25.167  25.590  1.00  0.00    -0.200 F 
ENDBRANCH  53  77
BRANCH  65  88
ATOM     88  C   UNL A   1      43.010  35.418  29.189  1.00  0.00     0.064 A 
ATOM     89  C   UNL A   1      42.221  35.911  28.137  1.00  0.00     0.173 A 
ATOM     90  C   UNL A   1      43.712  36.398  29.934  1.00  0.00     0.173 A 
ATOM     91  F   UNL A   1      41.426  35.103  27.425  1.00  0.00    -0.203 F 
ATOM     92  C   UNL A   1      42.180  37.273  27.820  1.00  0.00     0.198 A 
ATOM     93  C   UNL A   1      43.624  37.760  29.651  1.00  0.00     0.198 A 
ATOM     94  F   UNL A   1      44.487  36.063  30.977  1.00  0.00    -0.203 F 
ATOM     95  F   UNL A   1      41.441  37.690  26.783  1.00  0.00    -0.200 F 
ATOM     96  C   UNL A   1      42.869  38.197  28.585  1.00  0.00     0.200 A 
ATOM     97  F   UNL A   1      44.258  38.645  30.434  1.00  0.00    -0.200 F 
ATOM     98  F   UNL A   1      42.786  39.505  28.307  1.00  0.00    -0.200 F 
ENDBRANCH  65  88
ENDBRANCH  39  40
ENDBRANCH  31  34
ENDBRANCH  29  30
ENDBRANCH  28  29
ENDBRANCH   1  28
TORSDOF 14
ENDMDL
