MODEL 1
REMARK VINA RESULT:     -10.9      0.000      0.000
REMARK SMILES O=C(COCCNC(=O)c1ccn[nH]1)NCCCCNC(=O)c1ccc(-c2c3nc(c(-c4c(F)c(F)c(F)c(F)c4F)c4ccc([nH]4)c(-c4c(F)c(F)c(F)c(F)c4F)c4nc(c(-c5c(F)c(F)c(F)c(F)c5F)c5ccc2[nH]5)C=C4)C=C3)cc1
REMARK SMILES IDX 16 1 15 2 1 3 2 4 3 6 4 7 5 8 6 9 7 10 8 11 9 13 10 14 11 15
REMARK SMILES IDX 14 16 12 17 13 18 17 20 18 21 19 22 20 23 21 24 22 26 23 27
REMARK SMILES IDX 24 28 85 29 25 30 84 31 26 32 27 33 28 34 78 35 29 36 83 37
REMARK SMILES IDX 77 38 79 39 30 40 82 41 76 42 75 43 31 45 63 46 43 47 62 48
REMARK SMILES IDX 44 49 47 50 61 51 80 52 45 53 46 54 60 56 81 57 48 58 32 59
REMARK SMILES IDX 33 60 41 61 34 62 35 63 39 64 42 65 36 66 37 67 40 68 38 69
REMARK SMILES IDX 64 70 65 71 73 72 66 73 67 74 71 75 74 76 68 77 69 78 72 79
REMARK SMILES IDX 70 80 49 81 50 82 58 83 51 84 52 85 56 86 59 87 53 88 54 89
REMARK SMILES IDX 57 90 55 91
REMARK H PARENT 15 5 7 12 14 19 20 25 79 44 47 55
REMARK Flexibility Score: inf
ROOT
ATOM      1  C   UNL A   1      35.251  33.040  28.308  1.00  0.00     0.116 C 
ENDROOT
BRANCH   1   2
ATOM      2  N   UNL A   1      34.065  32.410  27.772  1.00  0.00    -0.354 N 
ATOM      3  O   UNL A   1      34.868  30.256  27.880  1.00  0.00    -0.272 OA
ATOM      4  C   UNL A   1      33.959  31.042  27.632  1.00  0.00     0.245 C 
ATOM      5  H   UNL A   1      33.307  32.977  27.500  1.00  0.00     0.163 HD
BRANCH   4   6
ATOM      6  C   UNL A   1      32.600  30.592  27.090  1.00  0.00     0.260 C 
BRANCH   6   7
ATOM      7  O   UNL A   1      32.399  29.182  27.096  1.00  0.00    -0.370 OA
BRANCH   7   8
ATOM      8  C   UNL A   1      31.648  28.687  25.979  1.00  0.00     0.182 C 
BRANCH   8   9
ATOM      9  C   UNL A   1      31.393  29.759  24.909  1.00  0.00     0.144 C 
BRANCH   9  10
ATOM     10  N   UNL A   1      31.208  29.225  23.570  1.00  0.00    -0.348 N 
ATOM     11  C   UNL A   1      30.242  29.477  22.634  1.00  0.00     0.269 C 
ATOM     12  H   UNL A   1      31.892  28.574  23.289  1.00  0.00     0.163 HD
ATOM     13  O   UNL A   1      30.215  28.755  21.637  1.00  0.00    -0.268 OA
BRANCH  11  14
ATOM     14  C   UNL A   1      29.271  30.518  22.833  1.00  0.00     0.122 A 
ATOM     15  C   UNL A   1      28.059  30.604  23.490  1.00  0.00     0.055 A 
ATOM     16  N   UNL A   1      29.511  31.792  22.381  1.00  0.00    -0.273 N 
ATOM     17  C   UNL A   1      27.639  31.938  23.328  1.00  0.00     0.135 A 
ATOM     18  N   UNL A   1      28.514  32.660  22.628  1.00  0.00    -0.183 NA
ATOM     19  H   UNL A   1      30.342  32.049  21.918  1.00  0.00     0.190 HD
ENDBRANCH  11  14
ENDBRANCH   9  10
ENDBRANCH   8   9
ENDBRANCH   7   8
ENDBRANCH   6   7
ENDBRANCH   4   6
ENDBRANCH   1   2
BRANCH   1  20
ATOM     20  C   UNL A   1      35.009  34.467  28.798  1.00  0.00     0.023 C 
BRANCH  20  21
ATOM     21  C   UNL A   1      33.540  34.847  29.026  1.00  0.00     0.023 C 
BRANCH  21  22
ATOM     22  C   UNL A   1      33.281  36.293  29.448  1.00  0.00     0.116 C 
BRANCH  22  23
ATOM     23  N   UNL A   1      32.379  36.402  30.579  1.00  0.00    -0.352 N 
ATOM     24  C   UNL A   1      32.497  35.889  31.845  1.00  0.00     0.251 C 
ATOM     25  H   UNL A   1      31.560  36.924  30.414  1.00  0.00     0.163 HD
ATOM     26  O   UNL A   1      31.571  36.019  32.642  1.00  0.00    -0.269 OA
BRANCH  24  27
ATOM     27  C   UNL A   1      33.709  35.148  32.261  1.00  0.00     0.039 A 
ATOM     28  C   UNL A   1      33.559  33.809  32.641  1.00  0.00     0.014 A 
ATOM     29  C   UNL A   1      34.961  35.763  32.353  1.00  0.00     0.014 A 
ATOM     30  C   UNL A   1      34.667  33.072  33.066  1.00  0.00     0.010 A 
ATOM     31  C   UNL A   1      36.073  35.022  32.764  1.00  0.00     0.010 A 
ATOM     32  C   UNL A   1      35.931  33.673  33.121  1.00  0.00    -0.014 A 
BRANCH  32  33
ATOM     33  C   UNL A   1      37.114  32.894  33.551  1.00  0.00     0.031 A 
ATOM     34  C   UNL A   1      37.682  33.073  34.926  1.00  0.00     0.074 A 
ATOM     35  C   UNL A   1      37.687  32.026  32.698  1.00  0.00     0.049 A 
ATOM     36  N   UNL A   1      38.789  32.588  35.428  1.00  0.00    -0.248 NA
ATOM     37  C   UNL A   1      36.911  33.911  35.856  1.00  0.00     0.031 C 
ATOM     38  C   UNL A   1      37.228  31.752  31.336  1.00  0.00     0.029 A 
ATOM     39  N   UNL A   1      38.780  31.214  32.855  1.00  0.00    -0.354 N 
ATOM     40  C   UNL A   1      38.872  33.096  36.716  1.00  0.00     0.074 A 
ATOM     41  C   UNL A   1      37.685  33.895  36.935  1.00  0.00     0.031 C 
ATOM     42  C   UNL A   1      38.029  30.826  30.784  1.00  0.00     0.029 A 
ATOM     43  C   UNL A   1      39.062  30.454  31.749  1.00  0.00     0.049 A 
ATOM     44  H   UNL A   1      39.312  31.180  33.683  1.00  0.00     0.167 HD
ATOM     45  C   UNL A   1      39.865  32.926  37.620  1.00  0.00     0.037 A 
ATOM     46  C   UNL A   1      40.045  29.561  31.537  1.00  0.00     0.037 A 
ATOM     47  C   UNL A   1      41.041  32.128  37.408  1.00  0.00     0.049 A 
ATOM     48  C   UNL A   1      41.052  29.288  32.612  1.00  0.00     0.074 A 
ATOM     49  C   UNL A   1      42.172  32.014  38.200  1.00  0.00     0.029 A 
ATOM     50  N   UNL A   1      41.217  31.273  36.333  1.00  0.00    -0.354 N 
ATOM     51  N   UNL A   1      41.192  29.874  33.774  1.00  0.00    -0.248 NA
ATOM     52  C   UNL A   1      42.039  28.231  32.347  1.00  0.00     0.031 C 
ATOM     53  C   UNL A   1      43.020  31.063  37.617  1.00  0.00     0.029 A 
ATOM     54  C   UNL A   1      42.415  30.590  36.465  1.00  0.00     0.049 A 
ATOM     55  H   UNL A   1      40.585  31.166  35.586  1.00  0.00     0.167 HD
ATOM     56  C   UNL A   1      42.294  29.279  34.369  1.00  0.00     0.074 A 
ATOM     57  C   UNL A   1      42.771  28.264  33.452  1.00  0.00     0.031 C 
ATOM     58  C   UNL A   1      42.870  29.572  35.558  1.00  0.00     0.037 A 
BRANCH  45  59
ATOM     59  C   UNL A   1      39.734  33.657  38.916  1.00  0.00     0.064 A 
ATOM     60  C   UNL A   1      40.402  34.869  39.133  1.00  0.00     0.173 A 
ATOM     61  C   UNL A   1      38.914  33.155  39.936  1.00  0.00     0.173 A 
ATOM     62  F   UNL A   1      41.206  35.375  38.186  1.00  0.00    -0.203 F 
ATOM     63  C   UNL A   1      40.254  35.554  40.336  1.00  0.00     0.198 A 
ATOM     64  C   UNL A   1      38.767  33.845  41.135  1.00  0.00     0.198 A 
ATOM     65  F   UNL A   1      38.262  31.995  39.768  1.00  0.00    -0.203 F 
ATOM     66  F   UNL A   1      40.910  36.707  40.533  1.00  0.00    -0.200 F 
ATOM     67  C   UNL A   1      39.437  35.043  41.334  1.00  0.00     0.200 A 
ATOM     68  F   UNL A   1      37.982  33.348  42.100  1.00  0.00    -0.200 F 
ATOM     69  F   UNL A   1      39.300  35.702  42.492  1.00  0.00    -0.200 F 
ENDBRANCH  45  59
BRANCH  46  70
ATOM     70  C   UNL A   1      40.120  28.860  30.238  1.00  0.00     0.064 A 
ATOM     71  C   UNL A   1      39.479  27.630  30.050  1.00  0.00     0.173 A 
ATOM     72  C   UNL A   1      40.815  29.419  29.159  1.00  0.00     0.173 A 
ATOM     73  F   UNL A   1      38.816  27.058  31.065  1.00  0.00    -0.203 F 
ATOM     74  C   UNL A   1      39.531  26.980  28.820  1.00  0.00     0.198 A 
ATOM     75  C   UNL A   1      40.863  28.769  27.929  1.00  0.00     0.198 A 
ATOM     76  F   UNL A   1      41.446  30.593  29.305  1.00  0.00    -0.203 F 
ATOM     77  F   UNL A   1      38.917  25.799  28.662  1.00  0.00    -0.200 F 
ATOM     78  C   UNL A   1      40.220  27.550  27.760  1.00  0.00     0.200 A 
ATOM     79  F   UNL A   1      41.532  29.322  26.908  1.00  0.00    -0.200 F 
ATOM     80  F   UNL A   1      40.270  26.925  26.577  1.00  0.00    -0.200 F 
ENDBRANCH  46  70
BRANCH  58  81
ATOM     81  C   UNL A   1      44.087  28.792  35.932  1.00  0.00     0.064 A 
ATOM     82  C   UNL A   1      45.363  29.234  35.555  1.00  0.00     0.173 A 
ATOM     83  C   UNL A   1      43.986  27.616  36.687  1.00  0.00     0.173 A 
ATOM     84  F   UNL A   1      45.502  30.350  34.824  1.00  0.00    -0.203 F 
ATOM     85  C   UNL A   1      46.500  28.521  35.921  1.00  0.00     0.198 A 
ATOM     86  C   UNL A   1      45.126  26.905  37.050  1.00  0.00     0.198 A 
ATOM     87  F   UNL A   1      42.782  27.154  37.056  1.00  0.00    -0.203 F 
ATOM     88  F   UNL A   1      47.711  28.954  35.544  1.00  0.00    -0.200 F 
ATOM     89  C   UNL A   1      46.381  27.358  36.667  1.00  0.00     0.200 A 
ATOM     90  F   UNL A   1      45.011  25.774  37.760  1.00  0.00    -0.200 F 
ATOM     91  F   UNL A   1      47.476  26.667  37.012  1.00  0.00    -0.200 F 
ENDBRANCH  58  81
ENDBRANCH  32  33
ENDBRANCH  24  27
ENDBRANCH  22  23
ENDBRANCH  21  22
ENDBRANCH  20  21
ENDBRANCH   1  20
TORSDOF 16
ENDMDL
MODEL 2
REMARK VINA RESULT:     -10.3      5.793     11.521
REMARK SMILES O=C(COCCNC(=O)c1ccn[nH]1)NCCCCNC(=O)c1ccc(-c2c3nc(c(-c4c(F)c(F)c(F)c(F)c4F)c4ccc([nH]4)c(-c4c(F)c(F)c(F)c(F)c4F)c4nc(c(-c5c(F)c(F)c(F)c(F)c5F)c5ccc2[nH]5)C=C4)C=C3)cc1
REMARK SMILES IDX 16 1 15 2 1 3 2 4 3 6 4 7 5 8 6 9 7 10 8 11 9 13 10 14 11 15
REMARK SMILES IDX 14 16 12 17 13 18 17 20 18 21 19 22 20 23 21 24 22 26 23 27
REMARK SMILES IDX 24 28 85 29 25 30 84 31 26 32 27 33 28 34 78 35 29 36 83 37
REMARK SMILES IDX 77 38 79 39 30 40 82 41 76 42 75 43 31 45 63 46 43 47 62 48
REMARK SMILES IDX 44 49 47 50 61 51 80 52 45 53 46 54 60 56 81 57 48 58 32 59
REMARK SMILES IDX 33 60 41 61 34 62 35 63 39 64 42 65 36 66 37 67 40 68 38 69
REMARK SMILES IDX 64 70 65 71 73 72 66 73 67 74 71 75 74 76 68 77 69 78 72 79
REMARK SMILES IDX 70 80 49 81 50 82 58 83 51 84 52 85 56 86 59 87 53 88 54 89
REMARK SMILES IDX 57 90 55 91
REMARK H PARENT 15 5 7 12 14 19 20 25 79 44 47 55
REMARK Flexibility Score: inf
ROOT
ATOM      1  C   UNL A   1      42.582  18.882  26.436  1.00  0.00     0.116 C 
ENDROOT
BRANCH   1   2
ATOM      2  N   UNL A   1      43.479  19.689  25.640  1.00  0.00    -0.354 N 
ATOM      3  O   UNL A   1      45.087  18.065  25.372  1.00  0.00    -0.272 OA
ATOM      4  C   UNL A   1      44.664  19.192  25.138  1.00  0.00     0.245 C 
ATOM      5  H   UNL A   1      43.236  20.624  25.449  1.00  0.00     0.163 HD
BRANCH   4   6
ATOM      6  C   UNL A   1      45.432  20.205  24.286  1.00  0.00     0.260 C 
BRANCH   6   7
ATOM      7  O   UNL A   1      44.621  21.215  23.695  1.00  0.00    -0.370 OA
BRANCH   7   8
ATOM      8  C   UNL A   1      45.070  22.555  23.942  1.00  0.00     0.182 C 
BRANCH   8   9
ATOM      9  C   UNL A   1      45.555  22.765  25.383  1.00  0.00     0.144 C 
BRANCH   9  10
ATOM     10  N   UNL A   1      45.719  24.161  25.753  1.00  0.00    -0.348 N 
ATOM     11  C   UNL A   1      45.211  24.871  26.808  1.00  0.00     0.269 C 
ATOM     12  H   UNL A   1      46.291  24.683  25.146  1.00  0.00     0.163 HD
ATOM     13  O   UNL A   1      45.361  26.093  26.795  1.00  0.00    -0.268 OA
BRANCH  11  14
ATOM     14  C   UNL A   1      44.492  24.215  27.865  1.00  0.00     0.122 A 
ATOM     15  C   UNL A   1      43.157  23.983  28.136  1.00  0.00     0.055 A 
ATOM     16  N   UNL A   1      45.166  23.558  28.865  1.00  0.00    -0.273 N 
ATOM     17  C   UNL A   1      43.140  23.238  29.330  1.00  0.00     0.135 A 
ATOM     18  N   UNL A   1      44.368  22.999  29.792  1.00  0.00    -0.183 NA
ATOM     19  H   UNL A   1      46.149  23.501  28.901  1.00  0.00     0.190 HD
ENDBRANCH  11  14
ENDBRANCH   9  10
ENDBRANCH   8   9
ENDBRANCH   7   8
ENDBRANCH   6   7
ENDBRANCH   4   6
ENDBRANCH   1   2
BRANCH   1  20
ATOM     20  C   UNL A   1      41.199  19.508  26.610  1.00  0.00     0.023 C 
BRANCH  20  21
ATOM     21  C   UNL A   1      41.173  20.868  27.319  1.00  0.00     0.023 C 
BRANCH  21  22
ATOM     22  C   UNL A   1      41.069  22.094  26.413  1.00  0.00     0.116 C 
BRANCH  22  23
ATOM     23  N   UNL A   1      39.727  22.315  25.907  1.00  0.00    -0.352 N 
ATOM     24  C   UNL A   1      38.893  23.389  26.081  1.00  0.00     0.251 C 
ATOM     25  H   UNL A   1      39.361  21.585  25.356  1.00  0.00     0.163 HD
ATOM     26  O   UNL A   1      37.747  23.345  25.640  1.00  0.00    -0.269 OA
BRANCH  24  27
ATOM     27  C   UNL A   1      39.336  24.592  26.821  1.00  0.00     0.039 A 
ATOM     28  C   UNL A   1      38.939  24.721  28.158  1.00  0.00     0.014 A 
ATOM     29  C   UNL A   1      40.065  25.615  26.208  1.00  0.00     0.014 A 
ATOM     30  C   UNL A   1      39.310  25.848  28.894  1.00  0.00     0.010 A 
ATOM     31  C   UNL A   1      40.448  26.737  26.948  1.00  0.00     0.010 A 
ATOM     32  C   UNL A   1      40.074  26.858  28.295  1.00  0.00    -0.014 A 
BRANCH  32  33
ATOM     33  C   UNL A   1      40.489  28.047  29.074  1.00  0.00     0.031 A 
ATOM     34  C   UNL A   1      41.890  28.162  29.593  1.00  0.00     0.074 A 
ATOM     35  C   UNL A   1      39.599  29.023  29.324  1.00  0.00     0.049 A 
ATOM     36  N   UNL A   1      42.393  29.054  30.409  1.00  0.00    -0.248 NA
ATOM     37  C   UNL A   1      42.847  27.141  29.146  1.00  0.00     0.031 C 
ATOM     38  C   UNL A   1      38.208  29.037  28.869  1.00  0.00     0.029 A 
ATOM     39  N   UNL A   1      39.736  30.195  30.022  1.00  0.00    -0.354 N 
ATOM     40  C   UNL A   1      43.713  28.679  30.608  1.00  0.00     0.074 A 
ATOM     41  C   UNL A   1      43.947  27.501  29.798  1.00  0.00     0.031 C 
ATOM     42  C   UNL A   1      37.622  30.170  29.292  1.00  0.00     0.029 A 
ATOM     43  C   UNL A   1      38.593  30.951  30.056  1.00  0.00     0.049 A 
ATOM     44  H   UNL A   1      40.577  30.468  30.457  1.00  0.00     0.167 HD
ATOM     45  C   UNL A   1      44.635  29.254  31.415  1.00  0.00     0.037 A 
ATOM     46  C   UNL A   1      38.354  32.138  30.641  1.00  0.00     0.037 A 
ATOM     47  C   UNL A   1      44.407  30.427  32.214  1.00  0.00     0.049 A 
ATOM     48  C   UNL A   1      39.440  32.823  31.413  1.00  0.00     0.074 A 
ATOM     49  C   UNL A   1      45.225  30.998  33.175  1.00  0.00     0.029 A 
ATOM     50  N   UNL A   1      43.286  31.232  32.113  1.00  0.00    -0.354 N 
ATOM     51  N   UNL A   1      40.642  32.392  31.700  1.00  0.00    -0.248 NA
ATOM     52  C   UNL A   1      39.137  34.161  31.943  1.00  0.00     0.031 C 
ATOM     53  C   UNL A   1      44.608  32.170  33.634  1.00  0.00     0.029 A 
ATOM     54  C   UNL A   1      43.410  32.322  32.958  1.00  0.00     0.049 A 
ATOM     55  H   UNL A   1      42.514  31.055  31.528  1.00  0.00     0.167 HD
ATOM     56  C   UNL A   1      41.230  33.387  32.465  1.00  0.00     0.074 A 
ATOM     57  C   UNL A   1      40.265  34.461  32.574  1.00  0.00     0.031 C 
ATOM     58  C   UNL A   1      42.453  33.392  33.045  1.00  0.00     0.037 A 
BRANCH  45  59
ATOM     59  C   UNL A   1      45.970  28.592  31.499  1.00  0.00     0.064 A 
ATOM     60  C   UNL A   1      47.033  29.001  30.684  1.00  0.00     0.173 A 
ATOM     61  C   UNL A   1      46.195  27.559  32.420  1.00  0.00     0.173 A 
ATOM     62  F   UNL A   1      46.854  29.977  29.781  1.00  0.00    -0.203 F 
ATOM     63  C   UNL A   1      48.281  28.393  30.787  1.00  0.00     0.198 A 
ATOM     64  C   UNL A   1      47.445  26.956  32.522  1.00  0.00     0.198 A 
ATOM     65  F   UNL A   1      45.201  27.135  33.214  1.00  0.00    -0.203 F 
ATOM     66  F   UNL A   1      49.285  28.788  29.991  1.00  0.00    -0.200 F 
ATOM     67  C   UNL A   1      48.486  27.373  31.705  1.00  0.00     0.200 A 
ATOM     68  F   UNL A   1      47.640  25.968  33.405  1.00  0.00    -0.200 F 
ATOM     69  F   UNL A   1      49.687  26.786  31.799  1.00  0.00    -0.200 F 
ENDBRANCH  45  59
BRANCH  46  70
ATOM     70  C   UNL A   1      37.015  32.752  30.517  1.00  0.00     0.064 A 
ATOM     71  C   UNL A   1      36.057  32.593  31.524  1.00  0.00     0.173 A 
ATOM     72  C   UNL A   1      36.682  33.525  29.398  1.00  0.00     0.173 A 
ATOM     73  F   UNL A   1      36.337  31.847  32.603  1.00  0.00    -0.203 F 
ATOM     74  C   UNL A   1      34.804  33.190  31.418  1.00  0.00     0.198 A 
ATOM     75  C   UNL A   1      35.429  34.125  29.295  1.00  0.00     0.198 A 
ATOM     76  F   UNL A   1      37.573  33.695  28.411  1.00  0.00    -0.203 F 
ATOM     77  F   UNL A   1      33.898  33.019  32.389  1.00  0.00    -0.200 F 
ATOM     78  C   UNL A   1      34.492  33.957  30.305  1.00  0.00     0.200 A 
ATOM     79  F   UNL A   1      35.130  34.863  28.217  1.00  0.00    -0.200 F 
ATOM     80  F   UNL A   1      33.286  34.531  30.202  1.00  0.00    -0.200 F 
ENDBRANCH  46  70
BRANCH  58  81
ATOM     81  C   UNL A   1      42.813  34.591  33.857  1.00  0.00     0.064 A 
ATOM     82  C   UNL A   1      43.397  35.714  33.254  1.00  0.00     0.173 A 
ATOM     83  C   UNL A   1      42.556  34.633  35.234  1.00  0.00     0.173 A 
ATOM     84  F   UNL A   1      43.668  35.710  31.941  1.00  0.00    -0.203 F 
ATOM     85  C   UNL A   1      43.714  36.842  34.005  1.00  0.00     0.198 A 
ATOM     86  C   UNL A   1      42.876  35.763  35.982  1.00  0.00     0.198 A 
ATOM     87  F   UNL A   1      42.010  33.575  35.850  1.00  0.00    -0.203 F 
ATOM     88  F   UNL A   1      44.280  37.902  33.413  1.00  0.00    -0.200 F 
ATOM     89  C   UNL A   1      43.453  36.865  35.367  1.00  0.00     0.200 A 
ATOM     90  F   UNL A   1      42.636  35.781  37.300  1.00  0.00    -0.200 F 
ATOM     91  F   UNL A   1      43.767  37.948  36.092  1.00  0.00    -0.200 F 
ENDBRANCH  58  81
ENDBRANCH  32  33
ENDBRANCH  24  27
ENDBRANCH  22  23
ENDBRANCH  21  22
ENDBRANCH  20  21
ENDBRANCH   1  20
TORSDOF 16
ENDMDL
MODEL 3
REMARK VINA RESULT:     -10.3      5.997     11.433
REMARK SMILES O=C(COCCNC(=O)c1ccn[nH]1)NCCCCNC(=O)c1ccc(-c2c3nc(c(-c4c(F)c(F)c(F)c(F)c4F)c4ccc([nH]4)c(-c4c(F)c(F)c(F)c(F)c4F)c4nc(c(-c5c(F)c(F)c(F)c(F)c5F)c5ccc2[nH]5)C=C4)C=C3)cc1
REMARK SMILES IDX 16 1 15 2 1 3 2 4 3 6 4 7 5 8 6 9 7 10 8 11 9 13 10 14 11 15
REMARK SMILES IDX 14 16 12 17 13 18 17 20 18 21 19 22 20 23 21 24 22 26 23 27
REMARK SMILES IDX 24 28 85 29 25 30 84 31 26 32 27 33 28 34 78 35 29 36 83 37
REMARK SMILES IDX 77 38 79 39 30 40 82 41 76 42 75 43 31 45 63 46 43 47 62 48
REMARK SMILES IDX 44 49 47 50 61 51 80 52 45 53 46 54 60 56 81 57 48 58 32 59
REMARK SMILES IDX 33 60 41 61 34 62 35 63 39 64 42 65 36 66 37 67 40 68 38 69
REMARK SMILES IDX 64 70 65 71 73 72 66 73 67 74 71 75 74 76 68 77 69 78 72 79
REMARK SMILES IDX 70 80 49 81 50 82 58 83 51 84 52 85 56 86 59 87 53 88 54 89
REMARK SMILES IDX 57 90 55 91
REMARK H PARENT 15 5 7 12 14 19 20 25 79 44 47 55
REMARK Flexibility Score: inf
ROOT
ATOM      1  C   UNL A   1      43.394  24.880  27.107  1.00  0.00     0.116 C 
ENDROOT
BRANCH   1   2
ATOM      2  N   UNL A   1      44.776  24.695  26.725  1.00  0.00    -0.354 N 
ATOM      3  O   UNL A   1      44.759  26.232  25.013  1.00  0.00    -0.272 OA
ATOM      4  C   UNL A   1      45.363  25.425  25.712  1.00  0.00     0.245 C 
ATOM      5  H   UNL A   1      45.317  24.027  27.205  1.00  0.00     0.163 HD
BRANCH   4   6
ATOM      6  C   UNL A   1      46.844  25.099  25.510  1.00  0.00     0.260 C 
BRANCH   6   7
ATOM      7  O   UNL A   1      47.139  23.706  25.451  1.00  0.00    -0.370 OA
BRANCH   7   8
ATOM      8  C   UNL A   1      46.362  22.978  24.490  1.00  0.00     0.182 C 
BRANCH   8   9
ATOM      9  C   UNL A   1      45.875  21.622  25.021  1.00  0.00     0.144 C 
BRANCH   9  10
ATOM     10  N   UNL A   1      45.900  20.557  24.032  1.00  0.00    -0.348 N 
ATOM     11  C   UNL A   1      45.295  19.329  24.027  1.00  0.00     0.269 C 
ATOM     12  H   UNL A   1      46.441  20.751  23.232  1.00  0.00     0.163 HD
ATOM     13  O   UNL A   1      45.622  18.538  23.142  1.00  0.00    -0.268 OA
BRANCH  11  14
ATOM     14  C   UNL A   1      44.347  18.966  25.045  1.00  0.00     0.122 A 
ATOM     15  C   UNL A   1      43.045  19.325  25.333  1.00  0.00     0.055 A 
ATOM     16  N   UNL A   1      44.650  17.993  25.965  1.00  0.00    -0.273 N 
ATOM     17  C   UNL A   1      42.687  18.560  26.460  1.00  0.00     0.135 A 
ATOM     18  N   UNL A   1      43.676  17.763  26.863  1.00  0.00    -0.183 NA
ATOM     19  H   UNL A   1      45.506  17.505  25.967  1.00  0.00     0.190 HD
ENDBRANCH  11  14
ENDBRANCH   9  10
ENDBRANCH   8   9
ENDBRANCH   7   8
ENDBRANCH   6   7
ENDBRANCH   4   6
ENDBRANCH   1   2
BRANCH   1  20
ATOM     20  C   UNL A   1      42.754  23.619  27.686  1.00  0.00     0.023 C 
BRANCH  20  21
ATOM     21  C   UNL A   1      42.036  22.717  26.673  1.00  0.00     0.023 C 
BRANCH  21  22
ATOM     22  C   UNL A   1      40.734  22.076  27.152  1.00  0.00     0.116 C 
BRANCH  22  23
ATOM     23  N   UNL A   1      39.591  22.430  26.333  1.00  0.00    -0.352 N 
ATOM     24  C   UNL A   1      38.897  23.610  26.262  1.00  0.00     0.251 C 
ATOM     25  H   UNL A   1      39.264  21.716  25.738  1.00  0.00     0.163 HD
ATOM     26  O   UNL A   1      37.890  23.681  25.562  1.00  0.00    -0.269 OA
BRANCH  24  27
ATOM     27  C   UNL A   1      39.320  24.795  27.041  1.00  0.00     0.039 A 
ATOM     28  C   UNL A   1      38.946  24.859  28.389  1.00  0.00     0.014 A 
ATOM     29  C   UNL A   1      40.006  25.864  26.456  1.00  0.00     0.014 A 
ATOM     30  C   UNL A   1      39.298  25.967  29.163  1.00  0.00     0.010 A 
ATOM     31  C   UNL A   1      40.371  26.967  27.234  1.00  0.00     0.010 A 
ATOM     32  C   UNL A   1      40.020  27.023  28.591  1.00  0.00    -0.014 A 
BRANCH  32  33
ATOM     33  C   UNL A   1      40.416  28.191  29.409  1.00  0.00     0.031 A 
ATOM     34  C   UNL A   1      41.793  28.278  29.993  1.00  0.00     0.074 A 
ATOM     35  C   UNL A   1      39.529  29.176  29.636  1.00  0.00     0.049 A 
ATOM     36  N   UNL A   1      42.272  29.147  30.846  1.00  0.00    -0.248 NA
ATOM     37  C   UNL A   1      42.756  27.251  29.571  1.00  0.00     0.031 C 
ATOM     38  C   UNL A   1      38.161  29.218  29.119  1.00  0.00     0.029 A 
ATOM     39  N   UNL A   1      39.651  30.334  30.360  1.00  0.00    -0.354 N 
ATOM     40  C   UNL A   1      43.575  28.750  31.097  1.00  0.00     0.074 A 
ATOM     41  C   UNL A   1      43.829  27.583  30.278  1.00  0.00     0.031 C 
ATOM     42  C   UNL A   1      37.572  30.352  29.536  1.00  0.00     0.029 A 
ATOM     43  C   UNL A   1      38.517  31.105  30.357  1.00  0.00     0.049 A 
ATOM     44  H   UNL A   1      40.474  30.587  30.838  1.00  0.00     0.167 HD
ATOM     45  C   UNL A   1      44.468  29.298  31.955  1.00  0.00     0.037 A 
ATOM     46  C   UNL A   1      38.268  32.285  30.952  1.00  0.00     0.037 A 
ATOM     47  C   UNL A   1      44.221  30.459  32.764  1.00  0.00     0.049 A 
ATOM     48  C   UNL A   1      39.328  32.941  31.784  1.00  0.00     0.074 A 
ATOM     49  C   UNL A   1      45.002  31.002  33.771  1.00  0.00     0.029 A 
ATOM     50  N   UNL A   1      43.116  31.282  32.628  1.00  0.00    -0.354 N 
ATOM     51  N   UNL A   1      40.509  32.487  32.117  1.00  0.00    -0.248 NA
ATOM     52  C   UNL A   1      39.019  34.274  32.324  1.00  0.00     0.031 C 
ATOM     53  C   UNL A   1      44.381  32.174  34.223  1.00  0.00     0.029 A 
ATOM     54  C   UNL A   1      43.217  32.356  33.497  1.00  0.00     0.049 A 
ATOM     55  H   UNL A   1      42.369  31.127  32.005  1.00  0.00     0.167 HD
ATOM     56  C   UNL A   1      41.076  33.460  32.926  1.00  0.00     0.074 A 
ATOM     57  C   UNL A   1      40.122  34.547  33.010  1.00  0.00     0.031 C 
ATOM     58  C   UNL A   1      42.271  33.438  33.560  1.00  0.00     0.037 A 
BRANCH  45  59
ATOM     59  C   UNL A   1      45.789  28.615  32.088  1.00  0.00     0.064 A 
ATOM     60  C   UNL A   1      46.893  29.022  31.328  1.00  0.00     0.173 A 
ATOM     61  C   UNL A   1      45.958  27.563  33.000  1.00  0.00     0.173 A 
ATOM     62  F   UNL A   1      46.768  30.016  30.436  1.00  0.00    -0.203 F 
ATOM     63  C   UNL A   1      48.126  28.394  31.477  1.00  0.00     0.198 A 
ATOM     64  C   UNL A   1      47.193  26.940  33.146  1.00  0.00     0.198 A 
ATOM     65  F   UNL A   1      44.923  27.140  33.740  1.00  0.00    -0.203 F 
ATOM     66  F   UNL A   1      49.170  28.788  30.734  1.00  0.00    -0.200 F 
ATOM     67  C   UNL A   1      48.275  27.356  32.385  1.00  0.00     0.200 A 
ATOM     68  F   UNL A   1      47.334  25.934  34.020  1.00  0.00    -0.200 F 
ATOM     69  F   UNL A   1      49.462  26.750  32.522  1.00  0.00    -0.200 F 
ENDBRANCH  45  59
BRANCH  46  70
ATOM     70  C   UNL A   1      36.945  32.921  30.778  1.00  0.00     0.064 A 
ATOM     71  C   UNL A   1      36.648  33.653  29.623  1.00  0.00     0.173 A 
ATOM     72  C   UNL A   1      35.951  32.786  31.755  1.00  0.00     0.173 A 
ATOM     73  F   UNL A   1      37.581  33.814  28.674  1.00  0.00    -0.203 F 
ATOM     74  C   UNL A   1      35.394  34.232  29.449  1.00  0.00     0.198 A 
ATOM     75  C   UNL A   1      34.696  33.364  31.577  1.00  0.00     0.198 A 
ATOM     76  F   UNL A   1      36.202  32.097  32.877  1.00  0.00    -0.203 F 
ATOM     77  F   UNL A   1      35.132  34.936  28.340  1.00  0.00    -0.200 F 
ATOM     78  C   UNL A   1      34.419  34.086  30.425  1.00  0.00     0.200 A 
ATOM     79  F   UNL A   1      33.757  33.223  32.523  1.00  0.00    -0.200 F 
ATOM     80  F   UNL A   1      33.213  34.644  30.258  1.00  0.00    -0.200 F 
ENDBRANCH  46  70
BRANCH  58  81
ATOM     81  C   UNL A   1      42.611  34.617  34.409  1.00  0.00     0.064 A 
ATOM     82  C   UNL A   1      43.223  35.748  33.851  1.00  0.00     0.173 A 
ATOM     83  C   UNL A   1      42.307  34.632  35.777  1.00  0.00     0.173 A 
ATOM     84  F   UNL A   1      43.539  35.769  32.547  1.00  0.00    -0.203 F 
ATOM     85  C   UNL A   1      43.520  36.858  34.635  1.00  0.00     0.198 A 
ATOM     86  C   UNL A   1      42.607  35.744  36.559  1.00  0.00     0.198 A 
ATOM     87  F   UNL A   1      41.733  33.565  36.352  1.00  0.00    -0.203 F 
ATOM     88  F   UNL A   1      44.113  37.927  34.085  1.00  0.00    -0.200 F 
ATOM     89  C   UNL A   1      43.213  36.854  35.988  1.00  0.00     0.200 A 
ATOM     90  F   UNL A   1      42.323  35.737  37.868  1.00  0.00    -0.200 F 
ATOM     91  F   UNL A   1      43.508  37.920  36.745  1.00  0.00    -0.200 F 
ENDBRANCH  58  81
ENDBRANCH  32  33
ENDBRANCH  24  27
ENDBRANCH  22  23
ENDBRANCH  21  22
ENDBRANCH  20  21
ENDBRANCH   1  20
TORSDOF 16
ENDMDL
