MODEL 1
REMARK VINA RESULT:     -12.5      0.000      0.000
REMARK SMILES COC(=O)[C@H]1Sc2nnc(CCC(=O)NCCCCNC(=O)c3ccc(-c4c5nc(c(-c6c(F)c(F)c(F)c(F)c6F)c6ccc([nH]6)c(-c6c(F)c(F)c(F)c(F)c6F)c6nc(c(-c7c(F)c(F)c(F)c(F)c7F)c7ccc4[nH]7)C=C6)C=C5)cc3)c(=O)n2N=C1C
REMARK SMILES IDX 16 1 15 2 13 3 14 4 12 6 11 7 10 8 5 9 6 10 90 11 7 12 89 13
REMARK SMILES IDX 91 14 8 15 88 16 9 17 86 18 87 19 3 20 4 21 2 22 1 23 17 24
REMARK SMILES IDX 18 25 19 26 20 27 21 28 22 30 23 31 24 32 85 33 25 34 84 35
REMARK SMILES IDX 26 36 27 37 28 38 78 39 29 40 83 41 77 42 79 43 30 44 82 45
REMARK SMILES IDX 76 46 75 47 31 49 63 50 43 51 62 52 44 53 47 54 61 55 80 56
REMARK SMILES IDX 45 57 46 58 60 60 81 61 48 62 32 63 33 64 41 65 34 66 35 67
REMARK SMILES IDX 39 68 42 69 36 70 37 71 40 72 38 73 64 74 65 75 73 76 66 77
REMARK SMILES IDX 67 78 71 79 74 80 68 81 69 82 72 83 70 84 49 85 50 86 58 87
REMARK SMILES IDX 51 88 52 89 56 90 59 91 53 92 54 93 57 94 55 95
REMARK H PARENT 15 5 20 29 79 48 47 59
REMARK Flexibility Score: inf
ROOT
ATOM      1  C   UNL A   1      32.505  29.827  25.847  1.00  0.00     0.116 C 
ENDROOT
BRANCH   1   2
ATOM      2  N   UNL A   1      33.130  29.677  24.548  1.00  0.00    -0.356 N 
ATOM      3  C   UNL A   1      32.740  28.914  23.488  1.00  0.00     0.220 C 
ATOM      4  O   UNL A   1      33.505  28.812  22.529  1.00  0.00    -0.275 OA
ATOM      5  H   UNL A   1      33.952  30.200  24.412  1.00  0.00     0.163 HD
BRANCH   3   6
ATOM      6  C   UNL A   1      31.393  28.217  23.494  1.00  0.00     0.106 C 
BRANCH   6   7
ATOM      7  C   UNL A   1      31.199  27.322  22.271  1.00  0.00     0.074 C 
BRANCH   7   8
ATOM      8  C   UNL A   1      31.525  25.870  22.560  1.00  0.00     0.131 A 
ATOM      9  C   UNL A   1      34.254  21.845  24.144  1.00  0.00     0.210 C 
ATOM     10  S   UNL A   1      32.590  21.690  23.470  1.00  0.00    -0.063 SA
ATOM     11  C   UNL A   1      35.050  22.881  23.399  1.00  0.00     0.061 C 
ATOM     12  C   UNL A   1      32.235  23.378  23.235  1.00  0.00     0.214 A 
ATOM     13  N   UNL A   1      34.577  23.886  22.725  1.00  0.00    -0.171 NA
ATOM     14  C   UNL A   1      36.557  22.752  23.401  1.00  0.00     0.065 C 
ATOM     15  N   UNL A   1      31.028  23.788  23.460  1.00  0.00    -0.123 NA
ATOM     16  N   UNL A   1      33.228  24.168  22.720  1.00  0.00    -0.169 N 
ATOM     17  N   UNL A   1      30.703  25.136  23.245  1.00  0.00    -0.147 NA
ATOM     18  C   UNL A   1      32.848  25.330  22.081  1.00  0.00     0.296 A 
ATOM     19  O   UNL A   1      33.479  25.955  21.236  1.00  0.00    -0.265 OA
BRANCH   9  20
ATOM     20  C   UNL A   1      34.174  21.967  25.645  1.00  0.00     0.325 C 
ATOM     21  O   UNL A   1      33.742  21.064  26.355  1.00  0.00    -0.250 OA
BRANCH  20  22
ATOM     22  O   UNL A   1      34.496  23.215  26.094  1.00  0.00    -0.468 OA
ATOM     23  C   UNL A   1      33.350  23.969  26.511  1.00  0.00     0.282 C 
ENDBRANCH  20  22
ENDBRANCH   9  20
ENDBRANCH   7   8
ENDBRANCH   6   7
ENDBRANCH   3   6
ENDBRANCH   1   2
BRANCH   1  24
ATOM     24  C   UNL A   1      31.358  30.825  25.762  1.00  0.00     0.023 C 
BRANCH  24  25
ATOM     25  C   UNL A   1      31.335  31.881  26.860  1.00  0.00     0.023 C 
BRANCH  25  26
ATOM     26  C   UNL A   1      32.668  32.584  27.074  1.00  0.00     0.116 C 
BRANCH  26  27
ATOM     27  N   UNL A   1      32.512  33.919  27.638  1.00  0.00    -0.352 N 
ATOM     28  C   UNL A   1      33.155  34.551  28.669  1.00  0.00     0.251 C 
ATOM     29  H   UNL A   1      31.819  34.463  27.200  1.00  0.00     0.163 HD
ATOM     30  O   UNL A   1      32.696  35.596  29.123  1.00  0.00    -0.269 OA
BRANCH  28  31
ATOM     31  C   UNL A   1      34.352  33.986  29.304  1.00  0.00     0.039 A 
ATOM     32  C   UNL A   1      35.602  34.480  28.906  1.00  0.00     0.014 A 
ATOM     33  C   UNL A   1      34.264  32.963  30.244  1.00  0.00     0.014 A 
ATOM     34  C   UNL A   1      36.757  34.011  29.515  1.00  0.00     0.010 A 
ATOM     35  C   UNL A   1      35.400  32.569  30.925  1.00  0.00     0.010 A 
ATOM     36  C   UNL A   1      36.650  33.082  30.553  1.00  0.00    -0.014 A 
BRANCH  36  37
ATOM     37  C   UNL A   1      37.841  32.538  31.226  1.00  0.00     0.031 A 
ATOM     38  C   UNL A   1      38.608  31.461  30.526  1.00  0.00     0.074 A 
ATOM     39  C   UNL A   1      38.139  32.942  32.470  1.00  0.00     0.049 A 
ATOM     40  N   UNL A   1      39.500  30.638  31.002  1.00  0.00    -0.248 NA
ATOM     41  C   UNL A   1      38.275  31.242  29.107  1.00  0.00     0.031 C 
ATOM     42  C   UNL A   1      37.429  33.984  33.216  1.00  0.00     0.029 A 
ATOM     43  N   UNL A   1      39.107  32.511  33.335  1.00  0.00    -0.354 N 
ATOM     44  C   UNL A   1      39.792  29.769  29.960  1.00  0.00     0.074 A 
ATOM     45  C   UNL A   1      38.959  30.142  28.838  1.00  0.00     0.031 C 
ATOM     46  C   UNL A   1      38.002  34.127  34.422  1.00  0.00     0.029 A 
ATOM     47  C   UNL A   1      39.080  33.152  34.547  1.00  0.00     0.049 A 
ATOM     48  H   UNL A   1      39.758  31.809  33.108  1.00  0.00     0.167 HD
ATOM     49  C   UNL A   1      40.687  28.757  29.951  1.00  0.00     0.037 A 
ATOM     50  C   UNL A   1      39.839  32.949  35.639  1.00  0.00     0.037 A 
ATOM     51  C   UNL A   1      41.535  28.456  31.072  1.00  0.00     0.049 A 
ATOM     52  C   UNL A   1      40.871  31.857  35.585  1.00  0.00     0.074 A 
ATOM     53  C   UNL A   1      42.502  27.478  31.193  1.00  0.00     0.029 A 
ATOM     54  N   UNL A   1      41.526  29.168  32.266  1.00  0.00    -0.354 N 
ATOM     55  N   UNL A   1      41.127  31.015  34.612  1.00  0.00    -0.248 NA
ATOM     56  C   UNL A   1      41.711  31.680  36.775  1.00  0.00     0.031 C 
ATOM     57  C   UNL A   1      43.072  27.592  32.467  1.00  0.00     0.029 A 
ATOM     58  C   UNL A   1      42.478  28.660  33.128  1.00  0.00     0.049 A 
ATOM     59  H   UNL A   1      40.928  29.924  32.468  1.00  0.00     0.167 HD
ATOM     60  C   UNL A   1      42.160  30.210  35.063  1.00  0.00     0.074 A 
ATOM     61  C   UNL A   1      42.497  30.679  36.395  1.00  0.00     0.031 C 
ATOM     62  C   UNL A   1      42.773  29.171  34.444  1.00  0.00     0.037 A 
BRANCH  49  63
ATOM     63  C   UNL A   1      40.772  27.924  28.707  1.00  0.00     0.064 A 
ATOM     64  C   UNL A   1      41.588  28.295  27.627  1.00  0.00     0.173 A 
ATOM     65  C   UNL A   1      40.003  26.758  28.575  1.00  0.00     0.173 A 
ATOM     66  F   UNL A   1      42.323  29.416  27.691  1.00  0.00    -0.203 F 
ATOM     67  C   UNL A   1      41.602  27.554  26.448  1.00  0.00     0.198 A 
ATOM     68  C   UNL A   1      40.042  26.002  27.407  1.00  0.00     0.198 A 
ATOM     69  F   UNL A   1      39.201  26.360  29.573  1.00  0.00    -0.203 F 
ATOM     70  F   UNL A   1      42.335  27.968  25.406  1.00  0.00    -0.200 F 
ATOM     71  C   UNL A   1      40.832  26.406  26.339  1.00  0.00     0.200 A 
ATOM     72  F   UNL A   1      39.299  24.891  27.304  1.00  0.00    -0.200 F 
ATOM     73  F   UNL A   1      40.838  25.698  25.202  1.00  0.00    -0.200 F 
ENDBRANCH  49  63
BRANCH  50  74
ATOM     74  C   UNL A   1      39.665  33.822  36.825  1.00  0.00     0.064 A 
ATOM     75  C   UNL A   1      40.266  35.088  36.866  1.00  0.00     0.173 A 
ATOM     76  C   UNL A   1      38.842  33.456  37.899  1.00  0.00     0.173 A 
ATOM     77  F   UNL A   1      41.070  35.479  35.866  1.00  0.00    -0.203 F 
ATOM     78  C   UNL A   1      40.048  35.955  37.935  1.00  0.00     0.198 A 
ATOM     79  C   UNL A   1      38.607  34.331  38.959  1.00  0.00     0.198 A 
ATOM     80  F   UNL A   1      38.232  32.261  37.900  1.00  0.00    -0.203 F 
ATOM     81  F   UNL A   1      40.643  37.156  37.953  1.00  0.00    -0.200 F 
ATOM     82  C   UNL A   1      39.211  35.580  38.976  1.00  0.00     0.200 A 
ATOM     83  F   UNL A   1      37.784  33.973  39.953  1.00  0.00    -0.200 F 
ATOM     84  F   UNL A   1      38.984  36.423  39.992  1.00  0.00    -0.200 F 
ENDBRANCH  50  74
BRANCH  62  85
ATOM     85  C   UNL A   1      43.868  28.487  35.198  1.00  0.00     0.064 A 
ATOM     86  C   UNL A   1      43.593  27.411  36.052  1.00  0.00     0.173 A 
ATOM     87  C   UNL A   1      45.205  28.857  34.997  1.00  0.00     0.173 A 
ATOM     88  F   UNL A   1      42.327  27.034  36.279  1.00  0.00    -0.203 F 
ATOM     89  C   UNL A   1      44.626  26.730  36.688  1.00  0.00     0.198 A 
ATOM     90  C   UNL A   1      46.235  28.160  35.617  1.00  0.00     0.198 A 
ATOM     91  F   UNL A   1      45.508  29.877  34.181  1.00  0.00    -0.203 F 
ATOM     92  F   UNL A   1      44.346  25.715  37.517  1.00  0.00    -0.200 F 
ATOM     93  C   UNL A   1      45.946  27.098  36.462  1.00  0.00     0.200 A 
ATOM     94  F   UNL A   1      47.508  28.509  35.392  1.00  0.00    -0.200 F 
ATOM     95  F   UNL A   1      46.939  26.429  37.063  1.00  0.00    -0.200 F 
ENDBRANCH  62  85
ENDBRANCH  36  37
ENDBRANCH  28  31
ENDBRANCH  26  27
ENDBRANCH  25  26
ENDBRANCH  24  25
ENDBRANCH   1  24
TORSDOF 15
ENDMDL
MODEL 2
REMARK VINA RESULT:     -12.3      0.705      1.739
REMARK SMILES COC(=O)[C@H]1Sc2nnc(CCC(=O)NCCCCNC(=O)c3ccc(-c4c5nc(c(-c6c(F)c(F)c(F)c(F)c6F)c6ccc([nH]6)c(-c6c(F)c(F)c(F)c(F)c6F)c6nc(c(-c7c(F)c(F)c(F)c(F)c7F)c7ccc4[nH]7)C=C6)C=C5)cc3)c(=O)n2N=C1C
REMARK SMILES IDX 16 1 15 2 13 3 14 4 12 6 11 7 10 8 5 9 6 10 90 11 7 12 89 13
REMARK SMILES IDX 91 14 8 15 88 16 9 17 86 18 87 19 3 20 4 21 2 22 1 23 17 24
REMARK SMILES IDX 18 25 19 26 20 27 21 28 22 30 23 31 24 32 85 33 25 34 84 35
REMARK SMILES IDX 26 36 27 37 28 38 78 39 29 40 83 41 77 42 79 43 30 44 82 45
REMARK SMILES IDX 76 46 75 47 31 49 63 50 43 51 62 52 44 53 47 54 61 55 80 56
REMARK SMILES IDX 45 57 46 58 60 60 81 61 48 62 32 63 33 64 41 65 34 66 35 67
REMARK SMILES IDX 39 68 42 69 36 70 37 71 40 72 38 73 64 74 65 75 73 76 66 77
REMARK SMILES IDX 67 78 71 79 74 80 68 81 69 82 72 83 70 84 49 85 50 86 58 87
REMARK SMILES IDX 51 88 52 89 56 90 59 91 53 92 54 93 57 94 55 95
REMARK H PARENT 15 5 20 29 79 48 47 59
REMARK Flexibility Score: inf
ROOT
ATOM      1  C   UNL A   1      31.569  29.491  25.294  1.00  0.00     0.116 C 
ENDROOT
BRANCH   1   2
ATOM      2  N   UNL A   1      30.656  30.076  24.334  1.00  0.00    -0.356 N 
ATOM      3  C   UNL A   1      29.966  29.474  23.325  1.00  0.00     0.220 C 
ATOM      4  O   UNL A   1      29.361  30.186  22.524  1.00  0.00    -0.275 OA
ATOM      5  H   UNL A   1      30.512  31.045  24.424  1.00  0.00     0.163 HD
BRANCH   3   6
ATOM      6  C   UNL A   1      29.943  27.962  23.202  1.00  0.00     0.106 C 
BRANCH   6   7
ATOM      7  C   UNL A   1      31.096  27.434  22.350  1.00  0.00     0.074 C 
BRANCH   7   8
ATOM      8  C   UNL A   1      31.435  25.991  22.667  1.00  0.00     0.131 A 
ATOM      9  C   UNL A   1      34.232  22.010  24.245  1.00  0.00     0.210 C 
ATOM     10  S   UNL A   1      32.539  21.838  23.653  1.00  0.00    -0.063 SA
ATOM     11  C   UNL A   1      34.993  23.022  23.434  1.00  0.00     0.061 C 
ATOM     12  C   UNL A   1      32.174  23.519  23.384  1.00  0.00     0.214 A 
ATOM     13  N   UNL A   1      34.490  24.007  22.752  1.00  0.00    -0.171 NA
ATOM     14  C   UNL A   1      36.499  22.890  23.370  1.00  0.00     0.065 C 
ATOM     15  N   UNL A   1      30.979  23.937  23.652  1.00  0.00    -0.123 NA
ATOM     16  N   UNL A   1      33.142  24.291  22.800  1.00  0.00    -0.169 N 
ATOM     17  N   UNL A   1      30.644  25.279  23.411  1.00  0.00    -0.147 NA
ATOM     18  C   UNL A   1      32.733  25.434  22.144  1.00  0.00     0.296 A 
ATOM     19  O   UNL A   1      33.325  26.031  21.253  1.00  0.00    -0.265 OA
BRANCH   9  20
ATOM     20  C   UNL A   1      34.221  22.178  25.743  1.00  0.00     0.325 C 
ATOM     21  O   UNL A   1      35.125  21.754  26.458  1.00  0.00    -0.250 OA
BRANCH  20  22
ATOM     22  O   UNL A   1      33.056  22.714  26.210  1.00  0.00    -0.468 OA
ATOM     23  C   UNL A   1      32.908  22.572  27.629  1.00  0.00     0.282 C 
ENDBRANCH  20  22
ENDBRANCH   9  20
ENDBRANCH   7   8
ENDBRANCH   6   7
ENDBRANCH   3   6
ENDBRANCH   1   2
BRANCH   1  24
ATOM     24  C   UNL A   1      31.484  30.237  26.619  1.00  0.00     0.023 C 
BRANCH  24  25
ATOM     25  C   UNL A   1      31.384  31.753  26.504  1.00  0.00     0.023 C 
BRANCH  25  26
ATOM     26  C   UNL A   1      32.682  32.486  26.810  1.00  0.00     0.116 C 
BRANCH  26  27
ATOM     27  N   UNL A   1      32.456  33.798  27.405  1.00  0.00    -0.352 N 
ATOM     28  C   UNL A   1      33.042  34.425  28.472  1.00  0.00     0.251 C 
ATOM     29  H   UNL A   1      31.757  34.327  26.960  1.00  0.00     0.163 HD
ATOM     30  O   UNL A   1      32.529  35.439  28.939  1.00  0.00    -0.269 OA
BRANCH  28  31
ATOM     31  C   UNL A   1      34.240  33.889  29.129  1.00  0.00     0.039 A 
ATOM     32  C   UNL A   1      35.472  34.497  28.846  1.00  0.00     0.014 A 
ATOM     33  C   UNL A   1      34.175  32.788  29.978  1.00  0.00     0.014 A 
ATOM     34  C   UNL A   1      36.623  34.055  29.482  1.00  0.00     0.010 A 
ATOM     35  C   UNL A   1      35.298  32.414  30.691  1.00  0.00     0.010 A 
ATOM     36  C   UNL A   1      36.527  33.038  30.435  1.00  0.00    -0.014 A 
BRANCH  36  37
ATOM     37  C   UNL A   1      37.716  32.519  31.131  1.00  0.00     0.031 A 
ATOM     38  C   UNL A   1      38.506  31.443  30.457  1.00  0.00     0.074 A 
ATOM     39  C   UNL A   1      37.992  32.944  32.374  1.00  0.00     0.049 A 
ATOM     40  N   UNL A   1      39.403  30.639  30.956  1.00  0.00    -0.248 NA
ATOM     41  C   UNL A   1      38.195  31.199  29.037  1.00  0.00     0.031 C 
ATOM     42  C   UNL A   1      37.258  33.987  33.096  1.00  0.00     0.029 A 
ATOM     43  N   UNL A   1      38.953  32.539  33.257  1.00  0.00    -0.354 N 
ATOM     44  C   UNL A   1      39.719  29.759  29.931  1.00  0.00     0.074 A 
ATOM     45  C   UNL A   1      38.897  30.105  28.793  1.00  0.00     0.031 C 
ATOM     46  C   UNL A   1      37.813  34.155  34.306  1.00  0.00     0.029 A 
ATOM     47  C   UNL A   1      38.901  33.195  34.460  1.00  0.00     0.049 A 
ATOM     48  H   UNL A   1      39.617  31.842  33.049  1.00  0.00     0.167 HD
ATOM     49  C   UNL A   1      40.628  28.758  29.948  1.00  0.00     0.037 A 
ATOM     50  C   UNL A   1      39.649  33.018  35.564  1.00  0.00     0.037 A 
ATOM     51  C   UNL A   1      41.465  28.485  31.084  1.00  0.00     0.049 A 
ATOM     52  C   UNL A   1      40.695  31.939  35.540  1.00  0.00     0.074 A 
ATOM     53  C   UNL A   1      42.442  27.521  31.232  1.00  0.00     0.029 A 
ATOM     54  N   UNL A   1      41.430  29.213  32.268  1.00  0.00    -0.354 N 
ATOM     55  N   UNL A   1      40.975  31.087  34.582  1.00  0.00    -0.248 NA
ATOM     56  C   UNL A   1      41.522  31.790  36.742  1.00  0.00     0.031 C 
ATOM     57  C   UNL A   1      42.994  27.661  32.511  1.00  0.00     0.029 A 
ATOM     58  C   UNL A   1      42.378  28.730  33.150  1.00  0.00     0.049 A 
ATOM     59  H   UNL A   1      40.819  29.964  32.452  1.00  0.00     0.167 HD
ATOM     60  C   UNL A   1      42.013  30.302  35.058  1.00  0.00     0.074 A 
ATOM     61  C   UNL A   1      42.325  30.795  36.387  1.00  0.00     0.031 C 
ATOM     62  C   UNL A   1      42.647  29.263  34.462  1.00  0.00     0.037 A 
BRANCH  49  63
ATOM     63  C   UNL A   1      40.740  27.910  28.717  1.00  0.00     0.064 A 
ATOM     64  C   UNL A   1      40.027  26.708  28.584  1.00  0.00     0.173 A 
ATOM     65  C   UNL A   1      41.596  28.281  27.670  1.00  0.00     0.173 A 
ATOM     66  F   UNL A   1      39.215  26.292  29.568  1.00  0.00    -0.203 F 
ATOM     67  C   UNL A   1      40.196  25.891  27.468  1.00  0.00     0.198 A 
ATOM     68  C   UNL A   1      41.740  27.478  26.542  1.00  0.00     0.198 A 
ATOM     69  F   UNL A   1      42.307  29.416  27.747  1.00  0.00    -0.203 F 
ATOM     70  F   UNL A   1      39.558  24.715  27.398  1.00  0.00    -0.200 F 
ATOM     71  C   UNL A   1      41.049  26.278  26.446  1.00  0.00     0.200 A 
ATOM     72  F   UNL A   1      42.564  27.854  25.553  1.00  0.00    -0.200 F 
ATOM     73  F   UNL A   1      41.219  25.488  25.378  1.00  0.00    -0.200 F 
ENDBRANCH  49  63
BRANCH  50  74
ATOM     74  C   UNL A   1      39.448  33.905  36.736  1.00  0.00     0.064 A 
ATOM     75  C   UNL A   1      38.667  33.480  37.820  1.00  0.00     0.173 A 
ATOM     76  C   UNL A   1      40.085  35.149  36.840  1.00  0.00     0.173 A 
ATOM     77  F   UNL A   1      38.030  32.301  37.763  1.00  0.00    -0.203 F 
ATOM     78  C   UNL A   1      38.533  34.264  38.964  1.00  0.00     0.198 A 
ATOM     79  C   UNL A   1      39.967  35.925  37.992  1.00  0.00     0.198 A 
ATOM     80  F   UNL A   1      40.855  35.595  35.836  1.00  0.00    -0.203 F 
ATOM     81  F   UNL A   1      37.772  33.837  39.981  1.00  0.00    -0.200 F 
ATOM     82  C   UNL A   1      39.191  35.482  39.053  1.00  0.00     0.200 A 
ATOM     83  F   UNL A   1      40.619  37.092  38.082  1.00  0.00    -0.200 F 
ATOM     84  F   UNL A   1      39.080  36.225  40.162  1.00  0.00    -0.200 F 
ENDBRANCH  50  74
BRANCH  62  85
ATOM     85  C   UNL A   1      43.741  28.604  35.240  1.00  0.00     0.064 A 
ATOM     86  C   UNL A   1      43.467  27.545  36.116  1.00  0.00     0.173 A 
ATOM     87  C   UNL A   1      45.077  28.980  35.042  1.00  0.00     0.173 A 
ATOM     88  F   UNL A   1      42.201  27.164  36.341  1.00  0.00    -0.203 F 
ATOM     89  C   UNL A   1      44.500  26.886  36.775  1.00  0.00     0.198 A 
ATOM     90  C   UNL A   1      46.107  28.305  35.686  1.00  0.00     0.198 A 
ATOM     91  F   UNL A   1      45.379  29.984  34.206  1.00  0.00    -0.203 F 
ATOM     92  F   UNL A   1      44.220  25.888  37.624  1.00  0.00    -0.200 F 
ATOM     93  C   UNL A   1      45.818  27.260  36.552  1.00  0.00     0.200 A 
ATOM     94  F   UNL A   1      47.380  28.658  35.463  1.00  0.00    -0.200 F 
ATOM     95  F   UNL A   1      46.812  26.612  37.175  1.00  0.00    -0.200 F 
ENDBRANCH  62  85
ENDBRANCH  36  37
ENDBRANCH  28  31
ENDBRANCH  26  27
ENDBRANCH  25  26
ENDBRANCH  24  25
ENDBRANCH   1  24
TORSDOF 15
ENDMDL
MODEL 3
REMARK VINA RESULT:     -12.3      5.354     11.117
REMARK SMILES COC(=O)[C@H]1Sc2nnc(CCC(=O)NCCCCNC(=O)c3ccc(-c4c5nc(c(-c6c(F)c(F)c(F)c(F)c6F)c6ccc([nH]6)c(-c6c(F)c(F)c(F)c(F)c6F)c6nc(c(-c7c(F)c(F)c(F)c(F)c7F)c7ccc4[nH]7)C=C6)C=C5)cc3)c(=O)n2N=C1C
REMARK SMILES IDX 16 1 15 2 13 3 14 4 12 6 11 7 10 8 5 9 6 10 90 11 7 12 89 13
REMARK SMILES IDX 91 14 8 15 88 16 9 17 86 18 87 19 3 20 4 21 2 22 1 23 17 24
REMARK SMILES IDX 18 25 19 26 20 27 21 28 22 30 23 31 24 32 85 33 25 34 84 35
REMARK SMILES IDX 26 36 27 37 28 38 78 39 29 40 83 41 77 42 79 43 30 44 82 45
REMARK SMILES IDX 76 46 75 47 31 49 63 50 43 51 62 52 44 53 47 54 61 55 80 56
REMARK SMILES IDX 45 57 46 58 60 60 81 61 48 62 32 63 33 64 41 65 34 66 35 67
REMARK SMILES IDX 39 68 42 69 36 70 37 71 40 72 38 73 64 74 65 75 73 76 66 77
REMARK SMILES IDX 67 78 71 79 74 80 68 81 69 82 72 83 70 84 49 85 50 86 58 87
REMARK SMILES IDX 51 88 52 89 56 90 59 91 53 92 54 93 57 94 55 95
REMARK H PARENT 15 5 20 29 79 48 47 59
REMARK Flexibility Score: inf
ROOT
ATOM      1  C   UNL A   1      36.301  21.531  25.474  1.00  0.00     0.116 C 
ENDROOT
BRANCH   1   2
ATOM      2  N   UNL A   1      35.382  21.573  26.594  1.00  0.00    -0.356 N 
ATOM      3  C   UNL A   1      34.020  21.574  26.590  1.00  0.00     0.220 C 
ATOM      4  O   UNL A   1      33.431  21.772  27.653  1.00  0.00    -0.275 OA
ATOM      5  H   UNL A   1      35.802  21.606  27.483  1.00  0.00     0.163 HD
BRANCH   3   6
ATOM      6  C   UNL A   1      33.253  21.328  25.304  1.00  0.00     0.106 C 
BRANCH   6   7
ATOM      7  C   UNL A   1      31.757  21.599  25.462  1.00  0.00     0.074 C 
BRANCH   7   8
ATOM      8  C   UNL A   1      31.378  23.008  25.052  1.00  0.00     0.131 A 
ATOM      9  C   UNL A   1      31.394  28.122  25.074  1.00  0.00     0.210 C 
ATOM     10  S   UNL A   1      30.381  27.156  23.940  1.00  0.00    -0.063 SA
ATOM     11  C   UNL A   1      31.433  27.495  26.440  1.00  0.00     0.061 C 
ATOM     12  C   UNL A   1      30.913  25.561  24.394  1.00  0.00     0.214 A 
ATOM     13  N   UNL A   1      31.238  26.242  26.725  1.00  0.00    -0.171 NA
ATOM     14  C   UNL A   1      31.704  28.395  27.625  1.00  0.00     0.065 C 
ATOM     15  N   UNL A   1      31.035  24.668  23.464  1.00  0.00    -0.123 NA
ATOM     16  N   UNL A   1      31.072  25.303  25.729  1.00  0.00    -0.169 N 
ATOM     17  N   UNL A   1      31.427  23.364  23.804  1.00  0.00    -0.147 NA
ATOM     18  C   UNL A   1      31.003  23.986  26.134  1.00  0.00     0.296 A 
ATOM     19  O   UNL A   1      30.723  23.566  27.251  1.00  0.00    -0.265 OA
BRANCH   9  20
ATOM     20  C   UNL A   1      32.710  28.447  24.414  1.00  0.00     0.325 C 
ATOM     21  O   UNL A   1      33.738  28.641  25.058  1.00  0.00    -0.250 OA
BRANCH  20  22
ATOM     22  O   UNL A   1      32.597  28.633  23.066  1.00  0.00    -0.468 OA
ATOM     23  C   UNL A   1      33.843  28.467  22.376  1.00  0.00     0.282 C 
ENDBRANCH  20  22
ENDBRANCH   9  20
ENDBRANCH   7   8
ENDBRANCH   6   7
ENDBRANCH   3   6
ENDBRANCH   1   2
BRANCH   1  24
ATOM     24  C   UNL A   1      36.482  20.095  25.001  1.00  0.00     0.023 C 
BRANCH  24  25
ATOM     25  C   UNL A   1      37.917  19.691  24.687  1.00  0.00     0.023 C 
BRANCH  25  26
ATOM     26  C   UNL A   1      38.925  20.107  25.748  1.00  0.00     0.116 C 
BRANCH  26  27
ATOM     27  N   UNL A   1      40.066  19.202  25.820  1.00  0.00    -0.352 N 
ATOM     28  C   UNL A   1      41.405  19.438  25.980  1.00  0.00     0.251 C 
ATOM     29  H   UNL A   1      39.831  18.250  25.738  1.00  0.00     0.163 HD
ATOM     30  O   UNL A   1      42.211  18.535  25.776  1.00  0.00    -0.269 OA
BRANCH  28  31
ATOM     31  C   UNL A   1      41.925  20.767  26.327  1.00  0.00     0.039 A 
ATOM     32  C   UNL A   1      42.272  21.007  27.664  1.00  0.00     0.014 A 
ATOM     33  C   UNL A   1      42.039  21.776  25.375  1.00  0.00     0.014 A 
ATOM     34  C   UNL A   1      42.815  22.231  28.028  1.00  0.00     0.010 A 
ATOM     35  C   UNL A   1      42.674  22.956  25.712  1.00  0.00     0.010 A 
ATOM     36  C   UNL A   1      43.051  23.192  27.042  1.00  0.00    -0.014 A 
BRANCH  36  37
ATOM     37  C   UNL A   1      43.611  24.513  27.371  1.00  0.00     0.031 A 
ATOM     38  C   UNL A   1      42.692  25.533  27.962  1.00  0.00     0.074 A 
ATOM     39  C   UNL A   1      44.881  24.793  27.039  1.00  0.00     0.049 A 
ATOM     40  N   UNL A   1      42.851  26.822  28.081  1.00  0.00    -0.248 NA
ATOM     41  C   UNL A   1      41.384  25.038  28.430  1.00  0.00     0.031 C 
ATOM     42  C   UNL A   1      45.832  23.847  26.451  1.00  0.00     0.029 A 
ATOM     43  N   UNL A   1      45.584  25.962  27.133  1.00  0.00    -0.354 N 
ATOM     44  C   UNL A   1      41.647  27.298  28.579  1.00  0.00     0.074 A 
ATOM     45  C   UNL A   1      40.755  26.168  28.711  1.00  0.00     0.031 C 
ATOM     46  C   UNL A   1      47.006  24.470  26.258  1.00  0.00     0.029 A 
ATOM     47  C   UNL A   1      46.867  25.866  26.658  1.00  0.00     0.049 A 
ATOM     48  H   UNL A   1      45.206  26.791  27.504  1.00  0.00     0.167 HD
ATOM     49  C   UNL A   1      41.330  28.571  28.904  1.00  0.00     0.037 A 
ATOM     50  C   UNL A   1      47.812  26.818  26.547  1.00  0.00     0.037 A 
ATOM     51  C   UNL A   1      42.267  29.656  28.810  1.00  0.00     0.049 A 
ATOM     52  C   UNL A   1      47.456  28.215  26.972  1.00  0.00     0.074 A 
ATOM     53  C   UNL A   1      42.090  30.988  29.128  1.00  0.00     0.029 A 
ATOM     54  N   UNL A   1      43.583  29.512  28.383  1.00  0.00    -0.354 N 
ATOM     55  N   UNL A   1      46.309  28.672  27.415  1.00  0.00    -0.248 NA
ATOM     56  C   UNL A   1      48.514  29.227  26.876  1.00  0.00     0.031 C 
ATOM     57  C   UNL A   1      43.298  31.653  28.883  1.00  0.00     0.029 A 
ATOM     58  C   UNL A   1      44.235  30.728  28.440  1.00  0.00     0.049 A 
ATOM     59  H   UNL A   1      43.990  28.667  28.084  1.00  0.00     0.167 HD
ATOM     60  C   UNL A   1      46.502  30.023  27.659  1.00  0.00     0.074 A 
ATOM     61  C   UNL A   1      47.888  30.306  27.331  1.00  0.00     0.031 C 
ATOM     62  C   UNL A   1      45.619  30.950  28.103  1.00  0.00     0.037 A 
BRANCH  49  63
ATOM     63  C   UNL A   1      39.930  28.833  29.373  1.00  0.00     0.064 A 
ATOM     64  C   UNL A   1      39.568  28.694  30.723  1.00  0.00     0.173 A 
ATOM     65  C   UNL A   1      38.928  29.194  28.461  1.00  0.00     0.173 A 
ATOM     66  F   UNL A   1      40.482  28.325  31.632  1.00  0.00    -0.203 F 
ATOM     67  C   UNL A   1      38.248  28.868  31.134  1.00  0.00     0.198 A 
ATOM     68  C   UNL A   1      37.615  29.397  28.880  1.00  0.00     0.198 A 
ATOM     69  F   UNL A   1      39.216  29.334  27.159  1.00  0.00    -0.203 F 
ATOM     70  F   UNL A   1      37.915  28.660  32.415  1.00  0.00    -0.200 F 
ATOM     71  C   UNL A   1      37.274  29.222  30.214  1.00  0.00     0.200 A 
ATOM     72  F   UNL A   1      36.674  29.742  27.990  1.00  0.00    -0.200 F 
ATOM     73  F   UNL A   1      36.003  29.380  30.608  1.00  0.00    -0.200 F 
ENDBRANCH  49  63
BRANCH  50  74
ATOM     74  C   UNL A   1      49.164  26.455  26.057  1.00  0.00     0.064 A 
ATOM     75  C   UNL A   1      49.529  26.717  24.730  1.00  0.00     0.173 A 
ATOM     76  C   UNL A   1      50.140  25.920  26.909  1.00  0.00     0.173 A 
ATOM     77  F   UNL A   1      48.627  27.221  23.875  1.00  0.00    -0.203 F 
ATOM     78  C   UNL A   1      50.821  26.459  24.273  1.00  0.00     0.198 A 
ATOM     79  C   UNL A   1      51.438  25.680  26.457  1.00  0.00     0.198 A 
ATOM     80  F   UNL A   1      49.845  25.665  28.193  1.00  0.00    -0.203 F 
ATOM     81  F   UNL A   1      51.140  26.710  22.996  1.00  0.00    -0.200 F 
ATOM     82  C   UNL A   1      51.776  25.950  25.139  1.00  0.00     0.200 A 
ATOM     83  F   UNL A   1      52.363  25.206  27.302  1.00  0.00    -0.200 F 
ATOM     84  F   UNL A   1      53.024  25.723  24.705  1.00  0.00    -0.200 F 
ENDBRANCH  50  74
BRANCH  62  85
ATOM     85  C   UNL A   1      46.132  32.346  28.265  1.00  0.00     0.064 A 
ATOM     86  C   UNL A   1      46.778  32.746  29.442  1.00  0.00     0.173 A 
ATOM     87  C   UNL A   1      46.051  33.258  27.204  1.00  0.00     0.173 A 
ATOM     88  F   UNL A   1      46.866  31.906  30.484  1.00  0.00    -0.203 F 
ATOM     89  C   UNL A   1      47.322  34.022  29.553  1.00  0.00     0.198 A 
ATOM     90  C   UNL A   1      46.615  34.524  27.311  1.00  0.00     0.198 A 
ATOM     91  F   UNL A   1      45.447  32.909  26.058  1.00  0.00    -0.203 F 
ATOM     92  F   UNL A   1      47.919  34.395  30.693  1.00  0.00    -0.200 F 
ATOM     93  C   UNL A   1      47.249  34.905  28.485  1.00  0.00     0.200 A 
ATOM     94  F   UNL A   1      46.553  35.372  26.276  1.00  0.00    -0.200 F 
ATOM     95  F   UNL A   1      47.789  36.127  28.589  1.00  0.00    -0.200 F 
ENDBRANCH  62  85
ENDBRANCH  36  37
ENDBRANCH  28  31
ENDBRANCH  26  27
ENDBRANCH  25  26
ENDBRANCH  24  25
ENDBRANCH   1  24
TORSDOF 15
ENDMDL
