MODEL 1
REMARK VINA RESULT:     -10.0      0.000      0.000
REMARK SMILES CCN(CC(C)(C)O)C(=O)NC[C@@](C)(O)CC(=O)NCCCCNC(=O)c1ccc(-c2c3nc(c(-c4c(F)c(F)c(F)c(F)c4F)c4ccc([nH]4)c(-c4c(F)c(F)c(F)c(F)c4F)c4nc(c(-c5c(F)c(F)c(F)c(F)c5F)c5ccc2[nH]5)C=C4)C=C3)cc1
REMARK SMILES IDX 17 1 18 2 19 3 16 5 13 6 14 7 12 8 11 9 9 10 10 11 3 13 2 14
REMARK SMILES IDX 1 15 4 16 5 17 6 18 7 19 8 20 15 22 20 24 21 25 22 26 23 27
REMARK SMILES IDX 24 28 25 29 26 31 27 32 28 33 89 34 29 35 88 36 30 37 31 38
REMARK SMILES IDX 32 39 82 40 33 41 87 42 81 43 83 44 34 45 86 46 80 47 79 48
REMARK SMILES IDX 35 50 67 51 47 52 66 53 48 54 51 55 65 56 84 57 49 58 50 59
REMARK SMILES IDX 64 61 85 62 52 63 36 64 37 65 45 66 38 67 39 68 43 69 46 70
REMARK SMILES IDX 40 71 41 72 44 73 42 74 68 75 69 76 77 77 70 78 71 79 75 80
REMARK SMILES IDX 78 81 72 82 73 83 76 84 74 85 53 86 54 87 62 88 55 89 56 90
REMARK SMILES IDX 60 91 63 92 57 93 58 94 61 95 59 96
REMARK H PARENT 19 4 11 12 8 21 15 23 24 30 83 49 51 60
REMARK Flexibility Score: inf
ROOT
ATOM      1  C   UNL A   1      30.115  26.642  24.469  1.00  0.00     0.222 C 
ATOM      2  O   UNL A   1      29.412  26.260  23.524  1.00  0.00    -0.275 OA
ATOM      3  N   UNL A   1      30.701  27.863  24.323  1.00  0.00    -0.356 N 
ATOM      4  H   UNL A   1      30.537  28.279  23.446  1.00  0.00     0.163 HD
ENDROOT
BRANCH   1   5
ATOM      5  C   UNL A   1      30.223  25.775  25.716  1.00  0.00     0.136 C 
BRANCH   5   6
ATOM      6  C   UNL A   1      31.341  24.732  25.994  1.00  0.00     0.088 C 
ATOM      7  C   UNL A   1      31.108  23.600  24.964  1.00  0.00     0.044 C 
BRANCH   6   8
ATOM      8  C   UNL A   1      32.867  25.143  25.955  1.00  0.00     0.153 C 
BRANCH   8   9
ATOM      9  N   UNL A   1      33.605  24.908  24.729  1.00  0.00    -0.335 N 
ATOM     10  C   UNL A   1      34.335  23.954  24.129  1.00  0.00     0.317 C 
ATOM     11  O   UNL A   1      34.588  24.229  22.947  1.00  0.00    -0.249 OA
ATOM     12  H   UNL A   1      33.553  25.701  24.150  1.00  0.00     0.165 HD
BRANCH  10  13
ATOM     13  N   UNL A   1      34.806  22.800  24.693  1.00  0.00    -0.322 N 
BRANCH  13  14
ATOM     14  C   UNL A   1      34.165  21.560  24.207  1.00  0.00     0.118 C 
ATOM     15  C   UNL A   1      34.509  20.341  25.050  1.00  0.00     0.027 C 
ENDBRANCH  13  14
BRANCH  13  16
ATOM     16  C   UNL A   1      35.812  22.557  25.755  1.00  0.00     0.155 C 
BRANCH  16  17
ATOM     17  C   UNL A   1      37.278  22.847  25.336  1.00  0.00     0.077 C 
ATOM     18  C   UNL A   1      37.814  23.932  26.212  1.00  0.00     0.043 C 
ATOM     19  C   UNL A   1      38.225  21.660  25.486  1.00  0.00     0.043 C 
BRANCH  17  20
ATOM     20  O   UNL A   1      37.381  23.298  23.983  1.00  0.00    -0.389 OA
ATOM     21  H   UNL A   1      37.878  22.647  23.463  1.00  0.00     0.211 HD
ENDBRANCH  17  20
ENDBRANCH  16  17
ENDBRANCH  13  16
ENDBRANCH  10  13
ENDBRANCH   8   9
ENDBRANCH   6   8
BRANCH   6  22
ATOM     22  O   UNL A   1      31.083  24.106  27.258  1.00  0.00    -0.388 OA
ATOM     23  H   UNL A   1      30.210  24.379  27.582  1.00  0.00     0.211 HD
ENDBRANCH   6  22
ENDBRANCH   5   6
ENDBRANCH   1   5
BRANCH   3  24
ATOM     24  C   UNL A   1      31.519  28.670  25.209  1.00  0.00     0.116 C 
BRANCH  24  25
ATOM     25  C   UNL A   1      32.980  28.864  24.769  1.00  0.00     0.023 C 
BRANCH  25  26
ATOM     26  C   UNL A   1      34.114  28.414  25.697  1.00  0.00     0.023 C 
BRANCH  26  27
ATOM     27  C   UNL A   1      33.880  28.540  27.189  1.00  0.00     0.116 C 
BRANCH  27  28
ATOM     28  N   UNL A   1      33.782  29.921  27.624  1.00  0.00    -0.352 N 
ATOM     29  C   UNL A   1      34.681  30.691  28.316  1.00  0.00     0.251 C 
ATOM     30  H   UNL A   1      32.940  30.373  27.387  1.00  0.00     0.163 HD
ATOM     31  O   UNL A   1      34.328  31.799  28.735  1.00  0.00    -0.269 OA
BRANCH  29  32
ATOM     32  C   UNL A   1      36.055  30.214  28.591  1.00  0.00     0.039 A 
ATOM     33  C   UNL A   1      37.026  30.346  27.592  1.00  0.00     0.014 A 
ATOM     34  C   UNL A   1      36.394  29.606  29.803  1.00  0.00     0.014 A 
ATOM     35  C   UNL A   1      38.336  29.918  27.825  1.00  0.00     0.010 A 
ATOM     36  C   UNL A   1      37.719  29.262  30.068  1.00  0.00     0.010 A 
ATOM     37  C   UNL A   1      38.703  29.399  29.078  1.00  0.00    -0.014 A 
BRANCH  37  38
ATOM     38  C   UNL A   1      40.101  28.974  29.360  1.00  0.00     0.031 A 
ATOM     39  C   UNL A   1      41.035  29.891  30.101  1.00  0.00     0.074 A 
ATOM     40  C   UNL A   1      40.545  27.784  28.908  1.00  0.00     0.049 A 
ATOM     41  N   UNL A   1      42.305  29.732  30.386  1.00  0.00    -0.248 NA
ATOM     42  C   UNL A   1      40.477  31.172  30.565  1.00  0.00     0.031 C 
ATOM     43  C   UNL A   1      39.754  26.824  28.139  1.00  0.00     0.029 A 
ATOM     44  N   UNL A   1      41.777  27.185  29.019  1.00  0.00    -0.354 N 
ATOM     45  C   UNL A   1      42.693  30.888  31.051  1.00  0.00     0.074 A 
ATOM     46  C   UNL A   1      41.546  31.770  31.069  1.00  0.00     0.031 C 
ATOM     47  C   UNL A   1      40.511  25.750  27.863  1.00  0.00     0.029 A 
ATOM     48  C   UNL A   1      41.853  25.963  28.399  1.00  0.00     0.049 A 
ATOM     49  H   UNL A   1      42.533  27.595  29.499  1.00  0.00     0.167 HD
ATOM     50  C   UNL A   1      43.886  31.177  31.625  1.00  0.00     0.037 A 
ATOM     51  C   UNL A   1      42.890  25.114  28.263  1.00  0.00     0.037 A 
ATOM     52  C   UNL A   1      45.023  30.293  31.616  1.00  0.00     0.049 A 
ATOM     53  C   UNL A   1      44.215  25.471  28.885  1.00  0.00     0.074 A 
ATOM     54  C   UNL A   1      46.265  30.479  32.195  1.00  0.00     0.029 A 
ATOM     55  N   UNL A   1      45.055  29.056  30.989  1.00  0.00    -0.354 N 
ATOM     56  N   UNL A   1      44.549  26.540  29.567  1.00  0.00    -0.248 NA
ATOM     57  C   UNL A   1      45.305  24.497  28.728  1.00  0.00     0.031 C 
ATOM     58  C   UNL A   1      47.065  29.377  31.879  1.00  0.00     0.029 A 
ATOM     59  C   UNL A   1      46.303  28.476  31.154  1.00  0.00     0.049 A 
ATOM     60  H   UNL A   1      44.303  28.650  30.501  1.00  0.00     0.167 HD
ATOM     61  C   UNL A   1      45.873  26.355  29.944  1.00  0.00     0.074 A 
ATOM     62  C   UNL A   1      46.275  25.061  29.433  1.00  0.00     0.031 C 
ATOM     63  C   UNL A   1      46.685  27.181  30.649  1.00  0.00     0.037 A 
BRANCH  50  64
ATOM     64  C   UNL A   1      44.019  32.502  32.321  1.00  0.00     0.064 A 
ATOM     65  C   UNL A   1      44.456  33.649  31.638  1.00  0.00     0.173 A 
ATOM     66  C   UNL A   1      43.673  32.640  33.674  1.00  0.00     0.173 A 
ATOM     67  F   UNL A   1      44.811  33.572  30.347  1.00  0.00    -0.203 F 
ATOM     68  C   UNL A   1      44.571  34.874  32.291  1.00  0.00     0.198 A 
ATOM     69  C   UNL A   1      43.756  33.874  34.315  1.00  0.00     0.198 A 
ATOM     70  F   UNL A   1      43.242  31.579  34.374  1.00  0.00    -0.203 F 
ATOM     71  F   UNL A   1      45.041  35.941  31.632  1.00  0.00    -0.200 F 
ATOM     72  C   UNL A   1      44.212  34.987  33.626  1.00  0.00     0.200 A 
ATOM     73  F   UNL A   1      43.393  33.985  35.600  1.00  0.00    -0.200 F 
ATOM     74  F   UNL A   1      44.314  36.169  34.251  1.00  0.00    -0.200 F 
ENDBRANCH  50  64
BRANCH  51  75
ATOM     75  C   UNL A   1      42.722  23.840  27.512  1.00  0.00     0.064 A 
ATOM     76  C   UNL A   1      43.072  23.746  26.157  1.00  0.00     0.173 A 
ATOM     77  C   UNL A   1      42.189  22.698  28.127  1.00  0.00     0.173 A 
ATOM     78  F   UNL A   1      43.567  24.816  25.518  1.00  0.00    -0.203 F 
ATOM     79  C   UNL A   1      42.865  22.570  25.440  1.00  0.00     0.198 A 
ATOM     80  C   UNL A   1      42.015  21.511  27.417  1.00  0.00     0.198 A 
ATOM     81  F   UNL A   1      41.843  22.731  29.422  1.00  0.00    -0.203 F 
ATOM     82  F   UNL A   1      43.152  22.526  24.131  1.00  0.00    -0.200 F 
ATOM     83  C   UNL A   1      42.341  21.452  26.071  1.00  0.00     0.200 A 
ATOM     84  F   UNL A   1      41.526  20.428  28.036  1.00  0.00    -0.200 F 
ATOM     85  F   UNL A   1      42.144  20.320  25.381  1.00  0.00    -0.200 F 
ENDBRANCH  51  75
BRANCH  63  86
ATOM     86  C   UNL A   1      48.075  26.696  30.948  1.00  0.00     0.064 A 
ATOM     87  C   UNL A   1      48.357  25.905  32.071  1.00  0.00     0.173 A 
ATOM     88  C   UNL A   1      49.132  26.997  30.075  1.00  0.00     0.173 A 
ATOM     89  F   UNL A   1      47.385  25.602  32.944  1.00  0.00    -0.203 F 
ATOM     90  C   UNL A   1      49.651  25.459  32.326  1.00  0.00     0.198 A 
ATOM     91  C   UNL A   1      50.418  26.520  30.314  1.00  0.00     0.198 A 
ATOM     92  F   UNL A   1      48.916  27.744  28.981  1.00  0.00    -0.203 F 
ATOM     93  F   UNL A   1      49.908  24.750  33.433  1.00  0.00    -0.200 F 
ATOM     94  C   UNL A   1      50.678  25.760  31.443  1.00  0.00     0.200 A 
ATOM     95  F   UNL A   1      51.405  26.797  29.450  1.00  0.00    -0.200 F 
ATOM     96  F   UNL A   1      51.921  25.321  31.685  1.00  0.00    -0.200 F 
ENDBRANCH  63  86
ENDBRANCH  37  38
ENDBRANCH  29  32
ENDBRANCH  27  28
ENDBRANCH  26  27
ENDBRANCH  25  26
ENDBRANCH  24  25
ENDBRANCH   3  24
TORSDOF 20
ENDMDL
MODEL 2
REMARK VINA RESULT:      -9.9      3.695      8.857
REMARK SMILES CCN(CC(C)(C)O)C(=O)NC[C@@](C)(O)CC(=O)NCCCCNC(=O)c1ccc(-c2c3nc(c(-c4c(F)c(F)c(F)c(F)c4F)c4ccc([nH]4)c(-c4c(F)c(F)c(F)c(F)c4F)c4nc(c(-c5c(F)c(F)c(F)c(F)c5F)c5ccc2[nH]5)C=C4)C=C3)cc1
REMARK SMILES IDX 17 1 18 2 19 3 16 5 13 6 14 7 12 8 11 9 9 10 10 11 3 13 2 14
REMARK SMILES IDX 1 15 4 16 5 17 6 18 7 19 8 20 15 22 20 24 21 25 22 26 23 27
REMARK SMILES IDX 24 28 25 29 26 31 27 32 28 33 89 34 29 35 88 36 30 37 31 38
REMARK SMILES IDX 32 39 82 40 33 41 87 42 81 43 83 44 34 45 86 46 80 47 79 48
REMARK SMILES IDX 35 50 67 51 47 52 66 53 48 54 51 55 65 56 84 57 49 58 50 59
REMARK SMILES IDX 64 61 85 62 52 63 36 64 37 65 45 66 38 67 39 68 43 69 46 70
REMARK SMILES IDX 40 71 41 72 44 73 42 74 68 75 69 76 77 77 70 78 71 79 75 80
REMARK SMILES IDX 78 81 72 82 73 83 76 84 74 85 53 86 54 87 62 88 55 89 56 90
REMARK SMILES IDX 60 91 63 92 57 93 58 94 61 95 59 96
REMARK H PARENT 19 4 11 12 8 21 15 23 24 30 83 49 51 60
REMARK Flexibility Score: inf
ROOT
ATOM      1  C   UNL A   1      31.760  27.423  26.387  1.00  0.00     0.222 C 
ATOM      2  O   UNL A   1      31.170  26.435  26.846  1.00  0.00    -0.275 OA
ATOM      3  N   UNL A   1      31.627  28.580  27.094  1.00  0.00    -0.356 N 
ATOM      4  H   UNL A   1      31.024  28.504  27.868  1.00  0.00     0.163 HD
ENDROOT
BRANCH   1   5
ATOM      5  C   UNL A   1      32.616  27.267  25.138  1.00  0.00     0.136 C 
BRANCH   5   6
ATOM      6  C   UNL A   1      32.076  27.077  23.693  1.00  0.00     0.088 C 
ATOM      7  C   UNL A   1      31.395  28.419  23.332  1.00  0.00     0.044 C 
BRANCH   6   8
ATOM      8  C   UNL A   1      33.041  26.667  22.510  1.00  0.00     0.153 C 
BRANCH   8   9
ATOM      9  N   UNL A   1      33.214  25.254  22.231  1.00  0.00    -0.335 N 
ATOM     10  C   UNL A   1      33.443  24.096  22.870  1.00  0.00     0.317 C 
ATOM     11  O   UNL A   1      33.310  23.113  22.125  1.00  0.00    -0.249 OA
ATOM     12  H   UNL A   1      33.142  25.092  21.264  1.00  0.00     0.165 HD
BRANCH  10  13
ATOM     13  N   UNL A   1      33.808  23.934  24.179  1.00  0.00    -0.322 N 
BRANCH  13  14
ATOM     14  C   UNL A   1      35.265  23.935  24.426  1.00  0.00     0.118 C 
ATOM     15  C   UNL A   1      35.624  23.655  25.878  1.00  0.00     0.027 C 
ENDBRANCH  13  14
BRANCH  13  16
ATOM     16  C   UNL A   1      33.011  23.698  25.406  1.00  0.00     0.155 C 
BRANCH  16  17
ATOM     17  C   UNL A   1      31.697  22.902  25.181  1.00  0.00     0.077 C 
ATOM     18  C   UNL A   1      32.044  21.464  24.973  1.00  0.00     0.043 C 
ATOM     19  C   UNL A   1      30.721  22.948  26.354  1.00  0.00     0.043 C 
BRANCH  17  20
ATOM     20  O   UNL A   1      30.982  23.344  24.024  1.00  0.00    -0.389 OA
ATOM     21  H   UNL A   1      30.848  24.303  24.073  1.00  0.00     0.211 HD
ENDBRANCH  17  20
ENDBRANCH  16  17
ENDBRANCH  13  16
ENDBRANCH  10  13
ENDBRANCH   8   9
ENDBRANCH   6   8
BRANCH   6  22
ATOM     22  O   UNL A   1      30.993  26.139  23.726  1.00  0.00    -0.388 OA
ATOM     23  H   UNL A   1      30.150  26.617  23.686  1.00  0.00     0.211 HD
ENDBRANCH   6  22
ENDBRANCH   5   6
ENDBRANCH   1   5
BRANCH   3  24
ATOM     24  C   UNL A   1      32.202  29.901  26.929  1.00  0.00     0.116 C 
BRANCH  24  25
ATOM     25  C   UNL A   1      31.351  30.899  26.125  1.00  0.00     0.023 C 
BRANCH  25  26
ATOM     26  C   UNL A   1      31.311  32.370  26.550  1.00  0.00     0.023 C 
BRANCH  26  27
ATOM     27  C   UNL A   1      32.569  32.949  27.165  1.00  0.00     0.116 C 
BRANCH  27  28
ATOM     28  N   UNL A   1      32.382  34.303  27.651  1.00  0.00    -0.352 N 
ATOM     29  C   UNL A   1      33.022  34.971  28.662  1.00  0.00     0.251 C 
ATOM     30  H   UNL A   1      31.690  34.822  27.182  1.00  0.00     0.163 HD
ATOM     31  O   UNL A   1      32.592  36.071  29.025  1.00  0.00    -0.269 OA
BRANCH  29  32
ATOM     32  C   UNL A   1      34.202  34.392  29.345  1.00  0.00     0.039 A 
ATOM     33  C   UNL A   1      34.003  33.635  30.505  1.00  0.00     0.014 A 
ATOM     34  C   UNL A   1      35.502  34.614  28.883  1.00  0.00     0.014 A 
ATOM     35  C   UNL A   1      35.096  33.063  31.165  1.00  0.00     0.010 A 
ATOM     36  C   UNL A   1      36.581  33.971  29.488  1.00  0.00     0.010 A 
ATOM     37  C   UNL A   1      36.393  33.200  30.645  1.00  0.00    -0.014 A 
BRANCH  37  38
ATOM     38  C   UNL A   1      37.563  32.567  31.311  1.00  0.00     0.031 A 
ATOM     39  C   UNL A   1      38.292  31.433  30.642  1.00  0.00     0.074 A 
ATOM     40  C   UNL A   1      37.942  32.978  32.537  1.00  0.00     0.049 A 
ATOM     41  N   UNL A   1      39.290  30.710  31.086  1.00  0.00    -0.248 NA
ATOM     42  C   UNL A   1      37.823  31.042  29.303  1.00  0.00     0.031 C 
ATOM     43  C   UNL A   1      37.292  34.035  33.312  1.00  0.00     0.029 A 
ATOM     44  N   UNL A   1      38.959  32.546  33.355  1.00  0.00    -0.354 N 
ATOM     45  C   UNL A   1      39.559  29.781  30.089  1.00  0.00     0.074 A 
ATOM     46  C   UNL A   1      38.578  29.985  29.045  1.00  0.00     0.031 C 
ATOM     47  C   UNL A   1      37.935  34.183  34.482  1.00  0.00     0.029 A 
ATOM     48  C   UNL A   1      39.015  33.204  34.559  1.00  0.00     0.049 A 
ATOM     49  H   UNL A   1      39.587  31.833  33.100  1.00  0.00     0.167 HD
ATOM     50  C   UNL A   1      40.553  28.862  30.030  1.00  0.00     0.037 A 
ATOM     51  C   UNL A   1      39.836  33.029  35.613  1.00  0.00     0.037 A 
ATOM     52  C   UNL A   1      41.536  28.666  31.064  1.00  0.00     0.049 A 
ATOM     53  C   UNL A   1      40.915  31.981  35.535  1.00  0.00     0.074 A 
ATOM     54  C   UNL A   1      42.602  27.784  31.087  1.00  0.00     0.029 A 
ATOM     55  N   UNL A   1      41.568  29.363  32.263  1.00  0.00    -0.354 N 
ATOM     56  N   UNL A   1      41.198  31.153  34.559  1.00  0.00    -0.248 NA
ATOM     57  C   UNL A   1      41.797  31.851  36.704  1.00  0.00     0.031 C 
ATOM     58  C   UNL A   1      43.250  27.913  32.319  1.00  0.00     0.029 A 
ATOM     59  C   UNL A   1      42.626  28.918  33.040  1.00  0.00     0.049 A 
ATOM     60  H   UNL A   1      40.935  30.071  32.523  1.00  0.00     0.167 HD
ATOM     61  C   UNL A   1      42.303  30.426  34.981  1.00  0.00     0.074 A 
ATOM     62  C   UNL A   1      42.654  30.926  36.294  1.00  0.00     0.031 C 
ATOM     63  C   UNL A   1      42.970  29.434  34.341  1.00  0.00     0.037 A 
BRANCH  50  64
ATOM     64  C   UNL A   1      40.634  28.002  28.800  1.00  0.00     0.064 A 
ATOM     65  C   UNL A   1      39.916  26.799  28.697  1.00  0.00     0.173 A 
ATOM     66  C   UNL A   1      41.406  28.398  27.697  1.00  0.00     0.173 A 
ATOM     67  F   UNL A   1      39.171  26.367  29.725  1.00  0.00    -0.203 F 
ATOM     68  C   UNL A   1      39.992  26.013  27.550  1.00  0.00     0.198 A 
ATOM     69  C   UNL A   1      41.452  27.626  26.538  1.00  0.00     0.198 A 
ATOM     70  F   UNL A   1      42.106  29.541  27.737  1.00  0.00    -0.203 F 
ATOM     71  F   UNL A   1      39.340  24.844  27.497  1.00  0.00    -0.200 F 
ATOM     72  C   UNL A   1      40.753  26.431  26.469  1.00  0.00     0.200 A 
ATOM     73  F   UNL A   1      42.175  28.040  25.489  1.00  0.00    -0.200 F 
ATOM     74  F   UNL A   1      40.819  25.678  25.362  1.00  0.00    -0.200 F 
ENDBRANCH  50  64
BRANCH  51  75
ATOM     75  C   UNL A   1      39.676  33.867  36.833  1.00  0.00     0.064 A 
ATOM     76  C   UNL A   1      38.884  33.438  37.908  1.00  0.00     0.173 A 
ATOM     77  C   UNL A   1      40.294  35.121  36.939  1.00  0.00     0.173 A 
ATOM     78  F   UNL A   1      38.256  32.255  37.846  1.00  0.00    -0.203 F 
ATOM     79  C   UNL A   1      38.691  34.246  39.027  1.00  0.00     0.198 A 
ATOM     80  C   UNL A   1      40.128  35.913  38.075  1.00  0.00     0.198 A 
ATOM     81  F   UNL A   1      41.067  35.577  35.943  1.00  0.00    -0.203 F 
ATOM     82  F   UNL A   1      37.881  33.837  40.013  1.00  0.00    -0.200 F 
ATOM     83  C   UNL A   1      39.318  35.480  39.112  1.00  0.00     0.200 A 
ATOM     84  F   UNL A   1      40.751  37.096  38.160  1.00  0.00    -0.200 F 
ATOM     85  F   UNL A   1      39.133  36.255  40.190  1.00  0.00    -0.200 F 
ENDBRANCH  51  75
BRANCH  63  86
ATOM     86  C   UNL A   1      44.171  28.851  35.030  1.00  0.00     0.064 A 
ATOM     87  C   UNL A   1      45.455  29.388  34.859  1.00  0.00     0.173 A 
ATOM     88  C   UNL A   1      44.026  27.762  35.904  1.00  0.00     0.173 A 
ATOM     89  F   UNL A   1      45.650  30.419  34.023  1.00  0.00    -0.203 F 
ATOM     90  C   UNL A   1      46.555  28.837  35.512  1.00  0.00     0.198 A 
ATOM     91  C   UNL A   1      45.122  27.236  36.583  1.00  0.00     0.198 A 
ATOM     92  F   UNL A   1      42.819  27.215  36.110  1.00  0.00    -0.203 F 
ATOM     93  F   UNL A   1      47.780  29.332  35.292  1.00  0.00    -0.200 F 
ATOM     94  C   UNL A   1      46.385  27.768  36.380  1.00  0.00     0.200 A 
ATOM     95  F   UNL A   1      44.953  26.214  37.434  1.00  0.00    -0.200 F 
ATOM     96  F   UNL A   1      47.443  27.246  37.016  1.00  0.00    -0.200 F 
ENDBRANCH  63  86
ENDBRANCH  37  38
ENDBRANCH  29  32
ENDBRANCH  27  28
ENDBRANCH  26  27
ENDBRANCH  25  26
ENDBRANCH  24  25
ENDBRANCH   3  24
TORSDOF 20
ENDMDL
MODEL 3
REMARK VINA RESULT:      -9.8      3.479      5.091
REMARK SMILES CCN(CC(C)(C)O)C(=O)NC[C@@](C)(O)CC(=O)NCCCCNC(=O)c1ccc(-c2c3nc(c(-c4c(F)c(F)c(F)c(F)c4F)c4ccc([nH]4)c(-c4c(F)c(F)c(F)c(F)c4F)c4nc(c(-c5c(F)c(F)c(F)c(F)c5F)c5ccc2[nH]5)C=C4)C=C3)cc1
REMARK SMILES IDX 17 1 18 2 19 3 16 5 13 6 14 7 12 8 11 9 9 10 10 11 3 13 2 14
REMARK SMILES IDX 1 15 4 16 5 17 6 18 7 19 8 20 15 22 20 24 21 25 22 26 23 27
REMARK SMILES IDX 24 28 25 29 26 31 27 32 28 33 89 34 29 35 88 36 30 37 31 38
REMARK SMILES IDX 32 39 82 40 33 41 87 42 81 43 83 44 34 45 86 46 80 47 79 48
REMARK SMILES IDX 35 50 67 51 47 52 66 53 48 54 51 55 65 56 84 57 49 58 50 59
REMARK SMILES IDX 64 61 85 62 52 63 36 64 37 65 45 66 38 67 39 68 43 69 46 70
REMARK SMILES IDX 40 71 41 72 44 73 42 74 68 75 69 76 77 77 70 78 71 79 75 80
REMARK SMILES IDX 78 81 72 82 73 83 76 84 74 85 53 86 54 87 62 88 55 89 56 90
REMARK SMILES IDX 60 91 63 92 57 93 58 94 61 95 59 96
REMARK H PARENT 19 4 11 12 8 21 15 23 24 30 83 49 51 60
REMARK Flexibility Score: inf
ROOT
ATOM      1  C   UNL A   1      31.185  27.288  26.192  1.00  0.00     0.222 C 
ATOM      2  O   UNL A   1      30.656  26.319  26.752  1.00  0.00    -0.275 OA
ATOM      3  N   UNL A   1      31.513  28.338  26.997  1.00  0.00    -0.356 N 
ATOM      4  H   UNL A   1      31.236  28.220  27.934  1.00  0.00     0.163 HD
ENDROOT
BRANCH   1   5
ATOM      5  C   UNL A   1      31.480  27.218  24.700  1.00  0.00     0.136 C 
BRANCH   5   6
ATOM      6  C   UNL A   1      30.685  26.377  23.663  1.00  0.00     0.088 C 
ATOM      7  C   UNL A   1      30.940  27.062  22.299  1.00  0.00     0.044 C 
BRANCH   6   8
ATOM      8  C   UNL A   1      30.943  24.825  23.504  1.00  0.00     0.153 C 
BRANCH   8   9
ATOM      9  N   UNL A   1      31.924  24.395  22.526  1.00  0.00    -0.335 N 
ATOM     10  C   UNL A   1      33.088  23.729  22.454  1.00  0.00     0.317 C 
ATOM     11  O   UNL A   1      33.415  23.478  21.285  1.00  0.00    -0.249 OA
ATOM     12  H   UNL A   1      31.649  24.682  21.626  1.00  0.00     0.165 HD
BRANCH  10  13
ATOM     13  N   UNL A   1      33.891  23.359  23.498  1.00  0.00    -0.322 N 
BRANCH  13  14
ATOM     14  C   UNL A   1      34.576  24.474  24.186  1.00  0.00     0.118 C 
ATOM     15  C   UNL A   1      34.018  24.750  25.575  1.00  0.00     0.027 C 
ENDBRANCH  13  14
BRANCH  13  16
ATOM     16  C   UNL A   1      34.256  22.029  24.042  1.00  0.00     0.155 C 
BRANCH  16  17
ATOM     17  C   UNL A   1      33.105  21.295  24.782  1.00  0.00     0.077 C 
ATOM     18  C   UNL A   1      32.699  20.110  23.969  1.00  0.00     0.043 C 
ATOM     19  C   UNL A   1      33.478  20.767  26.165  1.00  0.00     0.043 C 
BRANCH  17  20
ATOM     20  O   UNL A   1      31.948  22.119  24.947  1.00  0.00    -0.389 OA
ATOM     21  H   UNL A   1      31.396  21.763  25.660  1.00  0.00     0.211 HD
ENDBRANCH  17  20
ENDBRANCH  16  17
ENDBRANCH  13  16
ENDBRANCH  10  13
ENDBRANCH   8   9
ENDBRANCH   6   8
BRANCH   6  22
ATOM     22  O   UNL A   1      29.283  26.571  23.890  1.00  0.00    -0.388 OA
ATOM     23  H   UNL A   1      29.110  27.510  24.060  1.00  0.00     0.211 HD
ENDBRANCH   6  22
ENDBRANCH   5   6
ENDBRANCH   1   5
BRANCH   3  24
ATOM     24  C   UNL A   1      32.192  29.594  26.741  1.00  0.00     0.116 C 
BRANCH  24  25
ATOM     25  C   UNL A   1      31.373  30.647  25.974  1.00  0.00     0.023 C 
BRANCH  25  26
ATOM     26  C   UNL A   1      31.359  32.097  26.466  1.00  0.00     0.023 C 
BRANCH  26  27
ATOM     27  C   UNL A   1      32.645  32.642  27.055  1.00  0.00     0.116 C 
BRANCH  27  28
ATOM     28  N   UNL A   1      32.489  33.980  27.596  1.00  0.00    -0.352 N 
ATOM     29  C   UNL A   1      33.153  34.595  28.626  1.00  0.00     0.251 C 
ATOM     30  H   UNL A   1      31.801  34.529  27.156  1.00  0.00     0.163 HD
ATOM     31  O   UNL A   1      32.747  35.687  29.037  1.00  0.00    -0.269 OA
BRANCH  29  32
ATOM     32  C   UNL A   1      34.329  33.967  29.270  1.00  0.00     0.039 A 
ATOM     33  C   UNL A   1      34.117  32.971  30.230  1.00  0.00     0.014 A 
ATOM     34  C   UNL A   1      35.634  34.370  28.973  1.00  0.00     0.014 A 
ATOM     35  C   UNL A   1      35.208  32.349  30.848  1.00  0.00     0.010 A 
ATOM     36  C   UNL A   1      36.719  33.689  29.521  1.00  0.00     0.010 A 
ATOM     37  C   UNL A   1      36.520  32.681  30.476  1.00  0.00    -0.014 A 
BRANCH  37  38
ATOM     38  C   UNL A   1      37.693  32.003  31.093  1.00  0.00     0.031 A 
ATOM     39  C   UNL A   1      38.167  32.410  32.462  1.00  0.00     0.074 A 
ATOM     40  C   UNL A   1      38.359  31.056  30.405  1.00  0.00     0.049 A 
ATOM     41  N   UNL A   1      39.205  31.987  33.141  1.00  0.00    -0.248 NA
ATOM     42  C   UNL A   1      37.387  33.449  33.152  1.00  0.00     0.031 C 
ATOM     43  C   UNL A   1      38.029  30.603  29.054  1.00  0.00     0.029 A 
ATOM     44  N   UNL A   1      39.464  30.311  30.743  1.00  0.00    -0.354 N 
ATOM     45  C   UNL A   1      39.203  32.710  34.328  1.00  0.00     0.074 A 
ATOM     46  C   UNL A   1      38.103  33.647  34.249  1.00  0.00     0.031 C 
ATOM     47  C   UNL A   1      38.898  29.648  28.684  1.00  0.00     0.029 A 
ATOM     48  C   UNL A   1      39.872  29.450  29.754  1.00  0.00     0.049 A 
ATOM     49  H   UNL A   1      39.920  30.389  31.612  1.00  0.00     0.167 HD
ATOM     50  C   UNL A   1      40.021  32.585  35.400  1.00  0.00     0.037 A 
ATOM     51  C   UNL A   1      40.921  28.606  29.707  1.00  0.00     0.037 A 
ATOM     52  C   UNL A   1      41.109  31.645  35.482  1.00  0.00     0.049 A 
ATOM     53  C   UNL A   1      41.833  28.505  30.901  1.00  0.00     0.074 A 
ATOM     54  C   UNL A   1      41.976  31.418  36.535  1.00  0.00     0.029 A 
ATOM     55  N   UNL A   1      41.480  30.779  34.464  1.00  0.00    -0.354 N 
ATOM     56  N   UNL A   1      41.781  29.150  32.042  1.00  0.00    -0.248 NA
ATOM     57  C   UNL A   1      42.947  27.550  30.806  1.00  0.00     0.031 C 
ATOM     58  C   UNL A   1      42.902  30.449  36.138  1.00  0.00     0.029 A 
ATOM     59  C   UNL A   1      42.576  30.027  34.859  1.00  0.00     0.049 A 
ATOM     60  H   UNL A   1      41.032  30.707  33.591  1.00  0.00     0.167 HD
ATOM     61  C   UNL A   1      42.831  28.660  32.807  1.00  0.00     0.074 A 
ATOM     62  C   UNL A   1      43.492  27.648  32.010  1.00  0.00     0.031 C 
ATOM     63  C   UNL A   1      43.216  29.015  34.058  1.00  0.00     0.037 A 
BRANCH  50  64
ATOM     64  C   UNL A   1      39.765  33.482  36.579  1.00  0.00     0.064 A 
ATOM     65  C   UNL A   1      40.383  34.737  36.694  1.00  0.00     0.173 A 
ATOM     66  C   UNL A   1      38.865  33.102  37.587  1.00  0.00     0.173 A 
ATOM     67  F   UNL A   1      41.261  35.146  35.766  1.00  0.00    -0.203 F 
ATOM     68  C   UNL A   1      40.135  35.563  37.787  1.00  0.00     0.198 A 
ATOM     69  C   UNL A   1      38.592  33.945  38.661  1.00  0.00     0.198 A 
ATOM     70  F   UNL A   1      38.240  31.917  37.524  1.00  0.00    -0.203 F 
ATOM     71  F   UNL A   1      40.778  36.732  37.902  1.00  0.00    -0.200 F 
ATOM     72  C   UNL A   1      39.233  35.170  38.765  1.00  0.00     0.200 A 
ATOM     73  F   UNL A   1      37.708  33.571  39.596  1.00  0.00    -0.200 F 
ATOM     74  F   UNL A   1      38.987  35.970  39.812  1.00  0.00    -0.200 F 
ENDBRANCH  50  64
BRANCH  51  75
ATOM     75  C   UNL A   1      41.166  27.783  28.492  1.00  0.00     0.064 A 
ATOM     76  C   UNL A   1      42.030  28.225  27.479  1.00  0.00     0.173 A 
ATOM     77  C   UNL A   1      40.525  26.549  28.308  1.00  0.00     0.173 A 
ATOM     78  F   UNL A   1      42.651  29.407  27.598  1.00  0.00    -0.203 F 
ATOM     79  C   UNL A   1      42.218  27.480  26.317  1.00  0.00     0.198 A 
ATOM     80  C   UNL A   1      40.742  25.788  27.160  1.00  0.00     0.198 A 
ATOM     81  F   UNL A   1      39.693  26.076  29.247  1.00  0.00    -0.203 F 
ATOM     82  F   UNL A   1      43.002  27.955  25.340  1.00  0.00    -0.200 F 
ATOM     83  C   UNL A   1      41.578  26.260  26.161  1.00  0.00     0.200 A 
ATOM     84  F   UNL A   1      40.136  24.601  27.022  1.00  0.00    -0.200 F 
ATOM     85  F   UNL A   1      41.761  25.543  25.043  1.00  0.00    -0.200 F 
ENDBRANCH  51  75
BRANCH  63  86
ATOM     86  C   UNL A   1      44.377  28.277  34.661  1.00  0.00     0.064 A 
ATOM     87  C   UNL A   1      45.693  28.751  34.550  1.00  0.00     0.173 A 
ATOM     88  C   UNL A   1      44.164  27.098  35.392  1.00  0.00     0.173 A 
ATOM     89  F   UNL A   1      45.953  29.865  33.849  1.00  0.00    -0.203 F 
ATOM     90  C   UNL A   1      46.755  28.055  35.123  1.00  0.00     0.198 A 
ATOM     91  C   UNL A   1      45.224  26.425  35.993  1.00  0.00     0.198 A 
ATOM     92  F   UNL A   1      42.924  26.605  35.535  1.00  0.00    -0.203 F 
ATOM     93  F   UNL A   1      48.009  28.497  34.958  1.00  0.00    -0.200 F 
ATOM     94  C   UNL A   1      46.518  26.899  35.850  1.00  0.00     0.200 A 
ATOM     95  F   UNL A   1      44.991  25.316  36.711  1.00  0.00    -0.200 F 
ATOM     96  F   UNL A   1      47.541  26.236  36.409  1.00  0.00    -0.200 F 
ENDBRANCH  63  86
ENDBRANCH  37  38
ENDBRANCH  29  32
ENDBRANCH  27  28
ENDBRANCH  26  27
ENDBRANCH  25  26
ENDBRANCH  24  25
ENDBRANCH   3  24
TORSDOF 20
ENDMDL
