MODEL 1
REMARK VINA RESULT:     -14.3      0.000      0.000
REMARK SMILES Cc1cccc(-c2ccc(Cl)c(C(=O)NCCCCNC(=O)c3ccc(-c4c5nc(c(-c6c(F)c(F)c(F)c(F)c6F)c6ccc([nH]6)c(-c6c(F)c(F)c(F)c(F)c6F)c6nc(c(-c7c(F)c(F)c(F)c(F)c7F)c7ccc4[nH]7)C=C6)C=C5)cc3)c2)c1
REMARK SMILES IDX 18 1 17 2 16 3 15 4 13 5 14 6 12 8 7 9 8 10 86 11 9 12 10 13
REMARK SMILES IDX 11 14 6 15 1 16 2 17 3 18 87 19 4 20 5 21 19 22 20 23 21 24
REMARK SMILES IDX 22 26 23 27 24 28 85 29 25 30 84 31 26 32 27 33 28 34 78 35
REMARK SMILES IDX 29 36 83 37 77 38 79 39 30 40 82 41 76 42 75 43 31 45 63 46
REMARK SMILES IDX 43 47 62 48 44 49 47 50 61 51 80 52 45 53 46 54 60 56 81 57
REMARK SMILES IDX 48 58 32 59 33 60 41 61 34 62 35 63 39 64 42 65 36 66 37 67
REMARK SMILES IDX 40 68 38 69 64 70 65 71 73 72 66 73 67 74 71 75 74 76 68 77
REMARK SMILES IDX 69 78 72 79 70 80 49 81 50 82 58 83 51 84 52 85 56 86 59 87
REMARK SMILES IDX 53 88 54 89 57 90 55 91
REMARK H PARENT 15 7 20 25 79 44 47 55
REMARK Flexibility Score: inf
ROOT
ATOM      1  C   UNL A   1      32.779  30.945  27.145  1.00  0.00     0.023 C 
ENDROOT
BRANCH   1   2
ATOM      2  C   UNL A   1      31.784  29.859  26.751  1.00  0.00     0.023 C 
BRANCH   2   3
ATOM      3  C   UNL A   1      32.189  28.415  27.042  1.00  0.00     0.116 C 
BRANCH   3   4
ATOM      4  N   UNL A   1      32.907  27.743  25.969  1.00  0.00    -0.352 N 
ATOM      5  C   UNL A   1      32.495  27.356  24.712  1.00  0.00     0.252 C 
ATOM      6  O   UNL A   1      33.318  26.839  23.957  1.00  0.00    -0.269 OA
ATOM      7  H   UNL A   1      33.846  27.530  26.176  1.00  0.00     0.163 HD
BRANCH   5   8
ATOM      8  C   UNL A   1      31.081  27.453  24.270  1.00  0.00     0.059 A 
ATOM      9  C   UNL A   1      29.424  28.764  23.016  1.00  0.00    -0.017 A 
ATOM     10  C   UNL A   1      28.498  27.734  23.242  1.00  0.00     0.010 A 
ATOM     11  C   UNL A   1      30.736  28.577  23.485  1.00  0.00     0.024 A 
ATOM     12  C   UNL A   1      28.808  26.660  24.075  1.00  0.00     0.022 A 
ATOM     13  C   UNL A   1      30.072  26.568  24.660  1.00  0.00     0.053 A 
ATOM     14  Cl  UNL A   1      30.236  25.439  25.961  1.00  0.00    -0.083 Cl
BRANCH   9  15
ATOM     15  C   UNL A   1      28.960  30.040  22.440  1.00  0.00    -0.018 A 
ATOM     16  C   UNL A   1      29.218  33.742  23.393  1.00  0.00     0.044 C 
ATOM     17  C   UNL A   1      28.871  32.494  22.638  1.00  0.00    -0.051 A 
ATOM     18  C   UNL A   1      28.132  32.554  21.457  1.00  0.00     0.003 A 
ATOM     19  C   UNL A   1      29.276  31.241  23.112  1.00  0.00     0.012 A 
ATOM     20  C   UNL A   1      27.817  31.381  20.764  1.00  0.00     0.001 A 
ATOM     21  C   UNL A   1      28.230  30.133  21.249  1.00  0.00     0.009 A 
ENDBRANCH   9  15
ENDBRANCH   5   8
ENDBRANCH   3   4
ENDBRANCH   2   3
ENDBRANCH   1   2
BRANCH   1  22
ATOM     22  C   UNL A   1      34.125  30.470  27.679  1.00  0.00     0.116 C 
BRANCH  22  23
ATOM     23  N   UNL A   1      34.798  31.384  28.592  1.00  0.00    -0.352 N 
ATOM     24  C   UNL A   1      35.962  31.209  29.330  1.00  0.00     0.251 C 
ATOM     25  H   UNL A   1      34.361  32.259  28.703  1.00  0.00     0.163 HD
ATOM     26  O   UNL A   1      36.338  32.090  30.085  1.00  0.00    -0.269 OA
BRANCH  24  27
ATOM     27  C   UNL A   1      36.829  30.017  29.102  1.00  0.00     0.039 A 
ATOM     28  C   UNL A   1      37.007  29.111  30.158  1.00  0.00     0.014 A 
ATOM     29  C   UNL A   1      37.596  29.882  27.952  1.00  0.00     0.014 A 
ATOM     30  C   UNL A   1      38.123  28.272  30.166  1.00  0.00     0.010 A 
ATOM     31  C   UNL A   1      38.764  29.151  28.010  1.00  0.00     0.010 A 
ATOM     32  C   UNL A   1      39.066  28.406  29.152  1.00  0.00    -0.014 A 
BRANCH  32  33
ATOM     33  C   UNL A   1      40.446  27.941  29.241  1.00  0.00     0.031 A 
ATOM     34  C   UNL A   1      40.834  26.610  28.735  1.00  0.00     0.074 A 
ATOM     35  C   UNL A   1      41.396  28.842  29.580  1.00  0.00     0.049 A 
ATOM     36  N   UNL A   1      41.979  26.050  28.938  1.00  0.00    -0.248 NA
ATOM     37  C   UNL A   1      39.920  25.775  27.970  1.00  0.00     0.031 C 
ATOM     38  C   UNL A   1      42.837  28.744  29.363  1.00  0.00     0.029 A 
ATOM     39  N   UNL A   1      41.245  29.983  30.389  1.00  0.00    -0.354 N 
ATOM     40  C   UNL A   1      42.066  24.946  28.117  1.00  0.00     0.074 A 
ATOM     41  C   UNL A   1      40.728  24.778  27.600  1.00  0.00     0.031 C 
ATOM     42  C   UNL A   1      43.458  29.543  30.244  1.00  0.00     0.029 A 
ATOM     43  C   UNL A   1      42.441  30.050  31.148  1.00  0.00     0.049 A 
ATOM     44  H   UNL A   1      40.478  30.599  30.422  1.00  0.00     0.167 HD
ATOM     45  C   UNL A   1      43.295  24.393  27.889  1.00  0.00     0.037 A 
ATOM     46  C   UNL A   1      42.410  29.822  32.495  1.00  0.00     0.037 A 
ATOM     47  C   UNL A   1      44.306  24.975  28.780  1.00  0.00     0.049 A 
ATOM     48  C   UNL A   1      43.186  28.604  32.954  1.00  0.00     0.074 A 
ATOM     49  C   UNL A   1      45.306  25.924  28.638  1.00  0.00     0.029 A 
ATOM     50  N   UNL A   1      44.170  24.772  30.144  1.00  0.00    -0.354 N 
ATOM     51  N   UNL A   1      43.789  27.765  32.157  1.00  0.00    -0.248 NA
ATOM     52  C   UNL A   1      43.255  28.185  34.355  1.00  0.00     0.031 C 
ATOM     53  C   UNL A   1      45.726  26.325  29.942  1.00  0.00     0.029 A 
ATOM     54  C   UNL A   1      44.988  25.613  30.871  1.00  0.00     0.049 A 
ATOM     55  H   UNL A   1      43.563  24.108  30.544  1.00  0.00     0.167 HD
ATOM     56  C   UNL A   1      44.260  26.709  32.885  1.00  0.00     0.074 A 
ATOM     57  C   UNL A   1      43.911  27.016  34.258  1.00  0.00     0.031 C 
ATOM     58  C   UNL A   1      44.870  25.630  32.318  1.00  0.00     0.037 A 
BRANCH  45  59
ATOM     59  C   UNL A   1      43.647  23.487  26.719  1.00  0.00     0.064 A 
ATOM     60  C   UNL A   1      43.190  22.148  26.689  1.00  0.00     0.173 A 
ATOM     61  C   UNL A   1      44.479  23.829  25.635  1.00  0.00     0.173 A 
ATOM     62  F   UNL A   1      42.305  21.689  27.585  1.00  0.00    -0.203 F 
ATOM     63  C   UNL A   1      43.622  21.219  25.735  1.00  0.00     0.198 A 
ATOM     64  C   UNL A   1      44.947  22.892  24.707  1.00  0.00     0.198 A 
ATOM     65  F   UNL A   1      44.822  25.091  25.378  1.00  0.00    -0.203 F 
ATOM     66  F   UNL A   1      43.157  19.962  25.773  1.00  0.00    -0.200 F 
ATOM     67  C   UNL A   1      44.528  21.582  24.764  1.00  0.00     0.200 A 
ATOM     68  F   UNL A   1      45.802  23.280  23.749  1.00  0.00    -0.200 F 
ATOM     69  F   UNL A   1      44.970  20.687  23.870  1.00  0.00    -0.200 F 
ENDBRANCH  45  59
BRANCH  46  70
ATOM     70  C   UNL A   1      41.160  30.323  33.127  1.00  0.00     0.064 A 
ATOM     71  C   UNL A   1      41.013  31.712  33.309  1.00  0.00     0.173 A 
ATOM     72  C   UNL A   1      40.006  29.536  33.190  1.00  0.00     0.173 A 
ATOM     73  F   UNL A   1      42.091  32.513  33.260  1.00  0.00    -0.203 F 
ATOM     74  C   UNL A   1      39.755  32.297  33.422  1.00  0.00     0.198 A 
ATOM     75  C   UNL A   1      38.748  30.125  33.323  1.00  0.00     0.198 A 
ATOM     76  F   UNL A   1      40.076  28.210  33.001  1.00  0.00    -0.203 F 
ATOM     77  F   UNL A   1      39.641  33.632  33.476  1.00  0.00    -0.200 F 
ATOM     78  C   UNL A   1      38.621  31.504  33.400  1.00  0.00     0.200 A 
ATOM     79  F   UNL A   1      37.648  29.360  33.274  1.00  0.00    -0.200 F 
ATOM     80  F   UNL A   1      37.405  32.069  33.413  1.00  0.00    -0.200 F 
ENDBRANCH  46  70
BRANCH  58  81
ATOM     81  C   UNL A   1      45.411  24.496  33.128  1.00  0.00     0.064 A 
ATOM     82  C   UNL A   1      44.616  23.393  33.474  1.00  0.00     0.173 A 
ATOM     83  C   UNL A   1      46.706  24.540  33.681  1.00  0.00     0.173 A 
ATOM     84  F   UNL A   1      43.359  23.288  33.018  1.00  0.00    -0.203 F 
ATOM     85  C   UNL A   1      45.097  22.382  34.307  1.00  0.00     0.198 A 
ATOM     86  C   UNL A   1      47.166  23.554  34.549  1.00  0.00     0.198 A 
ATOM     87  F   UNL A   1      47.558  25.529  33.371  1.00  0.00    -0.203 F 
ATOM     88  F   UNL A   1      44.324  21.323  34.581  1.00  0.00    -0.200 F 
ATOM     89  C   UNL A   1      46.365  22.471  34.856  1.00  0.00     0.200 A 
ATOM     90  F   UNL A   1      48.391  23.658  35.085  1.00  0.00    -0.200 F 
ATOM     91  F   UNL A   1      46.815  21.511  35.675  1.00  0.00    -0.200 F 
ENDBRANCH  58  81
ENDBRANCH  32  33
ENDBRANCH  24  27
ENDBRANCH  22  23
ENDBRANCH   1  22
TORSDOF 12
ENDMDL
MODEL 2
REMARK VINA RESULT:     -14.1      5.164     11.127
REMARK SMILES Cc1cccc(-c2ccc(Cl)c(C(=O)NCCCCNC(=O)c3ccc(-c4c5nc(c(-c6c(F)c(F)c(F)c(F)c6F)c6ccc([nH]6)c(-c6c(F)c(F)c(F)c(F)c6F)c6nc(c(-c7c(F)c(F)c(F)c(F)c7F)c7ccc4[nH]7)C=C6)C=C5)cc3)c2)c1
REMARK SMILES IDX 18 1 17 2 16 3 15 4 13 5 14 6 12 8 7 9 8 10 86 11 9 12 10 13
REMARK SMILES IDX 11 14 6 15 1 16 2 17 3 18 87 19 4 20 5 21 19 22 20 23 21 24
REMARK SMILES IDX 22 26 23 27 24 28 85 29 25 30 84 31 26 32 27 33 28 34 78 35
REMARK SMILES IDX 29 36 83 37 77 38 79 39 30 40 82 41 76 42 75 43 31 45 63 46
REMARK SMILES IDX 43 47 62 48 44 49 47 50 61 51 80 52 45 53 46 54 60 56 81 57
REMARK SMILES IDX 48 58 32 59 33 60 41 61 34 62 35 63 39 64 42 65 36 66 37 67
REMARK SMILES IDX 40 68 38 69 64 70 65 71 73 72 66 73 67 74 71 75 74 76 68 77
REMARK SMILES IDX 69 78 72 79 70 80 49 81 50 82 58 83 51 84 52 85 56 86 59 87
REMARK SMILES IDX 53 88 54 89 57 90 55 91
REMARK H PARENT 15 7 20 25 79 44 47 55
REMARK Flexibility Score: inf
ROOT
ATOM      1  C   UNL A   1      38.080  21.448  25.415  1.00  0.00     0.023 C 
ENDROOT
BRANCH   1   2
ATOM      2  C   UNL A   1      37.156  21.514  24.205  1.00  0.00     0.023 C 
BRANCH   2   3
ATOM      3  C   UNL A   1      36.653  22.898  23.797  1.00  0.00     0.116 C 
BRANCH   3   4
ATOM      4  N   UNL A   1      35.688  23.502  24.705  1.00  0.00    -0.352 N 
ATOM      5  C   UNL A   1      34.403  23.129  25.033  1.00  0.00     0.252 C 
ATOM      6  O   UNL A   1      33.798  23.786  25.879  1.00  0.00    -0.269 OA
ATOM      7  H   UNL A   1      36.009  24.313  25.161  1.00  0.00     0.163 HD
BRANCH   5   8
ATOM      8  C   UNL A   1      33.690  22.026  24.340  1.00  0.00     0.059 A 
ATOM      9  C   UNL A   1      33.237  19.612  24.285  1.00  0.00    -0.017 A 
ATOM     10  C   UNL A   1      32.324  19.848  23.245  1.00  0.00     0.010 A 
ATOM     11  C   UNL A   1      33.867  20.725  24.867  1.00  0.00     0.024 A 
ATOM     12  C   UNL A   1      32.200  21.113  22.673  1.00  0.00     0.022 A 
ATOM     13  C   UNL A   1      32.950  22.181  23.165  1.00  0.00     0.053 A 
ATOM     14  Cl  UNL A   1      33.025  23.593  22.165  1.00  0.00    -0.083 Cl
BRANCH   9  15
ATOM     15  C   UNL A   1      33.606  18.223  24.621  1.00  0.00    -0.018 A 
ATOM     16  C   UNL A   1      31.806  15.182  26.101  1.00  0.00     0.044 C 
ATOM     17  C   UNL A   1      32.884  16.045  25.515  1.00  0.00    -0.051 A 
ATOM     18  C   UNL A   1      34.171  15.546  25.318  1.00  0.00     0.003 A 
ATOM     19  C   UNL A   1      32.617  17.373  25.163  1.00  0.00     0.012 A 
ATOM     20  C   UNL A   1      35.164  16.363  24.770  1.00  0.00     0.001 A 
ATOM     21  C   UNL A   1      34.884  17.691  24.421  1.00  0.00     0.009 A 
ENDBRANCH   9  15
ENDBRANCH   5   8
ENDBRANCH   3   4
ENDBRANCH   2   3
ENDBRANCH   1   2
BRANCH   1  22
ATOM     22  C   UNL A   1      38.622  22.777  25.928  1.00  0.00     0.116 C 
BRANCH  22  23
ATOM     23  N   UNL A   1      40.033  22.784  26.292  1.00  0.00    -0.352 N 
ATOM     24  C   UNL A   1      40.844  23.838  26.696  1.00  0.00     0.251 C 
ATOM     25  H   UNL A   1      40.479  21.908  26.244  1.00  0.00     0.163 HD
ATOM     26  O   UNL A   1      42.028  23.641  26.910  1.00  0.00    -0.269 OA
BRANCH  24  27
ATOM     27  C   UNL A   1      40.252  25.171  27.005  1.00  0.00     0.039 A 
ATOM     28  C   UNL A   1      40.674  26.278  26.255  1.00  0.00     0.014 A 
ATOM     29  C   UNL A   1      39.445  25.370  28.118  1.00  0.00     0.014 A 
ATOM     30  C   UNL A   1      40.523  27.563  26.778  1.00  0.00     0.010 A 
ATOM     31  C   UNL A   1      39.405  26.620  28.699  1.00  0.00     0.010 A 
ATOM     32  C   UNL A   1      40.014  27.705  28.065  1.00  0.00    -0.014 A 
BRANCH  32  33
ATOM     33  C   UNL A   1      40.194  28.889  28.898  1.00  0.00     0.031 A 
ATOM     34  C   UNL A   1      39.141  29.919  28.994  1.00  0.00     0.074 A 
ATOM     35  C   UNL A   1      41.238  28.905  29.756  1.00  0.00     0.049 A 
ATOM     36  N   UNL A   1      39.287  31.073  29.553  1.00  0.00    -0.248 NA
ATOM     37  C   UNL A   1      37.817  29.730  28.417  1.00  0.00     0.031 C 
ATOM     38  C   UNL A   1      41.414  29.751  30.933  1.00  0.00     0.029 A 
ATOM     39  N   UNL A   1      42.479  28.258  29.608  1.00  0.00    -0.354 N 
ATOM     40  C   UNL A   1      38.042  31.651  29.672  1.00  0.00     0.074 A 
ATOM     41  C   UNL A   1      37.178  30.808  28.877  1.00  0.00     0.031 C 
ATOM     42  C   UNL A   1      42.724  29.834  31.210  1.00  0.00     0.029 A 
ATOM     43  C   UNL A   1      43.430  29.174  30.127  1.00  0.00     0.049 A 
ATOM     44  H   UNL A   1      42.649  27.367  29.227  1.00  0.00     0.167 HD
ATOM     45  C   UNL A   1      37.886  32.702  30.532  1.00  0.00     0.037 A 
ATOM     46  C   UNL A   1      44.320  29.783  29.289  1.00  0.00     0.037 A 
ATOM     47  C   UNL A   1      39.186  33.176  31.022  1.00  0.00     0.049 A 
ATOM     48  C   UNL A   1      44.179  31.289  29.194  1.00  0.00     0.074 A 
ATOM     49  C   UNL A   1      39.904  33.022  32.197  1.00  0.00     0.029 A 
ATOM     50  N   UNL A   1      40.074  33.712  30.104  1.00  0.00    -0.354 N 
ATOM     51  N   UNL A   1      43.249  31.985  29.786  1.00  0.00    -0.248 NA
ATOM     52  C   UNL A   1      45.029  32.116  28.334  1.00  0.00     0.031 C 
ATOM     53  C   UNL A   1      41.251  33.423  31.949  1.00  0.00     0.029 A 
ATOM     54  C   UNL A   1      41.345  33.827  30.630  1.00  0.00     0.049 A 
ATOM     55  H   UNL A   1      39.828  33.977  29.189  1.00  0.00     0.167 HD
ATOM     56  C   UNL A   1      43.323  33.285  29.371  1.00  0.00     0.074 A 
ATOM     57  C   UNL A   1      44.457  33.325  28.468  1.00  0.00     0.031 C 
ATOM     58  C   UNL A   1      42.431  34.240  29.758  1.00  0.00     0.037 A 
BRANCH  45  59
ATOM     59  C   UNL A   1      36.560  33.172  31.113  1.00  0.00     0.064 A 
ATOM     60  C   UNL A   1      35.715  34.026  30.365  1.00  0.00     0.173 A 
ATOM     61  C   UNL A   1      36.086  32.893  32.409  1.00  0.00     0.173 A 
ATOM     62  F   UNL A   1      35.962  34.306  29.078  1.00  0.00    -0.203 F 
ATOM     63  C   UNL A   1      34.574  34.629  30.907  1.00  0.00     0.198 A 
ATOM     64  C   UNL A   1      34.972  33.530  32.968  1.00  0.00     0.198 A 
ATOM     65  F   UNL A   1      36.628  31.944  33.172  1.00  0.00    -0.203 F 
ATOM     66  F   UNL A   1      33.824  35.438  30.145  1.00  0.00    -0.200 F 
ATOM     67  C   UNL A   1      34.222  34.409  32.220  1.00  0.00     0.200 A 
ATOM     68  F   UNL A   1      34.629  33.270  34.238  1.00  0.00    -0.200 F 
ATOM     69  F   UNL A   1      33.151  35.013  32.752  1.00  0.00    -0.200 F 
ENDBRANCH  45  59
BRANCH  46  70
ATOM     70  C   UNL A   1      44.750  28.896  28.175  1.00  0.00     0.064 A 
ATOM     71  C   UNL A   1      45.618  27.826  28.468  1.00  0.00     0.173 A 
ATOM     72  C   UNL A   1      44.048  28.848  26.967  1.00  0.00     0.173 A 
ATOM     73  F   UNL A   1      46.317  27.825  29.616  1.00  0.00    -0.203 F 
ATOM     74  C   UNL A   1      45.682  26.702  27.649  1.00  0.00     0.198 A 
ATOM     75  C   UNL A   1      44.131  27.728  26.138  1.00  0.00     0.198 A 
ATOM     76  F   UNL A   1      43.188  29.825  26.640  1.00  0.00    -0.203 F 
ATOM     77  F   UNL A   1      46.429  25.650  28.015  1.00  0.00    -0.200 F 
ATOM     78  C   UNL A   1      44.916  26.643  26.498  1.00  0.00     0.200 A 
ATOM     79  F   UNL A   1      43.368  27.658  25.038  1.00  0.00    -0.200 F 
ATOM     80  F   UNL A   1      44.902  25.526  25.756  1.00  0.00    -0.200 F 
ENDBRANCH  46  70
BRANCH  58  81
ATOM     81  C   UNL A   1      42.543  35.666  29.323  1.00  0.00     0.064 A 
ATOM     82  C   UNL A   1      41.950  36.123  28.136  1.00  0.00     0.173 A 
ATOM     83  C   UNL A   1      43.347  36.587  30.024  1.00  0.00     0.173 A 
ATOM     84  F   UNL A   1      41.194  35.303  27.391  1.00  0.00    -0.203 F 
ATOM     85  C   UNL A   1      42.134  37.431  27.688  1.00  0.00     0.198 A 
ATOM     86  C   UNL A   1      43.567  37.877  29.549  1.00  0.00     0.198 A 
ATOM     87  F   UNL A   1      43.917  36.260  31.193  1.00  0.00    -0.203 F 
ATOM     88  F   UNL A   1      41.517  37.844  26.573  1.00  0.00    -0.200 F 
ATOM     89  C   UNL A   1      42.954  38.302  28.385  1.00  0.00     0.200 A 
ATOM     90  F   UNL A   1      44.374  38.706  30.226  1.00  0.00    -0.200 F 
ATOM     91  F   UNL A   1      43.149  39.550  27.940  1.00  0.00    -0.200 F 
ENDBRANCH  58  81
ENDBRANCH  32  33
ENDBRANCH  24  27
ENDBRANCH  22  23
ENDBRANCH   1  22
TORSDOF 12
ENDMDL
MODEL 3
REMARK VINA RESULT:     -14.1      2.178      4.066
REMARK SMILES Cc1cccc(-c2ccc(Cl)c(C(=O)NCCCCNC(=O)c3ccc(-c4c5nc(c(-c6c(F)c(F)c(F)c(F)c6F)c6ccc([nH]6)c(-c6c(F)c(F)c(F)c(F)c6F)c6nc(c(-c7c(F)c(F)c(F)c(F)c7F)c7ccc4[nH]7)C=C6)C=C5)cc3)c2)c1
REMARK SMILES IDX 18 1 17 2 16 3 15 4 13 5 14 6 12 8 7 9 8 10 86 11 9 12 10 13
REMARK SMILES IDX 11 14 6 15 1 16 2 17 3 18 87 19 4 20 5 21 19 22 20 23 21 24
REMARK SMILES IDX 22 26 23 27 24 28 85 29 25 30 84 31 26 32 27 33 28 34 78 35
REMARK SMILES IDX 29 36 83 37 77 38 79 39 30 40 82 41 76 42 75 43 31 45 63 46
REMARK SMILES IDX 43 47 62 48 44 49 47 50 61 51 80 52 45 53 46 54 60 56 81 57
REMARK SMILES IDX 48 58 32 59 33 60 41 61 34 62 35 63 39 64 42 65 36 66 37 67
REMARK SMILES IDX 40 68 38 69 64 70 65 71 73 72 66 73 67 74 71 75 74 76 68 77
REMARK SMILES IDX 69 78 72 79 70 80 49 81 50 82 58 83 51 84 52 85 56 86 59 87
REMARK SMILES IDX 53 88 54 89 57 90 55 91
REMARK H PARENT 15 7 20 25 79 44 47 55
REMARK Flexibility Score: inf
ROOT
ATOM      1  C   UNL A   1      32.750  30.405  26.976  1.00  0.00     0.023 C 
ENDROOT
BRANCH   1   2
ATOM      2  C   UNL A   1      31.818  29.221  27.205  1.00  0.00     0.023 C 
BRANCH   2   3
ATOM      3  C   UNL A   1      32.354  27.840  26.830  1.00  0.00     0.116 C 
BRANCH   3   4
ATOM      4  N   UNL A   1      31.381  26.759  26.890  1.00  0.00    -0.352 N 
ATOM      5  C   UNL A   1      31.342  25.544  26.241  1.00  0.00     0.252 C 
ATOM      6  O   UNL A   1      30.423  24.767  26.501  1.00  0.00    -0.269 OA
ATOM      7  H   UNL A   1      30.623  26.923  27.497  1.00  0.00     0.163 HD
BRANCH   5   8
ATOM      8  C   UNL A   1      32.308  25.176  25.176  1.00  0.00     0.059 A 
ATOM      9  C   UNL A   1      34.381  23.972  24.633  1.00  0.00    -0.017 A 
ATOM     10  C   UNL A   1      34.158  24.280  23.282  1.00  0.00     0.010 A 
ATOM     11  C   UNL A   1      33.408  24.375  25.564  1.00  0.00     0.024 A 
ATOM     12  C   UNL A   1      33.119  25.128  22.901  1.00  0.00     0.022 A 
ATOM     13  C   UNL A   1      32.249  25.647  23.861  1.00  0.00     0.053 A 
ATOM     14  Cl  UNL A   1      31.254  26.972  23.362  1.00  0.00    -0.083 Cl
BRANCH   9  15
ATOM     15  C   UNL A   1      35.671  23.382  25.037  1.00  0.00    -0.018 A 
ATOM     16  C   UNL A   1      37.386  19.980  24.626  1.00  0.00     0.044 C 
ATOM     17  C   UNL A   1      37.143  21.406  25.021  1.00  0.00    -0.051 A 
ATOM     18  C   UNL A   1      38.095  22.121  25.747  1.00  0.00     0.003 A 
ATOM     19  C   UNL A   1      35.947  22.045  24.674  1.00  0.00     0.012 A 
ATOM     20  C   UNL A   1      37.854  23.449  26.106  1.00  0.00     0.001 A 
ATOM     21  C   UNL A   1      36.652  24.078  25.751  1.00  0.00     0.009 A 
ENDBRANCH   9  15
ENDBRANCH   5   8
ENDBRANCH   3   4
ENDBRANCH   2   3
ENDBRANCH   1   2
BRANCH   1  22
ATOM     22  C   UNL A   1      34.229  30.169  27.261  1.00  0.00     0.116 C 
BRANCH  22  23
ATOM     23  N   UNL A   1      34.867  31.150  28.129  1.00  0.00    -0.352 N 
ATOM     24  C   UNL A   1      36.012  31.039  28.908  1.00  0.00     0.251 C 
ATOM     25  H   UNL A   1      34.417  32.025  28.170  1.00  0.00     0.163 HD
ATOM     26  O   UNL A   1      36.357  31.974  29.612  1.00  0.00    -0.269 OA
BRANCH  24  27
ATOM     27  C   UNL A   1      36.899  29.847  28.782  1.00  0.00     0.039 A 
ATOM     28  C   UNL A   1      37.045  29.006  29.895  1.00  0.00     0.014 A 
ATOM     29  C   UNL A   1      37.710  29.654  27.672  1.00  0.00     0.014 A 
ATOM     30  C   UNL A   1      38.168  28.182  29.994  1.00  0.00     0.010 A 
ATOM     31  C   UNL A   1      38.881  28.942  27.816  1.00  0.00     0.010 A 
ATOM     32  C   UNL A   1      39.147  28.268  29.009  1.00  0.00    -0.014 A 
BRANCH  32  33
ATOM     33  C   UNL A   1      40.527  27.825  29.177  1.00  0.00     0.031 A 
ATOM     34  C   UNL A   1      40.977  26.521  28.653  1.00  0.00     0.074 A 
ATOM     35  C   UNL A   1      41.433  28.731  29.611  1.00  0.00     0.049 A 
ATOM     36  N   UNL A   1      42.117  25.974  28.914  1.00  0.00    -0.248 NA
ATOM     37  C   UNL A   1      40.134  25.697  27.798  1.00  0.00     0.031 C 
ATOM     38  C   UNL A   1      42.887  28.667  29.491  1.00  0.00     0.029 A 
ATOM     39  N   UNL A   1      41.204  29.838  30.448  1.00  0.00    -0.354 N 
ATOM     40  C   UNL A   1      42.282  24.903  28.063  1.00  0.00     0.074 A 
ATOM     41  C   UNL A   1      40.985  24.730  27.449  1.00  0.00     0.031 C 
ATOM     42  C   UNL A   1      43.430  29.444  30.440  1.00  0.00     0.029 A 
ATOM     43  C   UNL A   1      42.344  29.899  31.289  1.00  0.00     0.049 A 
ATOM     44  H   UNL A   1      40.424  30.438  30.449  1.00  0.00     0.167 HD
ATOM     45  C   UNL A   1      43.535  24.381  27.901  1.00  0.00     0.037 A 
ATOM     46  C   UNL A   1      42.226  29.623  32.622  1.00  0.00     0.037 A 
ATOM     47  C   UNL A   1      44.470  24.949  28.879  1.00  0.00     0.049 A 
ATOM     48  C   UNL A   1      42.994  28.403  33.090  1.00  0.00     0.074 A 
ATOM     49  C   UNL A   1      45.458  25.921  28.839  1.00  0.00     0.029 A 
ATOM     50  N   UNL A   1      44.246  24.694  30.222  1.00  0.00    -0.354 N 
ATOM     51  N   UNL A   1      43.667  27.605  32.308  1.00  0.00    -0.248 NA
ATOM     52  C   UNL A   1      42.976  27.935  34.478  1.00  0.00     0.031 C 
ATOM     53  C   UNL A   1      45.780  26.281  30.183  1.00  0.00     0.029 A 
ATOM     54  C   UNL A   1      44.996  25.523  31.033  1.00  0.00     0.049 A 
ATOM     55  H   UNL A   1      43.627  24.005  30.557  1.00  0.00     0.167 HD
ATOM     56  C   UNL A   1      44.109  26.531  33.029  1.00  0.00     0.074 A 
ATOM     57  C   UNL A   1      43.661  26.782  34.385  1.00  0.00     0.031 C 
ATOM     58  C   UNL A   1      44.779  25.485  32.468  1.00  0.00     0.037 A 
BRANCH  45  59
ATOM     59  C   UNL A   1      43.984  23.524  26.727  1.00  0.00     0.064 A 
ATOM     60  C   UNL A   1      43.500  22.203  26.580  1.00  0.00     0.173 A 
ATOM     61  C   UNL A   1      44.933  23.895  25.754  1.00  0.00     0.173 A 
ATOM     62  F   UNL A   1      42.515  21.726  27.354  1.00  0.00    -0.203 F 
ATOM     63  C   UNL A   1      44.005  21.311  25.627  1.00  0.00     0.198 A 
ATOM     64  C   UNL A   1      45.472  22.992  24.831  1.00  0.00     0.198 A 
ATOM     65  F   UNL A   1      45.332  25.157  25.601  1.00  0.00    -0.203 F 
ATOM     66  F   UNL A   1      43.508  20.068  25.550  1.00  0.00    -0.200 F 
ATOM     67  C   UNL A   1      45.016  21.694  24.775  1.00  0.00     0.200 A 
ATOM     68  F   UNL A   1      46.431  23.402  23.987  1.00  0.00    -0.200 F 
ATOM     69  F   UNL A   1      45.527  20.832  23.885  1.00  0.00    -0.200 F 
ENDBRANCH  45  59
BRANCH  46  70
ATOM     70  C   UNL A   1      40.926  30.077  33.183  1.00  0.00     0.064 A 
ATOM     71  C   UNL A   1      40.718  31.460  33.351  1.00  0.00     0.173 A 
ATOM     72  C   UNL A   1      39.801  29.248  33.187  1.00  0.00     0.173 A 
ATOM     73  F   UNL A   1      41.766  32.301  33.357  1.00  0.00    -0.203 F 
ATOM     74  C   UNL A   1      39.434  31.998  33.394  1.00  0.00     0.198 A 
ATOM     75  C   UNL A   1      38.516  29.789  33.250  1.00  0.00     0.198 A 
ATOM     76  F   UNL A   1      39.931  27.925  33.008  1.00  0.00    -0.203 F 
ATOM     77  F   UNL A   1      39.267  33.328  33.437  1.00  0.00    -0.200 F 
ATOM     78  C   UNL A   1      38.334  31.163  33.315  1.00  0.00     0.200 A 
ATOM     79  F   UNL A   1      37.450  28.983  33.145  1.00  0.00    -0.200 F 
ATOM     80  F   UNL A   1      37.098  31.681  33.260  1.00  0.00    -0.200 F 
ENDBRANCH  46  70
BRANCH  58  81
ATOM     81  C   UNL A   1      45.286  24.333  33.273  1.00  0.00     0.064 A 
ATOM     82  C   UNL A   1      44.483  23.216  33.549  1.00  0.00     0.173 A 
ATOM     83  C   UNL A   1      46.552  24.370  33.892  1.00  0.00     0.173 A 
ATOM     84  F   UNL A   1      43.252  23.115  33.026  1.00  0.00    -0.203 F 
ATOM     85  C   UNL A   1      44.929  22.185  34.377  1.00  0.00     0.198 A 
ATOM     86  C   UNL A   1      46.975  23.363  34.756  1.00  0.00     0.198 A 
ATOM     87  F   UNL A   1      47.411  25.372  33.654  1.00  0.00    -0.203 F 
ATOM     88  F   UNL A   1      44.152  21.114  34.582  1.00  0.00    -0.200 F 
ATOM     89  C   UNL A   1      46.167  22.267  34.992  1.00  0.00     0.200 A 
ATOM     90  F   UNL A   1      48.170  23.460  35.355  1.00  0.00    -0.200 F 
ATOM     91  F   UNL A   1      46.583  21.287  35.806  1.00  0.00    -0.200 F 
ENDBRANCH  58  81
ENDBRANCH  32  33
ENDBRANCH  24  27
ENDBRANCH  22  23
ENDBRANCH   1  22
TORSDOF 12
ENDMDL
