MODEL 1
REMARK VINA RESULT:     -11.0      0.000      0.000
REMARK SMILES O=CN[C@@H](CCS[C@@H]1CCO[C@]2(CCOC2)C1)C(=O)NCCCCNC(=O)c1ccc(-c2c3nc(c(-c4c(F)c(F)c(F)c(F)c4F)c4ccc([nH]4)c(-c4c(F)c(F)c(F)c(F)c4F)c4nc(c(-c5c(F)c(F)c(F)c(F)c5F)c5ccc2[nH]5)C=C4)C=C3)cc1
REMARK SMILES IDX 21 1 20 2 18 3 19 4 4 6 3 7 1 8 2 9 5 11 6 12 7 13 8 14 9 15
REMARK SMILES IDX 17 16 10 17 12 18 11 19 13 20 16 21 14 22 15 23 22 24 23 25
REMARK SMILES IDX 24 26 25 27 26 28 27 30 28 31 29 32 90 33 30 34 89 35 31 36
REMARK SMILES IDX 32 37 33 38 83 39 34 40 88 41 82 42 84 43 35 44 87 45 81 46
REMARK SMILES IDX 80 47 36 49 68 50 48 51 67 52 49 53 52 54 66 55 85 56 50 57
REMARK SMILES IDX 51 58 65 60 86 61 53 62 37 63 38 64 46 65 39 66 40 67 44 68
REMARK SMILES IDX 47 69 41 70 42 71 45 72 43 73 69 74 70 75 78 76 71 77 72 78
REMARK SMILES IDX 76 79 79 80 73 81 74 82 77 83 75 84 54 85 55 86 63 87 56 88
REMARK SMILES IDX 57 89 61 90 64 91 58 92 59 93 62 94 60 95
REMARK H PARENT 20 5 3 10 25 29 84 48 52 59
REMARK Flexibility Score: inf
ROOT
ATOM      1  C   UNL A   1      32.934  36.161  29.411  1.00  0.00     0.116 C 
ENDROOT
BRANCH   1   2
ATOM      2  N   UNL A   1      33.340  37.178  30.360  1.00  0.00    -0.354 N 
ATOM      3  C   UNL A   1      33.281  37.181  31.717  1.00  0.00     0.242 C 
ATOM      4  O   UNL A   1      33.380  38.280  32.277  1.00  0.00    -0.273 OA
ATOM      5  H   UNL A   1      33.716  37.994  29.958  1.00  0.00     0.163 HD
BRANCH   3   6
ATOM      6  C   UNL A   1      33.024  35.925  32.558  1.00  0.00     0.171 C 
BRANCH   6   7
ATOM      7  N   UNL A   1      31.579  35.726  32.564  1.00  0.00    -0.347 N 
ATOM      8  O   UNL A   1      29.558  36.486  33.288  1.00  0.00    -0.279 OA
ATOM      9  C   UNL A   1      30.770  36.434  33.420  1.00  0.00     0.337 C 
ATOM     10  H   UNL A   1      31.177  35.075  31.945  1.00  0.00     0.164 HD
ENDBRANCH   6   7
BRANCH   6  11
ATOM     11  C   UNL A   1      33.868  34.649  32.369  1.00  0.00     0.046 C 
BRANCH  11  12
ATOM     12  C   UNL A   1      34.506  33.842  33.506  1.00  0.00     0.072 C 
BRANCH  12  13
ATOM     13  S   UNL A   1      36.217  34.096  34.125  1.00  0.00    -0.158 SA
BRANCH  13  14
ATOM     14  C   UNL A   1      37.409  33.542  32.822  1.00  0.00     0.052 C 
ATOM     15  C   UNL A   1      36.687  32.559  31.886  1.00  0.00     0.043 C 
ATOM     16  C   UNL A   1      38.667  32.829  33.322  1.00  0.00     0.052 C 
ATOM     17  C   UNL A   1      36.464  31.201  32.548  1.00  0.00     0.162 C 
ATOM     18  C   UNL A   1      38.422  31.462  33.962  1.00  0.00     0.095 C 
ATOM     19  O   UNL A   1      37.667  30.637  33.063  1.00  0.00    -0.372 OA
ATOM     20  C   UNL A   1      37.794  31.575  35.346  1.00  0.00     0.066 C 
ATOM     21  C   UNL A   1      39.757  30.750  34.241  1.00  0.00     0.195 C 
ATOM     22  C   UNL A   1      38.715  30.858  36.302  1.00  0.00     0.163 C 
ATOM     23  O   UNL A   1      39.697  30.167  35.547  1.00  0.00    -0.378 OA
ENDBRANCH  13  14
ENDBRANCH  12  13
ENDBRANCH  11  12
ENDBRANCH   6  11
ENDBRANCH   3   6
ENDBRANCH   1   2
BRANCH   1  24
ATOM     24  C   UNL A   1      34.108  35.371  28.843  1.00  0.00     0.023 C 
BRANCH  24  25
ATOM     25  C   UNL A   1      33.756  34.088  28.078  1.00  0.00     0.023 C 
BRANCH  25  26
ATOM     26  C   UNL A   1      34.368  32.778  28.586  1.00  0.00     0.116 C 
BRANCH  26  27
ATOM     27  N   UNL A   1      33.714  31.588  28.081  1.00  0.00    -0.352 N 
ATOM     28  C   UNL A   1      34.203  30.320  27.867  1.00  0.00     0.251 C 
ATOM     29  H   UNL A   1      32.763  31.706  27.852  1.00  0.00     0.163 HD
ATOM     30  O   UNL A   1      33.469  29.468  27.375  1.00  0.00    -0.269 OA
BRANCH  28  31
ATOM     31  C   UNL A   1      35.608  29.967  28.179  1.00  0.00     0.039 A 
ATOM     32  C   UNL A   1      36.567  30.139  27.174  1.00  0.00     0.014 A 
ATOM     33  C   UNL A   1      35.988  29.418  29.407  1.00  0.00     0.014 A 
ATOM     34  C   UNL A   1      37.909  29.826  27.417  1.00  0.00     0.010 A 
ATOM     35  C   UNL A   1      37.338  29.147  29.665  1.00  0.00     0.010 A 
ATOM     36  C   UNL A   1      38.314  29.357  28.676  1.00  0.00    -0.014 A 
BRANCH  36  37
ATOM     37  C   UNL A   1      39.751  29.093  28.975  1.00  0.00     0.031 A 
ATOM     38  C   UNL A   1      40.589  30.122  29.683  1.00  0.00     0.074 A 
ATOM     39  C   UNL A   1      40.321  27.939  28.570  1.00  0.00     0.049 A 
ATOM     40  N   UNL A   1      41.875  30.117  29.930  1.00  0.00    -0.248 NA
ATOM     41  C   UNL A   1      39.888  31.320  30.168  1.00  0.00     0.031 C 
ATOM     42  C   UNL A   1      39.630  26.851  27.879  1.00  0.00     0.029 A 
ATOM     43  N   UNL A   1      41.619  27.497  28.668  1.00  0.00    -0.354 N 
ATOM     44  C   UNL A   1      42.141  31.311  30.590  1.00  0.00     0.074 A 
ATOM     45  C   UNL A   1      40.888  32.032  30.671  1.00  0.00     0.031 C 
ATOM     46  C   UNL A   1      40.507  25.866  27.622  1.00  0.00     0.029 A 
ATOM     47  C   UNL A   1      41.831  26.270  28.087  1.00  0.00     0.049 A 
ATOM     48  H   UNL A   1      42.331  28.012  29.114  1.00  0.00     0.167 HD
ATOM     49  C   UNL A   1      43.316  31.758  31.097  1.00  0.00     0.037 A 
ATOM     50  C   UNL A   1      42.964  25.559  27.927  1.00  0.00     0.037 A 
ATOM     51  C   UNL A   1      44.564  31.040  31.030  1.00  0.00     0.049 A 
ATOM     52  C   UNL A   1      44.268  26.107  28.448  1.00  0.00     0.074 A 
ATOM     53  C   UNL A   1      45.802  31.415  31.526  1.00  0.00     0.029 A 
ATOM     54  N   UNL A   1      44.733  29.801  30.434  1.00  0.00    -0.354 N 
ATOM     55  N   UNL A   1      44.499  27.225  29.091  1.00  0.00    -0.248 NA
ATOM     56  C   UNL A   1      45.470  25.290  28.221  1.00  0.00     0.031 C 
ATOM     57  C   UNL A   1      46.728  30.420  31.196  1.00  0.00     0.029 A 
ATOM     58  C   UNL A   1      46.057  29.402  30.540  1.00  0.00     0.049 A 
ATOM     59  H   UNL A   1      44.019  29.279  30.000  1.00  0.00     0.167 HD
ATOM     60  C   UNL A   1      45.856  27.223  29.385  1.00  0.00     0.074 A 
ATOM     61  C   UNL A   1      46.399  25.993  28.851  1.00  0.00     0.031 C 
ATOM     62  C   UNL A   1      46.584  28.159  30.041  1.00  0.00     0.037 A 
BRANCH  49  63
ATOM     63  C   UNL A   1      43.316  33.098  31.774  1.00  0.00     0.064 A 
ATOM     64  C   UNL A   1      43.514  34.283  31.052  1.00  0.00     0.173 A 
ATOM     65  C   UNL A   1      43.054  33.202  33.149  1.00  0.00     0.173 A 
ATOM     66  F   UNL A   1      43.776  34.236  29.737  1.00  0.00    -0.203 F 
ATOM     67  C   UNL A   1      43.475  35.523  31.685  1.00  0.00     0.198 A 
ATOM     68  C   UNL A   1      42.985  34.445  33.773  1.00  0.00     0.198 A 
ATOM     69  F   UNL A   1      42.846  32.100  33.885  1.00  0.00    -0.203 F 
ATOM     70  F   UNL A   1      43.708  36.639  30.982  1.00  0.00    -0.200 F 
ATOM     71  C   UNL A   1      43.203  35.603  33.043  1.00  0.00     0.200 A 
ATOM     72  F   UNL A   1      42.708  34.522  35.083  1.00  0.00    -0.200 F 
ATOM     73  F   UNL A   1      43.155  36.798  33.648  1.00  0.00    -0.200 F 
ENDBRANCH  49  63
BRANCH  50  74
ATOM     74  C   UNL A   1      42.930  24.239  27.242  1.00  0.00     0.064 A 
ATOM     75  C   UNL A   1      42.592  23.073  27.945  1.00  0.00     0.173 A 
ATOM     76  C   UNL A   1      43.270  24.108  25.888  1.00  0.00     0.173 A 
ATOM     77  F   UNL A   1      42.285  23.144  29.249  1.00  0.00    -0.203 F 
ATOM     78  C   UNL A   1      42.626  21.825  27.327  1.00  0.00     0.198 A 
ATOM     79  C   UNL A   1      43.272  22.863  25.263  1.00  0.00     0.198 A 
ATOM     80  F   UNL A   1      43.599  25.192  25.170  1.00  0.00    -0.203 F 
ATOM     81  F   UNL A   1      42.355  20.722  28.038  1.00  0.00    -0.200 F 
ATOM     82  C   UNL A   1      42.961  21.721  25.986  1.00  0.00     0.200 A 
ATOM     83  F   UNL A   1      43.585  22.769  23.964  1.00  0.00    -0.200 F 
ATOM     84  F   UNL A   1      42.996  20.520  25.394  1.00  0.00    -0.200 F 
ENDBRANCH  50  74
BRANCH  62  85
ATOM     85  C   UNL A   1      48.035  27.865  30.291  1.00  0.00     0.064 A 
ATOM     86  C   UNL A   1      49.042  28.294  29.414  1.00  0.00     0.173 A 
ATOM     87  C   UNL A   1      48.426  27.188  31.457  1.00  0.00     0.173 A 
ATOM     88  F   UNL A   1      48.721  28.933  28.278  1.00  0.00    -0.203 F 
ATOM     89  C   UNL A   1      50.384  28.041  29.686  1.00  0.00     0.198 A 
ATOM     90  C   UNL A   1      49.769  26.960  31.740  1.00  0.00     0.198 A 
ATOM     91  F   UNL A   1      47.502  26.759  32.331  1.00  0.00    -0.203 F 
ATOM     92  F   UNL A   1      51.327  28.426  28.816  1.00  0.00    -0.200 F 
ATOM     93  C   UNL A   1      50.747  27.382  30.852  1.00  0.00     0.200 A 
ATOM     94  F   UNL A   1      50.118  26.335  32.872  1.00  0.00    -0.200 F 
ATOM     95  F   UNL A   1      52.039  27.150  31.118  1.00  0.00    -0.200 F 
ENDBRANCH  62  85
ENDBRANCH  36  37
ENDBRANCH  28  31
ENDBRANCH  26  27
ENDBRANCH  25  26
ENDBRANCH  24  25
ENDBRANCH   1  24
TORSDOF 16
ENDMDL
MODEL 2
REMARK VINA RESULT:     -10.9      3.928      6.854
REMARK SMILES O=CN[C@@H](CCS[C@@H]1CCO[C@]2(CCOC2)C1)C(=O)NCCCCNC(=O)c1ccc(-c2c3nc(c(-c4c(F)c(F)c(F)c(F)c4F)c4ccc([nH]4)c(-c4c(F)c(F)c(F)c(F)c4F)c4nc(c(-c5c(F)c(F)c(F)c(F)c5F)c5ccc2[nH]5)C=C4)C=C3)cc1
REMARK SMILES IDX 21 1 20 2 18 3 19 4 4 6 3 7 1 8 2 9 5 11 6 12 7 13 8 14 9 15
REMARK SMILES IDX 17 16 10 17 12 18 11 19 13 20 16 21 14 22 15 23 22 24 23 25
REMARK SMILES IDX 24 26 25 27 26 28 27 30 28 31 29 32 90 33 30 34 89 35 31 36
REMARK SMILES IDX 32 37 33 38 83 39 34 40 88 41 82 42 84 43 35 44 87 45 81 46
REMARK SMILES IDX 80 47 36 49 68 50 48 51 67 52 49 53 52 54 66 55 85 56 50 57
REMARK SMILES IDX 51 58 65 60 86 61 53 62 37 63 38 64 46 65 39 66 40 67 44 68
REMARK SMILES IDX 47 69 41 70 42 71 45 72 43 73 69 74 70 75 78 76 71 77 72 78
REMARK SMILES IDX 76 79 79 80 73 81 74 82 77 83 75 84 54 85 55 86 63 87 56 88
REMARK SMILES IDX 57 89 61 90 64 91 58 92 59 93 62 94 60 95
REMARK H PARENT 20 5 3 10 25 29 84 48 52 59
REMARK Flexibility Score: inf
ROOT
ATOM      1  C   UNL A   1      31.188  29.114  24.672  1.00  0.00     0.116 C 
ENDROOT
BRANCH   1   2
ATOM      2  N   UNL A   1      32.331  29.362  23.817  1.00  0.00    -0.354 N 
ATOM      3  C   UNL A   1      33.072  28.498  23.074  1.00  0.00     0.242 C 
ATOM      4  O   UNL A   1      34.181  28.896  22.697  1.00  0.00    -0.273 OA
ATOM      5  H   UNL A   1      32.615  30.303  23.766  1.00  0.00     0.163 HD
BRANCH   3   6
ATOM      6  C   UNL A   1      32.638  27.060  22.761  1.00  0.00     0.171 C 
BRANCH   6   7
ATOM      7  N   UNL A   1      33.009  26.815  21.372  1.00  0.00    -0.347 N 
ATOM      8  O   UNL A   1      32.862  25.412  19.585  1.00  0.00    -0.279 OA
ATOM      9  C   UNL A   1      32.804  25.587  20.791  1.00  0.00     0.337 C 
ATOM     10  H   UNL A   1      33.412  27.541  20.843  1.00  0.00     0.164 HD
ENDBRANCH   6   7
BRANCH   6  11
ATOM     11  C   UNL A   1      32.932  25.906  23.740  1.00  0.00     0.046 C 
BRANCH  11  12
ATOM     12  C   UNL A   1      31.867  25.127  24.522  1.00  0.00     0.072 C 
BRANCH  12  13
ATOM     13  S   UNL A   1      31.992  23.345  24.949  1.00  0.00    -0.158 SA
BRANCH  13  14
ATOM     14  C   UNL A   1      32.806  22.453  23.546  1.00  0.00     0.052 C 
ATOM     15  C   UNL A   1      32.782  20.946  23.845  1.00  0.00     0.043 C 
ATOM     16  C   UNL A   1      34.265  22.823  23.272  1.00  0.00     0.052 C 
ATOM     17  C   UNL A   1      33.781  20.564  24.936  1.00  0.00     0.162 C 
ATOM     18  C   UNL A   1      35.250  22.413  24.367  1.00  0.00     0.095 C 
ATOM     19  O   UNL A   1      35.102  21.014  24.650  1.00  0.00    -0.372 OA
ATOM     20  C   UNL A   1      35.138  23.293  25.606  1.00  0.00     0.066 C 
ATOM     21  C   UNL A   1      36.699  22.645  23.903  1.00  0.00     0.195 C 
ATOM     22  C   UNL A   1      36.505  23.885  25.845  1.00  0.00     0.163 C 
ATOM     23  O   UNL A   1      37.429  23.247  24.977  1.00  0.00    -0.378 OA
ENDBRANCH  13  14
ENDBRANCH  12  13
ENDBRANCH  11  12
ENDBRANCH   6  11
ENDBRANCH   3   6
ENDBRANCH   1   2
BRANCH   1  24
ATOM     24  C   UNL A   1      31.533  29.152  26.157  1.00  0.00     0.023 C 
BRANCH  24  25
ATOM     25  C   UNL A   1      32.548  28.109  26.644  1.00  0.00     0.023 C 
BRANCH  25  26
ATOM     26  C   UNL A   1      33.870  28.632  27.216  1.00  0.00     0.116 C 
BRANCH  26  27
ATOM     27  N   UNL A   1      33.819  30.013  27.651  1.00  0.00    -0.352 N 
ATOM     28  C   UNL A   1      34.765  30.789  28.280  1.00  0.00     0.251 C 
ATOM     29  H   UNL A   1      32.968  30.472  27.466  1.00  0.00     0.163 HD
ATOM     30  O   UNL A   1      34.479  31.938  28.606  1.00  0.00    -0.269 OA
BRANCH  28  31
ATOM     31  C   UNL A   1      36.109  30.259  28.612  1.00  0.00     0.039 A 
ATOM     32  C   UNL A   1      37.113  30.362  27.642  1.00  0.00     0.014 A 
ATOM     33  C   UNL A   1      36.383  29.614  29.820  1.00  0.00     0.014 A 
ATOM     34  C   UNL A   1      38.401  29.883  27.905  1.00  0.00     0.010 A 
ATOM     35  C   UNL A   1      37.683  29.175  30.101  1.00  0.00     0.010 A 
ATOM     36  C   UNL A   1      38.708  29.313  29.150  1.00  0.00    -0.014 A 
BRANCH  36  37
ATOM     37  C   UNL A   1      40.094  28.868  29.473  1.00  0.00     0.031 A 
ATOM     38  C   UNL A   1      41.009  29.741  30.288  1.00  0.00     0.074 A 
ATOM     39  C   UNL A   1      40.552  27.692  28.996  1.00  0.00     0.049 A 
ATOM     40  N   UNL A   1      42.276  29.574  30.576  1.00  0.00    -0.248 NA
ATOM     41  C   UNL A   1      40.423  30.969  30.844  1.00  0.00     0.031 C 
ATOM     42  C   UNL A   1      39.775  26.743  28.199  1.00  0.00     0.029 A 
ATOM     43  N   UNL A   1      41.789  27.102  29.102  1.00  0.00    -0.354 N 
ATOM     44  C   UNL A   1      42.642  30.678  31.337  1.00  0.00     0.074 A 
ATOM     45  C   UNL A   1      41.473  31.526  31.434  1.00  0.00     0.031 C 
ATOM     46  C   UNL A   1      40.550  25.689  27.893  1.00  0.00     0.029 A 
ATOM     47  C   UNL A   1      41.889  25.906  28.432  1.00  0.00     0.049 A 
ATOM     48  H   UNL A   1      42.533  27.499  29.610  1.00  0.00     0.167 HD
ATOM     49  C   UNL A   1      43.837  30.951  31.916  1.00  0.00     0.037 A 
ATOM     50  C   UNL A   1      42.945  25.087  28.253  1.00  0.00     0.037 A 
ATOM     51  C   UNL A   1      45.001  30.106  31.833  1.00  0.00     0.049 A 
ATOM     52  C   UNL A   1      44.277  25.446  28.858  1.00  0.00     0.074 A 
ATOM     53  C   UNL A   1      46.252  30.301  32.397  1.00  0.00     0.029 A 
ATOM     54  N   UNL A   1      45.059  28.903  31.146  1.00  0.00    -0.354 N 
ATOM     55  N   UNL A   1      44.602  26.479  29.596  1.00  0.00    -0.248 NA
ATOM     56  C   UNL A   1      45.392  24.519  28.606  1.00  0.00     0.031 C 
ATOM     57  C   UNL A   1      47.077  29.237  32.020  1.00  0.00     0.029 A 
ATOM     58  C   UNL A   1      46.326  28.353  31.263  1.00  0.00     0.049 A 
ATOM     59  H   UNL A   1      44.312  28.499  30.649  1.00  0.00     0.167 HD
ATOM     60  C   UNL A   1      45.937  26.303  29.932  1.00  0.00     0.074 A 
ATOM     61  C   UNL A   1      46.366  25.064  29.320  1.00  0.00     0.031 C 
ATOM     62  C   UNL A   1      46.735  27.100  30.684  1.00  0.00     0.037 A 
BRANCH  49  63
ATOM     63  C   UNL A   1      43.955  32.227  32.698  1.00  0.00     0.064 A 
ATOM     64  C   UNL A   1      44.336  33.429  32.084  1.00  0.00     0.173 A 
ATOM     65  C   UNL A   1      43.624  32.262  34.061  1.00  0.00     0.173 A 
ATOM     66  F   UNL A   1      44.669  33.447  30.784  1.00  0.00    -0.203 F 
ATOM     67  C   UNL A   1      44.405  34.615  32.811  1.00  0.00     0.198 A 
ATOM     68  C   UNL A   1      43.666  33.455  34.778  1.00  0.00     0.198 A 
ATOM     69  F   UNL A   1      43.242  31.143  34.694  1.00  0.00    -0.203 F 
ATOM     70  F   UNL A   1      44.812  35.743  32.213  1.00  0.00    -0.200 F 
ATOM     71  C   UNL A   1      44.063  34.628  34.155  1.00  0.00     0.200 A 
ATOM     72  F   UNL A   1      43.320  33.470  36.074  1.00  0.00    -0.200 F 
ATOM     73  F   UNL A   1      44.120  35.772  34.850  1.00  0.00    -0.200 F 
ENDBRANCH  49  63
BRANCH  50  74
ATOM     74  C   UNL A   1      42.795  23.835  27.464  1.00  0.00     0.064 A 
ATOM     75  C   UNL A   1      42.392  22.641  28.081  1.00  0.00     0.173 A 
ATOM     76  C   UNL A   1      43.088  23.794  26.093  1.00  0.00     0.173 A 
ATOM     77  F   UNL A   1      42.127  22.624  29.396  1.00  0.00    -0.203 F 
ATOM     78  C   UNL A   1      42.318  21.450  27.363  1.00  0.00     0.198 A 
ATOM     79  C   UNL A   1      42.982  22.608  25.370  1.00  0.00     0.198 A 
ATOM     80  F   UNL A   1      43.476  24.908  25.456  1.00  0.00    -0.203 F 
ATOM     81  F   UNL A   1      41.986  20.313  27.990  1.00  0.00    -0.200 F 
ATOM     82  C   UNL A   1      42.608  21.434  26.007  1.00  0.00     0.200 A 
ATOM     83  F   UNL A   1      43.252  22.601  24.058  1.00  0.00    -0.200 F 
ATOM     84  F   UNL A   1      42.539  20.288  25.318  1.00  0.00    -0.200 F 
ENDBRANCH  50  74
BRANCH  62  85
ATOM     85  C   UNL A   1      48.134  26.627  30.957  1.00  0.00     0.064 A 
ATOM     86  C   UNL A   1      48.437  25.785  32.037  1.00  0.00     0.173 A 
ATOM     87  C   UNL A   1      49.179  26.982  30.089  1.00  0.00     0.173 A 
ATOM     88  F   UNL A   1      47.477  25.429  32.905  1.00  0.00    -0.203 F 
ATOM     89  C   UNL A   1      49.736  25.331  32.248  1.00  0.00     0.198 A 
ATOM     90  C   UNL A   1      50.471  26.504  30.287  1.00  0.00     0.198 A 
ATOM     91  F   UNL A   1      48.942  27.781  29.037  1.00  0.00    -0.203 F 
ATOM     92  F   UNL A   1      50.010  24.559  33.309  1.00  0.00    -0.200 F 
ATOM     93  C   UNL A   1      50.750  25.683  31.369  1.00  0.00     0.200 A 
ATOM     94  F   UNL A   1      51.446  26.835  29.429  1.00  0.00    -0.200 F 
ATOM     95  F   UNL A   1      51.997  25.235  31.567  1.00  0.00    -0.200 F 
ENDBRANCH  62  85
ENDBRANCH  36  37
ENDBRANCH  28  31
ENDBRANCH  26  27
ENDBRANCH  25  26
ENDBRANCH  24  25
ENDBRANCH   1  24
TORSDOF 16
ENDMDL
MODEL 3
REMARK VINA RESULT:     -10.9      4.572     10.383
REMARK SMILES O=CN[C@@H](CCS[C@@H]1CCO[C@]2(CCOC2)C1)C(=O)NCCCCNC(=O)c1ccc(-c2c3nc(c(-c4c(F)c(F)c(F)c(F)c4F)c4ccc([nH]4)c(-c4c(F)c(F)c(F)c(F)c4F)c4nc(c(-c5c(F)c(F)c(F)c(F)c5F)c5ccc2[nH]5)C=C4)C=C3)cc1
REMARK SMILES IDX 21 1 20 2 18 3 19 4 4 6 3 7 1 8 2 9 5 11 6 12 7 13 8 14 9 15
REMARK SMILES IDX 17 16 10 17 12 18 11 19 13 20 16 21 14 22 15 23 22 24 23 25
REMARK SMILES IDX 24 26 25 27 26 28 27 30 28 31 29 32 90 33 30 34 89 35 31 36
REMARK SMILES IDX 32 37 33 38 83 39 34 40 88 41 82 42 84 43 35 44 87 45 81 46
REMARK SMILES IDX 80 47 36 49 68 50 48 51 67 52 49 53 52 54 66 55 85 56 50 57
REMARK SMILES IDX 51 58 65 60 86 61 53 62 37 63 38 64 46 65 39 66 40 67 44 68
REMARK SMILES IDX 47 69 41 70 42 71 45 72 43 73 69 74 70 75 78 76 71 77 72 78
REMARK SMILES IDX 76 79 79 80 73 81 74 82 77 83 75 84 54 85 55 86 63 87 56 88
REMARK SMILES IDX 57 89 61 90 64 91 58 92 59 93 62 94 60 95
REMARK H PARENT 20 5 3 10 25 29 84 48 52 59
REMARK Flexibility Score: inf
ROOT
ATOM      1  C   UNL A   1      32.312  29.550  25.559  1.00  0.00     0.116 C 
ENDROOT
BRANCH   1   2
ATOM      2  N   UNL A   1      33.237  29.606  24.446  1.00  0.00    -0.354 N 
ATOM      3  C   UNL A   1      33.398  28.757  23.398  1.00  0.00     0.242 C 
ATOM      4  O   UNL A   1      34.459  28.842  22.768  1.00  0.00    -0.273 OA
ATOM      5  H   UNL A   1      33.845  30.380  24.451  1.00  0.00     0.163 HD
BRANCH   3   6
ATOM      6  C   UNL A   1      32.382  27.670  23.023  1.00  0.00     0.171 C 
BRANCH   6   7
ATOM      7  N   UNL A   1      31.500  28.263  22.024  1.00  0.00    -0.347 N 
ATOM      8  O   UNL A   1      29.640  29.519  21.636  1.00  0.00    -0.279 OA
ATOM      9  C   UNL A   1      30.286  28.800  22.381  1.00  0.00     0.337 C 
ATOM     10  H   UNL A   1      31.778  28.279  21.080  1.00  0.00     0.164 HD
ENDBRANCH   6   7
BRANCH   6  11
ATOM     11  C   UNL A   1      32.828  26.222  22.738  1.00  0.00     0.046 C 
BRANCH  11  12
ATOM     12  C   UNL A   1      33.719  25.382  23.661  1.00  0.00     0.072 C 
BRANCH  12  13
ATOM     13  S   UNL A   1      33.229  24.810  25.336  1.00  0.00    -0.158 SA
BRANCH  13  14
ATOM     14  C   UNL A   1      32.853  23.000  25.261  1.00  0.00     0.052 C 
ATOM     15  C   UNL A   1      32.428  22.531  26.662  1.00  0.00     0.043 C 
ATOM     16  C   UNL A   1      34.006  22.092  24.826  1.00  0.00     0.052 C 
ATOM     17  C   UNL A   1      33.613  22.453  27.622  1.00  0.00     0.162 C 
ATOM     18  C   UNL A   1      35.172  22.014  25.812  1.00  0.00     0.095 C 
ATOM     19  O   UNL A   1      34.681  21.659  27.112  1.00  0.00    -0.372 OA
ATOM     20  C   UNL A   1      36.016  23.282  25.813  1.00  0.00     0.066 C 
ATOM     21  C   UNL A   1      36.172  20.927  25.378  1.00  0.00     0.195 C 
ATOM     22  C   UNL A   1      37.430  22.864  25.492  1.00  0.00     0.163 C 
ATOM     23  O   UNL A   1      37.498  21.448  25.523  1.00  0.00    -0.378 OA
ENDBRANCH  13  14
ENDBRANCH  12  13
ENDBRANCH  11  12
ENDBRANCH   6  11
ENDBRANCH   3   6
ENDBRANCH   1   2
BRANCH   1  24
ATOM     24  C   UNL A   1      31.327  30.714  25.577  1.00  0.00     0.023 C 
BRANCH  24  25
ATOM     25  C   UNL A   1      31.393  31.641  26.798  1.00  0.00     0.023 C 
BRANCH  25  26
ATOM     26  C   UNL A   1      32.631  32.531  26.937  1.00  0.00     0.116 C 
BRANCH  26  27
ATOM     27  N   UNL A   1      32.351  33.852  27.463  1.00  0.00    -0.352 N 
ATOM     28  C   UNL A   1      33.004  34.590  28.422  1.00  0.00     0.251 C 
ATOM     29  H   UNL A   1      31.564  34.294  27.070  1.00  0.00     0.163 HD
ATOM     30  O   UNL A   1      32.551  35.683  28.751  1.00  0.00    -0.269 OA
BRANCH  28  31
ATOM     31  C   UNL A   1      34.221  34.082  29.099  1.00  0.00     0.039 A 
ATOM     32  C   UNL A   1      34.054  33.219  30.189  1.00  0.00     0.014 A 
ATOM     33  C   UNL A   1      35.508  34.480  28.727  1.00  0.00     0.014 A 
ATOM     34  C   UNL A   1      35.169  32.706  30.860  1.00  0.00     0.010 A 
ATOM     35  C   UNL A   1      36.624  33.932  29.371  1.00  0.00     0.010 A 
ATOM     36  C   UNL A   1      36.467  33.031  30.437  1.00  0.00    -0.014 A 
BRANCH  36  37
ATOM     37  C   UNL A   1      37.665  32.432  31.093  1.00  0.00     0.031 A 
ATOM     38  C   UNL A   1      38.426  31.318  30.429  1.00  0.00     0.074 A 
ATOM     39  C   UNL A   1      38.048  32.859  32.315  1.00  0.00     0.049 A 
ATOM     40  N   UNL A   1      39.421  30.601  30.891  1.00  0.00    -0.248 NA
ATOM     41  C   UNL A   1      38.007  30.956  29.067  1.00  0.00     0.031 C 
ATOM     42  C   UNL A   1      37.408  33.933  33.074  1.00  0.00     0.029 A 
ATOM     43  N   UNL A   1      39.061  32.430  33.138  1.00  0.00    -0.354 N 
ATOM     44  C   UNL A   1      39.740  29.698  29.883  1.00  0.00     0.074 A 
ATOM     45  C   UNL A   1      38.808  29.933  28.800  1.00  0.00     0.031 C 
ATOM     46  C   UNL A   1      38.046  34.082  34.247  1.00  0.00     0.029 A 
ATOM     47  C   UNL A   1      39.110  33.087  34.343  1.00  0.00     0.049 A 
ATOM     48  H   UNL A   1      39.693  31.717  32.887  1.00  0.00     0.167 HD
ATOM     49  C   UNL A   1      40.727  28.770  29.857  1.00  0.00     0.037 A 
ATOM     50  C   UNL A   1      39.905  32.897  35.415  1.00  0.00     0.037 A 
ATOM     51  C   UNL A   1      41.665  28.539  30.927  1.00  0.00     0.049 A 
ATOM     52  C   UNL A   1      40.957  31.818  35.380  1.00  0.00     0.074 A 
ATOM     53  C   UNL A   1      42.705  27.625  30.980  1.00  0.00     0.029 A 
ATOM     54  N   UNL A   1      41.680  29.229  32.129  1.00  0.00    -0.354 N 
ATOM     55  N   UNL A   1      41.263  30.991  34.412  1.00  0.00    -0.248 NA
ATOM     56  C   UNL A   1      41.777  31.651  36.591  1.00  0.00     0.031 C 
ATOM     57  C   UNL A   1      43.324  27.735  32.229  1.00  0.00     0.029 A 
ATOM     58  C   UNL A   1      42.702  28.752  32.935  1.00  0.00     0.049 A 
ATOM     59  H   UNL A   1      41.056  29.950  32.375  1.00  0.00     0.167 HD
ATOM     60  C   UNL A   1      42.335  30.240  34.878  1.00  0.00     0.074 A 
ATOM     61  C   UNL A   1      42.628  30.709  36.214  1.00  0.00     0.031 C 
ATOM     62  C   UNL A   1      43.015  29.251  34.248  1.00  0.00     0.037 A 
BRANCH  49  63
ATOM     63  C   UNL A   1      40.852  27.923  28.624  1.00  0.00     0.064 A 
ATOM     64  C   UNL A   1      40.151  26.716  28.492  1.00  0.00     0.173 A 
ATOM     65  C   UNL A   1      41.632  28.352  27.539  1.00  0.00     0.173 A 
ATOM     66  F   UNL A   1      39.397  26.259  29.503  1.00  0.00    -0.203 F 
ATOM     67  C   UNL A   1      40.244  25.957  27.328  1.00  0.00     0.198 A 
ATOM     68  C   UNL A   1      41.699  27.605  26.365  1.00  0.00     0.198 A 
ATOM     69  F   UNL A   1      42.314  29.505  27.608  1.00  0.00    -0.203 F 
ATOM     70  F   UNL A   1      39.597  24.787  27.240  1.00  0.00    -0.200 F 
ATOM     71  C   UNL A   1      41.012  26.405  26.263  1.00  0.00     0.200 A 
ATOM     72  F   UNL A   1      42.430  28.047  25.331  1.00  0.00    -0.200 F 
ATOM     73  F   UNL A   1      41.092  25.678  25.141  1.00  0.00    -0.200 F 
ENDBRANCH  49  63
BRANCH  50  74
ATOM     74  C   UNL A   1      39.748  33.749  36.624  1.00  0.00     0.064 A 
ATOM     75  C   UNL A   1      38.916  33.348  37.681  1.00  0.00     0.173 A 
ATOM     76  C   UNL A   1      40.389  34.991  36.733  1.00  0.00     0.173 A 
ATOM     77  F   UNL A   1      38.261  32.180  37.611  1.00  0.00    -0.203 F 
ATOM     78  C   UNL A   1      38.710  34.172  38.786  1.00  0.00     0.198 A 
ATOM     79  C   UNL A   1      40.207  35.799  37.854  1.00  0.00     0.198 A 
ATOM     80  F   UNL A   1      41.196  35.419  35.752  1.00  0.00    -0.203 F 
ATOM     81  F   UNL A   1      37.865  33.790  39.753  1.00  0.00    -0.200 F 
ATOM     82  C   UNL A   1      39.358  35.395  38.874  1.00  0.00     0.200 A 
ATOM     83  F   UNL A   1      40.844  36.974  37.939  1.00  0.00    -0.200 F 
ATOM     84  F   UNL A   1      39.156  36.187  39.935  1.00  0.00    -0.200 F 
ENDBRANCH  50  74
BRANCH  62  85
ATOM     85  C   UNL A   1      44.194  28.653  34.960  1.00  0.00     0.064 A 
ATOM     86  C   UNL A   1      44.072  27.523  35.782  1.00  0.00     0.173 A 
ATOM     87  C   UNL A   1      45.477  29.191  34.772  1.00  0.00     0.173 A 
ATOM     88  F   UNL A   1      42.865  26.979  36.007  1.00  0.00    -0.203 F 
ATOM     89  C   UNL A   1      45.187  26.965  36.402  1.00  0.00     0.198 A 
ATOM     90  C   UNL A   1      46.593  28.615  35.371  1.00  0.00     0.198 A 
ATOM     91  F   UNL A   1      45.649  30.269  33.991  1.00  0.00    -0.203 F 
ATOM     92  F   UNL A   1      45.042  25.909  37.214  1.00  0.00    -0.200 F 
ATOM     93  C   UNL A   1      46.446  27.506  36.190  1.00  0.00     0.200 A 
ATOM     94  F   UNL A   1      47.810  29.131  35.154  1.00  0.00    -0.200 F 
ATOM     95  F   UNL A   1      47.520  26.960  36.778  1.00  0.00    -0.200 F 
ENDBRANCH  62  85
ENDBRANCH  36  37
ENDBRANCH  28  31
ENDBRANCH  26  27
ENDBRANCH  25  26
ENDBRANCH  24  25
ENDBRANCH   1  24
TORSDOF 16
ENDMDL
