MODEL 1
REMARK VINA RESULT:     -10.9      0.000      0.000
REMARK SMILES C[C@@H](C(=O)NCCCCNC(=O)c1ccc(-c2c3nc(c(-c4c(F)c(F)c(F)c(F)c4F)c4ccc([nH]4)c(-c4c(F)c(F)c(F)c(F)c4F)c4nc(c(-c5c(F)c(F)c(F)c(F)c5F)c5ccc2[nH]5)C=C4)C=C3)cc1)c1ccc(-c2ccccc2)c(F)c1
REMARK SMILES IDX 7 1 6 2 5 3 3 4 4 5 2 7 1 8 76 9 77 10 88 11 78 12 86 13
REMARK SMILES IDX 79 14 87 15 80 16 81 17 85 18 82 19 84 20 83 21 8 22 9 23
REMARK SMILES IDX 10 24 11 25 12 27 13 28 14 29 75 30 15 31 74 32 16 33 17 34
REMARK SMILES IDX 18 35 68 36 19 37 73 38 67 39 69 40 20 41 72 42 66 43 65 44
REMARK SMILES IDX 21 46 53 47 33 48 52 49 34 50 37 51 51 52 70 53 35 54 36 55
REMARK SMILES IDX 50 57 71 58 38 59 22 60 23 61 31 62 24 63 25 64 29 65 32 66
REMARK SMILES IDX 26 67 27 68 30 69 28 70 54 71 55 72 63 73 56 74 57 75 61 76
REMARK SMILES IDX 64 77 58 78 59 79 62 80 60 81 39 82 40 83 48 84 41 85 42 86
REMARK SMILES IDX 46 87 49 88 43 89 44 90 47 91 45 92
REMARK H PARENT 5 6 10 26 69 45 37 56
REMARK Flexibility Score: inf
ROOT
ATOM      1  C   UNL A   1      33.926  35.453  29.058  1.00  0.00     0.023 C 
ENDROOT
BRANCH   1   2
ATOM      2  C   UNL A   1      33.114  35.331  30.349  1.00  0.00     0.116 C 
BRANCH   2   3
ATOM      3  N   UNL A   1      33.861  35.826  31.485  1.00  0.00    -0.356 N 
ATOM      4  C   UNL A   1      34.835  35.230  32.232  1.00  0.00     0.227 C 
ATOM      5  O   UNL A   1      35.229  35.864  33.212  1.00  0.00    -0.274 OA
ATOM      6  H   UNL A   1      33.630  36.742  31.763  1.00  0.00     0.163 HD
BRANCH   4   7
ATOM      7  C   UNL A   1      35.406  33.861  31.818  1.00  0.00     0.105 C 
ATOM      8  C   UNL A   1      35.367  32.836  32.955  1.00  0.00     0.023 C 
BRANCH   7   9
ATOM      9  C   UNL A   1      36.838  33.953  31.297  1.00  0.00    -0.033 A 
ATOM     10  C   UNL A   1      37.142  33.638  29.964  1.00  0.00     0.005 A 
ATOM     11  C   UNL A   1      37.874  34.393  32.129  1.00  0.00     0.044 A 
ATOM     12  C   UNL A   1      38.445  33.765  29.476  1.00  0.00     0.012 A 
ATOM     13  C   UNL A   1      39.173  34.518  31.632  1.00  0.00     0.131 A 
ATOM     14  C   UNL A   1      39.488  34.216  30.300  1.00  0.00     0.017 A 
ATOM     15  F   UNL A   1      40.126  34.959  32.469  1.00  0.00    -0.206 F 
BRANCH  14  16
ATOM     16  C   UNL A   1      40.848  34.353  29.758  1.00  0.00    -0.015 A 
ATOM     17  C   UNL A   1      41.862  33.451  30.126  1.00  0.00     0.009 A 
ATOM     18  C   UNL A   1      41.184  35.404  28.890  1.00  0.00     0.009 A 
ATOM     19  C   UNL A   1      43.168  33.601  29.654  1.00  0.00     0.001 A 
ATOM     20  C   UNL A   1      42.491  35.555  28.417  1.00  0.00     0.001 A 
ATOM     21  C   UNL A   1      43.482  34.656  28.802  1.00  0.00     0.000 A 
ENDBRANCH  14  16
ENDBRANCH   7   9
ENDBRANCH   4   7
ENDBRANCH   2   3
ENDBRANCH   1   2
BRANCH   1  22
ATOM     22  C   UNL A   1      33.740  34.302  28.064  1.00  0.00     0.023 C 
BRANCH  22  23
ATOM     23  C   UNL A   1      34.282  32.952  28.519  1.00  0.00     0.116 C 
BRANCH  23  24
ATOM     24  N   UNL A   1      33.687  31.835  27.807  1.00  0.00    -0.352 N 
ATOM     25  C   UNL A   1      34.207  30.595  27.545  1.00  0.00     0.251 C 
ATOM     26  H   UNL A   1      32.779  31.992  27.463  1.00  0.00     0.163 HD
ATOM     27  O   UNL A   1      33.589  29.819  26.816  1.00  0.00    -0.269 OA
BRANCH  25  28
ATOM     28  C   UNL A   1      35.514  30.187  28.106  1.00  0.00     0.039 A 
ATOM     29  C   UNL A   1      35.549  29.671  29.404  1.00  0.00     0.014 A 
ATOM     30  C   UNL A   1      36.702  30.345  27.386  1.00  0.00     0.014 A 
ATOM     31  C   UNL A   1      36.766  29.284  29.967  1.00  0.00     0.010 A 
ATOM     32  C   UNL A   1      37.906  29.894  27.922  1.00  0.00     0.010 A 
ATOM     33  C   UNL A   1      37.953  29.379  29.226  1.00  0.00    -0.014 A 
BRANCH  33  34
ATOM     34  C   UNL A   1      39.255  28.987  29.821  1.00  0.00     0.031 A 
ATOM     35  C   UNL A   1      39.775  29.706  31.036  1.00  0.00     0.074 A 
ATOM     36  C   UNL A   1      39.983  28.008  29.251  1.00  0.00     0.049 A 
ATOM     37  N   UNL A   1      40.890  29.518  31.696  1.00  0.00    -0.248 NA
ATOM     38  C   UNL A   1      38.944  30.800  31.563  1.00  0.00     0.031 C 
ATOM     39  C   UNL A   1      39.612  27.273  28.042  1.00  0.00     0.029 A 
ATOM     40  N   UNL A   1      41.191  27.468  29.614  1.00  0.00    -0.354 N 
ATOM     41  C   UNL A   1      40.902  30.479  32.698  1.00  0.00     0.074 A 
ATOM     42  C   UNL A   1      39.710  31.282  32.530  1.00  0.00     0.031 C 
ATOM     43  C   UNL A   1      40.556  26.354  27.781  1.00  0.00     0.029 A 
ATOM     44  C   UNL A   1      41.610  26.454  28.787  1.00  0.00     0.049 A 
ATOM     45  H   UNL A   1      41.708  27.775  30.392  1.00  0.00     0.167 HD
ATOM     46  C   UNL A   1      41.813  30.662  33.684  1.00  0.00     0.037 A 
ATOM     47  C   UNL A   1      42.714  25.686  28.844  1.00  0.00     0.037 A 
ATOM     48  C   UNL A   1      42.976  29.837  33.874  1.00  0.00     0.049 A 
ATOM     49  C   UNL A   1      43.692  25.887  29.970  1.00  0.00     0.074 A 
ATOM     50  C   UNL A   1      43.923  29.896  34.883  1.00  0.00     0.029 A 
ATOM     51  N   UNL A   1      43.349  28.797  33.035  1.00  0.00    -0.354 N 
ATOM     52  N   UNL A   1      43.654  26.748  30.957  1.00  0.00    -0.248 NA
ATOM     53  C   UNL A   1      44.860  24.996  29.996  1.00  0.00     0.031 C 
ATOM     54  C   UNL A   1      44.888  28.914  34.633  1.00  0.00     0.029 A 
ATOM     55  C   UNL A   1      44.520  28.216  33.495  1.00  0.00     0.049 A 
ATOM     56  H   UNL A   1      42.856  28.515  32.231  1.00  0.00     0.167 HD
ATOM     57  C   UNL A   1      44.768  26.481  31.740  1.00  0.00     0.074 A 
ATOM     58  C   UNL A   1      45.459  25.369  31.118  1.00  0.00     0.031 C 
ATOM     59  C   UNL A   1      45.182  27.098  32.874  1.00  0.00     0.037 A 
BRANCH  46  60
ATOM     60  C   UNL A   1      41.580  31.797  34.639  1.00  0.00     0.064 A 
ATOM     61  C   UNL A   1      42.126  33.071  34.416  1.00  0.00     0.173 A 
ATOM     62  C   UNL A   1      40.781  31.617  35.778  1.00  0.00     0.173 A 
ATOM     63  F   UNL A   1      42.909  33.292  33.349  1.00  0.00    -0.203 F 
ATOM     64  C   UNL A   1      41.907  34.112  35.314  1.00  0.00     0.198 A 
ATOM     65  C   UNL A   1      40.539  32.668  36.658  1.00  0.00     0.198 A 
ATOM     66  F   UNL A   1      40.230  30.421  36.036  1.00  0.00    -0.203 F 
ATOM     67  F   UNL A   1      42.482  35.304  35.108  1.00  0.00    -0.200 F 
ATOM     68  C   UNL A   1      41.109  33.912  36.431  1.00  0.00     0.200 A 
ATOM     69  F   UNL A   1      39.759  32.477  37.731  1.00  0.00    -0.200 F 
ATOM     70  F   UNL A   1      40.896  34.915  37.293  1.00  0.00    -0.200 F 
ENDBRANCH  46  60
BRANCH  47  71
ATOM     71  C   UNL A   1      42.927  24.616  27.835  1.00  0.00     0.064 A 
ATOM     72  C   UNL A   1      42.565  23.290  28.110  1.00  0.00     0.173 A 
ATOM     73  C   UNL A   1      43.499  24.892  26.586  1.00  0.00     0.173 A 
ATOM     74  F   UNL A   1      42.033  22.976  29.300  1.00  0.00    -0.203 F 
ATOM     75  C   UNL A   1      42.787  22.276  27.181  1.00  0.00     0.198 A 
ATOM     76  C   UNL A   1      43.698  23.881  25.648  1.00  0.00     0.198 A 
ATOM     77  F   UNL A   1      43.858  26.145  26.273  1.00  0.00    -0.203 F 
ATOM     78  F   UNL A   1      42.473  21.011  27.488  1.00  0.00    -0.200 F 
ATOM     79  C   UNL A   1      43.350  22.573  25.950  1.00  0.00     0.200 A 
ATOM     80  F   UNL A   1      44.230  24.173  24.453  1.00  0.00    -0.200 F 
ATOM     81  F   UNL A   1      43.562  21.597  25.055  1.00  0.00    -0.200 F 
ENDBRANCH  47  71
BRANCH  59  82
ATOM     82  C   UNL A   1      46.411  26.554  33.541  1.00  0.00     0.064 A 
ATOM     83  C   UNL A   1      46.341  25.529  34.495  1.00  0.00     0.173 A 
ATOM     84  C   UNL A   1      47.679  27.050  33.199  1.00  0.00     0.173 A 
ATOM     85  F   UNL A   1      45.151  25.033  34.866  1.00  0.00    -0.203 F 
ATOM     86  C   UNL A   1      47.493  25.039  35.103  1.00  0.00     0.198 A 
ATOM     87  C   UNL A   1      48.831  26.537  33.788  1.00  0.00     0.198 A 
ATOM     88  F   UNL A   1      47.800  28.025  32.286  1.00  0.00    -0.203 F 
ATOM     89  F   UNL A   1      47.399  24.094  36.050  1.00  0.00    -0.200 F 
ATOM     90  C   UNL A   1      48.737  25.539  34.746  1.00  0.00     0.200 A 
ATOM     91  F   UNL A   1      50.032  27.013  33.433  1.00  0.00    -0.200 F 
ATOM     92  F   UNL A   1      49.845  25.064  35.331  1.00  0.00    -0.200 F 
ENDBRANCH  59  82
ENDBRANCH  33  34
ENDBRANCH  25  28
ENDBRANCH  23  24
ENDBRANCH  22  23
ENDBRANCH   1  22
TORSDOF 13
ENDMDL
MODEL 2
REMARK VINA RESULT:     -10.9      2.249      4.102
REMARK SMILES C[C@@H](C(=O)NCCCCNC(=O)c1ccc(-c2c3nc(c(-c4c(F)c(F)c(F)c(F)c4F)c4ccc([nH]4)c(-c4c(F)c(F)c(F)c(F)c4F)c4nc(c(-c5c(F)c(F)c(F)c(F)c5F)c5ccc2[nH]5)C=C4)C=C3)cc1)c1ccc(-c2ccccc2)c(F)c1
REMARK SMILES IDX 7 1 6 2 5 3 3 4 4 5 2 7 1 8 76 9 77 10 88 11 78 12 86 13
REMARK SMILES IDX 79 14 87 15 80 16 81 17 85 18 82 19 84 20 83 21 8 22 9 23
REMARK SMILES IDX 10 24 11 25 12 27 13 28 14 29 75 30 15 31 74 32 16 33 17 34
REMARK SMILES IDX 18 35 68 36 19 37 73 38 67 39 69 40 20 41 72 42 66 43 65 44
REMARK SMILES IDX 21 46 53 47 33 48 52 49 34 50 37 51 51 52 70 53 35 54 36 55
REMARK SMILES IDX 50 57 71 58 38 59 22 60 23 61 31 62 24 63 25 64 29 65 32 66
REMARK SMILES IDX 26 67 27 68 30 69 28 70 54 71 55 72 63 73 56 74 57 75 61 76
REMARK SMILES IDX 64 77 58 78 59 79 62 80 60 81 39 82 40 83 48 84 41 85 42 86
REMARK SMILES IDX 46 87 49 88 43 89 44 90 47 91 45 92
REMARK H PARENT 5 6 10 26 69 45 37 56
REMARK Flexibility Score: inf
ROOT
ATOM      1  C   UNL A   1      37.098  33.430  29.027  1.00  0.00     0.023 C 
ENDROOT
BRANCH   1   2
ATOM      2  C   UNL A   1      37.287  32.783  30.401  1.00  0.00     0.116 C 
BRANCH   2   3
ATOM      3  N   UNL A   1      38.092  33.618  31.266  1.00  0.00    -0.356 N 
ATOM      4  C   UNL A   1      38.327  33.536  32.608  1.00  0.00     0.227 C 
ATOM      5  O   UNL A   1      38.985  34.455  33.099  1.00  0.00    -0.274 OA
ATOM      6  H   UNL A   1      38.543  34.367  30.813  1.00  0.00     0.163 HD
BRANCH   4   7
ATOM      7  C   UNL A   1      37.813  32.329  33.415  1.00  0.00     0.105 C 
ATOM      8  C   UNL A   1      37.406  32.704  34.843  1.00  0.00     0.023 C 
BRANCH   7   9
ATOM      9  C   UNL A   1      38.829  31.191  33.484  1.00  0.00    -0.033 A 
ATOM     10  C   UNL A   1      40.055  31.357  34.145  1.00  0.00     0.005 A 
ATOM     11  C   UNL A   1      38.541  29.942  32.920  1.00  0.00     0.044 A 
ATOM     12  C   UNL A   1      40.966  30.303  34.245  1.00  0.00     0.012 A 
ATOM     13  C   UNL A   1      39.457  28.893  33.027  1.00  0.00     0.131 A 
ATOM     14  C   UNL A   1      40.682  29.044  33.694  1.00  0.00     0.017 A 
ATOM     15  F   UNL A   1      39.125  27.711  32.482  1.00  0.00    -0.206 F 
BRANCH  14  16
ATOM     16  C   UNL A   1      41.652  27.946  33.825  1.00  0.00    -0.015 A 
ATOM     17  C   UNL A   1      41.525  26.996  34.854  1.00  0.00     0.009 A 
ATOM     18  C   UNL A   1      42.747  27.834  32.955  1.00  0.00     0.009 A 
ATOM     19  C   UNL A   1      42.467  25.978  35.015  1.00  0.00     0.001 A 
ATOM     20  C   UNL A   1      43.691  26.815  33.116  1.00  0.00     0.001 A 
ATOM     21  C   UNL A   1      43.551  25.891  34.149  1.00  0.00     0.000 A 
ENDBRANCH  14  16
ENDBRANCH   7   9
ENDBRANCH   4   7
ENDBRANCH   2   3
ENDBRANCH   1   2
BRANCH   1  22
ATOM     22  C   UNL A   1      35.698  33.271  28.424  1.00  0.00     0.023 C 
BRANCH  22  23
ATOM     23  C   UNL A   1      34.721  32.443  29.249  1.00  0.00     0.116 C 
BRANCH  23  24
ATOM     24  N   UNL A   1      34.097  31.377  28.485  1.00  0.00    -0.352 N 
ATOM     25  C   UNL A   1      34.655  30.236  27.970  1.00  0.00     0.251 C 
ATOM     26  H   UNL A   1      33.136  31.491  28.311  1.00  0.00     0.163 HD
ATOM     27  O   UNL A   1      33.981  29.507  27.241  1.00  0.00    -0.269 OA
BRANCH  25  28
ATOM     28  C   UNL A   1      36.063  29.884  28.256  1.00  0.00     0.039 A 
ATOM     29  C   UNL A   1      37.016  30.080  27.252  1.00  0.00     0.014 A 
ATOM     30  C   UNL A   1      36.445  29.328  29.481  1.00  0.00     0.014 A 
ATOM     31  C   UNL A   1      38.351  29.751  27.485  1.00  0.00     0.010 A 
ATOM     32  C   UNL A   1      37.789  29.064  29.737  1.00  0.00     0.010 A 
ATOM     33  C   UNL A   1      38.752  29.253  28.734  1.00  0.00    -0.014 A 
BRANCH  33  34
ATOM     34  C   UNL A   1      40.167  28.883  28.987  1.00  0.00     0.031 A 
ATOM     35  C   UNL A   1      41.070  29.825  29.735  1.00  0.00     0.074 A 
ATOM     36  C   UNL A   1      40.649  27.718  28.514  1.00  0.00     0.049 A 
ATOM     37  N   UNL A   1      42.334  29.690  30.047  1.00  0.00    -0.248 NA
ATOM     38  C   UNL A   1      40.480  31.102  30.168  1.00  0.00     0.031 C 
ATOM     39  C   UNL A   1      39.889  26.745  27.730  1.00  0.00     0.029 A 
ATOM     40  N   UNL A   1      41.896  27.157  28.624  1.00  0.00    -0.354 N 
ATOM     41  C   UNL A   1      42.692  30.866  30.691  1.00  0.00     0.074 A 
ATOM     42  C   UNL A   1      41.529  31.727  30.681  1.00  0.00     0.031 C 
ATOM     43  C   UNL A   1      40.676  25.691  27.456  1.00  0.00     0.029 A 
ATOM     44  C   UNL A   1      42.001  25.927  28.023  1.00  0.00     0.049 A 
ATOM     45  H   UNL A   1      42.645  27.594  29.090  1.00  0.00     0.167 HD
ATOM     46  C   UNL A   1      43.878  31.193  31.260  1.00  0.00     0.037 A 
ATOM     47  C   UNL A   1      43.046  25.081  27.948  1.00  0.00     0.037 A 
ATOM     48  C   UNL A   1      45.021  30.320  31.305  1.00  0.00     0.049 A 
ATOM     49  C   UNL A   1      44.340  25.453  28.619  1.00  0.00     0.074 A 
ATOM     50  C   UNL A   1      46.245  30.528  31.917  1.00  0.00     0.029 A 
ATOM     51  N   UNL A   1      45.078  29.066  30.713  1.00  0.00    -0.354 N 
ATOM     52  N   UNL A   1      44.645  26.536  29.292  1.00  0.00    -0.248 NA
ATOM     53  C   UNL A   1      45.434  24.475  28.531  1.00  0.00     0.031 C 
ATOM     54  C   UNL A   1      47.054  29.416  31.664  1.00  0.00     0.029 A 
ATOM     55  C   UNL A   1      46.321  28.496  30.934  1.00  0.00     0.049 A 
ATOM     56  H   UNL A   1      44.344  28.646  30.210  1.00  0.00     0.167 HD
ATOM     57  C   UNL A   1      45.947  26.355  29.738  1.00  0.00     0.074 A 
ATOM     58  C   UNL A   1      46.373  25.053  29.267  1.00  0.00     0.031 C 
ATOM     59  C   UNL A   1      46.720  27.191  30.474  1.00  0.00     0.037 A 
BRANCH  46  60
ATOM     60  C   UNL A   1      43.994  32.552  31.888  1.00  0.00     0.064 A 
ATOM     61  C   UNL A   1      44.224  33.702  31.117  1.00  0.00     0.173 A 
ATOM     62  C   UNL A   1      43.847  32.710  33.274  1.00  0.00     0.173 A 
ATOM     63  F   UNL A   1      44.386  33.603  29.789  1.00  0.00    -0.203 F 
ATOM     64  C   UNL A   1      44.336  34.954  31.715  1.00  0.00     0.198 A 
ATOM     65  C   UNL A   1      43.929  33.969  33.865  1.00  0.00     0.198 A 
ATOM     66  F   UNL A   1      43.620  31.645  34.056  1.00  0.00    -0.203 F 
ATOM     67  F   UNL A   1      44.610  36.031  30.964  1.00  0.00    -0.200 F 
ATOM     68  C   UNL A   1      44.183  35.088  33.086  1.00  0.00     0.200 A 
ATOM     69  F   UNL A   1      43.769  34.098  35.189  1.00  0.00    -0.200 F 
ATOM     70  F   UNL A   1      44.286  36.294  33.659  1.00  0.00    -0.200 F 
ENDBRANCH  46  60
BRANCH  47  71
ATOM     71  C   UNL A   1      42.896  23.774  27.259  1.00  0.00     0.064 A 
ATOM     72  C   UNL A   1      42.345  22.671  27.928  1.00  0.00     0.173 A 
ATOM     73  C   UNL A   1      43.303  23.596  25.930  1.00  0.00     0.173 A 
ATOM     74  F   UNL A   1      41.960  22.789  29.206  1.00  0.00    -0.203 F 
ATOM     75  C   UNL A   1      42.226  21.435  27.299  1.00  0.00     0.198 A 
ATOM     76  C   UNL A   1      43.160  22.365  25.294  1.00  0.00     0.198 A 
ATOM     77  F   UNL A   1      43.831  24.621  25.246  1.00  0.00    -0.203 F 
ATOM     78  F   UNL A   1      41.738  20.387  27.975  1.00  0.00    -0.200 F 
ATOM     79  C   UNL A   1      42.630  21.283  25.982  1.00  0.00     0.200 A 
ATOM     80  F   UNL A   1      43.540  22.225  24.016  1.00  0.00    -0.200 F 
ATOM     81  F   UNL A   1      42.515  20.093  25.376  1.00  0.00    -0.200 F 
ENDBRANCH  47  71
BRANCH  59  82
ATOM     82  C   UNL A   1      48.086  26.702  30.856  1.00  0.00     0.064 A 
ATOM     83  C   UNL A   1      49.218  26.995  30.082  1.00  0.00     0.173 A 
ATOM     84  C   UNL A   1      48.266  25.954  32.030  1.00  0.00     0.173 A 
ATOM     85  F   UNL A   1      49.096  27.694  28.944  1.00  0.00    -0.203 F 
ATOM     86  C   UNL A   1      50.477  26.530  30.454  1.00  0.00     0.198 A 
ATOM     87  C   UNL A   1      49.529  25.516  32.414  1.00  0.00     0.198 A 
ATOM     88  F   UNL A   1      47.215  25.654  32.808  1.00  0.00    -0.203 F 
ATOM     89  F   UNL A   1      51.538  26.778  29.673  1.00  0.00    -0.200 F 
ATOM     90  C   UNL A   1      50.633  25.797  31.621  1.00  0.00     0.200 A 
ATOM     91  F   UNL A   1      49.680  24.818  33.547  1.00  0.00    -0.200 F 
ATOM     92  F   UNL A   1      51.846  25.353  31.979  1.00  0.00    -0.200 F 
ENDBRANCH  59  82
ENDBRANCH  33  34
ENDBRANCH  25  28
ENDBRANCH  23  24
ENDBRANCH  22  23
ENDBRANCH   1  22
TORSDOF 13
ENDMDL
MODEL 3
REMARK VINA RESULT:     -10.8      3.883     11.182
REMARK SMILES C[C@@H](C(=O)NCCCCNC(=O)c1ccc(-c2c3nc(c(-c4c(F)c(F)c(F)c(F)c4F)c4ccc([nH]4)c(-c4c(F)c(F)c(F)c(F)c4F)c4nc(c(-c5c(F)c(F)c(F)c(F)c5F)c5ccc2[nH]5)C=C4)C=C3)cc1)c1ccc(-c2ccccc2)c(F)c1
REMARK SMILES IDX 7 1 6 2 5 3 3 4 4 5 2 7 1 8 76 9 77 10 88 11 78 12 86 13
REMARK SMILES IDX 79 14 87 15 80 16 81 17 85 18 82 19 84 20 83 21 8 22 9 23
REMARK SMILES IDX 10 24 11 25 12 27 13 28 14 29 75 30 15 31 74 32 16 33 17 34
REMARK SMILES IDX 18 35 68 36 19 37 73 38 67 39 69 40 20 41 72 42 66 43 65 44
REMARK SMILES IDX 21 46 53 47 33 48 52 49 34 50 37 51 51 52 70 53 35 54 36 55
REMARK SMILES IDX 50 57 71 58 38 59 22 60 23 61 31 62 24 63 25 64 29 65 32 66
REMARK SMILES IDX 26 67 27 68 30 69 28 70 54 71 55 72 63 73 56 74 57 75 61 76
REMARK SMILES IDX 64 77 58 78 59 79 62 80 60 81 39 82 40 83 48 84 41 85 42 86
REMARK SMILES IDX 46 87 49 88 43 89 44 90 47 91 45 92
REMARK H PARENT 5 6 10 26 69 45 37 56
REMARK Flexibility Score: inf
ROOT
ATOM      1  C   UNL A   1      42.463  19.441  26.854  1.00  0.00     0.023 C 
ENDROOT
BRANCH   1   2
ATOM      2  C   UNL A   1      43.031  19.625  25.445  1.00  0.00     0.116 C 
BRANCH   2   3
ATOM      3  N   UNL A   1      44.451  19.897  25.485  1.00  0.00    -0.356 N 
ATOM      4  C   UNL A   1      45.125  21.084  25.469  1.00  0.00     0.227 C 
ATOM      5  O   UNL A   1      46.354  21.007  25.414  1.00  0.00    -0.274 OA
ATOM      6  H   UNL A   1      45.024  19.099  25.532  1.00  0.00     0.163 HD
BRANCH   4   7
ATOM      7  C   UNL A   1      44.358  22.417  25.552  1.00  0.00     0.105 C 
ATOM      8  C   UNL A   1      44.903  23.474  24.588  1.00  0.00     0.023 C 
BRANCH   7   9
ATOM      9  C   UNL A   1      44.350  23.004  26.962  1.00  0.00    -0.033 A 
ATOM     10  C   UNL A   1      43.218  22.895  27.783  1.00  0.00     0.005 A 
ATOM     11  C   UNL A   1      45.490  23.631  27.480  1.00  0.00     0.044 A 
ATOM     12  C   UNL A   1      43.226  23.395  29.087  1.00  0.00     0.012 A 
ATOM     13  C   UNL A   1      45.489  24.126  28.786  1.00  0.00     0.131 A 
ATOM     14  C   UNL A   1      44.367  24.014  29.620  1.00  0.00     0.017 A 
ATOM     15  F   UNL A   1      46.613  24.704  29.240  1.00  0.00    -0.206 F 
BRANCH  14  16
ATOM     16  C   UNL A   1      44.354  24.519  31.001  1.00  0.00    -0.015 A 
ATOM     17  C   UNL A   1      44.350  23.629  32.090  1.00  0.00     0.009 A 
ATOM     18  C   UNL A   1      44.310  25.895  31.274  1.00  0.00     0.009 A 
ATOM     19  C   UNL A   1      44.290  24.097  33.405  1.00  0.00     0.001 A 
ATOM     20  C   UNL A   1      44.250  26.365  32.589  1.00  0.00     0.001 A 
ATOM     21  C   UNL A   1      44.236  25.465  33.653  1.00  0.00     0.000 A 
ENDBRANCH  14  16
ENDBRANCH   7   9
ENDBRANCH   4   7
ENDBRANCH   2   3
ENDBRANCH   1   2
BRANCH   1  22
ATOM     22  C   UNL A   1      41.106  20.108  27.098  1.00  0.00     0.023 C 
BRANCH  22  23
ATOM     23  C   UNL A   1      40.869  21.407  26.338  1.00  0.00     0.116 C 
BRANCH  23  24
ATOM     24  N   UNL A   1      39.476  21.608  25.981  1.00  0.00    -0.352 N 
ATOM     25  C   UNL A   1      38.684  22.711  26.160  1.00  0.00     0.251 C 
ATOM     26  H   UNL A   1      39.037  20.841  25.550  1.00  0.00     0.163 HD
ATOM     27  O   UNL A   1      37.483  22.645  25.898  1.00  0.00    -0.269 OA
BRANCH  25  28
ATOM     28  C   UNL A   1      39.248  23.972  26.689  1.00  0.00     0.039 A 
ATOM     29  C   UNL A   1      39.869  24.851  25.796  1.00  0.00     0.014 A 
ATOM     30  C   UNL A   1      39.208  24.278  28.053  1.00  0.00     0.014 A 
ATOM     31  C   UNL A   1      40.419  26.045  26.262  1.00  0.00     0.010 A 
ATOM     32  C   UNL A   1      39.696  25.502  28.507  1.00  0.00     0.010 A 
ATOM     33  C   UNL A   1      40.325  26.387  27.620  1.00  0.00    -0.014 A 
BRANCH  33  34
ATOM     34  C   UNL A   1      40.922  27.648  28.129  1.00  0.00     0.031 A 
ATOM     35  C   UNL A   1      42.412  27.847  28.084  1.00  0.00     0.074 A 
ATOM     36  C   UNL A   1      40.129  28.596  28.662  1.00  0.00     0.049 A 
ATOM     37  N   UNL A   1      43.125  28.869  28.487  1.00  0.00    -0.248 NA
ATOM     38  C   UNL A   1      43.212  26.738  27.538  1.00  0.00     0.031 C 
ATOM     39  C   UNL A   1      38.677  28.498  28.810  1.00  0.00     0.029 A 
ATOM     40  N   UNL A   1      40.436  29.829  29.180  1.00  0.00    -0.354 N 
ATOM     41  C   UNL A   1      44.449  28.519  28.262  1.00  0.00     0.074 A 
ATOM     42  C   UNL A   1      44.448  27.171  27.736  1.00  0.00     0.031 C 
ATOM     43  C   UNL A   1      38.214  29.637  29.351  1.00  0.00     0.029 A 
ATOM     44  C   UNL A   1      39.338  30.532  29.611  1.00  0.00     0.049 A 
ATOM     45  H   UNL A   1      41.355  30.177  29.237  1.00  0.00     0.167 HD
ATOM     46  C   UNL A   1      45.566  29.261  28.455  1.00  0.00     0.037 A 
ATOM     47  C   UNL A   1      39.251  31.765  30.146  1.00  0.00     0.037 A 
ATOM     48  C   UNL A   1      45.562  30.616  28.940  1.00  0.00     0.049 A 
ATOM     49  C   UNL A   1      40.502  32.582  30.317  1.00  0.00     0.074 A 
ATOM     50  C   UNL A   1      46.632  31.479  29.104  1.00  0.00     0.029 A 
ATOM     51  N   UNL A   1      44.426  31.307  29.335  1.00  0.00    -0.354 N 
ATOM     52  N   UNL A   1      41.742  32.270  30.029  1.00  0.00    -0.248 NA
ATOM     53  C   UNL A   1      40.338  33.931  30.876  1.00  0.00     0.031 C 
ATOM     54  C   UNL A   1      46.147  32.679  29.634  1.00  0.00     0.029 A 
ATOM     55  C   UNL A   1      44.771  32.581  29.757  1.00  0.00     0.049 A 
ATOM     56  H   UNL A   1      43.511  30.946  29.319  1.00  0.00     0.167 HD
ATOM     57  C   UNL A   1      42.500  33.392  30.335  1.00  0.00     0.074 A 
ATOM     58  C   UNL A   1      41.578  34.398  30.822  1.00  0.00     0.031 C 
ATOM     59  C   UNL A   1      43.838  33.575  30.221  1.00  0.00     0.037 A 
BRANCH  46  60
ATOM     60  C   UNL A   1      46.886  28.623  28.133  1.00  0.00     0.064 A 
ATOM     61  C   UNL A   1      47.466  28.732  26.860  1.00  0.00     0.173 A 
ATOM     62  C   UNL A   1      47.593  27.916  29.117  1.00  0.00     0.173 A 
ATOM     63  F   UNL A   1      46.824  29.386  25.879  1.00  0.00    -0.203 F 
ATOM     64  C   UNL A   1      48.688  28.129  26.575  1.00  0.00     0.198 A 
ATOM     65  C   UNL A   1      48.830  27.340  28.837  1.00  0.00     0.198 A 
ATOM     66  F   UNL A   1      47.088  27.787  30.352  1.00  0.00    -0.203 F 
ATOM     67  F   UNL A   1      49.196  28.201  25.336  1.00  0.00    -0.200 F 
ATOM     68  C   UNL A   1      49.372  27.439  27.564  1.00  0.00     0.200 A 
ATOM     69  F   UNL A   1      49.495  26.684  29.797  1.00  0.00    -0.200 F 
ATOM     70  F   UNL A   1      50.550  26.863  27.290  1.00  0.00    -0.200 F 
ENDBRANCH  46  60
BRANCH  47  71
ATOM     71  C   UNL A   1      37.923  32.325  30.507  1.00  0.00     0.064 A 
ATOM     72  C   UNL A   1      37.229  33.153  29.614  1.00  0.00     0.173 A 
ATOM     73  C   UNL A   1      37.326  32.053  31.745  1.00  0.00     0.173 A 
ATOM     74  F   UNL A   1      37.770  33.457  28.425  1.00  0.00    -0.203 F 
ATOM     75  C   UNL A   1      35.997  33.706  29.954  1.00  0.00     0.198 A 
ATOM     76  C   UNL A   1      36.081  32.586  32.075  1.00  0.00     0.198 A 
ATOM     77  F   UNL A   1      37.947  31.262  32.632  1.00  0.00    -0.203 F 
ATOM     78  F   UNL A   1      35.376  34.530  29.100  1.00  0.00    -0.200 F 
ATOM     79  C   UNL A   1      35.422  33.419  31.183  1.00  0.00     0.200 A 
ATOM     80  F   UNL A   1      35.522  32.296  33.258  1.00  0.00    -0.200 F 
ATOM     81  F   UNL A   1      34.235  33.950  31.510  1.00  0.00    -0.200 F 
ENDBRANCH  47  71
BRANCH  59  82
ATOM     82  C   UNL A   1      44.378  34.927  30.582  1.00  0.00     0.064 A 
ATOM     83  C   UNL A   1      44.466  35.963  29.642  1.00  0.00     0.173 A 
ATOM     84  C   UNL A   1      44.788  35.196  31.898  1.00  0.00     0.173 A 
ATOM     85  F   UNL A   1      44.102  35.751  28.369  1.00  0.00    -0.203 F 
ATOM     86  C   UNL A   1      44.973  37.210  29.998  1.00  0.00     0.198 A 
ATOM     87  C   UNL A   1      45.265  36.452  32.257  1.00  0.00     0.198 A 
ATOM     88  F   UNL A   1      44.716  34.240  32.837  1.00  0.00    -0.203 F 
ATOM     89  F   UNL A   1      45.096  38.171  29.071  1.00  0.00    -0.200 F 
ATOM     90  C   UNL A   1      45.366  37.456  31.306  1.00  0.00     0.200 A 
ATOM     91  F   UNL A   1      45.634  36.691  33.523  1.00  0.00    -0.200 F 
ATOM     92  F   UNL A   1      45.851  38.658  31.646  1.00  0.00    -0.200 F 
ENDBRANCH  59  82
ENDBRANCH  33  34
ENDBRANCH  25  28
ENDBRANCH  23  24
ENDBRANCH  22  23
ENDBRANCH   1  22
TORSDOF 13
ENDMDL
