MODEL 1
REMARK VINA RESULT:     -11.9      0.000      0.000
REMARK SMILES O=C(NCCCCNC(=O)c1cc(SCC(=O)N2CCOCC2)ccn1)c1ccc(-c2c3nc(c(-c4c(F)c(F)c(F)c(F)c4F)c4ccc([nH]4)c(-c4c(F)c(F)c(F)c(F)c4F)c4nc(c(-c5c(F)c(F)c(F)c(F)c5F)c5ccc2[nH]5)C=C4)C=C3)cc1
REMARK SMILES IDX 6 1 5 2 4 3 3 4 1 5 2 6 27 8 28 9 89 10 29 11 88 12 30 13
REMARK SMILES IDX 31 14 32 15 82 16 33 17 87 18 81 19 83 20 34 21 86 22 80 23
REMARK SMILES IDX 79 24 35 26 67 27 47 28 66 29 48 30 51 31 65 32 84 33 49 34
REMARK SMILES IDX 50 35 64 37 85 38 52 39 36 40 37 41 45 42 38 43 39 44 43 45
REMARK SMILES IDX 46 46 40 47 41 48 44 49 42 50 68 51 69 52 77 53 70 54 71 55
REMARK SMILES IDX 75 56 78 57 72 58 73 59 76 60 74 61 53 62 54 63 62 64 55 65
REMARK SMILES IDX 56 66 60 67 63 68 57 69 58 70 61 71 59 72 7 73 8 74 9 75
REMARK SMILES IDX 10 77 11 78 12 79 26 80 13 81 25 82 24 83 14 84 15 85 16 86
REMARK SMILES IDX 17 87 18 88 19 89 23 90 20 91 22 92 21 93
REMARK H PARENT 3 7 83 25 51 36 8 76
REMARK Flexibility Score: inf
ROOT
ATOM      1  C   UNL A   1      31.417  30.823  25.863  1.00  0.00     0.023 C 
ENDROOT
BRANCH   1   2
ATOM      2  C   UNL A   1      31.309  31.973  26.859  1.00  0.00     0.023 C 
BRANCH   2   3
ATOM      3  C   UNL A   1      32.616  32.693  27.165  1.00  0.00     0.116 C 
BRANCH   3   4
ATOM      4  N   UNL A   1      32.423  34.072  27.590  1.00  0.00    -0.352 N 
ATOM      5  O   UNL A   1      32.683  35.895  28.901  1.00  0.00    -0.269 OA
ATOM      6  C   UNL A   1      33.072  34.776  28.577  1.00  0.00     0.251 C 
ATOM      7  H   UNL A   1      31.729  34.571  27.102  1.00  0.00     0.163 HD
BRANCH   6   8
ATOM      8  C   UNL A   1      34.231  34.165  29.264  1.00  0.00     0.039 A 
ATOM      9  C   UNL A   1      35.533  34.468  28.857  1.00  0.00     0.014 A 
ATOM     10  C   UNL A   1      34.015  33.273  30.319  1.00  0.00     0.014 A 
ATOM     11  C   UNL A   1      36.605  33.767  29.396  1.00  0.00     0.010 A 
ATOM     12  C   UNL A   1      35.104  32.633  30.921  1.00  0.00     0.010 A 
ATOM     13  C   UNL A   1      36.405  32.850  30.441  1.00  0.00    -0.014 A 
BRANCH  13  14
ATOM     14  C   UNL A   1      37.581  32.178  31.048  1.00  0.00     0.031 A 
ATOM     15  C   UNL A   1      38.042  32.511  32.439  1.00  0.00     0.074 A 
ATOM     16  C   UNL A   1      38.215  31.224  30.338  1.00  0.00     0.049 A 
ATOM     17  N   UNL A   1      39.036  32.000  33.124  1.00  0.00    -0.248 NA
ATOM     18  C   UNL A   1      37.299  33.557  33.156  1.00  0.00     0.031 C 
ATOM     19  C   UNL A   1      37.863  30.820  28.975  1.00  0.00     0.029 A 
ATOM     20  N   UNL A   1      39.270  30.411  30.664  1.00  0.00    -0.354 N 
ATOM     21  C   UNL A   1      39.048  32.670  34.339  1.00  0.00     0.074 A 
ATOM     22  C   UNL A   1      37.977  33.644  34.293  1.00  0.00     0.031 C 
ATOM     23  C   UNL A   1      38.654  29.805  28.599  1.00  0.00     0.029 A 
ATOM     24  C   UNL A   1      39.606  29.527  29.669  1.00  0.00     0.049 A 
ATOM     25  H   UNL A   1      39.739  30.455  31.528  1.00  0.00     0.167 HD
ATOM     26  C   UNL A   1      39.873  32.482  35.399  1.00  0.00     0.037 A 
ATOM     27  C   UNL A   1      40.582  28.603  29.614  1.00  0.00     0.037 A 
ATOM     28  C   UNL A   1      40.925  31.498  35.447  1.00  0.00     0.049 A 
ATOM     29  C   UNL A   1      41.493  28.431  30.795  1.00  0.00     0.074 A 
ATOM     30  C   UNL A   1      41.789  31.208  36.489  1.00  0.00     0.029 A 
ATOM     31  N   UNL A   1      41.257  30.643  34.406  1.00  0.00    -0.354 N 
ATOM     32  N   UNL A   1      41.475  29.054  31.948  1.00  0.00    -0.248 NA
ATOM     33  C   UNL A   1      42.562  27.434  30.664  1.00  0.00     0.031 C 
ATOM     34  C   UNL A   1      42.671  30.208  36.064  1.00  0.00     0.029 A 
ATOM     35  C   UNL A   1      42.327  29.842  34.773  1.00  0.00     0.049 A 
ATOM     36  H   UNL A   1      40.800  30.610  33.534  1.00  0.00     0.167 HD
ATOM     37  C   UNL A   1      42.520  28.516  32.685  1.00  0.00     0.074 A 
ATOM     38  C   UNL A   1      43.136  27.500  31.857  1.00  0.00     0.031 C 
ATOM     39  C   UNL A   1      42.931  28.838  33.936  1.00  0.00     0.037 A 
BRANCH  26  40
ATOM     40  C   UNL A   1      39.687  33.368  36.596  1.00  0.00     0.064 A 
ATOM     41  C   UNL A   1      40.336  34.607  36.705  1.00  0.00     0.173 A 
ATOM     42  C   UNL A   1      38.802  33.000  37.621  1.00  0.00     0.173 A 
ATOM     43  F   UNL A   1      41.199  35.000  35.757  1.00  0.00    -0.203 F 
ATOM     44  C   UNL A   1      40.120  35.434  37.803  1.00  0.00     0.198 A 
ATOM     45  C   UNL A   1      38.569  33.841  38.706  1.00  0.00     0.198 A 
ATOM     46  F   UNL A   1      38.149  31.829  37.562  1.00  0.00    -0.203 F 
ATOM     47  F   UNL A   1      40.778  36.598  37.903  1.00  0.00    -0.200 F 
ATOM     48  C   UNL A   1      39.231  35.056  38.799  1.00  0.00     0.200 A 
ATOM     49  F   UNL A   1      37.701  33.478  39.660  1.00  0.00    -0.200 F 
ATOM     50  F   UNL A   1      39.017  35.858  39.851  1.00  0.00    -0.200 F 
ENDBRANCH  26  40
BRANCH  27  51
ATOM     51  C   UNL A   1      40.740  27.774  28.393  1.00  0.00     0.064 A 
ATOM     52  C   UNL A   1      41.534  28.210  27.323  1.00  0.00     0.173 A 
ATOM     53  C   UNL A   1      40.118  26.522  28.280  1.00  0.00     0.173 A 
ATOM     54  F   UNL A   1      42.133  29.408  27.378  1.00  0.00    -0.203 F 
ATOM     55  C   UNL A   1      41.692  27.428  26.182  1.00  0.00     0.198 A 
ATOM     56  C   UNL A   1      40.299  25.729  27.151  1.00  0.00     0.198 A 
ATOM     57  F   UNL A   1      39.353  26.060  29.279  1.00  0.00    -0.203 F 
ATOM     58  F   UNL A   1      42.427  27.882  25.158  1.00  0.00    -0.200 F 
ATOM     59  C   UNL A   1      41.081  26.184  26.099  1.00  0.00     0.200 A 
ATOM     60  F   UNL A   1      39.721  24.522  27.082  1.00  0.00    -0.200 F 
ATOM     61  F   UNL A   1      41.242  25.428  25.005  1.00  0.00    -0.200 F 
ENDBRANCH  27  51
BRANCH  39  62
ATOM     62  C   UNL A   1      44.095  28.068  34.487  1.00  0.00     0.064 A 
ATOM     63  C   UNL A   1      43.916  26.855  35.167  1.00  0.00     0.173 A 
ATOM     64  C   UNL A   1      45.405  28.539  34.312  1.00  0.00     0.173 A 
ATOM     65  F   UNL A   1      42.681  26.374  35.374  1.00  0.00    -0.203 F 
ATOM     66  C   UNL A   1      45.006  26.153  35.675  1.00  0.00     0.198 A 
ATOM     67  C   UNL A   1      46.494  27.822  34.798  1.00  0.00     0.198 A 
ATOM     68  F   UNL A   1      45.629  29.693  33.664  1.00  0.00    -0.203 F 
ATOM     69  F   UNL A   1      44.808  25.020  36.363  1.00  0.00    -0.200 F 
ATOM     70  C   UNL A   1      46.293  26.634  35.485  1.00  0.00     0.200 A 
ATOM     71  F   UNL A   1      47.737  28.282  34.605  1.00  0.00    -0.200 F 
ATOM     72  F   UNL A   1      47.340  25.955  35.973  1.00  0.00    -0.200 F 
ENDBRANCH  39  62
ENDBRANCH  13  14
ENDBRANCH   6   8
ENDBRANCH   3   4
ENDBRANCH   2   3
ENDBRANCH   1   2
BRANCH   1  73
ATOM     73  C   UNL A   1      32.631  29.924  26.051  1.00  0.00     0.116 C 
BRANCH  73  74
ATOM     74  N   UNL A   1      33.410  29.741  24.839  1.00  0.00    -0.351 N 
ATOM     75  C   UNL A   1      33.222  28.811  23.839  1.00  0.00     0.269 C 
ATOM     76  H   UNL A   1      34.165  30.360  24.716  1.00  0.00     0.163 HD
ATOM     77  O   UNL A   1      33.954  28.809  22.854  1.00  0.00    -0.268 OA
BRANCH  75  78
ATOM     78  C   UNL A   1      32.125  27.818  23.982  1.00  0.00     0.129 A 
ATOM     79  C   UNL A   1      32.396  26.565  24.524  1.00  0.00     0.049 A 
ATOM     80  N   UNL A   1      30.929  28.188  23.462  1.00  0.00    -0.251 NA
ATOM     81  C   UNL A   1      31.393  25.607  24.463  1.00  0.00     0.012 A 
ATOM     82  C   UNL A   1      29.956  27.264  23.482  1.00  0.00     0.113 A 
ATOM     83  C   UNL A   1      30.143  25.976  23.953  1.00  0.00     0.035 A 
BRANCH  81  84
ATOM     84  S   UNL A   1      31.552  23.918  24.994  1.00  0.00    -0.116 SA
BRANCH  84  85
ATOM     85  C   UNL A   1      32.011  22.965  23.526  1.00  0.00     0.175 C 
BRANCH  85  86
ATOM     86  C   UNL A   1      33.438  23.011  22.999  1.00  0.00     0.233 C 
ATOM     87  O   UNL A   1      33.650  23.641  21.954  1.00  0.00    -0.274 OA
ATOM     88  N   UNL A   1      34.496  22.557  23.756  1.00  0.00    -0.337 N 
ATOM     89  C   UNL A   1      34.500  21.442  24.705  1.00  0.00     0.148 C 
ATOM     90  C   UNL A   1      35.829  23.151  23.570  1.00  0.00     0.148 C 
ATOM     91  C   UNL A   1      35.153  21.849  26.026  1.00  0.00     0.181 C 
ATOM     92  C   UNL A   1      36.420  23.527  24.935  1.00  0.00     0.181 C 
ATOM     93  O   UNL A   1      36.467  22.386  25.809  1.00  0.00    -0.378 OA
ENDBRANCH  85  86
ENDBRANCH  84  85
ENDBRANCH  81  84
ENDBRANCH  75  78
ENDBRANCH  73  74
ENDBRANCH   1  73
TORSDOF 14
ENDMDL
MODEL 2
REMARK VINA RESULT:     -11.8      5.658      9.865
REMARK SMILES O=C(NCCCCNC(=O)c1cc(SCC(=O)N2CCOCC2)ccn1)c1ccc(-c2c3nc(c(-c4c(F)c(F)c(F)c(F)c4F)c4ccc([nH]4)c(-c4c(F)c(F)c(F)c(F)c4F)c4nc(c(-c5c(F)c(F)c(F)c(F)c5F)c5ccc2[nH]5)C=C4)C=C3)cc1
REMARK SMILES IDX 6 1 5 2 4 3 3 4 1 5 2 6 27 8 28 9 89 10 29 11 88 12 30 13
REMARK SMILES IDX 31 14 32 15 82 16 33 17 87 18 81 19 83 20 34 21 86 22 80 23
REMARK SMILES IDX 79 24 35 26 67 27 47 28 66 29 48 30 51 31 65 32 84 33 49 34
REMARK SMILES IDX 50 35 64 37 85 38 52 39 36 40 37 41 45 42 38 43 39 44 43 45
REMARK SMILES IDX 46 46 40 47 41 48 44 49 42 50 68 51 69 52 77 53 70 54 71 55
REMARK SMILES IDX 75 56 78 57 72 58 73 59 76 60 74 61 53 62 54 63 62 64 55 65
REMARK SMILES IDX 56 66 60 67 63 68 57 69 58 70 61 71 59 72 7 73 8 74 9 75
REMARK SMILES IDX 10 77 11 78 12 79 26 80 13 81 25 82 24 83 14 84 15 85 16 86
REMARK SMILES IDX 17 87 18 88 19 89 23 90 20 91 22 92 21 93
REMARK H PARENT 3 7 83 25 51 36 8 76
REMARK Flexibility Score: inf
ROOT
ATOM      1  C   UNL A   1      39.409  22.256  26.251  1.00  0.00     0.023 C 
ENDROOT
BRANCH   1   2
ATOM      2  C   UNL A   1      39.652  20.829  26.730  1.00  0.00     0.023 C 
BRANCH   2   3
ATOM      3  C   UNL A   1      39.800  19.789  25.626  1.00  0.00     0.116 C 
BRANCH   3   4
ATOM      4  N   UNL A   1      40.865  18.831  25.883  1.00  0.00    -0.352 N 
ATOM      5  O   UNL A   1      42.987  18.127  26.217  1.00  0.00    -0.269 OA
ATOM      6  C   UNL A   1      42.191  19.060  26.167  1.00  0.00     0.251 C 
ATOM      7  H   UNL A   1      40.599  17.884  25.847  1.00  0.00     0.163 HD
BRANCH   6   8
ATOM      8  C   UNL A   1      42.657  20.446  26.393  1.00  0.00     0.039 A 
ATOM      9  C   UNL A   1      42.726  20.966  27.687  1.00  0.00     0.014 A 
ATOM     10  C   UNL A   1      43.019  21.237  25.298  1.00  0.00     0.014 A 
ATOM     11  C   UNL A   1      43.006  22.314  27.875  1.00  0.00     0.010 A 
ATOM     12  C   UNL A   1      43.385  22.573  25.498  1.00  0.00     0.010 A 
ATOM     13  C   UNL A   1      43.350  23.131  26.786  1.00  0.00    -0.014 A 
BRANCH  13  14
ATOM     14  C   UNL A   1      43.720  24.547  27.031  1.00  0.00     0.031 A 
ATOM     15  C   UNL A   1      42.727  25.532  27.582  1.00  0.00     0.074 A 
ATOM     16  C   UNL A   1      44.987  24.933  26.786  1.00  0.00     0.049 A 
ATOM     17  N   UNL A   1      42.896  26.798  27.875  1.00  0.00    -0.248 NA
ATOM     18  C   UNL A   1      41.364  25.038  27.831  1.00  0.00     0.031 C 
ATOM     19  C   UNL A   1      46.037  24.068  26.244  1.00  0.00     0.029 A 
ATOM     20  N   UNL A   1      45.614  26.138  26.975  1.00  0.00    -0.354 N 
ATOM     21  C   UNL A   1      41.665  27.254  28.325  1.00  0.00     0.074 A 
ATOM     22  C   UNL A   1      40.747  26.137  28.245  1.00  0.00     0.031 C 
ATOM     23  C   UNL A   1      47.187  24.755  26.189  1.00  0.00     0.029 A 
ATOM     24  C   UNL A   1      46.943  26.122  26.634  1.00  0.00     0.049 A 
ATOM     25  H   UNL A   1      45.155  26.937  27.323  1.00  0.00     0.167 HD
ATOM     26  C   UNL A   1      41.335  28.491  28.772  1.00  0.00     0.037 A 
ATOM     27  C   UNL A   1      47.864  27.103  26.661  1.00  0.00     0.037 A 
ATOM     28  C   UNL A   1      42.257  29.595  28.867  1.00  0.00     0.049 A 
ATOM     29  C   UNL A   1      47.464  28.467  27.143  1.00  0.00     0.074 A 
ATOM     30  C   UNL A   1      42.025  30.875  29.342  1.00  0.00     0.029 A 
ATOM     31  N   UNL A   1      43.588  29.550  28.481  1.00  0.00    -0.354 N 
ATOM     32  N   UNL A   1      46.303  28.877  27.590  1.00  0.00    -0.248 NA
ATOM     33  C   UNL A   1      48.501  29.506  27.116  1.00  0.00     0.031 C 
ATOM     34  C   UNL A   1      43.204  31.616  29.202  1.00  0.00     0.029 A 
ATOM     35  C   UNL A   1      44.184  30.785  28.684  1.00  0.00     0.049 A 
ATOM     36  H   UNL A   1      44.044  28.756  28.116  1.00  0.00     0.167 HD
ATOM     37  C   UNL A   1      46.471  30.216  27.911  1.00  0.00     0.074 A 
ATOM     38  C   UNL A   1      47.854  30.543  27.628  1.00  0.00     0.031 C 
ATOM     39  C   UNL A   1      45.560  31.095  28.394  1.00  0.00     0.037 A 
BRANCH  26  40
ATOM     40  C   UNL A   1      39.910  28.730  29.180  1.00  0.00     0.064 A 
ATOM     41  C   UNL A   1      39.476  28.522  30.497  1.00  0.00     0.173 A 
ATOM     42  C   UNL A   1      38.982  29.231  28.255  1.00  0.00     0.173 A 
ATOM     43  F   UNL A   1      40.322  28.035  31.417  1.00  0.00    -0.203 F 
ATOM     44  C   UNL A   1      38.160  28.788  30.868  1.00  0.00     0.198 A 
ATOM     45  C   UNL A   1      37.673  29.520  28.635  1.00  0.00     0.198 A 
ATOM     46  F   UNL A   1      39.347  29.456  26.984  1.00  0.00    -0.203 F 
ATOM     47  F   UNL A   1      37.759  28.549  32.124  1.00  0.00    -0.200 F 
ATOM     48  C   UNL A   1      37.262  29.294  29.940  1.00  0.00     0.200 A 
ATOM     49  F   UNL A   1      36.811  30.020  27.739  1.00  0.00    -0.200 F 
ATOM     50  F   UNL A   1      35.999  29.559  30.301  1.00  0.00    -0.200 F 
ENDBRANCH  26  40
BRANCH  27  51
ATOM     51  C   UNL A   1      49.252  26.818  26.218  1.00  0.00     0.064 A 
ATOM     52  C   UNL A   1      50.203  26.303  27.109  1.00  0.00     0.173 A 
ATOM     53  C   UNL A   1      49.649  27.037  24.890  1.00  0.00     0.173 A 
ATOM     54  F   UNL A   1      49.874  26.095  28.392  1.00  0.00    -0.203 F 
ATOM     55  C   UNL A   1      51.501  26.026  26.690  1.00  0.00     0.198 A 
ATOM     56  C   UNL A   1      50.939  26.733  24.466  1.00  0.00     0.198 A 
ATOM     57  F   UNL A   1      48.773  27.525  23.999  1.00  0.00    -0.203 F 
ATOM     58  F   UNL A   1      52.402  25.567  27.569  1.00  0.00    -0.200 F 
ATOM     59  C   UNL A   1      51.867  26.233  25.368  1.00  0.00     0.200 A 
ATOM     60  F   UNL A   1      51.283  26.920  23.185  1.00  0.00    -0.200 F 
ATOM     61  F   UNL A   1      53.114  25.956  24.964  1.00  0.00    -0.200 F 
ENDBRANCH  27  51
BRANCH  39  62
ATOM     62  C   UNL A   1      46.039  32.491  28.662  1.00  0.00     0.064 A 
ATOM     63  C   UNL A   1      45.948  33.497  27.689  1.00  0.00     0.173 A 
ATOM     64  C   UNL A   1      46.574  32.831  29.913  1.00  0.00     0.173 A 
ATOM     65  F   UNL A   1      45.459  33.215  26.471  1.00  0.00    -0.203 F 
ATOM     66  C   UNL A   1      46.399  34.787  27.951  1.00  0.00     0.198 A 
ATOM     67  C   UNL A   1      47.000  34.129  30.181  1.00  0.00     0.198 A 
ATOM     68  F   UNL A   1      46.680  31.905  30.879  1.00  0.00    -0.203 F 
ATOM     69  F   UNL A   1      46.346  35.721  26.991  1.00  0.00    -0.200 F 
ATOM     70  C   UNL A   1      46.919  35.103  29.197  1.00  0.00     0.200 A 
ATOM     71  F   UNL A   1      47.493  34.435  31.388  1.00  0.00    -0.200 F 
ATOM     72  F   UNL A   1      47.351  36.347  29.447  1.00  0.00    -0.200 F 
ENDBRANCH  39  62
ENDBRANCH  13  14
ENDBRANCH   6   8
ENDBRANCH   3   4
ENDBRANCH   2   3
ENDBRANCH   1   2
BRANCH   1  73
ATOM     73  C   UNL A   1      37.971  22.565  25.858  1.00  0.00     0.116 C 
BRANCH  73  74
ATOM     74  N   UNL A   1      37.771  22.658  24.423  1.00  0.00    -0.351 N 
ATOM     75  C   UNL A   1      36.644  23.072  23.745  1.00  0.00     0.269 C 
ATOM     76  H   UNL A   1      38.538  22.395  23.863  1.00  0.00     0.163 HD
ATOM     77  O   UNL A   1      36.646  23.127  22.519  1.00  0.00    -0.268 OA
BRANCH  75  78
ATOM     78  C   UNL A   1      35.436  23.445  24.527  1.00  0.00     0.129 A 
ATOM     79  C   UNL A   1      34.448  22.493  24.764  1.00  0.00     0.049 A 
ATOM     80  N   UNL A   1      35.343  24.752  24.874  1.00  0.00    -0.251 NA
ATOM     81  C   UNL A   1      33.257  22.929  25.328  1.00  0.00     0.012 A 
ATOM     82  C   UNL A   1      34.208  25.130  25.482  1.00  0.00     0.113 A 
ATOM     83  C   UNL A   1      33.149  24.270  25.716  1.00  0.00     0.035 A 
BRANCH  81  84
ATOM     84  S   UNL A   1      31.827  21.915  25.620  1.00  0.00    -0.116 SA
BRANCH  84  85
ATOM     85  C   UNL A   1      32.396  20.199  25.547  1.00  0.00     0.175 C 
BRANCH  85  86
ATOM     86  C   UNL A   1      32.328  19.425  24.238  1.00  0.00     0.233 C 
ATOM     87  O   UNL A   1      32.213  20.072  23.188  1.00  0.00    -0.274 OA
ATOM     88  N   UNL A   1      32.597  18.074  24.189  1.00  0.00    -0.337 N 
ATOM     89  C   UNL A   1      32.308  17.070  25.215  1.00  0.00     0.148 C 
ATOM     90  C   UNL A   1      33.148  17.489  22.957  1.00  0.00     0.148 C 
ATOM     91  C   UNL A   1      33.530  16.189  25.477  1.00  0.00     0.181 C 
ATOM     92  C   UNL A   1      34.363  16.616  23.302  1.00  0.00     0.181 C 
ATOM     93  O   UNL A   1      34.014  15.602  24.260  1.00  0.00    -0.378 OA
ENDBRANCH  85  86
ENDBRANCH  84  85
ENDBRANCH  81  84
ENDBRANCH  75  78
ENDBRANCH  73  74
ENDBRANCH   1  73
TORSDOF 14
ENDMDL
MODEL 3
REMARK VINA RESULT:     -11.7      0.702      2.067
REMARK SMILES O=C(NCCCCNC(=O)c1cc(SCC(=O)N2CCOCC2)ccn1)c1ccc(-c2c3nc(c(-c4c(F)c(F)c(F)c(F)c4F)c4ccc([nH]4)c(-c4c(F)c(F)c(F)c(F)c4F)c4nc(c(-c5c(F)c(F)c(F)c(F)c5F)c5ccc2[nH]5)C=C4)C=C3)cc1
REMARK SMILES IDX 6 1 5 2 4 3 3 4 1 5 2 6 27 8 28 9 89 10 29 11 88 12 30 13
REMARK SMILES IDX 31 14 32 15 82 16 33 17 87 18 81 19 83 20 34 21 86 22 80 23
REMARK SMILES IDX 79 24 35 26 67 27 47 28 66 29 48 30 51 31 65 32 84 33 49 34
REMARK SMILES IDX 50 35 64 37 85 38 52 39 36 40 37 41 45 42 38 43 39 44 43 45
REMARK SMILES IDX 46 46 40 47 41 48 44 49 42 50 68 51 69 52 77 53 70 54 71 55
REMARK SMILES IDX 75 56 78 57 72 58 73 59 76 60 74 61 53 62 54 63 62 64 55 65
REMARK SMILES IDX 56 66 60 67 63 68 57 69 58 70 61 71 59 72 7 73 8 74 9 75
REMARK SMILES IDX 10 77 11 78 12 79 26 80 13 81 25 82 24 83 14 84 15 85 16 86
REMARK SMILES IDX 17 87 18 88 19 89 23 90 20 91 22 92 21 93
REMARK H PARENT 3 7 83 25 51 36 8 76
REMARK Flexibility Score: inf
ROOT
ATOM      1  C   UNL A   1      31.406  30.955  25.797  1.00  0.00     0.023 C 
ENDROOT
BRANCH   1   2
ATOM      2  C   UNL A   1      31.311  32.038  26.867  1.00  0.00     0.023 C 
BRANCH   2   3
ATOM      3  C   UNL A   1      32.625  32.725  27.216  1.00  0.00     0.116 C 
BRANCH   3   4
ATOM      4  N   UNL A   1      32.454  34.111  27.626  1.00  0.00    -0.352 N 
ATOM      5  O   UNL A   1      32.742  35.943  28.918  1.00  0.00    -0.269 OA
ATOM      6  C   UNL A   1      33.112  34.814  28.607  1.00  0.00     0.251 C 
ATOM      7  H   UNL A   1      31.769  34.616  27.132  1.00  0.00     0.163 HD
BRANCH   6   8
ATOM      8  C   UNL A   1      34.260  34.192  29.302  1.00  0.00     0.039 A 
ATOM      9  C   UNL A   1      35.568  34.537  28.953  1.00  0.00     0.014 A 
ATOM     10  C   UNL A   1      34.027  33.248  30.307  1.00  0.00     0.014 A 
ATOM     11  C   UNL A   1      36.635  33.830  29.494  1.00  0.00     0.010 A 
ATOM     12  C   UNL A   1      35.108  32.599  30.913  1.00  0.00     0.010 A 
ATOM     13  C   UNL A   1      36.420  32.861  30.487  1.00  0.00    -0.014 A 
BRANCH  13  14
ATOM     14  C   UNL A   1      37.589  32.181  31.100  1.00  0.00     0.031 A 
ATOM     15  C   UNL A   1      38.028  32.493  32.503  1.00  0.00     0.074 A 
ATOM     16  C   UNL A   1      38.235  31.241  30.384  1.00  0.00     0.049 A 
ATOM     17  N   UNL A   1      39.013  31.972  33.194  1.00  0.00    -0.248 NA
ATOM     18  C   UNL A   1      37.272  33.526  33.227  1.00  0.00     0.031 C 
ATOM     19  C   UNL A   1      37.904  30.858  29.010  1.00  0.00     0.029 A 
ATOM     20  N   UNL A   1      39.286  30.424  30.713  1.00  0.00    -0.354 N 
ATOM     21  C   UNL A   1      39.006  32.623  34.420  1.00  0.00     0.074 A 
ATOM     22  C   UNL A   1      37.933  33.595  34.374  1.00  0.00     0.031 C 
ATOM     23  C   UNL A   1      38.702  29.851  28.630  1.00  0.00     0.029 A 
ATOM     24  C   UNL A   1      39.639  29.558  29.709  1.00  0.00     0.049 A 
ATOM     25  H   UNL A   1      39.743  30.455  31.584  1.00  0.00     0.167 HD
ATOM     26  C   UNL A   1      39.815  32.419  35.489  1.00  0.00     0.037 A 
ATOM     27  C   UNL A   1      40.618  28.636  29.653  1.00  0.00     0.037 A 
ATOM     28  C   UNL A   1      40.869  31.437  35.536  1.00  0.00     0.049 A 
ATOM     29  C   UNL A   1      41.511  28.447  30.845  1.00  0.00     0.074 A 
ATOM     30  C   UNL A   1      41.718  31.132  36.586  1.00  0.00     0.029 A 
ATOM     31  N   UNL A   1      41.218  30.599  34.487  1.00  0.00    -0.354 N 
ATOM     32  N   UNL A   1      41.476  29.051  32.007  1.00  0.00    -0.248 NA
ATOM     33  C   UNL A   1      42.585  27.454  30.713  1.00  0.00     0.031 C 
ATOM     34  C   UNL A   1      42.609  30.140  36.159  1.00  0.00     0.029 A 
ATOM     35  C   UNL A   1      42.285  29.795  34.857  1.00  0.00     0.049 A 
ATOM     36  H   UNL A   1      40.774  30.580  33.608  1.00  0.00     0.167 HD
ATOM     37  C   UNL A   1      42.510  28.503  32.751  1.00  0.00     0.074 A 
ATOM     38  C   UNL A   1      43.141  27.502  31.915  1.00  0.00     0.031 C 
ATOM     39  C   UNL A   1      42.903  28.805  34.012  1.00  0.00     0.037 A 
BRANCH  26  40
ATOM     40  C   UNL A   1      39.610  33.285  36.697  1.00  0.00     0.064 A 
ATOM     41  C   UNL A   1      38.719  32.926  37.719  1.00  0.00     0.173 A 
ATOM     42  C   UNL A   1      40.357  34.461  36.863  1.00  0.00     0.173 A 
ATOM     43  F   UNL A   1      37.973  31.816  37.604  1.00  0.00    -0.203 F 
ATOM     44  C   UNL A   1      38.570  33.721  38.853  1.00  0.00     0.198 A 
ATOM     45  C   UNL A   1      40.225  35.241  38.010  1.00  0.00     0.198 A 
ATOM     46  F   UNL A   1      41.229  34.847  35.920  1.00  0.00    -0.203 F 
ATOM     47  F   UNL A   1      37.688  33.375  39.801  1.00  0.00    -0.200 F 
ATOM     48  C   UNL A   1      39.329  34.873  39.002  1.00  0.00     0.200 A 
ATOM     49  F   UNL A   1      40.967  36.347  38.156  1.00  0.00    -0.200 F 
ATOM     50  F   UNL A   1      39.192  35.631  40.098  1.00  0.00    -0.200 F 
ENDBRANCH  26  40
BRANCH  27  51
ATOM     51  C   UNL A   1      40.796  27.828  28.421  1.00  0.00     0.064 A 
ATOM     52  C   UNL A   1      41.609  28.279  27.373  1.00  0.00     0.173 A 
ATOM     53  C   UNL A   1      40.174  26.578  28.276  1.00  0.00     0.173 A 
ATOM     54  F   UNL A   1      42.209  29.476  27.458  1.00  0.00    -0.203 F 
ATOM     55  C   UNL A   1      41.785  27.516  26.222  1.00  0.00     0.198 A 
ATOM     56  C   UNL A   1      40.373  25.804  27.138  1.00  0.00     0.198 A 
ATOM     57  F   UNL A   1      39.391  26.101  29.254  1.00  0.00    -0.203 F 
ATOM     58  F   UNL A   1      42.538  27.986  25.218  1.00  0.00    -0.200 F 
ATOM     59  C   UNL A   1      41.173  26.275  26.107  1.00  0.00     0.200 A 
ATOM     60  F   UNL A   1      39.794  24.600  27.039  1.00  0.00    -0.200 F 
ATOM     61  F   UNL A   1      41.352  25.537  25.004  1.00  0.00    -0.200 F 
ENDBRANCH  27  51
BRANCH  39  62
ATOM     62  C   UNL A   1      44.060  28.029  34.568  1.00  0.00     0.064 A 
ATOM     63  C   UNL A   1      45.377  28.499  34.460  1.00  0.00     0.173 A 
ATOM     64  C   UNL A   1      43.846  26.814  35.234  1.00  0.00     0.173 A 
ATOM     65  F   UNL A   1      45.633  29.648  33.815  1.00  0.00    -0.203 F 
ATOM     66  C   UNL A   1      46.441  27.766  34.978  1.00  0.00     0.198 A 
ATOM     67  C   UNL A   1      44.910  26.097  35.774  1.00  0.00     0.198 A 
ATOM     68  F   UNL A   1      42.604  26.323  35.366  1.00  0.00    -0.203 F 
ATOM     69  F   UNL A   1      47.696  28.210  34.822  1.00  0.00    -0.200 F 
ATOM     70  C   UNL A   1      46.207  26.570  35.639  1.00  0.00     0.200 A 
ATOM     71  F   UNL A   1      44.681  24.946  36.420  1.00  0.00    -0.200 F 
ATOM     72  F   UNL A   1      47.233  25.867  36.138  1.00  0.00    -0.200 F 
ENDBRANCH  39  62
ENDBRANCH  13  14
ENDBRANCH   6   8
ENDBRANCH   3   4
ENDBRANCH   2   3
ENDBRANCH   1   2
BRANCH   1  73
ATOM     73  C   UNL A   1      32.620  30.044  25.913  1.00  0.00     0.116 C 
BRANCH  73  74
ATOM     74  N   UNL A   1      33.213  29.703  24.632  1.00  0.00    -0.351 N 
ATOM     75  C   UNL A   1      32.994  28.578  23.865  1.00  0.00     0.269 C 
ATOM     76  H   UNL A   1      33.850  30.358  24.265  1.00  0.00     0.163 HD
ATOM     77  O   UNL A   1      33.552  28.454  22.779  1.00  0.00    -0.268 OA
BRANCH  75  78
ATOM     78  C   UNL A   1      32.075  27.529  24.380  1.00  0.00     0.129 A 
ATOM     79  C   UNL A   1      32.567  26.537  25.224  1.00  0.00     0.049 A 
ATOM     80  N   UNL A   1      30.811  27.565  23.890  1.00  0.00    -0.251 NA
ATOM     81  C   UNL A   1      31.726  25.475  25.525  1.00  0.00     0.012 A 
ATOM     82  C   UNL A   1      29.999  26.561  24.257  1.00  0.00     0.113 A 
ATOM     83  C   UNL A   1      30.410  25.505  25.050  1.00  0.00     0.035 A 
BRANCH  81  84
ATOM     84  S   UNL A   1      32.175  24.051  26.490  1.00  0.00    -0.116 SA
BRANCH  84  85
ATOM     85  C   UNL A   1      33.939  23.772  26.195  1.00  0.00     0.175 C 
BRANCH  85  86
ATOM     86  C   UNL A   1      34.438  22.394  25.787  1.00  0.00     0.233 C 
ATOM     87  O   UNL A   1      35.153  21.776  26.587  1.00  0.00    -0.274 OA
ATOM     88  N   UNL A   1      33.947  21.756  24.667  1.00  0.00    -0.337 N 
ATOM     89  C   UNL A   1      33.516  22.369  23.409  1.00  0.00     0.148 C 
ATOM     90  C   UNL A   1      33.914  20.286  24.626  1.00  0.00     0.148 C 
ATOM     91  C   UNL A   1      32.157  21.822  22.971  1.00  0.00     0.181 C 
ATOM     92  C   UNL A   1      32.525  19.815  24.173  1.00  0.00     0.181 C 
ATOM     93  O   UNL A   1      32.176  20.388  22.902  1.00  0.00    -0.378 OA
ENDBRANCH  85  86
ENDBRANCH  84  85
ENDBRANCH  81  84
ENDBRANCH  75  78
ENDBRANCH  73  74
ENDBRANCH   1  73
TORSDOF 14
ENDMDL
