MODEL 1
REMARK VINA RESULT:     -12.3      0.000      0.000
REMARK SMILES O=C(NCCCCNC(=O)c1cccc([C@@H]2CCC[N@@H+](Cc3cccc(OCCO)c3)C2)c1)c1ccc(-c2c3nc(c(-c4c(F)c(F)c(F)c(F)c4F)c4ccc([nH]4)c(-c4c(F)c(F)c(F)c(F)c4F)c4nc(c(-c5c(F)c(F)c(F)c(F)c5F)c5ccc2[nH]5)C=C4)C=C3)cc1
REMARK SMILES IDX 8 1 9 2 10 3 7 5 6 6 5 7 4 8 3 9 1 10 2 11 34 13 35 14 96 15
REMARK SMILES IDX 36 16 95 17 37 18 38 19 39 20 89 21 40 22 94 23 88 24 90 25
REMARK SMILES IDX 41 26 93 27 87 28 86 29 42 31 74 32 54 33 73 34 55 35 58 36
REMARK SMILES IDX 72 37 91 38 56 39 57 40 71 42 92 43 59 44 43 45 44 46 52 47
REMARK SMILES IDX 45 48 46 49 50 50 53 51 47 52 48 53 51 54 49 55 75 56 76 57
REMARK SMILES IDX 84 58 77 59 78 60 82 61 85 62 79 63 80 64 83 65 81 66 60 67
REMARK SMILES IDX 61 68 69 69 62 70 63 71 67 72 70 73 64 74 65 75 68 76 66 77
REMARK SMILES IDX 11 78 12 79 33 80 13 81 15 82 14 83 16 84 17 85 32 86 18 87
REMARK SMILES IDX 20 88 19 89 21 91 22 92 23 93 31 94 24 95 26 96 25 97 27 98
REMARK SMILES IDX 28 99 29 100 30 101
REMARK H PARENT 8 4 3 12 90 30 58 41 20 90 30 102
REMARK Flexibility Score: inf
ROOT
ATOM      1  N   UNL A   1      35.119  19.964  25.022  1.00  0.00    -0.352 N 
ATOM      2  C   UNL A   1      33.785  19.954  25.366  1.00  0.00     0.251 C 
ATOM      3  O   UNL A   1      33.114  18.938  25.213  1.00  0.00    -0.269 OA
ATOM      4  H   UNL A   1      35.445  19.162  24.554  1.00  0.00     0.163 HD
ENDROOT
BRANCH   1   5
ATOM      5  C   UNL A   1      36.111  21.006  25.256  1.00  0.00     0.116 C 
BRANCH   5   6
ATOM      6  C   UNL A   1      37.417  20.766  24.507  1.00  0.00     0.023 C 
BRANCH   6   7
ATOM      7  C   UNL A   1      38.236  19.576  25.003  1.00  0.00     0.023 C 
BRANCH   7   8
ATOM      8  C   UNL A   1      39.344  19.924  25.990  1.00  0.00     0.116 C 
BRANCH   8   9
ATOM      9  N   UNL A   1      40.436  18.962  25.972  1.00  0.00    -0.352 N 
ATOM     10  O   UNL A   1      42.563  18.229  25.883  1.00  0.00    -0.269 OA
ATOM     11  C   UNL A   1      41.793  19.160  26.066  1.00  0.00     0.251 C 
ATOM     12  H   UNL A   1      40.159  18.022  25.878  1.00  0.00     0.163 HD
BRANCH  11  13
ATOM     13  C   UNL A   1      42.326  20.509  26.360  1.00  0.00     0.039 A 
ATOM     14  C   UNL A   1      42.492  20.946  27.676  1.00  0.00     0.014 A 
ATOM     15  C   UNL A   1      42.674  21.345  25.295  1.00  0.00     0.014 A 
ATOM     16  C   UNL A   1      42.857  22.266  27.926  1.00  0.00     0.010 A 
ATOM     17  C   UNL A   1      43.120  22.644  25.550  1.00  0.00     0.010 A 
ATOM     18  C   UNL A   1      43.179  23.127  26.867  1.00  0.00    -0.014 A 
BRANCH  18  19
ATOM     19  C   UNL A   1      43.610  24.520  27.146  1.00  0.00     0.031 A 
ATOM     20  C   UNL A   1      42.635  25.537  27.667  1.00  0.00     0.074 A 
ATOM     21  C   UNL A   1      44.890  24.868  26.915  1.00  0.00     0.049 A 
ATOM     22  N   UNL A   1      42.818  26.812  27.906  1.00  0.00    -0.248 NA
ATOM     23  C   UNL A   1      41.273  25.063  27.951  1.00  0.00     0.031 C 
ATOM     24  C   UNL A   1      45.929  23.968  26.411  1.00  0.00     0.029 A 
ATOM     25  N   UNL A   1      45.534  26.069  27.068  1.00  0.00    -0.354 N 
ATOM     26  C   UNL A   1      41.592  27.297  28.344  1.00  0.00     0.074 A 
ATOM     27  C   UNL A   1      40.666  26.184  28.314  1.00  0.00     0.031 C 
ATOM     28  C   UNL A   1      47.083  24.643  26.313  1.00  0.00     0.029 A 
ATOM     29  C   UNL A   1      46.852  26.033  26.687  1.00  0.00     0.049 A 
ATOM     30  H   UNL A   1      45.095  26.878  27.418  1.00  0.00     0.167 HD
ATOM     31  C   UNL A   1      41.273  28.554  28.739  1.00  0.00     0.037 A 
ATOM     32  C   UNL A   1      47.767  27.018  26.614  1.00  0.00     0.037 A 
ATOM     33  C   UNL A   1      42.206  29.652  28.775  1.00  0.00     0.049 A 
ATOM     34  C   UNL A   1      47.380  28.411  27.020  1.00  0.00     0.074 A 
ATOM     35  C   UNL A   1      41.989  30.954  29.194  1.00  0.00     0.029 A 
ATOM     36  N   UNL A   1      43.531  29.579  28.370  1.00  0.00    -0.354 N 
ATOM     37  N   UNL A   1      46.227  28.852  27.459  1.00  0.00    -0.248 NA
ATOM     38  C   UNL A   1      48.421  29.442  26.921  1.00  0.00     0.031 C 
ATOM     39  C   UNL A   1      43.167  31.682  28.991  1.00  0.00     0.029 A 
ATOM     40  C   UNL A   1      44.137  30.819  28.503  1.00  0.00     0.049 A 
ATOM     41  H   UNL A   1      43.975  28.767  28.037  1.00  0.00     0.167 HD
ATOM     42  C   UNL A   1      46.408  30.203  27.715  1.00  0.00     0.074 A 
ATOM     43  C   UNL A   1      47.786  30.509  27.388  1.00  0.00     0.031 C 
ATOM     44  C   UNL A   1      45.512  31.108  28.182  1.00  0.00     0.037 A 
BRANCH  31  45
ATOM     45  C   UNL A   1      39.848  28.818  29.136  1.00  0.00     0.064 A 
ATOM     46  C   UNL A   1      39.409  28.678  30.461  1.00  0.00     0.173 A 
ATOM     47  C   UNL A   1      38.912  29.240  28.179  1.00  0.00     0.173 A 
ATOM     48  F   UNL A   1      40.259  28.268  31.415  1.00  0.00    -0.203 F 
ATOM     49  C   UNL A   1      38.081  28.919  30.806  1.00  0.00     0.198 A 
ATOM     50  C   UNL A   1      37.593  29.511  28.533  1.00  0.00     0.198 A 
ATOM     51  F   UNL A   1      39.280  29.399  26.897  1.00  0.00    -0.203 F 
ATOM     52  F   UNL A   1      37.672  28.728  32.068  1.00  0.00    -0.200 F 
ATOM     53  C   UNL A   1      37.175  29.341  29.844  1.00  0.00     0.200 A 
ATOM     54  F   UNL A   1      36.723  29.932  27.603  1.00  0.00    -0.200 F 
ATOM     55  F   UNL A   1      35.898  29.573  30.178  1.00  0.00    -0.200 F 
ENDBRANCH  31  45
BRANCH  32  56
ATOM     56  C   UNL A   1      49.135  26.705  26.129  1.00  0.00     0.064 A 
ATOM     57  C   UNL A   1      50.098  26.159  26.988  1.00  0.00     0.173 A 
ATOM     58  C   UNL A   1      49.493  26.905  24.787  1.00  0.00     0.173 A 
ATOM     59  F   UNL A   1      49.807  25.966  28.283  1.00  0.00    -0.203 F 
ATOM     60  C   UNL A   1      51.371  25.833  26.525  1.00  0.00     0.198 A 
ATOM     61  C   UNL A   1      50.756  26.552  24.319  1.00  0.00     0.198 A 
ATOM     62  F   UNL A   1      48.603  27.416  23.923  1.00  0.00    -0.203 F 
ATOM     63  F   UNL A   1      52.283  25.342  27.373  1.00  0.00    -0.200 F 
ATOM     64  C   UNL A   1      51.696  26.021  25.189  1.00  0.00     0.200 A 
ATOM     65  F   UNL A   1      51.058  26.716  23.024  1.00  0.00    -0.200 F 
ATOM     66  F   UNL A   1      52.914  25.691  24.741  1.00  0.00    -0.200 F 
ENDBRANCH  32  56
BRANCH  44  67
ATOM     67  C   UNL A   1      46.004  32.506  28.417  1.00  0.00     0.064 A 
ATOM     68  C   UNL A   1      46.592  32.889  29.631  1.00  0.00     0.173 A 
ATOM     69  C   UNL A   1      45.929  33.463  27.392  1.00  0.00     0.173 A 
ATOM     70  F   UNL A   1      46.671  32.017  30.647  1.00  0.00    -0.203 F 
ATOM     71  C   UNL A   1      47.071  34.184  29.816  1.00  0.00     0.198 A 
ATOM     72  C   UNL A   1      46.436  34.746  27.570  1.00  0.00     0.198 A 
ATOM     73  F   UNL A   1      45.378  33.145  26.210  1.00  0.00    -0.203 F 
ATOM     74  F   UNL A   1      47.593  34.540  30.998  1.00  0.00    -0.200 F 
ATOM     75  C   UNL A   1      47.001  35.107  28.784  1.00  0.00     0.200 A 
ATOM     76  F   UNL A   1      46.377  35.632  26.567  1.00  0.00    -0.200 F 
ATOM     77  F   UNL A   1      47.473  36.349  28.960  1.00  0.00    -0.200 F 
ENDBRANCH  44  67
ENDBRANCH  18  19
ENDBRANCH  11  13
ENDBRANCH   8   9
ENDBRANCH   7   8
ENDBRANCH   6   7
ENDBRANCH   5   6
ENDBRANCH   1   5
BRANCH   2  78
ATOM     78  C   UNL A   1      33.164  21.172  25.929  1.00  0.00     0.040 A 
ATOM     79  C   UNL A   1      33.334  21.493  27.274  1.00  0.00     0.014 A 
ATOM     80  C   UNL A   1      32.422  22.013  25.099  1.00  0.00     0.018 A 
ATOM     81  C   UNL A   1      32.819  22.696  27.759  1.00  0.00     0.001 A 
ATOM     82  C   UNL A   1      31.942  23.242  25.551  1.00  0.00    -0.039 A 
ATOM     83  C   UNL A   1      32.145  23.572  26.900  1.00  0.00     0.004 A 
BRANCH  82  84
ATOM     84  C   UNL A   1      31.314  24.237  24.590  1.00  0.00     0.074 C 
ATOM     85  C   UNL A   1      31.307  23.795  23.118  1.00  0.00     0.020 C 
ATOM     86  C   UNL A   1      31.931  25.647  24.740  1.00  0.00     0.270 C 
ATOM     87  C   UNL A   1      32.606  24.094  22.370  1.00  0.00     0.062 C 
ATOM     88  N   UNL A   1      33.215  25.859  24.043  1.00  0.00    -0.331 N 
ATOM     89  C   UNL A   1      33.118  25.513  22.617  1.00  0.00     0.262 C 
ATOM     90  H   UNL A   1      33.888  25.217  24.462  1.00  0.00     0.348 HD
BRANCH  88  91
ATOM     91  C   UNL A   1      33.762  27.222  24.260  1.00  0.00     0.299 C 
BRANCH  91  92
ATOM     92  C   UNL A   1      32.853  28.199  24.985  1.00  0.00     0.010 A 
ATOM     93  C   UNL A   1      33.152  28.630  26.283  1.00  0.00     0.010 A 
ATOM     94  C   UNL A   1      31.758  28.772  24.319  1.00  0.00     0.056 A 
ATOM     95  C   UNL A   1      32.414  29.660  26.866  1.00  0.00     0.004 A 
ATOM     96  C   UNL A   1      31.084  29.868  24.851  1.00  0.00     0.119 A 
ATOM     97  C   UNL A   1      31.403  30.293  26.141  1.00  0.00     0.046 A 
BRANCH  96  98
ATOM     98  O   UNL A   1      30.153  30.628  24.197  1.00  0.00    -0.491 OA
BRANCH  98  99
ATOM     99  C   UNL A   1      29.342  30.018  23.184  1.00  0.00     0.257 C 
BRANCH  99 100
ATOM    100  C   UNL A   1      27.952  30.656  23.081  1.00  0.00     0.197 C 
BRANCH 100 101
ATOM    101  O   UNL A   1      26.902  29.699  22.995  1.00  0.00    -0.393 OA
ATOM    102  H   UNL A   1      26.161  30.077  22.497  1.00  0.00     0.210 HD
ENDBRANCH 100 101
ENDBRANCH  99 100
ENDBRANCH  98  99
ENDBRANCH  96  98
ENDBRANCH  91  92
ENDBRANCH  88  91
ENDBRANCH  82  84
ENDBRANCH   2  78
TORSDOF 18
ENDMDL
MODEL 2
REMARK VINA RESULT:     -12.2      1.384      2.035
REMARK SMILES O=C(NCCCCNC(=O)c1cccc([C@@H]2CCC[N@@H+](Cc3cccc(OCCO)c3)C2)c1)c1ccc(-c2c3nc(c(-c4c(F)c(F)c(F)c(F)c4F)c4ccc([nH]4)c(-c4c(F)c(F)c(F)c(F)c4F)c4nc(c(-c5c(F)c(F)c(F)c(F)c5F)c5ccc2[nH]5)C=C4)C=C3)cc1
REMARK SMILES IDX 8 1 9 2 10 3 7 5 6 6 5 7 4 8 3 9 1 10 2 11 34 13 35 14 96 15
REMARK SMILES IDX 36 16 95 17 37 18 38 19 39 20 89 21 40 22 94 23 88 24 90 25
REMARK SMILES IDX 41 26 93 27 87 28 86 29 42 31 74 32 54 33 73 34 55 35 58 36
REMARK SMILES IDX 72 37 91 38 56 39 57 40 71 42 92 43 59 44 43 45 44 46 52 47
REMARK SMILES IDX 45 48 46 49 50 50 53 51 47 52 48 53 51 54 49 55 75 56 76 57
REMARK SMILES IDX 84 58 77 59 78 60 82 61 85 62 79 63 80 64 83 65 81 66 60 67
REMARK SMILES IDX 61 68 69 69 62 70 63 71 67 72 70 73 64 74 65 75 68 76 66 77
REMARK SMILES IDX 11 78 12 79 33 80 13 81 15 82 14 83 16 84 17 85 32 86 18 87
REMARK SMILES IDX 20 88 19 89 21 91 22 92 23 93 31 94 24 95 26 96 25 97 27 98
REMARK SMILES IDX 28 99 29 100 30 101
REMARK H PARENT 8 4 3 12 90 30 58 41 20 90 30 102
REMARK Flexibility Score: inf
ROOT
ATOM      1  N   UNL A   1      36.361  20.915  24.720  1.00  0.00    -0.352 N 
ATOM      2  C   UNL A   1      35.109  20.412  25.001  1.00  0.00     0.251 C 
ATOM      3  O   UNL A   1      34.810  19.272  24.660  1.00  0.00    -0.269 OA
ATOM      4  H   UNL A   1      36.928  20.353  24.145  1.00  0.00     0.163 HD
ENDROOT
BRANCH   1   5
ATOM      5  C   UNL A   1      36.957  22.171  25.159  1.00  0.00     0.116 C 
BRANCH   5   6
ATOM      6  C   UNL A   1      38.349  21.996  25.753  1.00  0.00     0.023 C 
BRANCH   6   7
ATOM      7  C   UNL A   1      39.052  20.693  25.377  1.00  0.00     0.023 C 
BRANCH   7   8
ATOM      8  C   UNL A   1      39.719  19.964  26.537  1.00  0.00     0.116 C 
BRANCH   8   9
ATOM      9  N   UNL A   1      40.833  19.129  26.110  1.00  0.00    -0.352 N 
ATOM     10  O   UNL A   1      42.906  18.636  25.381  1.00  0.00    -0.269 OA
ATOM     11  C   UNL A   1      42.148  19.456  25.879  1.00  0.00     0.251 C 
ATOM     12  H   UNL A   1      40.609  18.181  25.965  1.00  0.00     0.163 HD
BRANCH  11  13
ATOM     13  C   UNL A   1      42.642  20.812  26.205  1.00  0.00     0.039 A 
ATOM     14  C   UNL A   1      42.861  21.200  27.529  1.00  0.00     0.014 A 
ATOM     15  C   UNL A   1      42.900  21.706  25.162  1.00  0.00     0.014 A 
ATOM     16  C   UNL A   1      43.186  22.521  27.819  1.00  0.00     0.010 A 
ATOM     17  C   UNL A   1      43.307  23.011  25.451  1.00  0.00     0.010 A 
ATOM     18  C   UNL A   1      43.417  23.440  26.784  1.00  0.00    -0.014 A 
BRANCH  18  19
ATOM     19  C   UNL A   1      43.807  24.836  27.102  1.00  0.00     0.031 A 
ATOM     20  C   UNL A   1      42.818  25.793  27.705  1.00  0.00     0.074 A 
ATOM     21  C   UNL A   1      45.062  25.244  26.833  1.00  0.00     0.049 A 
ATOM     22  N   UNL A   1      42.963  27.063  27.989  1.00  0.00    -0.248 NA
ATOM     23  C   UNL A   1      41.488  25.254  28.026  1.00  0.00     0.031 C 
ATOM     24  C   UNL A   1      46.110  24.406  26.249  1.00  0.00     0.029 A 
ATOM     25  N   UNL A   1      45.666  26.462  27.009  1.00  0.00    -0.354 N 
ATOM     26  C   UNL A   1      41.739  27.482  28.498  1.00  0.00     0.074 A 
ATOM     27  C   UNL A   1      40.855  26.335  28.460  1.00  0.00     0.031 C 
ATOM     28  C   UNL A   1      47.233  25.129  26.130  1.00  0.00     0.029 A 
ATOM     29  C   UNL A   1      46.966  26.494  26.571  1.00  0.00     0.049 A 
ATOM     30  H   UNL A   1      45.212  27.238  27.409  1.00  0.00     0.167 HD
ATOM     31  C   UNL A   1      41.391  28.708  28.958  1.00  0.00     0.037 A 
ATOM     32  C   UNL A   1      47.840  27.515  26.501  1.00  0.00     0.037 A 
ATOM     33  C   UNL A   1      42.282  29.840  29.000  1.00  0.00     0.049 A 
ATOM     34  C   UNL A   1      47.419  28.875  26.980  1.00  0.00     0.074 A 
ATOM     35  C   UNL A   1      42.034  31.115  29.481  1.00  0.00     0.029 A 
ATOM     36  N   UNL A   1      43.590  29.836  28.538  1.00  0.00    -0.354 N 
ATOM     37  N   UNL A   1      46.270  29.252  27.485  1.00  0.00    -0.248 NA
ATOM     38  C   UNL A   1      48.414  29.950  26.881  1.00  0.00     0.031 C 
ATOM     39  C   UNL A   1      43.175  31.896  29.260  1.00  0.00     0.029 A 
ATOM     40  C   UNL A   1      44.154  31.092  28.696  1.00  0.00     0.049 A 
ATOM     41  H   UNL A   1      44.049  29.056  28.152  1.00  0.00     0.167 HD
ATOM     42  C   UNL A   1      46.410  30.599  27.789  1.00  0.00     0.074 A 
ATOM     43  C   UNL A   1      47.760  30.971  27.418  1.00  0.00     0.031 C 
ATOM     44  C   UNL A   1      45.502  31.447  28.331  1.00  0.00     0.037 A 
BRANCH  31  45
ATOM     45  C   UNL A   1      39.975  28.899  29.424  1.00  0.00     0.064 A 
ATOM     46  C   UNL A   1      39.582  28.611  30.740  1.00  0.00     0.173 A 
ATOM     47  C   UNL A   1      39.001  29.402  28.548  1.00  0.00     0.173 A 
ATOM     48  F   UNL A   1      40.470  28.120  31.618  1.00  0.00    -0.203 F 
ATOM     49  C   UNL A   1      38.262  28.787  31.150  1.00  0.00     0.198 A 
ATOM     50  C   UNL A   1      37.690  29.607  28.969  1.00  0.00     0.198 A 
ATOM     51  F   UNL A   1      39.323  29.703  27.279  1.00  0.00    -0.203 F 
ATOM     52  F   UNL A   1      37.899  28.455  32.396  1.00  0.00    -0.200 F 
ATOM     53  C   UNL A   1      37.319  29.290  30.266  1.00  0.00     0.200 A 
ATOM     54  F   UNL A   1      36.783  30.107  28.116  1.00  0.00    -0.200 F 
ATOM     55  F   UNL A   1      36.050  29.460  30.663  1.00  0.00    -0.200 F 
ENDBRANCH  31  45
BRANCH  32  56
ATOM     56  C   UNL A   1      49.196  27.276  25.946  1.00  0.00     0.064 A 
ATOM     57  C   UNL A   1      50.262  26.913  26.779  1.00  0.00     0.173 A 
ATOM     58  C   UNL A   1      49.442  27.365  24.568  1.00  0.00     0.173 A 
ATOM     59  F   UNL A   1      50.078  26.832  28.105  1.00  0.00    -0.203 F 
ATOM     60  C   UNL A   1      51.527  26.654  26.255  1.00  0.00     0.198 A 
ATOM     61  C   UNL A   1      50.700  27.078  24.042  1.00  0.00     0.198 A 
ATOM     62  F   UNL A   1      48.452  27.700  23.728  1.00  0.00    -0.203 F 
ATOM     63  F   UNL A   1      52.537  26.339  27.076  1.00  0.00    -0.200 F 
ATOM     64  C   UNL A   1      51.742  26.728  24.887  1.00  0.00     0.200 A 
ATOM     65  F   UNL A   1      50.898  27.130  22.718  1.00  0.00    -0.200 F 
ATOM     66  F   UNL A   1      52.954  26.463  24.382  1.00  0.00    -0.200 F 
ENDBRANCH  32  56
BRANCH  44  67
ATOM     67  C   UNL A   1      45.950  32.854  28.602  1.00  0.00     0.064 A 
ATOM     68  C   UNL A   1      45.790  33.876  27.655  1.00  0.00     0.173 A 
ATOM     69  C   UNL A   1      46.502  33.191  29.847  1.00  0.00     0.173 A 
ATOM     70  F   UNL A   1      45.284  33.601  26.444  1.00  0.00    -0.203 F 
ATOM     71  C   UNL A   1      46.184  35.182  27.940  1.00  0.00     0.198 A 
ATOM     72  C   UNL A   1      46.866  34.502  30.139  1.00  0.00     0.198 A 
ATOM     73  F   UNL A   1      46.672  32.250  30.789  1.00  0.00    -0.203 F 
ATOM     74  F   UNL A   1      46.061  36.135  27.006  1.00  0.00    -0.200 F 
ATOM     75  C   UNL A   1      46.713  35.495  29.183  1.00  0.00     0.200 A 
ATOM     76  F   UNL A   1      47.365  34.804  31.346  1.00  0.00    -0.200 F 
ATOM     77  F   UNL A   1      47.079  36.754  29.460  1.00  0.00    -0.200 F 
ENDBRANCH  44  67
ENDBRANCH  18  19
ENDBRANCH  11  13
ENDBRANCH   8   9
ENDBRANCH   7   8
ENDBRANCH   6   7
ENDBRANCH   5   6
ENDBRANCH   1   5
BRANCH   2  78
ATOM     78  C   UNL A   1      34.128  21.250  25.724  1.00  0.00     0.040 A 
ATOM     79  C   UNL A   1      34.347  21.603  27.053  1.00  0.00     0.014 A 
ATOM     80  C   UNL A   1      32.989  21.704  25.059  1.00  0.00     0.018 A 
ATOM     81  C   UNL A   1      33.456  22.473  27.684  1.00  0.00     0.001 A 
ATOM     82  C   UNL A   1      32.113  22.612  25.654  1.00  0.00    -0.039 A 
ATOM     83  C   UNL A   1      32.358  22.987  26.984  1.00  0.00     0.004 A 
BRANCH  82  84
ATOM     84  C   UNL A   1      30.992  23.254  24.855  1.00  0.00     0.074 C 
ATOM     85  C   UNL A   1      31.255  23.360  23.345  1.00  0.00     0.020 C 
ATOM     86  C   UNL A   1      30.583  24.625  25.442  1.00  0.00     0.270 C 
ATOM     87  C   UNL A   1      32.070  24.587  22.937  1.00  0.00     0.062 C 
ATOM     88  N   UNL A   1      31.441  25.764  25.060  1.00  0.00    -0.331 N 
ATOM     89  C   UNL A   1      31.574  25.873  23.600  1.00  0.00     0.262 C 
ATOM     90  H   UNL A   1      32.371  25.571  25.432  1.00  0.00     0.348 HD
BRANCH  88  91
ATOM     91  C   UNL A   1      31.007  27.038  25.686  1.00  0.00     0.299 C 
BRANCH  91  92
ATOM     92  C   UNL A   1      32.111  27.909  26.260  1.00  0.00     0.010 A 
ATOM     93  C   UNL A   1      33.456  27.537  26.139  1.00  0.00     0.010 A 
ATOM     94  C   UNL A   1      31.804  29.159  26.822  1.00  0.00     0.056 A 
ATOM     95  C   UNL A   1      34.464  28.427  26.506  1.00  0.00     0.004 A 
ATOM     96  C   UNL A   1      32.802  30.091  27.093  1.00  0.00     0.119 A 
ATOM     97  C   UNL A   1      34.136  29.708  26.955  1.00  0.00     0.046 A 
BRANCH  96  98
ATOM     98  O   UNL A   1      32.601  31.400  27.436  1.00  0.00    -0.491 OA
BRANCH  98  99
ATOM     99  C   UNL A   1      33.703  32.165  27.944  1.00  0.00     0.257 C 
BRANCH  99 100
ATOM    100  C   UNL A   1      33.400  33.666  28.002  1.00  0.00     0.197 C 
BRANCH 100 101
ATOM    101  O   UNL A   1      32.154  34.009  27.407  1.00  0.00    -0.393 OA
ATOM    102  H   UNL A   1      32.311  34.543  26.613  1.00  0.00     0.210 HD
ENDBRANCH 100 101
ENDBRANCH  99 100
ENDBRANCH  98  99
ENDBRANCH  96  98
ENDBRANCH  91  92
ENDBRANCH  88  91
ENDBRANCH  82  84
ENDBRANCH   2  78
TORSDOF 18
ENDMDL
MODEL 3
REMARK VINA RESULT:     -12.2      0.633      6.986
REMARK SMILES O=C(NCCCCNC(=O)c1cccc([C@@H]2CCC[N@@H+](Cc3cccc(OCCO)c3)C2)c1)c1ccc(-c2c3nc(c(-c4c(F)c(F)c(F)c(F)c4F)c4ccc([nH]4)c(-c4c(F)c(F)c(F)c(F)c4F)c4nc(c(-c5c(F)c(F)c(F)c(F)c5F)c5ccc2[nH]5)C=C4)C=C3)cc1
REMARK SMILES IDX 8 1 9 2 10 3 7 5 6 6 5 7 4 8 3 9 1 10 2 11 34 13 35 14 96 15
REMARK SMILES IDX 36 16 95 17 37 18 38 19 39 20 89 21 40 22 94 23 88 24 90 25
REMARK SMILES IDX 41 26 93 27 87 28 86 29 42 31 74 32 54 33 73 34 55 35 58 36
REMARK SMILES IDX 72 37 91 38 56 39 57 40 71 42 92 43 59 44 43 45 44 46 52 47
REMARK SMILES IDX 45 48 46 49 50 50 53 51 47 52 48 53 51 54 49 55 75 56 76 57
REMARK SMILES IDX 84 58 77 59 78 60 82 61 85 62 79 63 80 64 83 65 81 66 60 67
REMARK SMILES IDX 61 68 69 69 62 70 63 71 67 72 70 73 64 74 65 75 68 76 66 77
REMARK SMILES IDX 11 78 12 79 33 80 13 81 15 82 14 83 16 84 17 85 32 86 18 87
REMARK SMILES IDX 20 88 19 89 21 91 22 92 23 93 31 94 24 95 26 96 25 97 27 98
REMARK SMILES IDX 28 99 29 100 30 101
REMARK H PARENT 8 4 3 12 90 30 58 41 20 90 30 102
REMARK Flexibility Score: inf
ROOT
ATOM      1  N   UNL A   1      34.917  19.648  24.929  1.00  0.00    -0.352 N 
ATOM      2  C   UNL A   1      33.612  19.770  25.353  1.00  0.00     0.251 C 
ATOM      3  O   UNL A   1      32.823  18.842  25.201  1.00  0.00    -0.269 OA
ATOM      4  H   UNL A   1      35.124  18.837  24.411  1.00  0.00     0.163 HD
ENDROOT
BRANCH   1   5
ATOM      5  C   UNL A   1      36.033  20.561  25.144  1.00  0.00     0.116 C 
BRANCH   5   6
ATOM      6  C   UNL A   1      37.309  20.122  24.435  1.00  0.00     0.023 C 
BRANCH   6   7
ATOM      7  C   UNL A   1      38.192  19.163  25.231  1.00  0.00     0.023 C 
BRANCH   7   8
ATOM      8  C   UNL A   1      39.432  19.796  25.851  1.00  0.00     0.116 C 
BRANCH   8   9
ATOM      9  N   UNL A   1      40.566  18.884  25.897  1.00  0.00    -0.352 N 
ATOM     10  O   UNL A   1      42.725  18.246  25.919  1.00  0.00    -0.269 OA
ATOM     11  C   UNL A   1      41.906  19.143  26.055  1.00  0.00     0.251 C 
ATOM     12  H   UNL A   1      40.336  17.931  25.800  1.00  0.00     0.163 HD
BRANCH  11  13
ATOM     13  C   UNL A   1      42.364  20.518  26.358  1.00  0.00     0.039 A 
ATOM     14  C   UNL A   1      42.333  21.014  27.663  1.00  0.00     0.014 A 
ATOM     15  C   UNL A   1      42.842  21.317  25.316  1.00  0.00     0.014 A 
ATOM     16  C   UNL A   1      42.631  22.352  27.902  1.00  0.00     0.010 A 
ATOM     17  C   UNL A   1      43.220  22.637  25.572  1.00  0.00     0.010 A 
ATOM     18  C   UNL A   1      43.082  23.177  26.861  1.00  0.00    -0.014 A 
BRANCH  18  19
ATOM     19  C   UNL A   1      43.439  24.591  27.134  1.00  0.00     0.031 A 
ATOM     20  C   UNL A   1      44.838  25.089  26.907  1.00  0.00     0.074 A 
ATOM     21  C   UNL A   1      42.493  25.428  27.600  1.00  0.00     0.049 A 
ATOM     22  N   UNL A   1      45.346  26.271  27.150  1.00  0.00    -0.248 NA
ATOM     23  C   UNL A   1      45.797  24.130  26.339  1.00  0.00     0.031 C 
ATOM     24  C   UNL A   1      41.100  25.061  27.858  1.00  0.00     0.029 A 
ATOM     25  N   UNL A   1      42.559  26.754  27.944  1.00  0.00    -0.354 N 
ATOM     26  C   UNL A   1      46.686  26.193  26.789  1.00  0.00     0.074 A 
ATOM     27  C   UNL A   1      46.917  24.838  26.333  1.00  0.00     0.031 C 
ATOM     28  C   UNL A   1      40.438  26.139  28.303  1.00  0.00     0.029 A 
ATOM     29  C   UNL A   1      41.372  27.253  28.420  1.00  0.00     0.049 A 
ATOM     30  H   UNL A   1      43.377  27.295  27.858  1.00  0.00     0.167 HD
ATOM     31  C   UNL A   1      47.629  27.165  26.830  1.00  0.00     0.037 A 
ATOM     32  C   UNL A   1      41.074  28.465  28.925  1.00  0.00     0.037 A 
ATOM     33  C   UNL A   1      47.385  28.513  27.275  1.00  0.00     0.049 A 
ATOM     34  C   UNL A   1      42.147  29.514  28.997  1.00  0.00     0.074 A 
ATOM     35  C   UNL A   1      48.266  29.580  27.321  1.00  0.00     0.029 A 
ATOM     36  N   UNL A   1      46.171  28.978  27.761  1.00  0.00    -0.354 N 
ATOM     37  N   UNL A   1      43.401  29.437  28.626  1.00  0.00    -0.248 NA
ATOM     38  C   UNL A   1      41.763  30.816  29.556  1.00  0.00     0.031 C 
ATOM     39  C   UNL A   1      47.601  30.675  27.884  1.00  0.00     0.029 A 
ATOM     40  C   UNL A   1      46.287  30.308  28.133  1.00  0.00     0.049 A 
ATOM     41  H   UNL A   1      45.349  28.443  27.831  1.00  0.00     0.167 HD
ATOM     42  C   UNL A   1      43.951  30.685  28.881  1.00  0.00     0.074 A 
ATOM     43  C   UNL A   1      42.890  31.504  29.431  1.00  0.00     0.031 C 
ATOM     44  C   UNL A   1      45.220  31.114  28.672  1.00  0.00     0.037 A 
BRANCH  31  45
ATOM     45  C   UNL A   1      49.025  26.797  26.409  1.00  0.00     0.064 A 
ATOM     46  C   UNL A   1      49.953  26.256  27.310  1.00  0.00     0.173 A 
ATOM     47  C   UNL A   1      49.431  26.965  25.076  1.00  0.00     0.173 A 
ATOM     48  F   UNL A   1      49.621  26.081  28.599  1.00  0.00    -0.203 F 
ATOM     49  C   UNL A   1      51.244  25.930  26.902  1.00  0.00     0.198 A 
ATOM     50  C   UNL A   1      50.712  26.609  24.663  1.00  0.00     0.198 A 
ATOM     51  F   UNL A   1      48.580  27.471  24.168  1.00  0.00    -0.203 F 
ATOM     52  F   UNL A   1      52.131  25.464  27.793  1.00  0.00    -0.200 F 
ATOM     53  C   UNL A   1      51.621  26.101  25.578  1.00  0.00     0.200 A 
ATOM     54  F   UNL A   1      51.068  26.762  23.379  1.00  0.00    -0.200 F 
ATOM     55  F   UNL A   1      52.863  25.785  25.186  1.00  0.00    -0.200 F 
ENDBRANCH  31  45
BRANCH  32  56
ATOM     56  C   UNL A   1      39.695  28.734  29.405  1.00  0.00     0.064 A 
ATOM     57  C   UNL A   1      39.324  28.453  30.726  1.00  0.00     0.173 A 
ATOM     58  C   UNL A   1      38.735  29.315  28.564  1.00  0.00     0.173 A 
ATOM     59  F   UNL A   1      40.204  27.881  31.561  1.00  0.00    -0.203 F 
ATOM     60  C   UNL A   1      38.040  28.737  31.187  1.00  0.00     0.198 A 
ATOM     61  C   UNL A   1      37.461  29.626  29.034  1.00  0.00     0.198 A 
ATOM     62  F   UNL A   1      39.044  29.611  27.293  1.00  0.00    -0.203 F 
ATOM     63  F   UNL A   1      37.701  28.431  32.446  1.00  0.00    -0.200 F 
ATOM     64  C   UNL A   1      37.113  29.332  30.344  1.00  0.00     0.200 A 
ATOM     65  F   UNL A   1      36.576  30.218  28.222  1.00  0.00    -0.200 F 
ATOM     66  F   UNL A   1      35.885  29.620  30.793  1.00  0.00    -0.200 F 
ENDBRANCH  32  56
BRANCH  44  67
ATOM     67  C   UNL A   1      45.524  32.549  28.994  1.00  0.00     0.064 A 
ATOM     68  C   UNL A   1      46.061  32.930  30.233  1.00  0.00     0.173 A 
ATOM     69  C   UNL A   1      45.321  33.547  28.029  1.00  0.00     0.173 A 
ATOM     70  F   UNL A   1      46.256  32.016  31.194  1.00  0.00    -0.203 F 
ATOM     71  C   UNL A   1      46.366  34.263  30.499  1.00  0.00     0.198 A 
ATOM     72  C   UNL A   1      45.656  34.873  28.288  1.00  0.00     0.198 A 
ATOM     73  F   UNL A   1      44.815  33.233  26.827  1.00  0.00    -0.203 F 
ATOM     74  F   UNL A   1      46.838  34.612  31.703  1.00  0.00    -0.200 F 
ATOM     75  C   UNL A   1      46.171  35.231  29.525  1.00  0.00     0.200 A 
ATOM     76  F   UNL A   1      45.479  35.804  27.341  1.00  0.00    -0.200 F 
ATOM     77  F   UNL A   1      46.477  36.510  29.779  1.00  0.00    -0.200 F 
ENDBRANCH  44  67
ENDBRANCH  18  19
ENDBRANCH  11  13
ENDBRANCH   8   9
ENDBRANCH   7   8
ENDBRANCH   6   7
ENDBRANCH   5   6
ENDBRANCH   1   5
BRANCH   2  78
ATOM     78  C   UNL A   1      33.166  21.022  26.000  1.00  0.00     0.040 A 
ATOM     79  C   UNL A   1      33.576  21.332  27.295  1.00  0.00     0.014 A 
ATOM     80  C   UNL A   1      32.346  21.906  25.299  1.00  0.00     0.018 A 
ATOM     81  C   UNL A   1      33.221  22.562  27.848  1.00  0.00     0.001 A 
ATOM     82  C   UNL A   1      32.021  23.161  25.813  1.00  0.00    -0.039 A 
ATOM     83  C   UNL A   1      32.465  23.477  27.106  1.00  0.00     0.004 A 
BRANCH  82  84
ATOM     84  C   UNL A   1      31.300  24.192  24.961  1.00  0.00     0.074 C 
ATOM     85  C   UNL A   1      31.016  23.750  23.516  1.00  0.00     0.020 C 
ATOM     86  C   UNL A   1      32.018  25.561  24.989  1.00  0.00     0.270 C 
ATOM     87  C   UNL A   1      32.185  23.968  22.556  1.00  0.00     0.062 C 
ATOM     88  N   UNL A   1      33.175  25.693  24.082  1.00  0.00    -0.331 N 
ATOM     89  C   UNL A   1      32.817  25.353  22.697  1.00  0.00     0.262 C 
ATOM     90  H   UNL A   1      33.870  25.011  24.388  1.00  0.00     0.348 HD
BRANCH  88  91
ATOM     91  C   UNL A   1      33.833  27.020  24.187  1.00  0.00     0.299 C 
BRANCH  91  92
ATOM     92  C   UNL A   1      33.065  28.087  24.948  1.00  0.00     0.010 A 
ATOM     93  C   UNL A   1      33.614  28.692  26.086  1.00  0.00     0.010 A 
ATOM     94  C   UNL A   1      31.841  28.563  24.454  1.00  0.00     0.056 A 
ATOM     95  C   UNL A   1      32.983  29.791  26.667  1.00  0.00     0.004 A 
ATOM     96  C   UNL A   1      31.260  29.722  24.964  1.00  0.00     0.119 A 
ATOM     97  C   UNL A   1      31.826  30.319  26.090  1.00  0.00     0.046 A 
BRANCH  96  98
ATOM     98  O   UNL A   1      30.193  30.386  24.422  1.00  0.00    -0.491 OA
BRANCH  98  99
ATOM     99  C   UNL A   1      29.476  29.783  23.336  1.00  0.00     0.257 C 
BRANCH  99 100
ATOM    100  C   UNL A   1      29.562  30.607  22.046  1.00  0.00     0.197 C 
BRANCH 100 101
ATOM    101  O   UNL A   1      30.562  30.140  21.148  1.00  0.00    -0.393 OA
ATOM    102  H   UNL A   1      30.710  30.803  20.456  1.00  0.00     0.210 HD
ENDBRANCH 100 101
ENDBRANCH  99 100
ENDBRANCH  98  99
ENDBRANCH  96  98
ENDBRANCH  91  92
ENDBRANCH  88  91
ENDBRANCH  82  84
ENDBRANCH   2  78
TORSDOF 18
ENDMDL
