MODEL 1
REMARK VINA RESULT:     -11.5      0.000      0.000
REMARK SMILES O=C(NCCCCNC(=O)[C@@]1([NH2+]C2CC2)CCC[C@H]1CCn1ccnc1)c1ccc(-c2c3nc(c(-c4c(F)c(F)c(F)c(F)c4F)c4ccc([nH]4)c(-c4c(F)c(F)c(F)c(F)c4F)c4nc(c(-c5c(F)c(F)c(F)c(F)c5F)c5ccc2[nH]5)C=C4)C=C3)cc1
REMARK SMILES IDX 6 1 5 2 4 3 3 4 1 5 2 6 27 8 28 9 89 10 29 11 88 12 30 13
REMARK SMILES IDX 31 14 32 15 82 16 33 17 87 18 81 19 83 20 34 21 86 22 80 23
REMARK SMILES IDX 79 24 35 26 67 27 47 28 66 29 48 30 51 31 65 32 84 33 49 34
REMARK SMILES IDX 50 35 64 37 85 38 52 39 36 40 37 41 45 42 38 43 39 44 43 45
REMARK SMILES IDX 46 46 40 47 41 48 44 49 42 50 68 51 69 52 77 53 70 54 71 55
REMARK SMILES IDX 75 56 78 57 72 58 73 59 76 60 74 61 53 62 54 63 62 64 55 65
REMARK SMILES IDX 56 66 60 67 63 68 57 69 58 70 61 71 59 72 7 73 8 74 9 75
REMARK SMILES IDX 10 77 11 78 16 79 19 80 17 81 18 82 12 83 13 86 14 87 15 88
REMARK SMILES IDX 20 89 21 90 22 91 23 92 26 93 24 94 25 95
REMARK H PARENT 3 7 83 25 51 36 8 76 12 84 12 85
REMARK Flexibility Score: inf
ROOT
ATOM      1  C   UNL A   1      32.288  29.414  27.136  1.00  0.00     0.023 C 
ENDROOT
BRANCH   1   2
ATOM      2  C   UNL A   1      33.800  29.234  27.222  1.00  0.00     0.023 C 
BRANCH   2   3
ATOM      3  C   UNL A   1      34.614  30.521  27.359  1.00  0.00     0.116 C 
BRANCH   3   4
ATOM      4  N   UNL A   1      34.389  31.291  28.567  1.00  0.00    -0.352 N 
ATOM      5  O   UNL A   1      34.702  32.461  30.426  1.00  0.00    -0.269 OA
ATOM      6  C   UNL A   1      35.175  31.650  29.627  1.00  0.00     0.251 C 
ATOM      7  H   UNL A   1      33.467  31.629  28.640  1.00  0.00     0.163 HD
BRANCH   6   8
ATOM      8  C   UNL A   1      36.503  31.055  29.916  1.00  0.00     0.039 A 
ATOM      9  C   UNL A   1      37.708  31.757  29.932  1.00  0.00     0.014 A 
ATOM     10  C   UNL A   1      36.525  29.669  30.142  1.00  0.00     0.014 A 
ATOM     11  C   UNL A   1      38.920  31.079  29.984  1.00  0.00     0.010 A 
ATOM     12  C   UNL A   1      37.732  28.993  30.263  1.00  0.00     0.010 A 
ATOM     13  C   UNL A   1      38.929  29.693  30.111  1.00  0.00    -0.014 A 
BRANCH  13  14
ATOM     14  C   UNL A   1      40.222  29.012  30.160  1.00  0.00     0.031 A 
ATOM     15  C   UNL A   1      40.830  28.822  31.516  1.00  0.00     0.074 A 
ATOM     16  C   UNL A   1      40.737  28.416  29.066  1.00  0.00     0.049 A 
ATOM     17  N   UNL A   1      42.058  28.989  31.901  1.00  0.00    -0.248 NA
ATOM     18  C   UNL A   1      39.921  28.409  32.601  1.00  0.00     0.031 C 
ATOM     19  C   UNL A   1      40.112  28.272  27.746  1.00  0.00     0.029 A 
ATOM     20  N   UNL A   1      41.877  27.681  28.949  1.00  0.00    -0.354 N 
ATOM     21  C   UNL A   1      42.109  28.569  33.231  1.00  0.00     0.074 A 
ATOM     22  C   UNL A   1      40.753  28.302  33.635  1.00  0.00     0.031 C 
ATOM     23  C   UNL A   1      40.751  27.302  27.060  1.00  0.00     0.029 A 
ATOM     24  C   UNL A   1      41.890  26.852  27.841  1.00  0.00     0.049 A 
ATOM     25  H   UNL A   1      42.621  27.735  29.592  1.00  0.00     0.167 HD
ATOM     26  C   UNL A   1      43.272  28.302  33.887  1.00  0.00     0.037 A 
ATOM     27  C   UNL A   1      42.707  25.791  27.637  1.00  0.00     0.037 A 
ATOM     28  C   UNL A   1      44.404  28.952  33.297  1.00  0.00     0.049 A 
ATOM     29  C   UNL A   1      43.867  25.923  28.549  1.00  0.00     0.074 A 
ATOM     30  C   UNL A   1      44.773  30.269  33.099  1.00  0.00     0.029 A 
ATOM     31  N   UNL A   1      45.279  28.216  32.541  1.00  0.00    -0.354 N 
ATOM     32  N   UNL A   1      44.786  26.843  28.445  1.00  0.00    -0.248 NA
ATOM     33  C   UNL A   1      43.793  25.258  29.841  1.00  0.00     0.031 C 
ATOM     34  C   UNL A   1      45.491  30.270  31.867  1.00  0.00     0.029 A 
ATOM     35  C   UNL A   1      45.518  28.953  31.410  1.00  0.00     0.049 A 
ATOM     36  H   UNL A   1      45.658  27.336  32.765  1.00  0.00     0.167 HD
ATOM     37  C   UNL A   1      45.130  27.150  29.753  1.00  0.00     0.074 A 
ATOM     38  C   UNL A   1      44.562  26.078  30.561  1.00  0.00     0.031 C 
ATOM     39  C   UNL A   1      45.607  28.385  30.089  1.00  0.00     0.037 A 
BRANCH  26  40
ATOM     40  C   UNL A   1      43.411  27.212  34.917  1.00  0.00     0.064 A 
ATOM     41  C   UNL A   1      43.692  27.533  36.258  1.00  0.00     0.173 A 
ATOM     42  C   UNL A   1      43.560  25.852  34.566  1.00  0.00     0.173 A 
ATOM     43  F   UNL A   1      43.619  28.803  36.686  1.00  0.00    -0.203 F 
ATOM     44  C   UNL A   1      44.134  26.568  37.169  1.00  0.00     0.198 A 
ATOM     45  C   UNL A   1      43.951  24.885  35.489  1.00  0.00     0.198 A 
ATOM     46  F   UNL A   1      43.435  25.436  33.300  1.00  0.00    -0.203 F 
ATOM     47  F   UNL A   1      44.492  26.935  38.407  1.00  0.00    -0.200 F 
ATOM     48  C   UNL A   1      44.265  25.246  36.783  1.00  0.00     0.200 A 
ATOM     49  F   UNL A   1      44.094  23.613  35.091  1.00  0.00    -0.200 F 
ATOM     50  F   UNL A   1      44.738  24.330  37.638  1.00  0.00    -0.200 F 
ENDBRANCH  26  40
BRANCH  27  51
ATOM     51  C   UNL A   1      42.345  24.522  26.966  1.00  0.00     0.064 A 
ATOM     52  C   UNL A   1      43.168  23.953  25.985  1.00  0.00     0.173 A 
ATOM     53  C   UNL A   1      41.290  23.717  27.446  1.00  0.00     0.173 A 
ATOM     54  F   UNL A   1      44.230  24.628  25.523  1.00  0.00    -0.203 F 
ATOM     55  C   UNL A   1      42.943  22.658  25.505  1.00  0.00     0.198 A 
ATOM     56  C   UNL A   1      41.058  22.433  26.956  1.00  0.00     0.198 A 
ATOM     57  F   UNL A   1      40.516  24.127  28.461  1.00  0.00    -0.203 F 
ATOM     58  F   UNL A   1      43.779  22.126  24.602  1.00  0.00    -0.200 F 
ATOM     59  C   UNL A   1      41.890  21.899  25.992  1.00  0.00     0.200 A 
ATOM     60  F   UNL A   1      40.059  21.698  27.465  1.00  0.00    -0.200 F 
ATOM     61  F   UNL A   1      41.701  20.644  25.564  1.00  0.00    -0.200 F 
ENDBRANCH  27  51
BRANCH  39  62
ATOM     62  C   UNL A   1      45.956  29.324  28.972  1.00  0.00     0.064 A 
ATOM     63  C   UNL A   1      45.013  30.171  28.363  1.00  0.00     0.173 A 
ATOM     64  C   UNL A   1      47.299  29.492  28.615  1.00  0.00     0.173 A 
ATOM     65  F   UNL A   1      43.730  30.151  28.740  1.00  0.00    -0.203 F 
ATOM     66  C   UNL A   1      45.391  31.103  27.400  1.00  0.00     0.198 A 
ATOM     67  C   UNL A   1      47.680  30.451  27.680  1.00  0.00     0.198 A 
ATOM     68  F   UNL A   1      48.251  28.762  29.216  1.00  0.00    -0.203 F 
ATOM     69  F   UNL A   1      44.468  31.890  26.827  1.00  0.00    -0.200 F 
ATOM     70  C   UNL A   1      46.725  31.247  27.064  1.00  0.00     0.200 A 
ATOM     71  F   UNL A   1      48.978  30.627  27.396  1.00  0.00    -0.200 F 
ATOM     72  F   UNL A   1      47.098  32.175  26.171  1.00  0.00    -0.200 F 
ENDBRANCH  39  62
ENDBRANCH  13  14
ENDBRANCH   6   8
ENDBRANCH   3   4
ENDBRANCH   2   3
ENDBRANCH   1   2
BRANCH   1  73
ATOM     73  C   UNL A   1      31.751  29.883  25.788  1.00  0.00     0.116 C 
BRANCH  73  74
ATOM     74  N   UNL A   1      32.616  29.642  24.642  1.00  0.00    -0.351 N 
ATOM     75  C   UNL A   1      32.441  28.747  23.614  1.00  0.00     0.281 C 
ATOM     76  H   UNL A   1      33.432  30.192  24.597  1.00  0.00     0.163 HD
ATOM     77  O   UNL A   1      33.142  28.918  22.609  1.00  0.00    -0.268 OA
BRANCH  75  78
ATOM     78  C   UNL A   1      31.521  27.505  23.746  1.00  0.00     0.178 C 
ATOM     79  C   UNL A   1      31.666  26.467  22.612  1.00  0.00     0.079 C 
ATOM     80  C   UNL A   1      31.972  26.612  24.970  1.00  0.00     0.062 C 
ATOM     81  C   UNL A   1      31.066  25.179  23.185  1.00  0.00     0.008 C 
ATOM     82  C   UNL A   1      31.202  25.291  24.706  1.00  0.00     0.011 C 
BRANCH  78  83
ATOM     83  N   UNL A   1      30.082  27.881  23.862  1.00  0.00    -0.331 N 
ATOM     84  H   UNL A   1      29.976  28.327  24.774  1.00  0.00     0.347 HD
ATOM     85  H   UNL A   1      29.613  26.993  23.689  1.00  0.00     0.347 HD
BRANCH  83  86
ATOM     86  C   UNL A   1      29.432  28.770  22.891  1.00  0.00     0.183 C 
ATOM     87  C   UNL A   1      27.968  29.100  22.860  1.00  0.00     0.071 C 
ATOM     88  C   UNL A   1      28.965  30.145  23.265  1.00  0.00     0.071 C 
ENDBRANCH  83  86
ENDBRANCH  78  83
BRANCH  80  89
ATOM     89  C   UNL A   1      33.488  26.221  25.079  1.00  0.00     0.032 C 
BRANCH  89  90
ATOM     90  C   UNL A   1      33.885  24.845  25.620  1.00  0.00     0.123 C 
BRANCH  90  91
ATOM     91  N   UNL A   1      34.720  24.068  24.730  1.00  0.00    -0.337 N 
ATOM     92  C   UNL A   1      35.638  23.117  25.074  1.00  0.00     0.107 A 
ATOM     93  C   UNL A   1      34.641  24.081  23.371  1.00  0.00     0.199 A 
ATOM     94  C   UNL A   1      36.098  22.621  23.874  1.00  0.00     0.130 A 
ATOM     95  N   UNL A   1      35.474  23.234  22.820  1.00  0.00    -0.245 NA
ENDBRANCH  90  91
ENDBRANCH  89  90
ENDBRANCH  80  89
ENDBRANCH  75  78
ENDBRANCH  73  74
ENDBRANCH   1  73
TORSDOF 16
ENDMDL
MODEL 2
REMARK VINA RESULT:     -11.3      3.401      8.417
REMARK SMILES O=C(NCCCCNC(=O)[C@@]1([NH2+]C2CC2)CCC[C@H]1CCn1ccnc1)c1ccc(-c2c3nc(c(-c4c(F)c(F)c(F)c(F)c4F)c4ccc([nH]4)c(-c4c(F)c(F)c(F)c(F)c4F)c4nc(c(-c5c(F)c(F)c(F)c(F)c5F)c5ccc2[nH]5)C=C4)C=C3)cc1
REMARK SMILES IDX 6 1 5 2 4 3 3 4 1 5 2 6 27 8 28 9 89 10 29 11 88 12 30 13
REMARK SMILES IDX 31 14 32 15 82 16 33 17 87 18 81 19 83 20 34 21 86 22 80 23
REMARK SMILES IDX 79 24 35 26 67 27 47 28 66 29 48 30 51 31 65 32 84 33 49 34
REMARK SMILES IDX 50 35 64 37 85 38 52 39 36 40 37 41 45 42 38 43 39 44 43 45
REMARK SMILES IDX 46 46 40 47 41 48 44 49 42 50 68 51 69 52 77 53 70 54 71 55
REMARK SMILES IDX 75 56 78 57 72 58 73 59 76 60 74 61 53 62 54 63 62 64 55 65
REMARK SMILES IDX 56 66 60 67 63 68 57 69 58 70 61 71 59 72 7 73 8 74 9 75
REMARK SMILES IDX 10 77 11 78 16 79 19 80 17 81 18 82 12 83 13 86 14 87 15 88
REMARK SMILES IDX 20 89 21 90 22 91 23 92 26 93 24 94 25 95
REMARK H PARENT 3 7 83 25 51 36 8 76 12 84 12 85
REMARK Flexibility Score: inf
ROOT
ATOM      1  C   UNL A   1      37.681  23.596  25.938  1.00  0.00     0.023 C 
ENDROOT
BRANCH   1   2
ATOM      2  C   UNL A   1      38.231  22.188  25.748  1.00  0.00     0.023 C 
BRANCH   2   3
ATOM      3  C   UNL A   1      39.498  21.859  26.539  1.00  0.00     0.116 C 
BRANCH   3   4
ATOM      4  N   UNL A   1      40.721  21.756  25.768  1.00  0.00    -0.352 N 
ATOM      5  O   UNL A   1      42.816  21.985  25.070  1.00  0.00    -0.269 OA
ATOM      6  C   UNL A   1      41.903  22.445  25.762  1.00  0.00     0.251 C 
ATOM      7  H   UNL A   1      40.695  21.032  25.101  1.00  0.00     0.163 HD
BRANCH   6   8
ATOM      8  C   UNL A   1      42.114  23.741  26.451  1.00  0.00     0.039 A 
ATOM      9  C   UNL A   1      42.924  23.930  27.571  1.00  0.00     0.014 A 
ATOM     10  C   UNL A   1      41.394  24.836  25.945  1.00  0.00     0.014 A 
ATOM     11  C   UNL A   1      42.879  25.123  28.282  1.00  0.00     0.010 A 
ATOM     12  C   UNL A   1      41.398  26.053  26.613  1.00  0.00     0.010 A 
ATOM     13  C   UNL A   1      42.086  26.170  27.822  1.00  0.00    -0.014 A 
BRANCH  13  14
ATOM     14  C   UNL A   1      42.061  27.410  28.596  1.00  0.00     0.031 A 
ATOM     15  C   UNL A   1      43.160  28.391  28.329  1.00  0.00     0.074 A 
ATOM     16  C   UNL A   1      40.997  27.732  29.360  1.00  0.00     0.049 A 
ATOM     17  N   UNL A   1      43.867  29.087  29.167  1.00  0.00    -0.248 NA
ATOM     18  C   UNL A   1      43.537  28.602  26.919  1.00  0.00     0.031 C 
ATOM     19  C   UNL A   1      39.728  27.004  29.483  1.00  0.00     0.029 A 
ATOM     20  N   UNL A   1      40.773  28.866  30.079  1.00  0.00    -0.354 N 
ATOM     21  C   UNL A   1      44.673  29.923  28.393  1.00  0.00     0.074 A 
ATOM     22  C   UNL A   1      44.490  29.525  27.021  1.00  0.00     0.031 C 
ATOM     23  C   UNL A   1      38.799  27.825  30.013  1.00  0.00     0.029 A 
ATOM     24  C   UNL A   1      39.437  29.081  30.372  1.00  0.00     0.049 A 
ATOM     25  H   UNL A   1      41.492  29.475  30.363  1.00  0.00     0.167 HD
ATOM     26  C   UNL A   1      45.325  31.008  28.895  1.00  0.00     0.037 A 
ATOM     27  C   UNL A   1      38.876  30.247  30.769  1.00  0.00     0.037 A 
ATOM     28  C   UNL A   1      45.527  30.927  30.311  1.00  0.00     0.049 A 
ATOM     29  C   UNL A   1      39.955  31.128  31.274  1.00  0.00     0.074 A 
ATOM     30  C   UNL A   1      46.223  30.075  31.145  1.00  0.00     0.029 A 
ATOM     31  N   UNL A   1      44.737  31.679  31.143  1.00  0.00    -0.354 N 
ATOM     32  N   UNL A   1      40.636  30.908  32.365  1.00  0.00    -0.248 NA
ATOM     33  C   UNL A   1      40.559  32.063  30.338  1.00  0.00     0.031 C 
ATOM     34  C   UNL A   1      45.447  30.012  32.340  1.00  0.00     0.029 A 
ATOM     35  C   UNL A   1      44.341  30.840  32.152  1.00  0.00     0.049 A 
ATOM     36  H   UNL A   1      44.501  32.628  31.036  1.00  0.00     0.167 HD
ATOM     37  C   UNL A   1      41.918  31.355  32.079  1.00  0.00     0.074 A 
ATOM     38  C   UNL A   1      41.786  32.143  30.859  1.00  0.00     0.031 C 
ATOM     39  C   UNL A   1      43.009  30.822  32.702  1.00  0.00     0.037 A 
BRANCH  26  40
ATOM     40  C   UNL A   1      45.535  32.281  28.119  1.00  0.00     0.064 A 
ATOM     41  C   UNL A   1      44.441  33.106  27.797  1.00  0.00     0.173 A 
ATOM     42  C   UNL A   1      46.740  32.564  27.438  1.00  0.00     0.173 A 
ATOM     43  F   UNL A   1      43.240  32.898  28.358  1.00  0.00    -0.203 F 
ATOM     44  C   UNL A   1      44.537  34.111  26.829  1.00  0.00     0.198 A 
ATOM     45  C   UNL A   1      46.845  33.600  26.512  1.00  0.00     0.198 A 
ATOM     46  F   UNL A   1      47.820  31.784  27.568  1.00  0.00    -0.203 F 
ATOM     47  F   UNL A   1      43.445  34.802  26.476  1.00  0.00    -0.200 F 
ATOM     48  C   UNL A   1      45.738  34.356  26.187  1.00  0.00     0.200 A 
ATOM     49  F   UNL A   1      48.011  33.807  25.884  1.00  0.00    -0.200 F 
ATOM     50  F   UNL A   1      45.818  35.282  25.223  1.00  0.00    -0.200 F 
ENDBRANCH  26  40
BRANCH  27  51
ATOM     51  C   UNL A   1      37.532  30.745  30.396  1.00  0.00     0.064 A 
ATOM     52  C   UNL A   1      36.623  31.192  31.365  1.00  0.00     0.173 A 
ATOM     53  C   UNL A   1      37.199  31.012  29.051  1.00  0.00     0.173 A 
ATOM     54  F   UNL A   1      36.896  31.033  32.668  1.00  0.00    -0.203 F 
ATOM     55  C   UNL A   1      35.446  31.858  31.009  1.00  0.00     0.198 A 
ATOM     56  C   UNL A   1      36.020  31.663  28.697  1.00  0.00     0.198 A 
ATOM     57  F   UNL A   1      38.055  30.726  28.059  1.00  0.00    -0.203 F 
ATOM     58  F   UNL A   1      34.622  32.315  31.962  1.00  0.00    -0.200 F 
ATOM     59  C   UNL A   1      35.146  32.094  29.676  1.00  0.00     0.200 A 
ATOM     60  F   UNL A   1      35.763  31.917  27.406  1.00  0.00    -0.200 F 
ATOM     61  F   UNL A   1      34.040  32.770  29.337  1.00  0.00    -0.200 F 
ENDBRANCH  27  51
BRANCH  39  62
ATOM     62  C   UNL A   1      42.768  29.898  33.859  1.00  0.00     0.064 A 
ATOM     63  C   UNL A   1      42.470  28.533  33.698  1.00  0.00     0.173 A 
ATOM     64  C   UNL A   1      43.000  30.358  35.160  1.00  0.00     0.173 A 
ATOM     65  F   UNL A   1      42.355  27.996  32.478  1.00  0.00    -0.203 F 
ATOM     66  C   UNL A   1      42.355  27.682  34.794  1.00  0.00     0.198 A 
ATOM     67  C   UNL A   1      42.921  29.497  36.252  1.00  0.00     0.198 A 
ATOM     68  F   UNL A   1      43.359  31.634  35.368  1.00  0.00    -0.203 F 
ATOM     69  F   UNL A   1      42.058  26.387  34.611  1.00  0.00    -0.200 F 
ATOM     70  C   UNL A   1      42.587  28.163  36.070  1.00  0.00     0.200 A 
ATOM     71  F   UNL A   1      43.200  29.953  37.481  1.00  0.00    -0.200 F 
ATOM     72  F   UNL A   1      42.521  27.337  37.124  1.00  0.00    -0.200 F 
ENDBRANCH  39  62
ENDBRANCH  13  14
ENDBRANCH   6   8
ENDBRANCH   3   4
ENDBRANCH   2   3
ENDBRANCH   1   2
BRANCH   1  73
ATOM     73  C   UNL A   1      36.176  23.754  25.744  1.00  0.00     0.116 C 
BRANCH  73  74
ATOM     74  N   UNL A   1      35.726  23.897  24.367  1.00  0.00    -0.351 N 
ATOM     75  C   UNL A   1      34.472  24.219  23.908  1.00  0.00     0.281 C 
ATOM     76  H   UNL A   1      36.410  23.744  23.675  1.00  0.00     0.163 HD
ATOM     77  O   UNL A   1      34.392  24.571  22.724  1.00  0.00    -0.268 OA
BRANCH  75  78
ATOM     78  C   UNL A   1      33.200  24.027  24.773  1.00  0.00     0.178 C 
ATOM     79  C   UNL A   1      31.873  24.015  23.983  1.00  0.00     0.079 C 
ATOM     80  C   UNL A   1      33.156  22.563  25.370  1.00  0.00     0.062 C 
ATOM     81  C   UNL A   1      30.865  23.349  24.924  1.00  0.00     0.008 C 
ATOM     82  C   UNL A   1      31.688  22.460  25.862  1.00  0.00     0.011 C 
BRANCH  78  83
ATOM     83  N   UNL A   1      33.096  25.047  25.856  1.00  0.00    -0.331 N 
ATOM     84  H   UNL A   1      33.500  24.621  26.690  1.00  0.00     0.347 HD
ATOM     85  H   UNL A   1      32.101  25.269  25.848  1.00  0.00     0.347 HD
BRANCH  83  86
ATOM     86  C   UNL A   1      33.711  26.375  25.732  1.00  0.00     0.183 C 
ATOM     87  C   UNL A   1      33.109  27.546  25.011  1.00  0.00     0.071 C 
ATOM     88  C   UNL A   1      33.209  27.555  26.508  1.00  0.00     0.071 C 
ENDBRANCH  83  86
ENDBRANCH  78  83
BRANCH  80  89
ATOM     89  C   UNL A   1      33.373  21.359  24.387  1.00  0.00     0.032 C 
BRANCH  89  90
ATOM     90  C   UNL A   1      32.430  20.153  24.437  1.00  0.00     0.123 C 
BRANCH  90  91
ATOM     91  N   UNL A   1      32.993  18.931  23.906  1.00  0.00    -0.337 N 
ATOM     92  C   UNL A   1      34.061  18.231  24.392  1.00  0.00     0.107 A 
ATOM     93  C   UNL A   1      32.467  18.205  22.881  1.00  0.00     0.199 A 
ATOM     94  C   UNL A   1      34.143  17.112  23.593  1.00  0.00     0.130 A 
ATOM     95  N   UNL A   1      33.148  17.111  22.651  1.00  0.00    -0.245 NA
ENDBRANCH  90  91
ENDBRANCH  89  90
ENDBRANCH  80  89
ENDBRANCH  75  78
ENDBRANCH  73  74
ENDBRANCH   1  73
TORSDOF 16
ENDMDL
MODEL 3
REMARK VINA RESULT:     -11.3      2.164      3.687
REMARK SMILES O=C(NCCCCNC(=O)[C@@]1([NH2+]C2CC2)CCC[C@H]1CCn1ccnc1)c1ccc(-c2c3nc(c(-c4c(F)c(F)c(F)c(F)c4F)c4ccc([nH]4)c(-c4c(F)c(F)c(F)c(F)c4F)c4nc(c(-c5c(F)c(F)c(F)c(F)c5F)c5ccc2[nH]5)C=C4)C=C3)cc1
REMARK SMILES IDX 6 1 5 2 4 3 3 4 1 5 2 6 27 8 28 9 89 10 29 11 88 12 30 13
REMARK SMILES IDX 31 14 32 15 82 16 33 17 87 18 81 19 83 20 34 21 86 22 80 23
REMARK SMILES IDX 79 24 35 26 67 27 47 28 66 29 48 30 51 31 65 32 84 33 49 34
REMARK SMILES IDX 50 35 64 37 85 38 52 39 36 40 37 41 45 42 38 43 39 44 43 45
REMARK SMILES IDX 46 46 40 47 41 48 44 49 42 50 68 51 69 52 77 53 70 54 71 55
REMARK SMILES IDX 75 56 78 57 72 58 73 59 76 60 74 61 53 62 54 63 62 64 55 65
REMARK SMILES IDX 56 66 60 67 63 68 57 69 58 70 61 71 59 72 7 73 8 74 9 75
REMARK SMILES IDX 10 77 11 78 16 79 19 80 17 81 18 82 12 83 13 86 14 87 15 88
REMARK SMILES IDX 20 89 21 90 22 91 23 92 26 93 24 94 25 95
REMARK H PARENT 3 7 83 25 51 36 8 76 12 84 12 85
REMARK Flexibility Score: inf
ROOT
ATOM      1  C   UNL A   1      33.429  27.782  25.277  1.00  0.00     0.023 C 
ENDROOT
BRANCH   1   2
ATOM      2  C   UNL A   1      33.591  28.571  26.571  1.00  0.00     0.023 C 
BRANCH   2   3
ATOM      3  C   UNL A   1      33.754  30.083  26.409  1.00  0.00     0.116 C 
BRANCH   3   4
ATOM      4  N   UNL A   1      33.741  30.859  27.634  1.00  0.00    -0.352 N 
ATOM      5  O   UNL A   1      34.365  32.080  29.380  1.00  0.00    -0.269 OA
ATOM      6  C   UNL A   1      34.710  31.284  28.501  1.00  0.00     0.251 C 
ATOM      7  H   UNL A   1      32.836  31.141  27.900  1.00  0.00     0.163 HD
BRANCH   6   8
ATOM      8  C   UNL A   1      36.104  30.778  28.505  1.00  0.00     0.039 A 
ATOM      9  C   UNL A   1      36.487  29.486  28.142  1.00  0.00     0.014 A 
ATOM     10  C   UNL A   1      37.087  31.673  28.958  1.00  0.00     0.014 A 
ATOM     11  C   UNL A   1      37.776  29.035  28.396  1.00  0.00     0.010 A 
ATOM     12  C   UNL A   1      38.394  31.247  29.150  1.00  0.00     0.010 A 
ATOM     13  C   UNL A   1      38.718  29.906  28.935  1.00  0.00    -0.014 A 
BRANCH  13  14
ATOM     14  C   UNL A   1      40.065  29.397  29.192  1.00  0.00     0.031 A 
ATOM     15  C   UNL A   1      40.437  29.173  30.625  1.00  0.00     0.074 A 
ATOM     16  C   UNL A   1      40.849  28.968  28.183  1.00  0.00     0.049 A 
ATOM     17  N   UNL A   1      41.538  29.466  31.247  1.00  0.00    -0.248 NA
ATOM     18  C   UNL A   1      39.415  28.556  31.490  1.00  0.00     0.031 C 
ATOM     19  C   UNL A   1      40.502  28.855  26.762  1.00  0.00     0.029 A 
ATOM     20  N   UNL A   1      42.086  28.399  28.244  1.00  0.00    -0.354 N 
ATOM     21  C   UNL A   1      41.406  28.945  32.535  1.00  0.00     0.074 A 
ATOM     22  C   UNL A   1      40.052  28.471  32.656  1.00  0.00     0.031 C 
ATOM     23  C   UNL A   1      41.387  28.038  26.155  1.00  0.00     0.029 A 
ATOM     24  C   UNL A   1      42.418  27.675  27.113  1.00  0.00     0.049 A 
ATOM     25  H   UNL A   1      42.685  28.494  29.019  1.00  0.00     0.167 HD
ATOM     26  C   UNL A   1      42.456  28.777  33.385  1.00  0.00     0.037 A 
ATOM     27  C   UNL A   1      43.401  26.751  27.006  1.00  0.00     0.037 A 
ATOM     28  C   UNL A   1      43.571  29.616  33.062  1.00  0.00     0.049 A 
ATOM     29  C   UNL A   1      44.346  26.954  28.130  1.00  0.00     0.074 A 
ATOM     30  C   UNL A   1      43.778  30.981  33.016  1.00  0.00     0.029 A 
ATOM     31  N   UNL A   1      44.666  29.066  32.446  1.00  0.00    -0.354 N 
ATOM     32  N   UNL A   1      45.127  27.992  28.258  1.00  0.00    -0.248 NA
ATOM     33  C   UNL A   1      44.134  26.179  29.343  1.00  0.00     0.031 C 
ATOM     34  C   UNL A   1      44.700  31.180  31.947  1.00  0.00     0.029 A 
ATOM     35  C   UNL A   1      44.998  29.921  31.427  1.00  0.00     0.049 A 
ATOM     36  H   UNL A   1      45.121  28.227  32.686  1.00  0.00     0.167 HD
ATOM     37  C   UNL A   1      45.180  28.229  29.623  1.00  0.00     0.074 A 
ATOM     38  C   UNL A   1      44.634  27.028  30.243  1.00  0.00     0.031 C 
ATOM     39  C   UNL A   1      45.406  29.483  30.116  1.00  0.00     0.037 A 
BRANCH  26  40
ATOM     40  C   UNL A   1      42.561  27.631  34.357  1.00  0.00     0.064 A 
ATOM     41  C   UNL A   1      43.066  26.386  33.937  1.00  0.00     0.173 A 
ATOM     42  C   UNL A   1      41.911  27.639  35.611  1.00  0.00     0.173 A 
ATOM     43  F   UNL A   1      43.666  26.261  32.744  1.00  0.00    -0.203 F 
ATOM     44  C   UNL A   1      42.892  25.226  34.698  1.00  0.00     0.198 A 
ATOM     45  C   UNL A   1      41.785  26.491  36.391  1.00  0.00     0.198 A 
ATOM     46  F   UNL A   1      41.288  28.730  36.072  1.00  0.00    -0.203 F 
ATOM     47  F   UNL A   1      43.294  24.044  34.213  1.00  0.00    -0.200 F 
ATOM     48  C   UNL A   1      42.251  25.279  35.923  1.00  0.00     0.200 A 
ATOM     49  F   UNL A   1      41.141  26.558  37.564  1.00  0.00    -0.200 F 
ATOM     50  F   UNL A   1      42.037  24.162  36.629  1.00  0.00    -0.200 F 
ENDBRANCH  26  40
BRANCH  27  51
ATOM     51  C   UNL A   1      43.353  25.506  26.205  1.00  0.00     0.064 A 
ATOM     52  C   UNL A   1      44.371  25.181  25.299  1.00  0.00     0.173 A 
ATOM     53  C   UNL A   1      42.414  24.492  26.487  1.00  0.00     0.173 A 
ATOM     54  F   UNL A   1      45.339  26.067  25.026  1.00  0.00    -0.203 F 
ATOM     55  C   UNL A   1      44.440  23.917  24.702  1.00  0.00     0.198 A 
ATOM     56  C   UNL A   1      42.475  23.239  25.881  1.00  0.00     0.198 A 
ATOM     57  F   UNL A   1      41.469  24.667  27.422  1.00  0.00    -0.203 F 
ATOM     58  F   UNL A   1      45.455  23.621  23.878  1.00  0.00    -0.200 F 
ATOM     59  C   UNL A   1      43.493  22.947  24.995  1.00  0.00     0.200 A 
ATOM     60  F   UNL A   1      41.573  22.300  26.204  1.00  0.00    -0.200 F 
ATOM     61  F   UNL A   1      43.584  21.723  24.457  1.00  0.00    -0.200 F 
ENDBRANCH  27  51
BRANCH  39  62
ATOM     62  C   UNL A   1      45.814  30.550  29.144  1.00  0.00     0.064 A 
ATOM     63  C   UNL A   1      44.886  31.310  28.410  1.00  0.00     0.173 A 
ATOM     64  C   UNL A   1      47.160  30.926  29.067  1.00  0.00     0.173 A 
ATOM     65  F   UNL A   1      43.573  31.086  28.527  1.00  0.00    -0.203 F 
ATOM     66  C   UNL A   1      45.294  32.362  27.594  1.00  0.00     0.198 A 
ATOM     67  C   UNL A   1      47.562  32.002  28.280  1.00  0.00     0.198 A 
ATOM     68  F   UNL A   1      48.081  30.283  29.801  1.00  0.00    -0.203 F 
ATOM     69  F   UNL A   1      44.388  33.063  26.897  1.00  0.00    -0.200 F 
ATOM     70  C   UNL A   1      46.631  32.712  27.535  1.00  0.00     0.200 A 
ATOM     71  F   UNL A   1      48.850  32.374  28.267  1.00  0.00    -0.200 F 
ATOM     72  F   UNL A   1      47.022  33.752  26.786  1.00  0.00    -0.200 F 
ENDBRANCH  39  62
ENDBRANCH  13  14
ENDBRANCH   6   8
ENDBRANCH   3   4
ENDBRANCH   2   3
ENDBRANCH   1   2
BRANCH   1  73
ATOM     73  C   UNL A   1      33.490  26.264  25.412  1.00  0.00     0.116 C 
BRANCH  73  74
ATOM     74  N   UNL A   1      34.134  25.556  24.315  1.00  0.00    -0.351 N 
ATOM     75  C   UNL A   1      34.436  24.219  24.223  1.00  0.00     0.281 C 
ATOM     76  H   UNL A   1      34.385  26.107  23.538  1.00  0.00     0.163 HD
ATOM     77  O   UNL A   1      34.710  23.793  23.094  1.00  0.00    -0.268 OA
BRANCH  75  78
ATOM     78  C   UNL A   1      34.565  23.311  25.474  1.00  0.00     0.178 C 
ATOM     79  C   UNL A   1      33.385  23.402  26.466  1.00  0.00     0.079 C 
ATOM     80  C   UNL A   1      34.440  21.789  25.065  1.00  0.00     0.062 C 
ATOM     81  C   UNL A   1      33.488  22.129  27.311  1.00  0.00     0.008 C 
ATOM     82  C   UNL A   1      34.222  21.104  26.440  1.00  0.00     0.011 C 
BRANCH  78  83
ATOM     83  N   UNL A   1      35.832  23.560  26.221  1.00  0.00    -0.331 N 
ATOM     84  H   UNL A   1      35.850  22.885  26.986  1.00  0.00     0.347 HD
ATOM     85  H   UNL A   1      35.761  24.554  26.441  1.00  0.00     0.347 HD
BRANCH  83  86
ATOM     86  C   UNL A   1      37.145  23.479  25.569  1.00  0.00     0.183 C 
ATOM     87  C   UNL A   1      38.468  23.668  26.255  1.00  0.00     0.071 C 
ATOM     88  C   UNL A   1      38.058  22.307  25.772  1.00  0.00     0.071 C 
ENDBRANCH  83  86
ENDBRANCH  78  83
BRANCH  80  89
ATOM     89  C   UNL A   1      33.226  21.363  24.167  1.00  0.00     0.032 C 
BRANCH  89  90
ATOM     90  C   UNL A   1      32.387  20.140  24.546  1.00  0.00     0.123 C 
BRANCH  90  91
ATOM     91  N   UNL A   1      32.804  18.908  23.912  1.00  0.00    -0.337 N 
ATOM     92  C   UNL A   1      33.513  17.885  24.475  1.00  0.00     0.107 A 
ATOM     93  C   UNL A   1      32.451  18.513  22.658  1.00  0.00     0.199 A 
ATOM     94  C   UNL A   1      33.579  16.920  23.495  1.00  0.00     0.130 A 
ATOM     95  N   UNL A   1      32.920  17.326  22.365  1.00  0.00    -0.245 NA
ENDBRANCH  90  91
ENDBRANCH  89  90
ENDBRANCH  80  89
ENDBRANCH  75  78
ENDBRANCH  73  74
ENDBRANCH   1  73
TORSDOF 16
ENDMDL
