MODEL 1
REMARK VINA RESULT:     -13.6      0.000      0.000
REMARK SMILES Cc1nc[nH]c1C(=O)N1CCC2(CC1)C[C@@H](C(=O)NCCCCNC(=O)c1ccc(-c3c4nc(c(-c5c(F)c(F)c(F)c(F)c5F)c5ccc([nH]5)c(-c5c(F)c(F)c(F)c(F)c5F)c5nc(c(-c6c(F)c(F)c(F)c(F)c6F)c6ccc3[nH]6)C=C5)C=C4)cc1)N(C(=O)C1CC1)C2
REMARK SMILES IDX 21 1 20 2 19 3 17 4 18 5 16 7 7 8 8 9 9 10 10 11 14 12 11 13
REMARK SMILES IDX 13 14 12 15 15 16 96 17 90 18 6 19 1 20 2 21 3 22 4 23 5 24
REMARK SMILES IDX 91 26 92 27 93 28 94 29 95 30 22 31 23 32 24 33 25 34 26 36
REMARK SMILES IDX 27 37 28 38 89 39 29 40 88 41 30 42 31 43 32 44 82 45 33 46
REMARK SMILES IDX 87 47 81 48 83 49 34 50 86 51 80 52 79 53 35 55 67 56 47 57
REMARK SMILES IDX 66 58 48 59 51 60 65 61 84 62 49 63 50 64 64 66 85 67 52 68
REMARK SMILES IDX 36 69 37 70 45 71 38 72 39 73 43 74 46 75 40 76 41 77 44 78
REMARK SMILES IDX 42 79 68 80 69 81 77 82 70 83 71 84 75 85 78 86 72 87 73 88
REMARK SMILES IDX 76 89 74 90 53 91 54 92 62 93 55 94 56 95 60 96 63 97 57 98
REMARK SMILES IDX 58 99 61 100 59 101
REMARK H PARENT 19 6 5 25 24 35 83 54 51 65
REMARK Flexibility Score: inf
ROOT
ATOM      1  C   UNL A   1      31.835  30.612  26.294  1.00  0.00     0.023 C 
ENDROOT
BRANCH   1   2
ATOM      2  C   UNL A   1      31.777  29.568  27.397  1.00  0.00     0.116 C 
BRANCH   2   3
ATOM      3  N   UNL A   1      32.813  28.575  27.423  1.00  0.00    -0.354 N 
ATOM      4  C   UNL A   1      33.076  27.636  26.456  1.00  0.00     0.242 C 
ATOM      5  O   UNL A   1      34.265  27.338  26.298  1.00  0.00    -0.273 OA
ATOM      6  H   UNL A   1      33.394  28.566  28.218  1.00  0.00     0.163 HD
BRANCH   4   7
ATOM      7  C   UNL A   1      31.988  27.075  25.484  1.00  0.00     0.175 C 
ATOM      8  C   UNL A   1      32.228  20.724  23.103  1.00  0.00     0.272 C 
ATOM      9  O   UNL A   1      31.907  20.415  21.955  1.00  0.00    -0.267 OA
ATOM     10  N   UNL A   1      32.239  22.052  23.498  1.00  0.00    -0.337 N 
ATOM     11  C   UNL A   1      31.267  22.961  22.915  1.00  0.00     0.120 C 
ATOM     12  C   UNL A   1      33.407  22.674  24.092  1.00  0.00     0.120 C 
ATOM     13  C   UNL A   1      30.775  23.943  23.991  1.00  0.00     0.030 C 
ATOM     14  C   UNL A   1      32.981  23.712  25.119  1.00  0.00     0.030 C 
ATOM     15  C   UNL A   1      31.954  24.755  24.592  1.00  0.00    -0.006 C 
ATOM     16  C   UNL A   1      31.511  25.652  25.779  1.00  0.00     0.044 C 
ATOM     17  C   UNL A   1      32.446  25.749  23.512  1.00  0.00     0.127 C 
ATOM     18  N   UNL A   1      32.337  27.086  24.069  1.00  0.00    -0.330 N 
BRANCH   8  19
ATOM     19  C   UNL A   1      32.505  19.704  24.090  1.00  0.00     0.127 A 
ATOM     20  C   UNL A   1      33.394  17.528  22.942  1.00  0.00     0.069 C 
ATOM     21  C   UNL A   1      32.994  18.402  24.064  1.00  0.00     0.068 A 
ATOM     22  N   UNL A   1      33.188  17.926  25.343  1.00  0.00    -0.241 NA
ATOM     23  C   UNL A   1      32.884  18.919  26.141  1.00  0.00     0.197 A 
ATOM     24  N   UNL A   1      32.447  19.997  25.439  1.00  0.00    -0.340 N 
ATOM     25  H   UNL A   1      32.138  20.848  25.827  1.00  0.00     0.168 HD
ENDBRANCH   8  19
BRANCH  18  26
ATOM     26  C   UNL A   1      32.293  28.312  23.417  1.00  0.00     0.226 C 
ATOM     27  O   UNL A   1      33.281  29.033  23.368  1.00  0.00    -0.275 OA
BRANCH  26  28
ATOM     28  C   UNL A   1      31.083  28.818  22.711  1.00  0.00     0.079 C 
ATOM     29  C   UNL A   1      29.673  28.310  22.726  1.00  0.00     0.014 C 
ATOM     30  C   UNL A   1      30.013  29.585  23.447  1.00  0.00     0.014 C 
ENDBRANCH  26  28
ENDBRANCH  18  26
ENDBRANCH   4   7
ENDBRANCH   2   3
ENDBRANCH   1   2
BRANCH   1  31
ATOM     31  C   UNL A   1      31.498  32.026  26.751  1.00  0.00     0.023 C 
BRANCH  31  32
ATOM     32  C   UNL A   1      32.667  32.855  27.280  1.00  0.00     0.116 C 
BRANCH  32  33
ATOM     33  N   UNL A   1      32.328  34.219  27.662  1.00  0.00    -0.352 N 
ATOM     34  C   UNL A   1      32.963  35.020  28.588  1.00  0.00     0.251 C 
ATOM     35  H   UNL A   1      31.553  34.617  27.203  1.00  0.00     0.163 HD
ATOM     36  O   UNL A   1      32.529  36.135  28.854  1.00  0.00    -0.269 OA
BRANCH  34  37
ATOM     37  C   UNL A   1      34.152  34.492  29.295  1.00  0.00     0.039 A 
ATOM     38  C   UNL A   1      33.975  33.790  30.490  1.00  0.00     0.014 A 
ATOM     39  C   UNL A   1      35.424  34.615  28.731  1.00  0.00     0.014 A 
ATOM     40  C   UNL A   1      35.066  33.146  31.077  1.00  0.00     0.010 A 
ATOM     41  C   UNL A   1      36.485  33.891  29.264  1.00  0.00     0.010 A 
ATOM     42  C   UNL A   1      36.322  33.156  30.447  1.00  0.00    -0.014 A 
BRANCH  42  43
ATOM     43  C   UNL A   1      37.479  32.423  31.027  1.00  0.00     0.031 A 
ATOM     44  C   UNL A   1      37.984  32.779  32.401  1.00  0.00     0.074 A 
ATOM     45  C   UNL A   1      38.106  31.471  30.308  1.00  0.00     0.049 A 
ATOM     46  N   UNL A   1      38.988  32.275  33.073  1.00  0.00    -0.248 NA
ATOM     47  C   UNL A   1      37.286  33.870  33.099  1.00  0.00     0.031 C 
ATOM     48  C   UNL A   1      37.758  31.073  28.943  1.00  0.00     0.029 A 
ATOM     49  N   UNL A   1      39.171  30.665  30.625  1.00  0.00    -0.354 N 
ATOM     50  C   UNL A   1      39.045  32.993  34.261  1.00  0.00     0.074 A 
ATOM     51  C   UNL A   1      38.025  34.016  34.187  1.00  0.00     0.031 C 
ATOM     52  C   UNL A   1      38.567  30.075  28.554  1.00  0.00     0.029 A 
ATOM     53  C   UNL A   1      39.515  29.783  29.627  1.00  0.00     0.049 A 
ATOM     54  H   UNL A   1      39.645  30.712  31.486  1.00  0.00     0.167 HD
ATOM     55  C   UNL A   1      39.849  32.797  35.333  1.00  0.00     0.037 A 
ATOM     56  C   UNL A   1      40.480  28.845  29.585  1.00  0.00     0.037 A 
ATOM     57  C   UNL A   1      40.849  31.766  35.414  1.00  0.00     0.049 A 
ATOM     58  C   UNL A   1      41.360  28.645  30.791  1.00  0.00     0.074 A 
ATOM     59  C   UNL A   1      41.682  31.452  36.473  1.00  0.00     0.029 A 
ATOM     60  N   UNL A   1      41.151  30.878  34.391  1.00  0.00    -0.354 N 
ATOM     61  N   UNL A   1      41.352  29.278  31.939  1.00  0.00    -0.248 NA
ATOM     62  C   UNL A   1      42.373  27.585  30.701  1.00  0.00     0.031 C 
ATOM     63  C   UNL A   1      42.525  30.408  36.072  1.00  0.00     0.029 A 
ATOM     64  C   UNL A   1      42.172  30.028  34.788  1.00  0.00     0.049 A 
ATOM     65  H   UNL A   1      40.707  30.856  33.512  1.00  0.00     0.167 HD
ATOM     66  C   UNL A   1      42.328  28.671  32.718  1.00  0.00     0.074 A 
ATOM     67  C   UNL A   1      42.896  27.607  31.918  1.00  0.00     0.031 C 
ATOM     68  C   UNL A   1      42.718  28.965  33.984  1.00  0.00     0.037 A 
BRANCH  55  69
ATOM     69  C   UNL A   1      39.671  33.718  36.508  1.00  0.00     0.064 A 
ATOM     70  C   UNL A   1      40.297  34.974  36.560  1.00  0.00     0.173 A 
ATOM     71  C   UNL A   1      38.849  33.351  37.583  1.00  0.00     0.173 A 
ATOM     72  F   UNL A   1      41.103  35.370  35.565  1.00  0.00    -0.203 F 
ATOM     73  C   UNL A   1      40.135  35.811  37.661  1.00  0.00     0.198 A 
ATOM     74  C   UNL A   1      38.661  34.207  38.666  1.00  0.00     0.198 A 
ATOM     75  F   UNL A   1      38.224  32.165  37.585  1.00  0.00    -0.203 F 
ATOM     76  F   UNL A   1      40.790  36.978  37.715  1.00  0.00    -0.200 F 
ATOM     77  C   UNL A   1      39.311  35.430  38.709  1.00  0.00     0.200 A 
ATOM     78  F   UNL A   1      37.853  33.844  39.673  1.00  0.00    -0.200 F 
ATOM     79  F   UNL A   1      39.150  36.240  39.766  1.00  0.00    -0.200 F 
ENDBRANCH  55  69
BRANCH  56  80
ATOM     80  C   UNL A   1      40.644  27.991  28.377  1.00  0.00     0.064 A 
ATOM     81  C   UNL A   1      40.033  26.730  28.298  1.00  0.00     0.173 A 
ATOM     82  C   UNL A   1      41.428  28.402  27.292  1.00  0.00     0.173 A 
ATOM     83  F   UNL A   1      39.288  26.282  29.318  1.00  0.00    -0.203 F 
ATOM     84  C   UNL A   1      40.227  25.903  27.192  1.00  0.00     0.198 A 
ATOM     85  C   UNL A   1      41.595  27.588  26.172  1.00  0.00     0.198 A 
ATOM     86  F   UNL A   1      42.030  29.601  27.313  1.00  0.00    -0.203 F 
ATOM     87  F   UNL A   1      39.679  24.680  27.170  1.00  0.00    -0.200 F 
ATOM     88  C   UNL A   1      41.003  26.335  26.129  1.00  0.00     0.200 A 
ATOM     89  F   UNL A   1      42.333  28.015  25.140  1.00  0.00    -0.200 F 
ATOM     90  F   UNL A   1      41.189  25.540  25.067  1.00  0.00    -0.200 F 
ENDBRANCH  56  80
BRANCH  68  91
ATOM     91  C   UNL A   1      43.771  28.087  34.601  1.00  0.00     0.064 A 
ATOM     92  C   UNL A   1      45.135  28.408  34.543  1.00  0.00     0.173 A 
ATOM     93  C   UNL A   1      43.402  26.913  35.277  1.00  0.00     0.173 A 
ATOM     94  F   UNL A   1      45.542  29.513  33.900  1.00  0.00    -0.203 F 
ATOM     95  C   UNL A   1      46.093  27.565  35.100  1.00  0.00     0.198 A 
ATOM     96  C   UNL A   1      44.360  26.092  35.865  1.00  0.00     0.198 A 
ATOM     97  F   UNL A   1      42.110  26.563  35.372  1.00  0.00    -0.203 F 
ATOM     98  F   UNL A   1      47.395  27.859  34.974  1.00  0.00    -0.200 F 
ATOM     99  C   UNL A   1      45.705  26.412  35.765  1.00  0.00     0.200 A 
ATOM    100  F   UNL A   1      43.981  24.987  36.523  1.00  0.00    -0.200 F 
ATOM    101  F   UNL A   1      46.629  25.602  36.301  1.00  0.00    -0.200 F 
ENDBRANCH  68  91
ENDBRANCH  42  43
ENDBRANCH  34  37
ENDBRANCH  32  33
ENDBRANCH  31  32
ENDBRANCH   1  31
TORSDOF 14
ENDMDL
MODEL 2
REMARK VINA RESULT:     -12.9      5.089      9.107
REMARK SMILES Cc1nc[nH]c1C(=O)N1CCC2(CC1)C[C@@H](C(=O)NCCCCNC(=O)c1ccc(-c3c4nc(c(-c5c(F)c(F)c(F)c(F)c5F)c5ccc([nH]5)c(-c5c(F)c(F)c(F)c(F)c5F)c5nc(c(-c6c(F)c(F)c(F)c(F)c6F)c6ccc3[nH]6)C=C5)C=C4)cc1)N(C(=O)C1CC1)C2
REMARK SMILES IDX 21 1 20 2 19 3 17 4 18 5 16 7 7 8 8 9 9 10 10 11 14 12 11 13
REMARK SMILES IDX 13 14 12 15 15 16 96 17 90 18 6 19 1 20 2 21 3 22 4 23 5 24
REMARK SMILES IDX 91 26 92 27 93 28 94 29 95 30 22 31 23 32 24 33 25 34 26 36
REMARK SMILES IDX 27 37 28 38 89 39 29 40 88 41 30 42 31 43 32 44 82 45 33 46
REMARK SMILES IDX 87 47 81 48 83 49 34 50 86 51 80 52 79 53 35 55 67 56 47 57
REMARK SMILES IDX 66 58 48 59 51 60 65 61 84 62 49 63 50 64 64 66 85 67 52 68
REMARK SMILES IDX 36 69 37 70 45 71 38 72 39 73 43 74 46 75 40 76 41 77 44 78
REMARK SMILES IDX 42 79 68 80 69 81 77 82 70 83 71 84 75 85 78 86 72 87 73 88
REMARK SMILES IDX 76 89 74 90 53 91 54 92 62 93 55 94 56 95 60 96 63 97 57 98
REMARK SMILES IDX 58 99 61 100 59 101
REMARK H PARENT 19 6 5 25 24 35 83 54 51 65
REMARK Flexibility Score: inf
ROOT
ATOM      1  C   UNL A   1      36.514  32.535  31.382  1.00  0.00     0.023 C 
ENDROOT
BRANCH   1   2
ATOM      2  C   UNL A   1      36.585  31.833  32.727  1.00  0.00     0.116 C 
BRANCH   2   3
ATOM      3  N   UNL A   1      36.625  30.398  32.724  1.00  0.00    -0.354 N 
ATOM      4  C   UNL A   1      37.689  29.605  33.074  1.00  0.00     0.242 C 
ATOM      5  O   UNL A   1      37.410  28.534  33.626  1.00  0.00    -0.273 OA
ATOM      6  H   UNL A   1      35.803  29.936  32.441  1.00  0.00     0.163 HD
BRANCH   4   7
ATOM      7  C   UNL A   1      39.180  30.061  32.949  1.00  0.00     0.175 C 
ATOM      8  C   UNL A   1      44.318  26.172  35.076  1.00  0.00     0.272 C 
ATOM      9  O   UNL A   1      45.328  26.617  35.623  1.00  0.00    -0.267 OA
ATOM     10  N   UNL A   1      43.268  27.012  34.745  1.00  0.00    -0.337 N 
ATOM     11  C   UNL A   1      43.564  28.383  34.363  1.00  0.00     0.120 C 
ATOM     12  C   UNL A   1      41.907  26.759  35.180  1.00  0.00     0.120 C 
ATOM     13  C   UNL A   1      42.624  28.811  33.224  1.00  0.00     0.030 C 
ATOM     14  C   UNL A   1      40.924  27.229  34.119  1.00  0.00     0.030 C 
ATOM     15  C   UNL A   1      41.135  28.698  33.651  1.00  0.00    -0.006 C 
ATOM     16  C   UNL A   1      40.161  28.987  32.478  1.00  0.00     0.044 C 
ATOM     17  C   UNL A   1      40.851  29.817  34.682  1.00  0.00     0.127 C 
ATOM     18  N   UNL A   1      39.770  30.631  34.153  1.00  0.00    -0.330 N 
BRANCH   8  19
ATOM     19  C   UNL A   1      44.249  24.783  34.679  1.00  0.00     0.127 A 
ATOM     20  C   UNL A   1      44.477  24.554  32.083  1.00  0.00     0.069 C 
ATOM     21  C   UNL A   1      44.326  24.088  33.477  1.00  0.00     0.068 A 
ATOM     22  N   UNL A   1      44.332  22.727  33.699  1.00  0.00    -0.241 NA
ATOM     23  C   UNL A   1      44.317  22.579  34.999  1.00  0.00     0.197 A 
ATOM     24  N   UNL A   1      44.243  23.781  35.629  1.00  0.00    -0.340 N 
ATOM     25  H   UNL A   1      44.192  23.915  36.603  1.00  0.00     0.168 HD
ENDBRANCH   8  19
BRANCH  18  26
ATOM     26  C   UNL A   1      39.397  31.927  34.488  1.00  0.00     0.226 C 
ATOM     27  O   UNL A   1      38.570  32.135  35.366  1.00  0.00    -0.275 OA
BRANCH  26  28
ATOM     28  C   UNL A   1      39.987  33.136  33.848  1.00  0.00     0.079 C 
ATOM     29  C   UNL A   1      39.327  34.246  33.088  1.00  0.00     0.014 C 
ATOM     30  C   UNL A   1      39.845  34.500  34.476  1.00  0.00     0.014 C 
ENDBRANCH  26  28
ENDBRANCH  18  26
ENDBRANCH   4   7
ENDBRANCH   2   3
ENDBRANCH   1   2
BRANCH   1  31
ATOM     31  C   UNL A   1      35.133  32.524  30.740  1.00  0.00     0.023 C 
BRANCH  31  32
ATOM     32  C   UNL A   1      35.102  32.615  29.215  1.00  0.00     0.116 C 
BRANCH  32  33
ATOM     33  N   UNL A   1      34.208  31.669  28.562  1.00  0.00    -0.352 N 
ATOM     34  C   UNL A   1      34.517  30.421  28.064  1.00  0.00     0.251 C 
ATOM     35  H   UNL A   1      33.271  31.956  28.464  1.00  0.00     0.163 HD
ATOM     36  O   UNL A   1      33.671  29.753  27.479  1.00  0.00    -0.269 OA
BRANCH  34  37
ATOM     37  C   UNL A   1      35.902  29.918  28.201  1.00  0.00     0.039 A 
ATOM     38  C   UNL A   1      36.805  30.122  27.155  1.00  0.00     0.014 A 
ATOM     39  C   UNL A   1      36.326  29.327  29.394  1.00  0.00     0.014 A 
ATOM     40  C   UNL A   1      38.153  29.803  27.339  1.00  0.00     0.010 A 
ATOM     41  C   UNL A   1      37.682  29.104  29.608  1.00  0.00     0.010 A 
ATOM     42  C   UNL A   1      38.611  29.331  28.580  1.00  0.00    -0.014 A 
BRANCH  42  43
ATOM     43  C   UNL A   1      40.052  29.045  28.811  1.00  0.00     0.031 A 
ATOM     44  C   UNL A   1      40.923  30.071  29.488  1.00  0.00     0.074 A 
ATOM     45  C   UNL A   1      40.591  27.889  28.375  1.00  0.00     0.049 A 
ATOM     46  N   UNL A   1      42.203  30.022  29.761  1.00  0.00    -0.248 NA
ATOM     47  C   UNL A   1      40.276  31.332  29.881  1.00  0.00     0.031 C 
ATOM     48  C   UNL A   1      39.872  26.840  27.650  1.00  0.00     0.029 A 
ATOM     49  N   UNL A   1      41.871  27.404  28.475  1.00  0.00    -0.354 N 
ATOM     50  C   UNL A   1      42.510  31.244  30.345  1.00  0.00     0.074 A 
ATOM     51  C   UNL A   1      41.304  32.042  30.319  1.00  0.00     0.031 C 
ATOM     52  C   UNL A   1      40.710  25.820  27.405  1.00  0.00     0.029 A 
ATOM     53  C   UNL A   1      42.034  26.155  27.923  1.00  0.00     0.049 A 
ATOM     54  H   UNL A   1      42.604  27.902  28.903  1.00  0.00     0.167 HD
ATOM     55  C   UNL A   1      43.681  31.655  30.889  1.00  0.00     0.037 A 
ATOM     56  C   UNL A   1      43.125  25.369  27.849  1.00  0.00     0.037 A 
ATOM     57  C   UNL A   1      44.874  30.853  30.934  1.00  0.00     0.049 A 
ATOM     58  C   UNL A   1      44.415  25.848  28.463  1.00  0.00     0.074 A 
ATOM     59  C   UNL A   1      46.098  31.156  31.504  1.00  0.00     0.029 A 
ATOM     60  N   UNL A   1      44.993  29.584  30.384  1.00  0.00    -0.354 N 
ATOM     61  N   UNL A   1      44.673  26.974  29.082  1.00  0.00    -0.248 NA
ATOM     62  C   UNL A   1      45.563  24.934  28.382  1.00  0.00     0.031 C 
ATOM     63  C   UNL A   1      46.973  30.093  31.254  1.00  0.00     0.029 A 
ATOM     64  C   UNL A   1      46.276  29.099  30.587  1.00  0.00     0.049 A 
ATOM     65  H   UNL A   1      44.273  29.100  29.918  1.00  0.00     0.167 HD
ATOM     66  C   UNL A   1      45.996  26.889  29.497  1.00  0.00     0.074 A 
ATOM     67  C   UNL A   1      46.481  25.593  29.073  1.00  0.00     0.031 C 
ATOM     68  C   UNL A   1      46.742  27.801  30.170  1.00  0.00     0.037 A 
BRANCH  55  69
ATOM     69  C   UNL A   1      43.721  33.035  31.484  1.00  0.00     0.064 A 
ATOM     70  C   UNL A   1      44.002  34.166  30.702  1.00  0.00     0.173 A 
ATOM     71  C   UNL A   1      43.452  33.232  32.846  1.00  0.00     0.173 A 
ATOM     72  F   UNL A   1      44.279  34.034  29.396  1.00  0.00    -0.203 F 
ATOM     73  C   UNL A   1      44.050  35.437  31.269  1.00  0.00     0.198 A 
ATOM     74  C   UNL A   1      43.465  34.509  33.402  1.00  0.00     0.198 A 
ATOM     75  F   UNL A   1      43.173  32.187  33.640  1.00  0.00    -0.203 F 
ATOM     76  F   UNL A   1      44.381  36.494  30.514  1.00  0.00    -0.200 F 
ATOM     77  C   UNL A   1      43.774  35.608  32.616  1.00  0.00     0.200 A 
ATOM     78  F   UNL A   1      43.184  34.675  34.703  1.00  0.00    -0.200 F 
ATOM     79  F   UNL A   1      43.814  36.834  33.160  1.00  0.00    -0.200 F 
ENDBRANCH  55  69
BRANCH  56  80
ATOM     80  C   UNL A   1      43.043  24.029  27.207  1.00  0.00     0.064 A 
ATOM     81  C   UNL A   1      43.378  23.856  25.856  1.00  0.00     0.173 A 
ATOM     82  C   UNL A   1      42.608  22.903  27.918  1.00  0.00     0.173 A 
ATOM     83  F   UNL A   1      43.781  24.906  25.126  1.00  0.00    -0.203 F 
ATOM     84  C   UNL A   1      43.251  22.614  25.234  1.00  0.00     0.198 A 
ATOM     85  C   UNL A   1      42.513  21.655  27.305  1.00  0.00     0.198 A 
ATOM     86  F   UNL A   1      42.281  23.011  29.215  1.00  0.00    -0.203 F 
ATOM     87  F   UNL A   1      43.523  22.492  23.928  1.00  0.00    -0.200 F 
ATOM     88  C   UNL A   1      42.824  21.514  25.960  1.00  0.00     0.200 A 
ATOM     89  F   UNL A   1      42.114  20.590  28.014  1.00  0.00    -0.200 F 
ATOM     90  F   UNL A   1      42.702  20.321  25.364  1.00  0.00    -0.200 F 
ENDBRANCH  56  80
BRANCH  68  91
ATOM     91  C   UNL A   1      48.143  27.405  30.540  1.00  0.00     0.064 A 
ATOM     92  C   UNL A   1      49.240  27.687  29.711  1.00  0.00     0.173 A 
ATOM     93  C   UNL A   1      48.393  26.746  31.754  1.00  0.00     0.173 A 
ATOM     94  F   UNL A   1      49.055  28.305  28.535  1.00  0.00    -0.203 F 
ATOM     95  C   UNL A   1      50.525  27.287  30.064  1.00  0.00     0.198 A 
ATOM     96  C   UNL A   1      49.685  26.380  32.121  1.00  0.00     0.198 A 
ATOM     97  F   UNL A   1      47.383  26.460  32.590  1.00  0.00    -0.203 F 
ATOM     98  F   UNL A   1      51.547  27.509  29.225  1.00  0.00    -0.200 F 
ATOM     99  C   UNL A   1      50.749  26.640  31.270  1.00  0.00     0.200 A 
ATOM    100  F   UNL A   1      49.900  25.772  33.295  1.00  0.00    -0.200 F 
ATOM    101  F   UNL A   1      51.987  26.256  31.608  1.00  0.00    -0.200 F 
ENDBRANCH  68  91
ENDBRANCH  42  43
ENDBRANCH  34  37
ENDBRANCH  32  33
ENDBRANCH  31  32
ENDBRANCH   1  31
TORSDOF 14
ENDMDL
MODEL 3
REMARK VINA RESULT:     -12.8      7.815     15.906
REMARK SMILES Cc1nc[nH]c1C(=O)N1CCC2(CC1)C[C@@H](C(=O)NCCCCNC(=O)c1ccc(-c3c4nc(c(-c5c(F)c(F)c(F)c(F)c5F)c5ccc([nH]5)c(-c5c(F)c(F)c(F)c(F)c5F)c5nc(c(-c6c(F)c(F)c(F)c(F)c6F)c6ccc3[nH]6)C=C5)C=C4)cc1)N(C(=O)C1CC1)C2
REMARK SMILES IDX 21 1 20 2 19 3 17 4 18 5 16 7 7 8 8 9 9 10 10 11 14 12 11 13
REMARK SMILES IDX 13 14 12 15 15 16 96 17 90 18 6 19 1 20 2 21 3 22 4 23 5 24
REMARK SMILES IDX 91 26 92 27 93 28 94 29 95 30 22 31 23 32 24 33 25 34 26 36
REMARK SMILES IDX 27 37 28 38 89 39 29 40 88 41 30 42 31 43 32 44 82 45 33 46
REMARK SMILES IDX 87 47 81 48 83 49 34 50 86 51 80 52 79 53 35 55 67 56 47 57
REMARK SMILES IDX 66 58 48 59 51 60 65 61 84 62 49 63 50 64 64 66 85 67 52 68
REMARK SMILES IDX 36 69 37 70 45 71 38 72 39 73 43 74 46 75 40 76 41 77 44 78
REMARK SMILES IDX 42 79 68 80 69 81 77 82 70 83 71 84 75 85 78 86 72 87 73 88
REMARK SMILES IDX 76 89 74 90 53 91 54 92 62 93 55 94 56 95 60 96 63 97 57 98
REMARK SMILES IDX 58 99 61 100 59 101
REMARK H PARENT 19 6 5 25 24 35 83 54 51 65
REMARK Flexibility Score: inf
ROOT
ATOM      1  C   UNL A   1      48.426  21.132  35.570  1.00  0.00     0.023 C 
ENDROOT
BRANCH   1   2
ATOM      2  C   UNL A   1      48.052  20.256  36.754  1.00  0.00     0.116 C 
BRANCH   2   3
ATOM      3  N   UNL A   1      46.922  19.384  36.601  1.00  0.00    -0.354 N 
ATOM      4  C   UNL A   1      46.165  18.836  37.608  1.00  0.00     0.242 C 
ATOM      5  O   UNL A   1      44.962  18.691  37.364  1.00  0.00    -0.273 OA
ATOM      6  H   UNL A   1      46.664  19.155  35.679  1.00  0.00     0.163 HD
BRANCH   4   7
ATOM      7  C   UNL A   1      46.718  18.551  39.042  1.00  0.00     0.175 C 
ATOM      8  C   UNL A   1      43.212  14.940  43.594  1.00  0.00     0.272 C 
ATOM      9  O   UNL A   1      43.188  15.200  44.797  1.00  0.00    -0.267 OA
ATOM     10  N   UNL A   1      43.877  15.770  42.706  1.00  0.00    -0.337 N 
ATOM     11  C   UNL A   1      45.069  16.465  43.161  1.00  0.00     0.120 C 
ATOM     12  C   UNL A   1      43.230  16.329  41.535  1.00  0.00     0.120 C 
ATOM     13  C   UNL A   1      46.107  16.496  42.027  1.00  0.00     0.030 C 
ATOM     14  C   UNL A   1      44.229  16.452  40.394  1.00  0.00     0.030 C 
ATOM     15  C   UNL A   1      45.540  17.203  40.766  1.00  0.00    -0.006 C 
ATOM     16  C   UNL A   1      46.511  17.127  39.558  1.00  0.00     0.044 C 
ATOM     17  C   UNL A   1      45.425  18.715  41.081  1.00  0.00     0.127 C 
ATOM     18  N   UNL A   1      46.222  19.427  40.097  1.00  0.00    -0.330 N 
BRANCH   8  19
ATOM     19  C   UNL A   1      42.630  13.713  43.095  1.00  0.00     0.127 A 
ATOM     20  C   UNL A   1      43.701  11.639  44.275  1.00  0.00     0.069 C 
ATOM     21  C   UNL A   1      42.791  12.357  43.359  1.00  0.00     0.068 A 
ATOM     22  N   UNL A   1      41.859  11.611  42.670  1.00  0.00    -0.241 NA
ATOM     23  C   UNL A   1      41.105  12.476  42.042  1.00  0.00     0.197 A 
ATOM     24  N   UNL A   1      41.542  13.747  42.246  1.00  0.00    -0.340 N 
ATOM     25  H   UNL A   1      41.147  14.559  41.852  1.00  0.00     0.168 HD
ENDBRANCH   8  19
BRANCH  18  26
ATOM     26  C   UNL A   1      46.742  20.714  40.147  1.00  0.00     0.226 C 
ATOM     27  O   UNL A   1      47.929  20.903  40.377  1.00  0.00    -0.275 OA
BRANCH  26  28
ATOM     28  C   UNL A   1      45.925  21.933  39.894  1.00  0.00     0.079 C 
ATOM     29  C   UNL A   1      46.351  23.347  39.642  1.00  0.00     0.014 C 
ATOM     30  C   UNL A   1      45.806  22.521  38.510  1.00  0.00     0.014 C 
ENDBRANCH  26  28
ENDBRANCH  18  26
ENDBRANCH   4   7
ENDBRANCH   2   3
ENDBRANCH   1   2
BRANCH   1  31
ATOM     31  C   UNL A   1      47.239  21.782  34.871  1.00  0.00     0.023 C 
BRANCH  31  32
ATOM     32  C   UNL A   1      47.245  23.309  34.821  1.00  0.00     0.116 C 
BRANCH  32  33
ATOM     33  N   UNL A   1      47.867  23.958  35.967  1.00  0.00    -0.352 N 
ATOM     34  C   UNL A   1      47.560  25.187  36.512  1.00  0.00     0.251 C 
ATOM     35  H   UNL A   1      48.595  23.459  36.404  1.00  0.00     0.163 HD
ATOM     36  O   UNL A   1      48.213  25.638  37.446  1.00  0.00    -0.269 OA
BRANCH  34  37
ATOM     37  C   UNL A   1      46.459  25.978  35.917  1.00  0.00     0.039 A 
ATOM     38  C   UNL A   1      46.769  27.106  35.155  1.00  0.00     0.014 A 
ATOM     39  C   UNL A   1      45.135  25.552  36.042  1.00  0.00     0.014 A 
ATOM     40  C   UNL A   1      45.754  27.762  34.454  1.00  0.00     0.010 A 
ATOM     41  C   UNL A   1      44.145  26.146  35.265  1.00  0.00     0.010 A 
ATOM     42  C   UNL A   1      44.441  27.263  34.469  1.00  0.00    -0.014 A 
BRANCH  42  43
ATOM     43  C   UNL A   1      43.362  27.913  33.678  1.00  0.00     0.031 A 
ATOM     44  C   UNL A   1      43.186  27.571  32.222  1.00  0.00     0.074 A 
ATOM     45  C   UNL A   1      42.570  28.841  34.250  1.00  0.00     0.049 A 
ATOM     46  N   UNL A   1      42.323  28.042  31.357  1.00  0.00    -0.248 NA
ATOM     47  C   UNL A   1      44.128  26.594  31.654  1.00  0.00     0.031 C 
ATOM     48  C   UNL A   1      42.675  29.309  35.633  1.00  0.00     0.029 A 
ATOM     49  N   UNL A   1      41.519  29.561  33.738  1.00  0.00    -0.354 N 
ATOM     50  C   UNL A   1      42.625  27.426  30.149  1.00  0.00     0.074 A 
ATOM     51  C   UNL A   1      43.797  26.608  30.372  1.00  0.00     0.031 C 
ATOM     52  C   UNL A   1      41.705  30.206  35.870  1.00  0.00     0.029 A 
ATOM     53  C   UNL A   1      40.930  30.406  34.649  1.00  0.00     0.049 A 
ATOM     54  H   UNL A   1      41.214  29.479  32.806  1.00  0.00     0.167 HD
ATOM     55  C   UNL A   1      41.967  27.506  28.968  1.00  0.00     0.037 A 
ATOM     56  C   UNL A   1      39.883  31.242  34.514  1.00  0.00     0.037 A 
ATOM     57  C   UNL A   1      40.789  28.303  28.752  1.00  0.00     0.049 A 
ATOM     58  C   UNL A   1      39.167  31.311  33.190  1.00  0.00     0.074 A 
ATOM     59  C   UNL A   1      40.019  28.416  27.608  1.00  0.00     0.029 A 
ATOM     60  N   UNL A   1      40.210  29.128  29.707  1.00  0.00    -0.354 N 
ATOM     61  N   UNL A   1      39.414  30.665  32.077  1.00  0.00    -0.248 NA
ATOM     62  C   UNL A   1      38.011  32.214  33.112  1.00  0.00     0.031 C 
ATOM     63  C   UNL A   1      39.005  29.348  27.853  1.00  0.00     0.029 A 
ATOM     64  C   UNL A   1      39.102  29.767  29.171  1.00  0.00     0.049 A 
ATOM     65  H   UNL A   1      40.538  29.244  30.628  1.00  0.00     0.167 HD
ATOM     66  C   UNL A   1      38.427  31.053  31.180  1.00  0.00     0.074 A 
ATOM     67  C   UNL A   1      37.566  31.978  31.886  1.00  0.00     0.031 C 
ATOM     68  C   UNL A   1      38.247  30.676  29.890  1.00  0.00     0.037 A 
BRANCH  55  69
ATOM     69  C   UNL A   1      42.508  26.700  27.819  1.00  0.00     0.064 A 
ATOM     70  C   UNL A   1      42.079  25.386  27.576  1.00  0.00     0.173 A 
ATOM     71  C   UNL A   1      43.448  27.255  26.939  1.00  0.00     0.173 A 
ATOM     72  F   UNL A   1      41.191  24.802  28.394  1.00  0.00    -0.203 F 
ATOM     73  C   UNL A   1      42.599  24.646  26.517  1.00  0.00     0.198 A 
ATOM     74  C   UNL A   1      43.939  26.524  25.860  1.00  0.00     0.198 A 
ATOM     75  F   UNL A   1      43.890  28.508  27.122  1.00  0.00    -0.203 F 
ATOM     76  F   UNL A   1      42.219  23.373  26.342  1.00  0.00    -0.200 F 
ATOM     77  C   UNL A   1      43.522  25.218  25.656  1.00  0.00     0.200 A 
ATOM     78  F   UNL A   1      44.821  27.083  25.019  1.00  0.00    -0.200 F 
ATOM     79  F   UNL A   1      44.017  24.506  24.632  1.00  0.00    -0.200 F 
ENDBRANCH  55  69
BRANCH  56  80
ATOM     80  C   UNL A   1      39.417  32.053  35.671  1.00  0.00     0.064 A 
ATOM     81  C   UNL A   1      38.464  31.548  36.568  1.00  0.00     0.173 A 
ATOM     82  C   UNL A   1      39.892  33.353  35.891  1.00  0.00     0.173 A 
ATOM     83  F   UNL A   1      37.963  30.317  36.390  1.00  0.00    -0.203 F 
ATOM     84  C   UNL A   1      37.984  32.323  37.623  1.00  0.00     0.198 A 
ATOM     85  C   UNL A   1      39.436  34.116  36.965  1.00  0.00     0.198 A 
ATOM     86  F   UNL A   1      40.808  33.883  35.067  1.00  0.00    -0.203 F 
ATOM     87  F   UNL A   1      37.031  31.835  38.430  1.00  0.00    -0.200 F 
ATOM     88  C   UNL A   1      38.474  33.604  37.824  1.00  0.00     0.200 A 
ATOM     89  F   UNL A   1      39.923  35.347  37.165  1.00  0.00    -0.200 F 
ATOM     90  F   UNL A   1      38.012  34.349  38.837  1.00  0.00    -0.200 F 
ENDBRANCH  56  80
BRANCH  68  91
ATOM     91  C   UNL A   1      37.042  31.220  29.176  1.00  0.00     0.064 A 
ATOM     92  C   UNL A   1      36.978  32.548  28.729  1.00  0.00     0.173 A 
ATOM     93  C   UNL A   1      35.939  30.389  28.921  1.00  0.00     0.173 A 
ATOM     94  F   UNL A   1      37.999  33.387  28.957  1.00  0.00    -0.203 F 
ATOM     95  C   UNL A   1      35.839  33.035  28.093  1.00  0.00     0.198 A 
ATOM     96  C   UNL A   1      34.817  30.870  28.251  1.00  0.00     0.198 A 
ATOM     97  F   UNL A   1      35.950  29.107  29.316  1.00  0.00    -0.203 F 
ATOM     98  F   UNL A   1      35.776  34.325  27.735  1.00  0.00    -0.200 F 
ATOM     99  C   UNL A   1      34.763  32.196  27.849  1.00  0.00     0.200 A 
ATOM    100  F   UNL A   1      33.786  30.051  28.001  1.00  0.00    -0.200 F 
ATOM    101  F   UNL A   1      33.668  32.667  27.236  1.00  0.00    -0.200 F 
ENDBRANCH  68  91
ENDBRANCH  42  43
ENDBRANCH  34  37
ENDBRANCH  32  33
ENDBRANCH  31  32
ENDBRANCH   1  31
TORSDOF 14
ENDMDL
