MODEL 1
REMARK VINA RESULT:     -13.3      0.000      0.000
REMARK SMILES O=C(NCCCCNC(=O)c1ccc(-c2c3nc(c(-c4c(F)c(F)c(F)c(F)c4F)c4ccc([nH]4)c(-c4c(F)c(F)c(F)c(F)c4F)c4nc(c(-c5c(F)c(F)c(F)c(F)c5F)c5ccc2[nH]5)C=C4)C=C3)cc1)C1=Cc2cc(OC(F)(F)F)ccc2O[C@@H]1C(F)(F)F
REMARK SMILES IDX 5 1 4 2 3 3 1 4 2 5 74 7 75 8 88 9 76 10 87 11 77 12 86 13
REMARK SMILES IDX 78 14 85 15 84 16 89 17 90 18 91 19 92 20 79 21 80 22 81 23
REMARK SMILES IDX 82 24 83 25 6 26 7 27 8 28 9 29 10 31 11 32 12 33 73 34
REMARK SMILES IDX 13 35 72 36 14 37 15 38 16 39 66 40 17 41 71 42 65 43 67 44
REMARK SMILES IDX 18 45 70 46 64 47 63 48 19 50 51 51 31 52 50 53 32 54 35 55
REMARK SMILES IDX 49 56 68 57 33 58 34 59 48 61 69 62 36 63 20 64 21 65 29 66
REMARK SMILES IDX 22 67 23 68 27 69 30 70 24 71 25 72 28 73 26 74 52 75 53 76
REMARK SMILES IDX 61 77 54 78 55 79 59 80 62 81 56 82 57 83 60 84 58 85 37 86
REMARK SMILES IDX 38 87 46 88 39 89 40 90 44 91 47 92 41 93 42 94 45 95 43 96
REMARK H PARENT 3 6 8 30 67 49 35 60
REMARK Flexibility Score: inf
ROOT
ATOM      1  C   UNL A   1      32.102  29.496  27.300  1.00  0.00     0.023 C 
ENDROOT
BRANCH   1   2
ATOM      2  C   UNL A   1      31.819  28.405  26.266  1.00  0.00     0.116 C 
BRANCH   2   3
ATOM      3  N   UNL A   1      31.433  27.123  26.865  1.00  0.00    -0.352 N 
ATOM      4  O   UNL A   1      31.012  24.893  26.875  1.00  0.00    -0.270 OA
ATOM      5  C   UNL A   1      31.043  25.950  26.261  1.00  0.00     0.251 C 
ATOM      6  H   UNL A   1      31.458  27.098  27.849  1.00  0.00     0.163 HD
BRANCH   5   7
ATOM      7  C   UNL A   1      30.739  26.004  24.821  1.00  0.00     0.067 C 
ATOM      8  C   UNL A   1      29.564  26.539  24.464  1.00  0.00     0.025 C 
ATOM      9  C   UNL A   1      31.877  25.825  23.864  1.00  0.00     0.314 C 
ATOM     10  C   UNL A   1      29.671  27.477  23.340  1.00  0.00     0.021 A 
ATOM     11  O   UNL A   1      32.059  26.996  23.026  1.00  0.00    -0.475 OA
ATOM     12  C   UNL A   1      28.620  28.377  23.142  1.00  0.00     0.058 A 
ATOM     13  C   UNL A   1      30.936  27.750  22.785  1.00  0.00     0.128 A 
ATOM     14  C   UNL A   1      28.865  29.595  22.508  1.00  0.00     0.130 A 
ATOM     15  C   UNL A   1      31.154  28.939  22.091  1.00  0.00     0.051 A 
ATOM     16  C   UNL A   1      30.124  29.874  21.973  1.00  0.00     0.050 A 
BRANCH   9  17
ATOM     17  C   UNL A   1      31.726  24.555  23.009  1.00  0.00     0.429 C 
ATOM     18  F   UNL A   1      32.612  23.603  23.396  1.00  0.00    -0.167 F 
ATOM     19  F   UNL A   1      30.494  24.010  23.126  1.00  0.00    -0.167 F 
ATOM     20  F   UNL A   1      31.940  24.786  21.692  1.00  0.00    -0.167 F 
ENDBRANCH   9  17
BRANCH  14  21
ATOM     21  O   UNL A   1      27.823  30.479  22.467  1.00  0.00    -0.406 OA
BRANCH  21  22
ATOM     22  C   UNL A   1      27.974  31.561  23.386  1.00  0.00     0.573 C 
ATOM     23  F   UNL A   1      29.086  31.394  24.140  1.00  0.00    -0.132 F 
ATOM     24  F   UNL A   1      28.028  32.735  22.727  1.00  0.00    -0.132 F 
ATOM     25  F   UNL A   1      26.903  31.576  24.209  1.00  0.00    -0.132 F 
ENDBRANCH  21  22
ENDBRANCH  14  21
ENDBRANCH   5   7
ENDBRANCH   2   3
ENDBRANCH   1   2
BRANCH   1  26
ATOM     26  C   UNL A   1      32.439  30.857  26.687  1.00  0.00     0.023 C 
BRANCH  26  27
ATOM     27  C   UNL A   1      33.206  31.839  27.573  1.00  0.00     0.116 C 
BRANCH  27  28
ATOM     28  N   UNL A   1      32.647  33.182  27.628  1.00  0.00    -0.352 N 
ATOM     29  C   UNL A   1      33.099  34.276  28.335  1.00  0.00     0.251 C 
ATOM     30  H   UNL A   1      31.837  33.329  27.088  1.00  0.00     0.163 HD
ATOM     31  O   UNL A   1      32.511  35.352  28.276  1.00  0.00    -0.269 OA
BRANCH  29  32
ATOM     32  C   UNL A   1      34.257  34.121  29.239  1.00  0.00     0.039 A 
ATOM     33  C   UNL A   1      34.042  33.555  30.500  1.00  0.00     0.014 A 
ATOM     34  C   UNL A   1      35.552  34.407  28.802  1.00  0.00     0.014 A 
ATOM     35  C   UNL A   1      35.135  33.147  31.266  1.00  0.00     0.010 A 
ATOM     36  C   UNL A   1      36.638  33.937  29.534  1.00  0.00     0.010 A 
ATOM     37  C   UNL A   1      36.436  33.267  30.751  1.00  0.00    -0.014 A 
BRANCH  37  38
ATOM     38  C   UNL A   1      37.586  32.608  31.421  1.00  0.00     0.031 A 
ATOM     39  C   UNL A   1      38.271  31.438  30.786  1.00  0.00     0.074 A 
ATOM     40  C   UNL A   1      37.934  33.006  32.661  1.00  0.00     0.049 A 
ATOM     41  N   UNL A   1      39.227  30.681  31.262  1.00  0.00    -0.248 NA
ATOM     42  C   UNL A   1      37.800  31.048  29.449  1.00  0.00     0.031 C 
ATOM     43  C   UNL A   1      37.292  34.085  33.414  1.00  0.00     0.029 A 
ATOM     44  N   UNL A   1      38.901  32.536  33.515  1.00  0.00    -0.354 N 
ATOM     45  C   UNL A   1      39.463  29.719  30.292  1.00  0.00     0.074 A 
ATOM     46  C   UNL A   1      38.516  29.957  29.222  1.00  0.00     0.031 C 
ATOM     47  C   UNL A   1      37.888  34.203  34.611  1.00  0.00     0.029 A 
ATOM     48  C   UNL A   1      38.930  33.187  34.724  1.00  0.00     0.049 A 
ATOM     49  H   UNL A   1      39.514  31.802  33.284  1.00  0.00     0.167 HD
ATOM     50  C   UNL A   1      40.399  28.740  30.285  1.00  0.00     0.037 A 
ATOM     51  C   UNL A   1      39.702  32.983  35.808  1.00  0.00     0.037 A 
ATOM     52  C   UNL A   1      41.349  28.520  31.343  1.00  0.00     0.049 A 
ATOM     53  C   UNL A   1      40.739  31.897  35.776  1.00  0.00     0.074 A 
ATOM     54  C   UNL A   1      42.389  27.610  31.396  1.00  0.00     0.029 A 
ATOM     55  N   UNL A   1      41.365  29.215  32.545  1.00  0.00    -0.354 N 
ATOM     56  N   UNL A   1      41.011  31.046  34.817  1.00  0.00    -0.248 NA
ATOM     57  C   UNL A   1      41.578  31.744  36.972  1.00  0.00     0.031 C 
ATOM     58  C   UNL A   1      43.011  27.727  32.645  1.00  0.00     0.029 A 
ATOM     59  C   UNL A   1      42.381  28.735  33.356  1.00  0.00     0.049 A 
ATOM     60  H   UNL A   1      40.748  29.943  32.784  1.00  0.00     0.167 HD
ATOM     61  C   UNL A   1      42.052  30.260  35.287  1.00  0.00     0.074 A 
ATOM     62  C   UNL A   1      42.380  30.750  36.611  1.00  0.00     0.031 C 
ATOM     63  C   UNL A   1      42.679  29.223  34.679  1.00  0.00     0.037 A 
BRANCH  50  64
ATOM     64  C   UNL A   1      40.433  27.837  29.088  1.00  0.00     0.064 A 
ATOM     65  C   UNL A   1      41.221  28.136  27.966  1.00  0.00     0.173 A 
ATOM     66  C   UNL A   1      39.669  26.661  29.060  1.00  0.00     0.173 A 
ATOM     67  F   UNL A   1      41.960  29.255  27.940  1.00  0.00    -0.203 F 
ATOM     68  C   UNL A   1      41.213  27.311  26.844  1.00  0.00     0.198 A 
ATOM     69  C   UNL A   1      39.684  25.824  27.946  1.00  0.00     0.198 A 
ATOM     70  F   UNL A   1      38.900  26.328  30.108  1.00  0.00    -0.203 F 
ATOM     71  F   UNL A   1      41.927  27.649  25.762  1.00  0.00    -0.200 F 
ATOM     72  C   UNL A   1      40.447  26.156  26.836  1.00  0.00     0.200 A 
ATOM     73  F   UNL A   1      38.950  24.703  27.942  1.00  0.00    -0.200 F 
ATOM     74  F   UNL A   1      40.434  25.366  25.753  1.00  0.00    -0.200 F 
ENDBRANCH  50  64
BRANCH  51  75
ATOM     75  C   UNL A   1      39.526  33.843  37.006  1.00  0.00     0.064 A 
ATOM     76  C   UNL A   1      38.722  33.427  38.077  1.00  0.00     0.173 A 
ATOM     77  C   UNL A   1      40.181  35.077  37.119  1.00  0.00     0.173 A 
ATOM     78  F   UNL A   1      38.062  32.263  38.005  1.00  0.00    -0.203 F 
ATOM     79  C   UNL A   1      38.576  34.218  39.215  1.00  0.00     0.198 A 
ATOM     80  C   UNL A   1      40.052  35.857  38.267  1.00  0.00     0.198 A 
ATOM     81  F   UNL A   1      40.965  35.514  36.123  1.00  0.00    -0.203 F 
ATOM     82  F   UNL A   1      37.784  33.809  40.214  1.00  0.00    -0.200 F 
ATOM     83  C   UNL A   1      39.249  35.428  39.312  1.00  0.00     0.200 A 
ATOM     84  F   UNL A   1      40.713  37.018  38.363  1.00  0.00    -0.200 F 
ATOM     85  F   UNL A   1      39.118  36.182  40.413  1.00  0.00    -0.200 F 
ENDBRANCH  51  75
BRANCH  63  86
ATOM     86  C   UNL A   1      43.774  28.544  35.445  1.00  0.00     0.064 A 
ATOM     87  C   UNL A   1      45.111  28.952  35.319  1.00  0.00     0.173 A 
ATOM     88  C   UNL A   1      43.482  27.507  36.343  1.00  0.00     0.173 A 
ATOM     89  F   UNL A   1      45.440  29.927  34.460  1.00  0.00    -0.203 F 
ATOM     90  C   UNL A   1      46.118  28.332  36.054  1.00  0.00     0.198 A 
ATOM     91  C   UNL A   1      44.489  26.906  37.094  1.00  0.00     0.198 A 
ATOM     92  F   UNL A   1      42.219  27.084  36.499  1.00  0.00    -0.203 F 
ATOM     93  F   UNL A   1      47.393  28.713  35.891  1.00  0.00    -0.200 F 
ATOM     94  C   UNL A   1      45.806  27.317  36.945  1.00  0.00     0.200 A 
ATOM     95  F   UNL A   1      44.186  25.931  37.961  1.00  0.00    -0.200 F 
ATOM     96  F   UNL A   1      46.776  26.727  37.658  1.00  0.00    -0.200 F 
ENDBRANCH  63  86
ENDBRANCH  37  38
ENDBRANCH  29  32
ENDBRANCH  27  28
ENDBRANCH  26  27
ENDBRANCH   1  26
TORSDOF 14
ENDMDL
MODEL 2
REMARK VINA RESULT:     -13.2      1.564      7.414
REMARK SMILES O=C(NCCCCNC(=O)c1ccc(-c2c3nc(c(-c4c(F)c(F)c(F)c(F)c4F)c4ccc([nH]4)c(-c4c(F)c(F)c(F)c(F)c4F)c4nc(c(-c5c(F)c(F)c(F)c(F)c5F)c5ccc2[nH]5)C=C4)C=C3)cc1)C1=Cc2cc(OC(F)(F)F)ccc2O[C@@H]1C(F)(F)F
REMARK SMILES IDX 5 1 4 2 3 3 1 4 2 5 74 7 75 8 88 9 76 10 87 11 77 12 86 13
REMARK SMILES IDX 78 14 85 15 84 16 89 17 90 18 91 19 92 20 79 21 80 22 81 23
REMARK SMILES IDX 82 24 83 25 6 26 7 27 8 28 9 29 10 31 11 32 12 33 73 34
REMARK SMILES IDX 13 35 72 36 14 37 15 38 16 39 66 40 17 41 71 42 65 43 67 44
REMARK SMILES IDX 18 45 70 46 64 47 63 48 19 50 51 51 31 52 50 53 32 54 35 55
REMARK SMILES IDX 49 56 68 57 33 58 34 59 48 61 69 62 36 63 20 64 21 65 29 66
REMARK SMILES IDX 22 67 23 68 27 69 30 70 24 71 25 72 28 73 26 74 52 75 53 76
REMARK SMILES IDX 61 77 54 78 55 79 59 80 62 81 56 82 57 83 60 84 58 85 37 86
REMARK SMILES IDX 38 87 46 88 39 89 40 90 44 91 47 92 41 93 42 94 45 95 43 96
REMARK H PARENT 3 6 8 30 67 49 35 60
REMARK Flexibility Score: inf
ROOT
ATOM      1  C   UNL A   1      31.839  28.677  27.446  1.00  0.00     0.023 C 
ENDROOT
BRANCH   1   2
ATOM      2  C   UNL A   1      31.949  27.419  26.583  1.00  0.00     0.116 C 
BRANCH   2   3
ATOM      3  N   UNL A   1      31.045  26.344  27.004  1.00  0.00    -0.352 N 
ATOM      4  O   UNL A   1      29.885  24.409  26.761  1.00  0.00    -0.270 OA
ATOM      5  C   UNL A   1      30.387  25.400  26.250  1.00  0.00     0.251 C 
ATOM      6  H   UNL A   1      30.887  26.289  27.974  1.00  0.00     0.163 HD
BRANCH   5   7
ATOM      7  C   UNL A   1      30.377  25.592  24.790  1.00  0.00     0.067 C 
ATOM      8  C   UNL A   1      29.357  26.288  24.272  1.00  0.00     0.025 C 
ATOM      9  C   UNL A   1      31.656  25.348  24.049  1.00  0.00     0.314 C 
ATOM     10  C   UNL A   1      29.779  27.284  23.280  1.00  0.00     0.021 A 
ATOM     11  O   UNL A   1      32.118  26.545  23.373  1.00  0.00    -0.475 OA
ATOM     12  C   UNL A   1      28.886  28.315  22.973  1.00  0.00     0.058 A 
ATOM     13  C   UNL A   1      31.149  27.444  22.998  1.00  0.00     0.128 A 
ATOM     14  C   UNL A   1      29.374  29.538  22.512  1.00  0.00     0.130 A 
ATOM     15  C   UNL A   1      31.620  28.645  22.471  1.00  0.00     0.051 A 
ATOM     16  C   UNL A   1      30.735  29.702  22.250  1.00  0.00     0.050 A 
BRANCH   9  17
ATOM     17  C   UNL A   1      31.545  24.170  23.067  1.00  0.00     0.429 C 
ATOM     18  F   UNL A   1      32.157  23.065  23.565  1.00  0.00    -0.167 F 
ATOM     19  F   UNL A   1      30.258  23.827  22.830  1.00  0.00    -0.167 F 
ATOM     20  F   UNL A   1      32.118  24.435  21.869  1.00  0.00    -0.167 F 
ENDBRANCH   9  17
BRANCH  14  21
ATOM     21  O   UNL A   1      28.457  30.540  22.360  1.00  0.00    -0.406 OA
BRANCH  21  22
ATOM     22  C   UNL A   1      28.308  31.341  23.532  1.00  0.00     0.573 C 
ATOM     23  F   UNL A   1      27.250  30.921  24.264  1.00  0.00    -0.132 F 
ATOM     24  F   UNL A   1      29.432  31.306  24.274  1.00  0.00    -0.132 F 
ATOM     25  F   UNL A   1      28.080  32.617  23.152  1.00  0.00    -0.132 F 
ENDBRANCH  21  22
ENDBRANCH  14  21
ENDBRANCH   5   7
ENDBRANCH   2   3
ENDBRANCH   1   2
BRANCH   1  26
ATOM     26  C   UNL A   1      31.474  29.937  26.659  1.00  0.00     0.023 C 
BRANCH  26  27
ATOM     27  C   UNL A   1      32.623  30.876  26.292  1.00  0.00     0.116 C 
BRANCH  27  28
ATOM     28  N   UNL A   1      32.577  32.182  26.932  1.00  0.00    -0.352 N 
ATOM     29  C   UNL A   1      33.551  32.813  27.677  1.00  0.00     0.251 C 
ATOM     30  H   UNL A   1      31.737  32.684  26.818  1.00  0.00     0.163 HD
ATOM     31  O   UNL A   1      33.357  33.927  28.155  1.00  0.00    -0.269 OA
BRANCH  29  32
ATOM     32  C   UNL A   1      34.808  32.097  27.972  1.00  0.00     0.039 A 
ATOM     33  C   UNL A   1      35.979  32.847  28.123  1.00  0.00     0.014 A 
ATOM     34  C   UNL A   1      34.809  30.723  28.226  1.00  0.00     0.014 A 
ATOM     35  C   UNL A   1      37.116  32.246  28.663  1.00  0.00     0.010 A 
ATOM     36  C   UNL A   1      35.921  30.142  28.828  1.00  0.00     0.010 A 
ATOM     37  C   UNL A   1      37.068  30.909  29.089  1.00  0.00    -0.014 A 
BRANCH  37  38
ATOM     38  C   UNL A   1      38.167  30.326  29.900  1.00  0.00     0.031 A 
ATOM     39  C   UNL A   1      38.387  30.765  31.315  1.00  0.00     0.074 A 
ATOM     40  C   UNL A   1      39.035  29.479  29.311  1.00  0.00     0.049 A 
ATOM     41  N   UNL A   1      39.347  30.438  32.142  1.00  0.00    -0.248 NA
ATOM     42  C   UNL A   1      37.416  31.722  31.864  1.00  0.00     0.031 C 
ATOM     43  C   UNL A   1      38.968  29.035  27.917  1.00  0.00     0.029 A 
ATOM     44  N   UNL A   1      40.154  28.856  29.804  1.00  0.00    -0.354 N 
ATOM     45  C   UNL A   1      39.103  31.156  33.303  1.00  0.00     0.074 A 
ATOM     46  C   UNL A   1      37.934  31.975  33.056  1.00  0.00     0.031 C 
ATOM     47  C   UNL A   1      39.992  28.203  27.670  1.00  0.00     0.029 A 
ATOM     48  C   UNL A   1      40.806  28.081  28.876  1.00  0.00     0.049 A 
ATOM     49  H   UNL A   1      40.461  28.953  30.734  1.00  0.00     0.167 HD
ATOM     50  C   UNL A   1      39.781  31.119  34.475  1.00  0.00     0.037 A 
ATOM     51  C   UNL A   1      41.940  27.362  28.979  1.00  0.00     0.037 A 
ATOM     52  C   UNL A   1      40.931  30.291  34.721  1.00  0.00     0.049 A 
ATOM     53  C   UNL A   1      42.670  27.329  30.290  1.00  0.00     0.074 A 
ATOM     54  C   UNL A   1      41.637  30.119  35.898  1.00  0.00     0.029 A 
ATOM     55  N   UNL A   1      41.551  29.500  33.763  1.00  0.00    -0.354 N 
ATOM     56  N   UNL A   1      42.382  27.948  31.410  1.00  0.00    -0.248 NA
ATOM     57  C   UNL A   1      43.880  26.498  30.356  1.00  0.00     0.031 C 
ATOM     58  C   UNL A   1      42.709  29.254  35.643  1.00  0.00     0.029 A 
ATOM     59  C   UNL A   1      42.649  28.859  34.316  1.00  0.00     0.049 A 
ATOM     60  H   UNL A   1      41.254  29.406  32.829  1.00  0.00     0.167 HD
ATOM     61  C   UNL A   1      43.367  27.579  32.314  1.00  0.00     0.074 A 
ATOM     62  C   UNL A   1      44.250  26.665  31.619  1.00  0.00     0.031 C 
ATOM     63  C   UNL A   1      43.528  27.967  33.603  1.00  0.00     0.037 A 
BRANCH  50  64
ATOM     64  C   UNL A   1      39.284  32.007  35.578  1.00  0.00     0.064 A 
ATOM     65  C   UNL A   1      39.692  33.346  35.681  1.00  0.00     0.173 A 
ATOM     66  C   UNL A   1      38.394  31.515  36.543  1.00  0.00     0.173 A 
ATOM     67  F   UNL A   1      40.553  33.860  34.790  1.00  0.00    -0.203 F 
ATOM     68  C   UNL A   1      39.257  34.149  36.733  1.00  0.00     0.198 A 
ATOM     69  C   UNL A   1      37.938  32.329  37.578  1.00  0.00     0.198 A 
ATOM     70  F   UNL A   1      37.971  30.243  36.488  1.00  0.00    -0.203 F 
ATOM     71  F   UNL A   1      39.707  35.406  36.844  1.00  0.00    -0.200 F 
ATOM     72  C   UNL A   1      38.379  33.641  37.678  1.00  0.00     0.200 A 
ATOM     73  F   UNL A   1      37.084  31.840  38.487  1.00  0.00    -0.200 F 
ATOM     74  F   UNL A   1      37.966  34.412  38.693  1.00  0.00    -0.200 F 
ENDBRANCH  50  64
BRANCH  51  75
ATOM     75  C   UNL A   1      42.436  26.604  27.802  1.00  0.00     0.064 A 
ATOM     76  C   UNL A   1      41.979  25.305  27.539  1.00  0.00     0.173 A 
ATOM     77  C   UNL A   1      43.347  27.172  26.901  1.00  0.00     0.173 A 
ATOM     78  F   UNL A   1      41.121  24.714  28.384  1.00  0.00    -0.203 F 
ATOM     79  C   UNL A   1      42.420  24.601  26.421  1.00  0.00     0.198 A 
ATOM     80  C   UNL A   1      43.770  26.476  25.771  1.00  0.00     0.198 A 
ATOM     81  F   UNL A   1      43.808  28.415  27.107  1.00  0.00    -0.203 F 
ATOM     82  F   UNL A   1      41.986  23.352  26.205  1.00  0.00    -0.200 F 
ATOM     83  C   UNL A   1      43.308  25.190  25.533  1.00  0.00     0.200 A 
ATOM     84  F   UNL A   1      44.618  27.053  24.909  1.00  0.00    -0.200 F 
ATOM     85  F   UNL A   1      43.722  24.517  24.450  1.00  0.00    -0.200 F 
ENDBRANCH  51  75
BRANCH  63  86
ATOM     86  C   UNL A   1      44.708  27.410  34.340  1.00  0.00     0.064 A 
ATOM     87  C   UNL A   1      44.633  26.179  35.009  1.00  0.00     0.173 A 
ATOM     88  C   UNL A   1      45.934  28.090  34.345  1.00  0.00     0.173 A 
ATOM     89  F   UNL A   1      43.476  25.502  35.047  1.00  0.00    -0.203 F 
ATOM     90  C   UNL A   1      45.742  25.657  35.670  1.00  0.00     0.198 A 
ATOM     91  C   UNL A   1      47.048  27.553  34.986  1.00  0.00     0.198 A 
ATOM     92  F   UNL A   1      46.056  29.269  33.718  1.00  0.00    -0.203 F 
ATOM     93  F   UNL A   1      45.639  24.497  36.333  1.00  0.00    -0.200 F 
ATOM     94  C   UNL A   1      46.949  26.340  35.651  1.00  0.00     0.200 A 
ATOM     95  F   UNL A   1      48.215  28.209  34.961  1.00  0.00    -0.200 F 
ATOM     96  F   UNL A   1      48.017  25.832  36.281  1.00  0.00    -0.200 F 
ENDBRANCH  63  86
ENDBRANCH  37  38
ENDBRANCH  29  32
ENDBRANCH  27  28
ENDBRANCH  26  27
ENDBRANCH   1  26
TORSDOF 14
ENDMDL
MODEL 3
REMARK VINA RESULT:     -13.2      6.100     11.559
REMARK SMILES O=C(NCCCCNC(=O)c1ccc(-c2c3nc(c(-c4c(F)c(F)c(F)c(F)c4F)c4ccc([nH]4)c(-c4c(F)c(F)c(F)c(F)c4F)c4nc(c(-c5c(F)c(F)c(F)c(F)c5F)c5ccc2[nH]5)C=C4)C=C3)cc1)C1=Cc2cc(OC(F)(F)F)ccc2O[C@@H]1C(F)(F)F
REMARK SMILES IDX 5 1 4 2 3 3 1 4 2 5 74 7 75 8 88 9 76 10 87 11 77 12 86 13
REMARK SMILES IDX 78 14 85 15 84 16 89 17 90 18 91 19 92 20 79 21 80 22 81 23
REMARK SMILES IDX 82 24 83 25 6 26 7 27 8 28 9 29 10 31 11 32 12 33 73 34
REMARK SMILES IDX 13 35 72 36 14 37 15 38 16 39 66 40 17 41 71 42 65 43 67 44
REMARK SMILES IDX 18 45 70 46 64 47 63 48 19 50 51 51 31 52 50 53 32 54 35 55
REMARK SMILES IDX 49 56 68 57 33 58 34 59 48 61 69 62 36 63 20 64 21 65 29 66
REMARK SMILES IDX 22 67 23 68 27 69 30 70 24 71 25 72 28 73 26 74 52 75 53 76
REMARK SMILES IDX 61 77 54 78 55 79 59 80 62 81 56 82 57 83 60 84 58 85 37 86
REMARK SMILES IDX 38 87 46 88 39 89 40 90 44 91 47 92 41 93 42 94 45 95 43 96
REMARK H PARENT 3 6 8 30 67 49 35 60
REMARK Flexibility Score: inf
ROOT
ATOM      1  C   UNL A   1      37.208  22.527  24.830  1.00  0.00     0.023 C 
ENDROOT
BRANCH   1   2
ATOM      2  C   UNL A   1      35.746  22.469  24.384  1.00  0.00     0.116 C 
BRANCH   2   3
ATOM      3  N   UNL A   1      35.401  23.489  23.389  1.00  0.00    -0.352 N 
ATOM      4  O   UNL A   1      34.050  24.994  22.358  1.00  0.00    -0.270 OA
ATOM      5  C   UNL A   1      34.168  23.959  23.000  1.00  0.00     0.251 C 
ATOM      6  H   UNL A   1      36.169  23.902  22.932  1.00  0.00     0.163 HD
BRANCH   5   7
ATOM      7  C   UNL A   1      32.987  23.205  23.454  1.00  0.00     0.067 C 
ATOM      8  C   UNL A   1      32.685  22.083  22.788  1.00  0.00     0.025 C 
ATOM      9  C   UNL A   1      32.449  23.514  24.817  1.00  0.00     0.314 C 
ATOM     10  C   UNL A   1      32.358  20.956  23.669  1.00  0.00     0.021 A 
ATOM     11  O   UNL A   1      32.496  22.352  25.685  1.00  0.00    -0.475 OA
ATOM     12  C   UNL A   1      32.418  19.669  23.128  1.00  0.00     0.058 A 
ATOM     13  C   UNL A   1      32.421  21.128  25.065  1.00  0.00     0.128 A 
ATOM     14  C   UNL A   1      32.668  18.579  23.963  1.00  0.00     0.130 A 
ATOM     15  C   UNL A   1      32.602  20.025  25.899  1.00  0.00     0.051 A 
ATOM     16  C   UNL A   1      32.749  18.752  25.346  1.00  0.00     0.050 A 
BRANCH   9  17
ATOM     17  C   UNL A   1      31.029  24.103  24.764  1.00  0.00     0.429 C 
ATOM     18  F   UNL A   1      30.321  23.762  25.870  1.00  0.00    -0.167 F 
ATOM     19  F   UNL A   1      31.043  25.455  24.714  1.00  0.00    -0.167 F 
ATOM     20  F   UNL A   1      30.325  23.668  23.692  1.00  0.00    -0.167 F 
ENDBRANCH   9  17
BRANCH  14  21
ATOM     21  O   UNL A   1      32.845  17.371  23.349  1.00  0.00    -0.406 OA
BRANCH  21  22
ATOM     22  C   UNL A   1      34.125  16.796  23.609  1.00  0.00     0.573 C 
ATOM     23  F   UNL A   1      35.014  17.753  23.966  1.00  0.00    -0.132 F 
ATOM     24  F   UNL A   1      34.034  15.860  24.575  1.00  0.00    -0.132 F 
ATOM     25  F   UNL A   1      34.569  16.207  22.477  1.00  0.00    -0.132 F 
ENDBRANCH  21  22
ENDBRANCH  14  21
ENDBRANCH   5   7
ENDBRANCH   2   3
ENDBRANCH   1   2
BRANCH   1  26
ATOM     26  C   UNL A   1      37.853  21.152  25.018  1.00  0.00     0.023 C 
BRANCH  26  27
ATOM     27  C   UNL A   1      39.162  21.109  25.807  1.00  0.00     0.116 C 
BRANCH  27  28
ATOM     28  N   UNL A   1      39.859  19.832  25.769  1.00  0.00    -0.352 N 
ATOM     29  C   UNL A   1      41.172  19.556  26.088  1.00  0.00     0.251 C 
ATOM     30  H   UNL A   1      39.321  19.060  25.476  1.00  0.00     0.163 HD
ATOM     31  O   UNL A   1      41.615  18.415  26.005  1.00  0.00    -0.269 OA
BRANCH  29  32
ATOM     32  C   UNL A   1      42.073  20.668  26.453  1.00  0.00     0.039 A 
ATOM     33  C   UNL A   1      42.668  21.404  25.424  1.00  0.00     0.014 A 
ATOM     34  C   UNL A   1      42.225  21.061  27.785  1.00  0.00     0.014 A 
ATOM     35  C   UNL A   1      43.299  22.613  25.718  1.00  0.00     0.010 A 
ATOM     36  C   UNL A   1      42.792  22.300  28.070  1.00  0.00     0.010 A 
ATOM     37  C   UNL A   1      43.295  23.104  27.035  1.00  0.00    -0.014 A 
BRANCH  37  38
ATOM     38  C   UNL A   1      43.722  24.495  27.331  1.00  0.00     0.031 A 
ATOM     39  C   UNL A   1      42.731  25.510  27.812  1.00  0.00     0.074 A 
ATOM     40  C   UNL A   1      44.989  24.863  27.058  1.00  0.00     0.049 A 
ATOM     41  N   UNL A   1      42.898  26.789  28.033  1.00  0.00    -0.248 NA
ATOM     42  C   UNL A   1      41.361  25.030  28.047  1.00  0.00     0.031 C 
ATOM     43  C   UNL A   1      46.027  23.982  26.516  1.00  0.00     0.029 A 
ATOM     44  N   UNL A   1      45.616  26.078  27.177  1.00  0.00    -0.354 N 
ATOM     45  C   UNL A   1      41.657  27.269  28.420  1.00  0.00     0.074 A 
ATOM     46  C   UNL A   1      40.734  26.155  28.355  1.00  0.00     0.031 C 
ATOM     47  C   UNL A   1      47.162  24.681  26.362  1.00  0.00     0.029 A 
ATOM     48  C   UNL A   1      46.925  26.065  26.760  1.00  0.00     0.049 A 
ATOM     49  H   UNL A   1      45.171  26.883  27.528  1.00  0.00     0.167 HD
ATOM     50  C   UNL A   1      41.323  28.522  28.814  1.00  0.00     0.037 A 
ATOM     51  C   UNL A   1      47.831  27.059  26.694  1.00  0.00     0.037 A 
ATOM     52  C   UNL A   1      42.248  29.620  28.894  1.00  0.00     0.049 A 
ATOM     53  C   UNL A   1      47.441  28.438  27.144  1.00  0.00     0.074 A 
ATOM     54  C   UNL A   1      42.028  30.904  29.359  1.00  0.00     0.029 A 
ATOM     55  N   UNL A   1      43.573  29.565  28.485  1.00  0.00    -0.354 N 
ATOM     56  N   UNL A   1      46.283  28.862  27.590  1.00  0.00    -0.248 NA
ATOM     57  C   UNL A   1      48.480  29.474  27.085  1.00  0.00     0.031 C 
ATOM     58  C   UNL A   1      43.209  31.637  29.196  1.00  0.00     0.029 A 
ATOM     59  C   UNL A   1      44.176  30.801  28.662  1.00  0.00     0.049 A 
ATOM     60  H   UNL A   1      44.020  28.766  28.124  1.00  0.00     0.167 HD
ATOM     61  C   UNL A   1      46.453  30.210  27.870  1.00  0.00     0.074 A 
ATOM     62  C   UNL A   1      47.833  30.529  27.564  1.00  0.00     0.031 C 
ATOM     63  C   UNL A   1      45.546  31.104  28.334  1.00  0.00     0.037 A 
BRANCH  50  64
ATOM     64  C   UNL A   1      39.889  28.759  29.189  1.00  0.00     0.064 A 
ATOM     65  C   UNL A   1      39.432  28.560  30.501  1.00  0.00     0.173 A 
ATOM     66  C   UNL A   1      38.962  29.188  28.228  1.00  0.00     0.173 A 
ATOM     67  F   UNL A   1      40.277  28.138  31.453  1.00  0.00    -0.203 F 
ATOM     68  C   UNL A   1      38.091  28.743  30.828  1.00  0.00     0.198 A 
ATOM     69  C   UNL A   1      37.627  29.397  28.565  1.00  0.00     0.198 A 
ATOM     70  F   UNL A   1      39.349  29.396  26.960  1.00  0.00    -0.203 F 
ATOM     71  F   UNL A   1      37.667  28.488  32.073  1.00  0.00    -0.200 F 
ATOM     72  C   UNL A   1      37.191  29.164  29.861  1.00  0.00     0.200 A 
ATOM     73  F   UNL A   1      36.759  29.811  27.632  1.00  0.00    -0.200 F 
ATOM     74  F   UNL A   1      35.899  29.334  30.175  1.00  0.00    -0.200 F 
ENDBRANCH  50  64
BRANCH  51  75
ATOM     75  C   UNL A   1      49.199  26.771  26.194  1.00  0.00     0.064 A 
ATOM     76  C   UNL A   1      50.185  26.263  27.052  1.00  0.00     0.173 A 
ATOM     77  C   UNL A   1      49.539  26.964  24.848  1.00  0.00     0.173 A 
ATOM     78  F   UNL A   1      49.911  26.079  28.351  1.00  0.00    -0.203 F 
ATOM     79  C   UNL A   1      51.462  25.964  26.581  1.00  0.00     0.198 A 
ATOM     80  C   UNL A   1      50.809  26.644  24.374  1.00  0.00     0.198 A 
ATOM     81  F   UNL A   1      48.627  27.442  23.988  1.00  0.00    -0.203 F 
ATOM     82  F   UNL A   1      52.393  25.502  27.426  1.00  0.00    -0.200 F 
ATOM     83  C   UNL A   1      51.770  26.147  25.241  1.00  0.00     0.200 A 
ATOM     84  F   UNL A   1      51.099  26.809  23.076  1.00  0.00    -0.200 F 
ATOM     85  F   UNL A   1      52.995  25.846  24.786  1.00  0.00    -0.200 F 
ENDBRANCH  51  75
BRANCH  63  86
ATOM     86  C   UNL A   1      46.017  32.513  28.531  1.00  0.00     0.064 A 
ATOM     87  C   UNL A   1      45.895  33.470  27.511  1.00  0.00     0.173 A 
ATOM     88  C   UNL A   1      46.555  32.923  29.759  1.00  0.00     0.173 A 
ATOM     89  F   UNL A   1      45.404  33.120  26.314  1.00  0.00    -0.203 F 
ATOM     90  C   UNL A   1      46.312  34.783  27.712  1.00  0.00     0.198 A 
ATOM     91  C   UNL A   1      46.948  34.243  29.964  1.00  0.00     0.198 A 
ATOM     92  F   UNL A   1      46.689  32.045  30.765  1.00  0.00    -0.203 F 
ATOM     93  F   UNL A   1      46.221  35.672  26.712  1.00  0.00    -0.200 F 
ATOM     94  C   UNL A   1      46.830  35.170  28.938  1.00  0.00     0.200 A 
ATOM     95  F   UNL A   1      47.440  34.618  31.152  1.00  0.00    -0.200 F 
ATOM     96  F   UNL A   1      47.223  36.436  29.132  1.00  0.00    -0.200 F 
ENDBRANCH  63  86
ENDBRANCH  37  38
ENDBRANCH  29  32
ENDBRANCH  27  28
ENDBRANCH  26  27
ENDBRANCH   1  26
TORSDOF 14
ENDMDL
