MODEL 1
REMARK VINA RESULT:     -10.5      0.000      0.000
REMARK SMILES CC(=O)[C@H]1CC(C)=C(C)C[C@@H]1C(=O)NCCCCNC(=O)c1ccc(-c2c3nc(c(-c4c(F)c(F)c(F)c(F)c4F)c4ccc([nH]4)c(-c4c(F)c(F)c(F)c(F)c4F)c4nc(c(-c5c(F)c(F)c(F)c(F)c5F)c5ccc2[nH]5)C=C4)C=C3)cc1
REMARK SMILES IDX 17 1 16 2 15 3 14 4 12 5 13 6 11 8 4 9 5 10 6 11 10 12 7 13
REMARK SMILES IDX 8 14 9 15 2 16 1 17 3 18 18 19 19 20 20 21 21 23 22 24 23 25
REMARK SMILES IDX 84 26 24 27 83 28 25 29 26 30 27 31 77 32 28 33 82 34 76 35
REMARK SMILES IDX 78 36 29 37 81 38 75 39 74 40 30 42 62 43 42 44 61 45 43 46
REMARK SMILES IDX 46 47 60 48 79 49 44 50 45 51 59 53 80 54 47 55 31 56 32 57
REMARK SMILES IDX 40 58 33 59 34 60 38 61 41 62 35 63 36 64 39 65 37 66 63 67
REMARK SMILES IDX 64 68 72 69 65 70 66 71 70 72 73 73 67 74 68 75 71 76 69 77
REMARK SMILES IDX 48 78 49 79 57 80 50 81 51 82 55 83 58 84 52 85 53 86 56 87
REMARK SMILES IDX 54 88
REMARK H PARENT 14 7 19 22 78 41 46 52
REMARK Flexibility Score: inf
ROOT
ATOM      1  C   UNL A   1      42.153  21.857  27.620  1.00  0.00     0.023 C 
ENDROOT
BRANCH   1   2
ATOM      2  C   UNL A   1      42.514  23.073  28.480  1.00  0.00     0.023 C 
BRANCH   2   3
ATOM      3  C   UNL A   1      44.016  23.309  28.629  1.00  0.00     0.116 C 
BRANCH   3   4
ATOM      4  N   UNL A   1      44.765  22.578  27.622  1.00  0.00    -0.356 N 
ATOM      5  C   UNL A   1      45.650  23.034  26.689  1.00  0.00     0.224 C 
ATOM      6  O   UNL A   1      46.103  22.234  25.872  1.00  0.00    -0.275 OA
ATOM      7  H   UNL A   1      44.610  21.606  27.611  1.00  0.00     0.163 HD
BRANCH   5   8
ATOM      8  C   UNL A   1      46.105  24.489  26.740  1.00  0.00     0.093 C 
ATOM      9  C   UNL A   1      45.957  25.144  25.359  1.00  0.00     0.072 C 
ATOM     10  C   UNL A   1      47.214  25.703  24.689  1.00  0.00     0.043 C 
ATOM     11  C   UNL A   1      48.494  25.735  25.479  1.00  0.00    -0.074 C 
ATOM     12  C   UNL A   1      47.483  24.512  27.415  1.00  0.00     0.045 C 
ATOM     13  C   UNL A   1      49.639  26.377  24.730  1.00  0.00     0.039 C 
ATOM     14  C   UNL A   1      48.614  25.203  26.708  1.00  0.00    -0.074 C 
ATOM     15  C   UNL A   1      49.914  25.203  27.478  1.00  0.00     0.039 C 
BRANCH   9  16
ATOM     16  C   UNL A   1      44.882  26.237  25.376  1.00  0.00     0.134 C 
ATOM     17  C   UNL A   1      45.283  27.674  25.600  1.00  0.00     0.088 C 
ATOM     18  O   UNL A   1      43.694  25.952  25.205  1.00  0.00    -0.300 OA
ENDBRANCH   9  16
ENDBRANCH   5   8
ENDBRANCH   3   4
ENDBRANCH   2   3
ENDBRANCH   1   2
BRANCH   1  19
ATOM     19  C   UNL A   1      41.719  22.180  26.193  1.00  0.00     0.116 C 
BRANCH  19  20
ATOM     20  N   UNL A   1      40.308  21.927  25.949  1.00  0.00    -0.352 N 
ATOM     21  C   UNL A   1      39.235  22.740  26.218  1.00  0.00     0.251 C 
ATOM     22  H   UNL A   1      40.094  21.058  25.536  1.00  0.00     0.163 HD
ATOM     23  O   UNL A   1      38.088  22.338  26.049  1.00  0.00    -0.269 OA
BRANCH  21  24
ATOM     24  C   UNL A   1      39.474  24.096  26.753  1.00  0.00     0.039 A 
ATOM     25  C   UNL A   1      39.176  24.352  28.093  1.00  0.00     0.014 A 
ATOM     26  C   UNL A   1      40.028  25.093  25.947  1.00  0.00     0.014 A 
ATOM     27  C   UNL A   1      39.498  25.593  28.644  1.00  0.00     0.010 A 
ATOM     28  C   UNL A   1      40.411  26.304  26.514  1.00  0.00     0.010 A 
ATOM     29  C   UNL A   1      40.153  26.564  27.870  1.00  0.00    -0.014 A 
BRANCH  29  30
ATOM     30  C   UNL A   1      40.579  27.859  28.459  1.00  0.00     0.031 A 
ATOM     31  C   UNL A   1      42.017  28.075  28.838  1.00  0.00     0.074 A 
ATOM     32  C   UNL A   1      39.662  28.815  28.703  1.00  0.00     0.049 A 
ATOM     33  N   UNL A   1      42.571  29.100  29.435  1.00  0.00    -0.248 NA
ATOM     34  C   UNL A   1      42.955  26.984  28.526  1.00  0.00     0.031 C 
ATOM     35  C   UNL A   1      38.230  28.709  28.414  1.00  0.00     0.029 A 
ATOM     36  N   UNL A   1      39.795  30.062  29.260  1.00  0.00    -0.354 N 
ATOM     37  C   UNL A   1      43.913  28.777  29.572  1.00  0.00     0.074 A 
ATOM     38  C   UNL A   1      44.083  27.437  29.051  1.00  0.00     0.031 C 
ATOM     39  C   UNL A   1      37.622  29.852  28.774  1.00  0.00     0.029 A 
ATOM     40  C   UNL A   1      38.612  30.754  29.355  1.00  0.00     0.049 A 
ATOM     41  H   UNL A   1      40.658  30.427  29.562  1.00  0.00     0.167 HD
ATOM     42  C   UNL A   1      44.921  29.539  30.059  1.00  0.00     0.037 A 
ATOM     43  C   UNL A   1      38.356  31.975  29.862  1.00  0.00     0.037 A 
ATOM     44  C   UNL A   1      44.754  30.879  30.561  1.00  0.00     0.049 A 
ATOM     45  C   UNL A   1      39.491  32.786  30.428  1.00  0.00     0.074 A 
ATOM     46  C   UNL A   1      45.717  31.742  31.053  1.00  0.00     0.029 A 
ATOM     47  N   UNL A   1      43.542  31.549  30.629  1.00  0.00    -0.354 N 
ATOM     48  N   UNL A   1      40.765  32.490  30.503  1.00  0.00    -0.248 NA
ATOM     49  C   UNL A   1      39.151  34.107  30.975  1.00  0.00     0.031 C 
ATOM     50  C   UNL A   1      45.083  32.922  31.452  1.00  0.00     0.029 A 
ATOM     51  C   UNL A   1      43.732  32.812  31.166  1.00  0.00     0.049 A 
ATOM     52  H   UNL A   1      42.675  31.182  30.339  1.00  0.00     0.167 HD
ATOM     53  C   UNL A   1      41.382  33.598  31.069  1.00  0.00     0.074 A 
ATOM     54  C   UNL A   1      40.345  34.578  31.304  1.00  0.00     0.031 C 
ATOM     55  C   UNL A   1      42.690  33.785  31.370  1.00  0.00     0.037 A 
BRANCH  42  56
ATOM     56  C   UNL A   1      46.301  28.952  30.055  1.00  0.00     0.064 A 
ATOM     57  C   UNL A   1      46.803  28.262  31.169  1.00  0.00     0.173 A 
ATOM     58  C   UNL A   1      47.111  29.030  28.911  1.00  0.00     0.173 A 
ATOM     59  F   UNL A   1      46.073  28.171  32.292  1.00  0.00    -0.203 F 
ATOM     60  C   UNL A   1      48.072  27.690  31.146  1.00  0.00     0.198 A 
ATOM     61  C   UNL A   1      48.367  28.431  28.882  1.00  0.00     0.198 A 
ATOM     62  F   UNL A   1      46.676  29.674  27.818  1.00  0.00    -0.203 F 
ATOM     63  F   UNL A   1      48.545  27.071  32.236  1.00  0.00    -0.200 F 
ATOM     64  C   UNL A   1      48.849  27.767  30.000  1.00  0.00     0.200 A 
ATOM     65  F   UNL A   1      49.113  28.495  27.770  1.00  0.00    -0.200 F 
ATOM     66  F   UNL A   1      50.065  27.203  29.975  1.00  0.00    -0.200 F 
ENDBRANCH  42  56
BRANCH  43  67
ATOM     67  C   UNL A   1      36.973  32.522  29.850  1.00  0.00     0.064 A 
ATOM     68  C   UNL A   1      36.501  33.255  28.752  1.00  0.00     0.173 A 
ATOM     69  C   UNL A   1      36.111  32.363  30.945  1.00  0.00     0.173 A 
ATOM     70  F   UNL A   1      37.295  33.453  27.689  1.00  0.00    -0.203 F 
ATOM     71  C   UNL A   1      35.236  33.839  28.765  1.00  0.00     0.198 A 
ATOM     72  C   UNL A   1      34.834  32.921  30.944  1.00  0.00     0.198 A 
ATOM     73  F   UNL A   1      36.512  31.667  32.019  1.00  0.00    -0.203 F 
ATOM     74  F   UNL A   1      34.837  34.589  27.728  1.00  0.00    -0.200 F 
ATOM     75  C   UNL A   1      34.403  33.670  29.859  1.00  0.00     0.200 A 
ATOM     76  F   UNL A   1      34.028  32.743  31.998  1.00  0.00    -0.200 F 
ATOM     77  F   UNL A   1      33.189  34.237  29.875  1.00  0.00    -0.200 F 
ENDBRANCH  43  67
BRANCH  55  78
ATOM     78  C   UNL A   1      43.081  35.118  31.937  1.00  0.00     0.064 A 
ATOM     79  C   UNL A   1      43.009  35.385  33.312  1.00  0.00     0.173 A 
ATOM     80  C   UNL A   1      43.571  36.129  31.095  1.00  0.00     0.173 A 
ATOM     81  F   UNL A   1      42.533  34.456  34.155  1.00  0.00    -0.203 F 
ATOM     82  C   UNL A   1      43.385  36.626  33.820  1.00  0.00     0.198 A 
ATOM     83  C   UNL A   1      43.975  37.357  31.611  1.00  0.00     0.198 A 
ATOM     84  F   UNL A   1      43.667  35.921  29.774  1.00  0.00    -0.203 F 
ATOM     85  F   UNL A   1      43.259  36.875  35.131  1.00  0.00    -0.200 F 
ATOM     86  C   UNL A   1      43.874  37.607  32.972  1.00  0.00     0.200 A 
ATOM     87  F   UNL A   1      44.461  38.299  30.791  1.00  0.00    -0.200 F 
ATOM     88  F   UNL A   1      44.242  38.798  33.464  1.00  0.00    -0.200 F 
ENDBRANCH  55  78
ENDBRANCH  29  30
ENDBRANCH  21  24
ENDBRANCH  19  20
ENDBRANCH   1  19
TORSDOF 12
ENDMDL
MODEL 2
REMARK VINA RESULT:     -10.5      5.326     10.036
REMARK SMILES CC(=O)[C@H]1CC(C)=C(C)C[C@@H]1C(=O)NCCCCNC(=O)c1ccc(-c2c3nc(c(-c4c(F)c(F)c(F)c(F)c4F)c4ccc([nH]4)c(-c4c(F)c(F)c(F)c(F)c4F)c4nc(c(-c5c(F)c(F)c(F)c(F)c5F)c5ccc2[nH]5)C=C4)C=C3)cc1
REMARK SMILES IDX 17 1 16 2 15 3 14 4 12 5 13 6 11 8 4 9 5 10 6 11 10 12 7 13
REMARK SMILES IDX 8 14 9 15 2 16 1 17 3 18 18 19 19 20 20 21 21 23 22 24 23 25
REMARK SMILES IDX 84 26 24 27 83 28 25 29 26 30 27 31 77 32 28 33 82 34 76 35
REMARK SMILES IDX 78 36 29 37 81 38 75 39 74 40 30 42 62 43 42 44 61 45 43 46
REMARK SMILES IDX 46 47 60 48 79 49 44 50 45 51 59 53 80 54 47 55 31 56 32 57
REMARK SMILES IDX 40 58 33 59 34 60 38 61 41 62 35 63 36 64 39 65 37 66 63 67
REMARK SMILES IDX 64 68 72 69 65 70 66 71 70 72 73 73 67 74 68 75 71 76 69 77
REMARK SMILES IDX 48 78 49 79 57 80 50 81 51 82 55 83 58 84 52 85 53 86 56 87
REMARK SMILES IDX 54 88
REMARK H PARENT 14 7 19 22 78 41 46 52
REMARK Flexibility Score: inf
ROOT
ATOM      1  C   UNL A   1      31.493  32.026  26.749  1.00  0.00     0.023 C 
ENDROOT
BRANCH   1   2
ATOM      2  C   UNL A   1      31.832  30.640  26.190  1.00  0.00     0.023 C 
BRANCH   2   3
ATOM      3  C   UNL A   1      32.546  29.723  27.182  1.00  0.00     0.116 C 
BRANCH   3   4
ATOM      4  N   UNL A   1      31.849  28.457  27.323  1.00  0.00    -0.356 N 
ATOM      5  C   UNL A   1      31.927  27.328  26.562  1.00  0.00     0.224 C 
ATOM      6  O   UNL A   1      31.169  26.394  26.822  1.00  0.00    -0.275 OA
ATOM      7  H   UNL A   1      31.226  28.407  28.084  1.00  0.00     0.163 HD
BRANCH   5   8
ATOM      8  C   UNL A   1      32.994  27.230  25.477  1.00  0.00     0.093 C 
ATOM      9  C   UNL A   1      32.339  27.092  24.094  1.00  0.00     0.072 C 
ATOM     10  C   UNL A   1      32.653  25.842  23.270  1.00  0.00     0.043 C 
ATOM     11  C   UNL A   1      33.709  24.896  23.776  1.00  0.00    -0.074 C 
ATOM     12  C   UNL A   1      33.998  26.157  25.919  1.00  0.00     0.045 C 
ATOM     13  C   UNL A   1      33.975  23.744  22.835  1.00  0.00     0.039 C 
ATOM     14  C   UNL A   1      34.318  25.041  24.967  1.00  0.00    -0.074 C 
ATOM     15  C   UNL A   1      35.347  24.065  25.485  1.00  0.00     0.039 C 
BRANCH   9  16
ATOM     16  C   UNL A   1      32.604  28.330  23.229  1.00  0.00     0.134 C 
ATOM     17  C   UNL A   1      34.012  28.643  22.786  1.00  0.00     0.088 C 
ATOM     18  O   UNL A   1      31.676  29.070  22.890  1.00  0.00    -0.300 OA
ENDBRANCH   9  16
ENDBRANCH   5   8
ENDBRANCH   3   4
ENDBRANCH   2   3
ENDBRANCH   1   2
BRANCH   1  19
ATOM     19  C   UNL A   1      32.671  32.782  27.359  1.00  0.00     0.116 C 
BRANCH  19  20
ATOM     20  N   UNL A   1      32.370  34.174  27.655  1.00  0.00    -0.352 N 
ATOM     21  C   UNL A   1      32.980  35.006  28.561  1.00  0.00     0.251 C 
ATOM     22  H   UNL A   1      31.632  34.572  27.137  1.00  0.00     0.163 HD
ATOM     23  O   UNL A   1      32.540  36.131  28.771  1.00  0.00    -0.269 OA
BRANCH  21  24
ATOM     24  C   UNL A   1      34.152  34.515  29.314  1.00  0.00     0.039 A 
ATOM     25  C   UNL A   1      33.950  33.920  30.560  1.00  0.00     0.014 A 
ATOM     26  C   UNL A   1      35.437  34.608  28.773  1.00  0.00     0.014 A 
ATOM     27  C   UNL A   1      35.031  33.351  31.235  1.00  0.00     0.010 A 
ATOM     28  C   UNL A   1      36.501  33.982  29.414  1.00  0.00     0.010 A 
ATOM     29  C   UNL A   1      36.308  33.344  30.650  1.00  0.00    -0.014 A 
BRANCH  29  30
ATOM     30  C   UNL A   1      37.454  32.674  31.313  1.00  0.00     0.031 A 
ATOM     31  C   UNL A   1      38.153  31.531  30.631  1.00  0.00     0.074 A 
ATOM     32  C   UNL A   1      37.827  33.057  32.549  1.00  0.00     0.049 A 
ATOM     33  N   UNL A   1      39.118  30.767  31.076  1.00  0.00    -0.248 NA
ATOM     34  C   UNL A   1      37.690  31.185  29.278  1.00  0.00     0.031 C 
ATOM     35  C   UNL A   1      37.203  34.127  33.330  1.00  0.00     0.029 A 
ATOM     36  N   UNL A   1      38.817  32.581  33.373  1.00  0.00    -0.354 N 
ATOM     37  C   UNL A   1      39.374  29.854  30.063  1.00  0.00     0.074 A 
ATOM     38  C   UNL A   1      38.424  30.118  29.004  1.00  0.00     0.031 C 
ATOM     39  C   UNL A   1      37.839  34.242  34.507  1.00  0.00     0.029 A 
ATOM     40  C   UNL A   1      38.888  33.230  34.583  1.00  0.00     0.049 A 
ATOM     41  H   UNL A   1      39.420  31.846  33.121  1.00  0.00     0.167 HD
ATOM     42  C   UNL A   1      40.334  28.900  30.007  1.00  0.00     0.037 A 
ATOM     43  C   UNL A   1      39.702  33.023  35.635  1.00  0.00     0.037 A 
ATOM     44  C   UNL A   1      41.290  28.650  31.054  1.00  0.00     0.049 A 
ATOM     45  C   UNL A   1      40.738  31.933  35.557  1.00  0.00     0.074 A 
ATOM     46  C   UNL A   1      42.317  27.723  31.082  1.00  0.00     0.029 A 
ATOM     47  N   UNL A   1      41.337  29.336  32.259  1.00  0.00    -0.354 N 
ATOM     48  N   UNL A   1      41.004  31.111  34.572  1.00  0.00    -0.248 NA
ATOM     49  C   UNL A   1      41.592  31.747  36.738  1.00  0.00     0.031 C 
ATOM     50  C   UNL A   1      42.964  27.824  32.317  1.00  0.00     0.029 A 
ATOM     51  C   UNL A   1      42.370  28.845  33.041  1.00  0.00     0.049 A 
ATOM     52  H   UNL A   1      40.727  30.064  32.519  1.00  0.00     0.167 HD
ATOM     53  C   UNL A   1      42.076  30.338  34.998  1.00  0.00     0.074 A 
ATOM     54  C   UNL A   1      42.421  30.800  36.325  1.00  0.00     0.031 C 
ATOM     55  C   UNL A   1      42.715  29.334  34.350  1.00  0.00     0.037 A 
BRANCH  42  56
ATOM     56  C   UNL A   1      40.414  28.067  28.762  1.00  0.00     0.064 A 
ATOM     57  C   UNL A   1      41.186  28.471  27.663  1.00  0.00     0.173 A 
ATOM     58  C   UNL A   1      39.759  26.828  28.685  1.00  0.00     0.173 A 
ATOM     59  F   UNL A   1      41.820  29.654  27.682  1.00  0.00    -0.203 F 
ATOM     60  C   UNL A   1      41.283  27.676  26.524  1.00  0.00     0.198 A 
ATOM     61  C   UNL A   1      39.883  26.022  27.557  1.00  0.00     0.198 A 
ATOM     62  F   UNL A   1      39.013  26.392  29.711  1.00  0.00    -0.203 F 
ATOM     63  F   UNL A   1      41.993  28.102  25.470  1.00  0.00    -0.200 F 
ATOM     64  C   UNL A   1      40.639  26.449  26.475  1.00  0.00     0.200 A 
ATOM     65  F   UNL A   1      39.271  24.831  27.515  1.00  0.00    -0.200 F 
ATOM     66  F   UNL A   1      40.745  25.679  25.383  1.00  0.00    -0.200 F 
ENDBRANCH  42  56
BRANCH  43  67
ATOM     67  C   UNL A   1      39.590  33.869  36.853  1.00  0.00     0.064 A 
ATOM     68  C   UNL A   1      38.811  33.458  37.944  1.00  0.00     0.173 A 
ATOM     69  C   UNL A   1      40.220  35.120  36.938  1.00  0.00     0.173 A 
ATOM     70  F   UNL A   1      38.172  32.279  37.902  1.00  0.00    -0.203 F 
ATOM     71  C   UNL A   1      38.636  34.279  39.056  1.00  0.00     0.198 A 
ATOM     72  C   UNL A   1      40.070  35.927  38.064  1.00  0.00     0.198 A 
ATOM     73  F   UNL A   1      40.980  35.558  35.924  1.00  0.00    -0.203 F 
ATOM     74  F   UNL A   1      37.834  33.888  40.055  1.00  0.00    -0.200 F 
ATOM     75  C   UNL A   1      39.268  35.512  39.116  1.00  0.00     0.200 A 
ATOM     76  F   UNL A   1      40.693  37.111  38.123  1.00  0.00    -0.200 F 
ATOM     77  F   UNL A   1      39.094  36.305  40.182  1.00  0.00    -0.200 F 
ENDBRANCH  43  67
BRANCH  55  78
ATOM     78  C   UNL A   1      43.886  28.703  35.045  1.00  0.00     0.064 A 
ATOM     79  C   UNL A   1      43.735  27.583  35.876  1.00  0.00     0.173 A 
ATOM     80  C   UNL A   1      45.181  29.204  34.845  1.00  0.00     0.173 A 
ATOM     81  F   UNL A   1      42.515  27.077  36.111  1.00  0.00    -0.203 F 
ATOM     82  C   UNL A   1      44.835  27.006  36.505  1.00  0.00     0.198 A 
ATOM     83  C   UNL A   1      46.283  28.605  35.450  1.00  0.00     0.198 A 
ATOM     84  F   UNL A   1      45.380  30.269  34.053  1.00  0.00    -0.203 F 
ATOM     85  F   UNL A   1      44.661  25.968  37.334  1.00  0.00    -0.200 F 
ATOM     86  C   UNL A   1      46.107  27.512  36.286  1.00  0.00     0.200 A 
ATOM     87  F   UNL A   1      47.513  29.088  35.227  1.00  0.00    -0.200 F 
ATOM     88  F   UNL A   1      47.166  26.951  36.886  1.00  0.00    -0.200 F 
ENDBRANCH  55  78
ENDBRANCH  29  30
ENDBRANCH  21  24
ENDBRANCH  19  20
ENDBRANCH   1  19
TORSDOF 12
ENDMDL
MODEL 3
REMARK VINA RESULT:     -10.5      5.194     10.762
REMARK SMILES CC(=O)[C@H]1CC(C)=C(C)C[C@@H]1C(=O)NCCCCNC(=O)c1ccc(-c2c3nc(c(-c4c(F)c(F)c(F)c(F)c4F)c4ccc([nH]4)c(-c4c(F)c(F)c(F)c(F)c4F)c4nc(c(-c5c(F)c(F)c(F)c(F)c5F)c5ccc2[nH]5)C=C4)C=C3)cc1
REMARK SMILES IDX 17 1 16 2 15 3 14 4 12 5 13 6 11 8 4 9 5 10 6 11 10 12 7 13
REMARK SMILES IDX 8 14 9 15 2 16 1 17 3 18 18 19 19 20 20 21 21 23 22 24 23 25
REMARK SMILES IDX 84 26 24 27 83 28 25 29 26 30 27 31 77 32 28 33 82 34 76 35
REMARK SMILES IDX 78 36 29 37 81 38 75 39 74 40 30 42 62 43 42 44 61 45 43 46
REMARK SMILES IDX 46 47 60 48 79 49 44 50 45 51 59 53 80 54 47 55 31 56 32 57
REMARK SMILES IDX 40 58 33 59 34 60 38 61 41 62 35 63 36 64 39 65 37 66 63 67
REMARK SMILES IDX 64 68 72 69 65 70 66 71 70 72 73 73 67 74 68 75 71 76 69 77
REMARK SMILES IDX 48 78 49 79 57 80 50 81 51 82 55 83 58 84 52 85 53 86 56 87
REMARK SMILES IDX 54 88
REMARK H PARENT 14 7 19 22 78 41 46 52
REMARK Flexibility Score: inf
ROOT
ATOM      1  C   UNL A   1      31.430  32.095  26.816  1.00  0.00     0.023 C 
ENDROOT
BRANCH   1   2
ATOM      2  C   UNL A   1      31.703  30.713  26.212  1.00  0.00     0.023 C 
BRANCH   2   3
ATOM      3  C   UNL A   1      32.492  29.777  27.127  1.00  0.00     0.116 C 
BRANCH   3   4
ATOM      4  N   UNL A   1      31.807  28.508  27.296  1.00  0.00    -0.356 N 
ATOM      5  C   UNL A   1      31.901  27.360  26.564  1.00  0.00     0.224 C 
ATOM      6  O   UNL A   1      31.152  26.425  26.844  1.00  0.00    -0.275 OA
ATOM      7  H   UNL A   1      31.180  28.470  28.054  1.00  0.00     0.163 HD
BRANCH   5   8
ATOM      8  C   UNL A   1      32.977  27.246  25.489  1.00  0.00     0.093 C 
ATOM      9  C   UNL A   1      32.332  27.100  24.102  1.00  0.00     0.072 C 
ATOM     10  C   UNL A   1      32.644  25.840  23.292  1.00  0.00     0.043 C 
ATOM     11  C   UNL A   1      33.690  24.892  23.815  1.00  0.00    -0.074 C 
ATOM     12  C   UNL A   1      33.970  26.170  25.949  1.00  0.00     0.045 C 
ATOM     13  C   UNL A   1      33.956  23.730  22.886  1.00  0.00     0.039 C 
ATOM     14  C   UNL A   1      34.290  25.043  25.009  1.00  0.00    -0.074 C 
ATOM     15  C   UNL A   1      35.308  24.065  25.544  1.00  0.00     0.039 C 
BRANCH   9  16
ATOM     16  C   UNL A   1      32.612  28.329  23.228  1.00  0.00     0.134 C 
ATOM     17  C   UNL A   1      34.029  28.639  22.811  1.00  0.00     0.088 C 
ATOM     18  O   UNL A   1      31.690  29.062  22.862  1.00  0.00    -0.300 OA
ENDBRANCH   9  16
ENDBRANCH   5   8
ENDBRANCH   3   4
ENDBRANCH   2   3
ENDBRANCH   1   2
BRANCH   1  19
ATOM     19  C   UNL A   1      32.673  32.868  27.249  1.00  0.00     0.116 C 
BRANCH  19  20
ATOM     20  N   UNL A   1      32.386  34.232  27.665  1.00  0.00    -0.352 N 
ATOM     21  C   UNL A   1      33.000  34.973  28.645  1.00  0.00     0.251 C 
ATOM     22  H   UNL A   1      31.656  34.683  27.181  1.00  0.00     0.163 HD
ATOM     23  O   UNL A   1      32.572  36.080  28.951  1.00  0.00    -0.269 OA
BRANCH  21  24
ATOM     24  C   UNL A   1      34.162  34.404  29.357  1.00  0.00     0.039 A 
ATOM     25  C   UNL A   1      33.940  33.645  30.508  1.00  0.00     0.014 A 
ATOM     26  C   UNL A   1      35.458  34.586  28.868  1.00  0.00     0.014 A 
ATOM     27  C   UNL A   1      35.014  33.008  31.130  1.00  0.00     0.010 A 
ATOM     28  C   UNL A   1      36.517  33.895  29.448  1.00  0.00     0.010 A 
ATOM     29  C   UNL A   1      36.305  33.096  30.583  1.00  0.00    -0.014 A 
BRANCH  29  30
ATOM     30  C   UNL A   1      37.446  32.360  31.182  1.00  0.00     0.031 A 
ATOM     31  C   UNL A   1      37.958  32.745  32.542  1.00  0.00     0.074 A 
ATOM     32  C   UNL A   1      38.055  31.386  30.479  1.00  0.00     0.049 A 
ATOM     33  N   UNL A   1      38.989  32.279  33.201  1.00  0.00    -0.248 NA
ATOM     34  C   UNL A   1      37.228  33.811  33.246  1.00  0.00     0.031 C 
ATOM     35  C   UNL A   1      37.674  30.947  29.134  1.00  0.00     0.029 A 
ATOM     36  N   UNL A   1      39.131  30.593  30.793  1.00  0.00    -0.354 N 
ATOM     37  C   UNL A   1      39.032  32.995  34.389  1.00  0.00     0.074 A 
ATOM     38  C   UNL A   1      37.961  33.967  34.338  1.00  0.00     0.031 C 
ATOM     39  C   UNL A   1      38.488  29.950  28.750  1.00  0.00     0.029 A 
ATOM     40  C   UNL A   1      39.472  29.706  29.801  1.00  0.00     0.049 A 
ATOM     41  H   UNL A   1      39.612  30.655  31.649  1.00  0.00     0.167 HD
ATOM     42  C   UNL A   1      39.868  32.836  35.442  1.00  0.00     0.037 A 
ATOM     43  C   UNL A   1      40.471  28.805  29.745  1.00  0.00     0.037 A 
ATOM     44  C   UNL A   1      40.922  31.856  35.499  1.00  0.00     0.049 A 
ATOM     45  C   UNL A   1      41.406  28.674  30.917  1.00  0.00     0.074 A 
ATOM     46  C   UNL A   1      41.807  31.600  36.531  1.00  0.00     0.029 A 
ATOM     47  N   UNL A   1      41.228  30.967  34.479  1.00  0.00    -0.354 N 
ATOM     48  N   UNL A   1      41.403  29.321  32.057  1.00  0.00    -0.248 NA
ATOM     49  C   UNL A   1      42.482  27.680  30.796  1.00  0.00     0.031 C 
ATOM     50  C   UNL A   1      42.672  30.580  36.123  1.00  0.00     0.029 A 
ATOM     51  C   UNL A   1      42.296  30.169  34.854  1.00  0.00     0.049 A 
ATOM     52  H   UNL A   1      40.756  30.912  33.617  1.00  0.00     0.167 HD
ATOM     53  C   UNL A   1      42.448  28.789  32.801  1.00  0.00     0.074 A 
ATOM     54  C   UNL A   1      43.054  27.756  31.989  1.00  0.00     0.031 C 
ATOM     55  C   UNL A   1      42.871  29.128  34.043  1.00  0.00     0.037 A 
BRANCH  42  56
ATOM     56  C   UNL A   1      39.667  33.728  36.631  1.00  0.00     0.064 A 
ATOM     57  C   UNL A   1      40.252  35.002  36.694  1.00  0.00     0.173 A 
ATOM     58  C   UNL A   1      38.839  33.333  37.692  1.00  0.00     0.173 A 
ATOM     59  F   UNL A   1      41.063  35.421  35.710  1.00  0.00    -0.203 F 
ATOM     60  C   UNL A   1      40.032  35.838  37.784  1.00  0.00     0.198 A 
ATOM     61  C   UNL A   1      38.598  34.184  38.768  1.00  0.00     0.198 A 
ATOM     62  F   UNL A   1      38.251  32.127  37.679  1.00  0.00    -0.203 F 
ATOM     63  F   UNL A   1      40.635  37.034  37.841  1.00  0.00    -0.200 F 
ATOM     64  C   UNL A   1      39.199  35.433  38.816  1.00  0.00     0.200 A 
ATOM     65  F   UNL A   1      37.783  33.797  39.758  1.00  0.00    -0.200 F 
ATOM     66  F   UNL A   1      38.978  36.245  39.859  1.00  0.00    -0.200 F 
ENDBRANCH  42  56
BRANCH  43  67
ATOM     67  C   UNL A   1      40.639  27.939  28.547  1.00  0.00     0.064 A 
ATOM     68  C   UNL A   1      41.394  28.373  27.448  1.00  0.00     0.173 A 
ATOM     69  C   UNL A   1      40.018  26.685  28.455  1.00  0.00     0.173 A 
ATOM     70  F   UNL A   1      41.989  29.575  27.478  1.00  0.00    -0.203 F 
ATOM     71  C   UNL A   1      41.491  27.604  26.291  1.00  0.00     0.198 A 
ATOM     72  C   UNL A   1      40.142  25.902  27.309  1.00  0.00     0.198 A 
ATOM     73  F   UNL A   1      39.289  26.221  29.480  1.00  0.00    -0.203 F 
ATOM     74  F   UNL A   1      42.166  28.073  25.232  1.00  0.00    -0.200 F 
ATOM     75  C   UNL A   1      40.867  26.368  26.223  1.00  0.00     0.200 A 
ATOM     76  F   UNL A   1      39.549  24.702  27.254  1.00  0.00    -0.200 F 
ATOM     77  F   UNL A   1      40.955  25.631  25.107  1.00  0.00    -0.200 F 
ENDBRANCH  43  67
BRANCH  55  78
ATOM     78  C   UNL A   1      44.009  28.339  34.621  1.00  0.00     0.064 A 
ATOM     79  C   UNL A   1      43.797  27.135  35.308  1.00  0.00     0.173 A 
ATOM     80  C   UNL A   1      45.331  28.778  34.452  1.00  0.00     0.173 A 
ATOM     81  F   UNL A   1      42.551  26.683  35.509  1.00  0.00    -0.203 F 
ATOM     82  C   UNL A   1      44.868  26.413  35.830  1.00  0.00     0.198 A 
ATOM     83  C   UNL A   1      46.400  28.036  34.948  1.00  0.00     0.198 A 
ATOM     84  F   UNL A   1      45.587  29.919  33.795  1.00  0.00    -0.203 F 
ATOM     85  F   UNL A   1      44.638  25.291  36.527  1.00  0.00    -0.200 F 
ATOM     86  C   UNL A   1      46.167  26.860  35.643  1.00  0.00     0.200 A 
ATOM     87  F   UNL A   1      47.656  28.463  34.754  1.00  0.00    -0.200 F 
ATOM     88  F   UNL A   1      47.196  26.159  36.140  1.00  0.00    -0.200 F 
ENDBRANCH  55  78
ENDBRANCH  29  30
ENDBRANCH  21  24
ENDBRANCH  19  20
ENDBRANCH   1  19
TORSDOF 12
ENDMDL
