MODEL 1
REMARK VINA RESULT:     -12.7      0.000      0.000
REMARK SMILES NC(=O)C[C@H](C(=O)NCCCCNC(=O)c1ccc(-c2c3nc(c(-c4c(F)c(F)c(F)c(F)c4F)c4ccc([nH]4)c(-c4c(F)c(F)c(F)c(F)c4F)c4nc(c(-c5c(F)c(F)c(F)c(F)c5F)c5ccc2[nH]5)C=C4)C=C3)cc1)N1C(=O)/C(=C/c2ccccc2)SC1=S
REMARK SMILES IDX 10 1 9 2 8 3 6 4 7 5 5 7 4 8 2 9 1 10 3 13 79 14 80 15 91 16
REMARK SMILES IDX 81 17 82 18 90 19 92 20 83 21 84 22 85 23 89 24 86 25 88 26
REMARK SMILES IDX 87 27 11 28 12 29 13 30 14 31 15 33 16 34 17 35 78 36 18 37
REMARK SMILES IDX 77 38 19 39 20 40 21 41 71 42 22 43 76 44 70 45 72 46 23 47
REMARK SMILES IDX 75 48 69 49 68 50 24 52 56 53 36 54 55 55 37 56 40 57 54 58
REMARK SMILES IDX 73 59 38 60 39 61 53 63 74 64 41 65 25 66 26 67 34 68 27 69
REMARK SMILES IDX 28 70 32 71 35 72 29 73 30 74 33 75 31 76 57 77 58 78 66 79
REMARK SMILES IDX 59 80 60 81 64 82 67 83 61 84 62 85 65 86 63 87 42 88 43 89
REMARK SMILES IDX 51 90 44 91 45 92 49 93 52 94 46 95 47 96 50 97 48 98
REMARK H PARENT 8 6 1 11 1 12 13 32 72 51 40 62
REMARK Flexibility Score: inf
ROOT
ATOM      1  C   UNL A   1      37.151  21.250  24.589  1.00  0.00     0.023 C 
ENDROOT
BRANCH   1   2
ATOM      2  C   UNL A   1      36.654  22.057  25.786  1.00  0.00     0.116 C 
BRANCH   2   3
ATOM      3  N   UNL A   1      35.504  21.438  26.408  1.00  0.00    -0.354 N 
ATOM      4  C   UNL A   1      34.173  21.478  26.108  1.00  0.00     0.243 C 
ATOM      5  O   UNL A   1      33.473  20.679  26.737  1.00  0.00    -0.273 OA
ATOM      6  H   UNL A   1      35.722  20.887  27.194  1.00  0.00     0.163 HD
BRANCH   4   7
ATOM      7  C   UNL A   1      33.613  22.283  24.901  1.00  0.00     0.190 C 
BRANCH   7   8
ATOM      8  C   UNL A   1      32.606  21.455  24.076  1.00  0.00     0.135 C 
BRANCH   8   9
ATOM      9  C   UNL A   1      32.546  21.917  22.641  1.00  0.00     0.220 C 
ATOM     10  N   UNL A   1      31.700  21.231  21.823  1.00  0.00    -0.370 N 
ATOM     11  H   UNL A   1      31.617  21.485  20.876  1.00  0.00     0.159 HD
ATOM     12  H   UNL A   1      31.172  20.481  22.180  1.00  0.00     0.159 HD
ATOM     13  O   UNL A   1      33.237  22.824  22.194  1.00  0.00    -0.275 OA
ENDBRANCH   8   9
ENDBRANCH   7   8
BRANCH   7  14
ATOM     14  N   UNL A   1      33.042  23.602  25.274  1.00  0.00    -0.280 N 
ATOM     15  C   UNL A   1      33.833  24.731  25.124  1.00  0.00     0.266 C 
ATOM     16  C   UNL A   1      31.804  23.808  25.848  1.00  0.00     0.149 C 
ATOM     17  O   UNL A   1      34.971  24.751  24.678  1.00  0.00    -0.268 OA
ATOM     18  C   UNL A   1      33.107  25.945  25.588  1.00  0.00     0.081 C 
ATOM     19  S   UNL A   1      31.495  25.527  25.995  1.00  0.00    -0.054 SA
ATOM     20  S   UNL A   1      30.696  22.679  26.378  1.00  0.00    -0.052 S 
ATOM     21  C   UNL A   1      33.701  27.147  25.626  1.00  0.00     0.029 C 
BRANCH  21  22
ATOM     22  C   UNL A   1      33.111  28.453  25.971  1.00  0.00    -0.024 A 
ATOM     23  C   UNL A   1      33.618  29.124  27.093  1.00  0.00     0.008 A 
ATOM     24  C   UNL A   1      32.058  29.045  25.261  1.00  0.00     0.008 A 
ATOM     25  C   UNL A   1      33.131  30.383  27.455  1.00  0.00     0.001 A 
ATOM     26  C   UNL A   1      31.584  30.312  25.611  1.00  0.00     0.001 A 
ATOM     27  C   UNL A   1      32.125  30.984  26.703  1.00  0.00     0.000 A 
ENDBRANCH  21  22
ENDBRANCH   7  14
ENDBRANCH   4   7
ENDBRANCH   2   3
ENDBRANCH   1   2
BRANCH   1  28
ATOM     28  C   UNL A   1      37.980  20.022  24.966  1.00  0.00     0.023 C 
BRANCH  28  29
ATOM     29  C   UNL A   1      39.245  20.317  25.766  1.00  0.00     0.116 C 
BRANCH  29  30
ATOM     30  N   UNL A   1      40.159  19.187  25.847  1.00  0.00    -0.352 N 
ATOM     31  C   UNL A   1      41.511  19.198  26.098  1.00  0.00     0.251 C 
ATOM     32  H   UNL A   1      39.756  18.300  25.704  1.00  0.00     0.163 HD
ATOM     33  O   UNL A   1      42.168  18.166  26.032  1.00  0.00    -0.269 OA
BRANCH  31  34
ATOM     34  C   UNL A   1      42.172  20.482  26.406  1.00  0.00     0.039 A 
ATOM     35  C   UNL A   1      42.664  21.258  25.355  1.00  0.00     0.014 A 
ATOM     36  C   UNL A   1      42.254  20.940  27.724  1.00  0.00     0.014 A 
ATOM     37  C   UNL A   1      43.171  22.532  25.619  1.00  0.00     0.010 A 
ATOM     38  C   UNL A   1      42.687  22.237  27.975  1.00  0.00     0.010 A 
ATOM     39  C   UNL A   1      43.148  23.046  26.925  1.00  0.00    -0.014 A 
BRANCH  39  40
ATOM     40  C   UNL A   1      43.600  24.431  27.218  1.00  0.00     0.031 A 
ATOM     41  C   UNL A   1      42.617  25.451  27.721  1.00  0.00     0.074 A 
ATOM     42  C   UNL A   1      44.874  24.787  26.962  1.00  0.00     0.049 A 
ATOM     43  N   UNL A   1      42.793  26.726  27.956  1.00  0.00    -0.248 NA
ATOM     44  C   UNL A   1      41.243  24.980  27.963  1.00  0.00     0.031 C 
ATOM     45  C   UNL A   1      45.909  23.903  26.424  1.00  0.00     0.029 A 
ATOM     46  N   UNL A   1      45.513  25.994  27.108  1.00  0.00    -0.354 N 
ATOM     47  C   UNL A   1      41.555  27.211  28.355  1.00  0.00     0.074 A 
ATOM     48  C   UNL A   1      40.623  26.108  28.275  1.00  0.00     0.031 C 
ATOM     49  C   UNL A   1      47.057  24.589  26.308  1.00  0.00     0.029 A 
ATOM     50  C   UNL A   1      46.831  25.970  26.723  1.00  0.00     0.049 A 
ATOM     51  H   UNL A   1      45.067  26.800  27.456  1.00  0.00     0.167 HD
ATOM     52  C   UNL A   1      41.230  28.456  28.776  1.00  0.00     0.037 A 
ATOM     53  C   UNL A   1      47.749  26.954  26.699  1.00  0.00     0.037 A 
ATOM     54  C   UNL A   1      42.167  29.543  28.880  1.00  0.00     0.049 A 
ATOM     55  C   UNL A   1      47.362  28.331  27.167  1.00  0.00     0.074 A 
ATOM     56  C   UNL A   1      41.951  30.826  29.353  1.00  0.00     0.029 A 
ATOM     57  N   UNL A   1      43.500  29.475  28.503  1.00  0.00    -0.354 N 
ATOM     58  N   UNL A   1      46.205  28.759  27.611  1.00  0.00    -0.248 NA
ATOM     59  C   UNL A   1      48.409  29.361  27.137  1.00  0.00     0.031 C 
ATOM     60  C   UNL A   1      43.141  31.548  29.216  1.00  0.00     0.029 A 
ATOM     61  C   UNL A   1      44.114  30.700  28.711  1.00  0.00     0.049 A 
ATOM     62  H   UNL A   1      43.944  28.674  28.140  1.00  0.00     0.167 HD
ATOM     63  C   UNL A   1      46.394  30.095  27.944  1.00  0.00     0.074 A 
ATOM     64  C   UNL A   1      47.780  30.402  27.663  1.00  0.00     0.031 C 
ATOM     65  C   UNL A   1      45.499  30.985  28.438  1.00  0.00     0.037 A 
BRANCH  52  66
ATOM     66  C   UNL A   1      39.801  28.708  29.161  1.00  0.00     0.064 A 
ATOM     67  C   UNL A   1      39.335  28.466  30.463  1.00  0.00     0.173 A 
ATOM     68  C   UNL A   1      38.892  29.229  28.227  1.00  0.00     0.173 A 
ATOM     69  F   UNL A   1      40.159  27.957  31.391  1.00  0.00    -0.203 F 
ATOM     70  C   UNL A   1      38.008  28.707  30.806  1.00  0.00     0.198 A 
ATOM     71  C   UNL A   1      37.574  29.499  28.583  1.00  0.00     0.198 A 
ATOM     72  F   UNL A   1      39.286  29.483  26.970  1.00  0.00    -0.203 F 
ATOM     73  F   UNL A   1      37.574  28.417  32.041  1.00  0.00    -0.200 F 
ATOM     74  C   UNL A   1      37.130  29.230  29.869  1.00  0.00     0.200 A 
ATOM     75  F   UNL A   1      36.730  30.018  27.680  1.00  0.00    -0.200 F 
ATOM     76  F   UNL A   1      35.855  29.469  30.204  1.00  0.00    -0.200 F 
ENDBRANCH  52  66
BRANCH  53  77
ATOM     77  C   UNL A   1      49.134  26.671  26.238  1.00  0.00     0.064 A 
ATOM     78  C   UNL A   1      49.518  26.924  24.913  1.00  0.00     0.173 A 
ATOM     79  C   UNL A   1      50.098  26.132  27.103  1.00  0.00     0.173 A 
ATOM     80  F   UNL A   1      48.627  27.420  24.043  1.00  0.00    -0.203 F 
ATOM     81  C   UNL A   1      50.803  26.627  24.465  1.00  0.00     0.198 A 
ATOM     82  C   UNL A   1      51.393  25.863  26.661  1.00  0.00     0.198 A 
ATOM     83  F   UNL A   1      49.786  25.876  28.382  1.00  0.00    -0.203 F 
ATOM     84  F   UNL A   1      51.127  26.832  23.181  1.00  0.00    -0.200 F 
ATOM     85  C   UNL A   1      51.742  26.102  25.341  1.00  0.00     0.200 A 
ATOM     86  F   UNL A   1      52.301  25.370  27.514  1.00  0.00    -0.200 F 
ATOM     87  F   UNL A   1      52.978  25.818  24.910  1.00  0.00    -0.200 F 
ENDBRANCH  53  77
BRANCH  65  88
ATOM     88  C   UNL A   1      46.000  32.365  28.749  1.00  0.00     0.064 A 
ATOM     89  C   UNL A   1      45.945  33.402  27.805  1.00  0.00     0.173 A 
ATOM     90  C   UNL A   1      46.499  32.666  30.026  1.00  0.00     0.173 A 
ATOM     91  F   UNL A   1      45.491  33.163  26.566  1.00  0.00    -0.203 F 
ATOM     92  C   UNL A   1      46.397  34.681  28.121  1.00  0.00     0.198 A 
ATOM     93  C   UNL A   1      46.919  33.954  30.348  1.00  0.00     0.198 A 
ATOM     94  F   UNL A   1      46.565  31.713  30.968  1.00  0.00    -0.203 F 
ATOM     95  F   UNL A   1      46.381  35.643  27.187  1.00  0.00    -0.200 F 
ATOM     96  C   UNL A   1      46.875  34.957  29.393  1.00  0.00     0.200 A 
ATOM     97  F   UNL A   1      47.366  34.222  31.583  1.00  0.00    -0.200 F 
ATOM     98  F   UNL A   1      47.299  36.192  29.697  1.00  0.00    -0.200 F 
ENDBRANCH  65  88
ENDBRANCH  39  40
ENDBRANCH  31  34
ENDBRANCH  29  30
ENDBRANCH  28  29
ENDBRANCH   1  28
TORSDOF 15
ENDMDL
MODEL 2
REMARK VINA RESULT:     -12.7      4.869      8.224
REMARK SMILES NC(=O)C[C@H](C(=O)NCCCCNC(=O)c1ccc(-c2c3nc(c(-c4c(F)c(F)c(F)c(F)c4F)c4ccc([nH]4)c(-c4c(F)c(F)c(F)c(F)c4F)c4nc(c(-c5c(F)c(F)c(F)c(F)c5F)c5ccc2[nH]5)C=C4)C=C3)cc1)N1C(=O)/C(=C/c2ccccc2)SC1=S
REMARK SMILES IDX 10 1 9 2 8 3 6 4 7 5 5 7 4 8 2 9 1 10 3 13 79 14 80 15 91 16
REMARK SMILES IDX 81 17 82 18 90 19 92 20 83 21 84 22 85 23 89 24 86 25 88 26
REMARK SMILES IDX 87 27 11 28 12 29 13 30 14 31 15 33 16 34 17 35 78 36 18 37
REMARK SMILES IDX 77 38 19 39 20 40 21 41 71 42 22 43 76 44 70 45 72 46 23 47
REMARK SMILES IDX 75 48 69 49 68 50 24 52 56 53 36 54 55 55 37 56 40 57 54 58
REMARK SMILES IDX 73 59 38 60 39 61 53 63 74 64 41 65 25 66 26 67 34 68 27 69
REMARK SMILES IDX 28 70 32 71 35 72 29 73 30 74 33 75 31 76 57 77 58 78 66 79
REMARK SMILES IDX 59 80 60 81 64 82 67 83 61 84 62 85 65 86 63 87 42 88 43 89
REMARK SMILES IDX 51 90 44 91 45 92 49 93 52 94 46 95 47 96 50 97 48 98
REMARK H PARENT 8 6 1 11 1 12 13 32 72 51 40 62
REMARK Flexibility Score: inf
ROOT
ATOM      1  C   UNL A   1      31.789  27.970  27.375  1.00  0.00     0.023 C 
ENDROOT
BRANCH   1   2
ATOM      2  C   UNL A   1      32.436  26.698  26.829  1.00  0.00     0.116 C 
BRANCH   2   3
ATOM      3  N   UNL A   1      31.516  25.582  26.845  1.00  0.00    -0.354 N 
ATOM      4  C   UNL A   1      31.072  24.752  25.857  1.00  0.00     0.243 C 
ATOM      5  O   UNL A   1      30.425  23.776  26.248  1.00  0.00    -0.273 OA
ATOM      6  H   UNL A   1      31.141  25.385  27.733  1.00  0.00     0.163 HD
BRANCH   4   7
ATOM      7  C   UNL A   1      31.544  24.883  24.381  1.00  0.00     0.190 C 
BRANCH   7   8
ATOM      8  C   UNL A   1      30.986  23.749  23.497  1.00  0.00     0.135 C 
BRANCH   8   9
ATOM      9  C   UNL A   1      32.020  22.683  23.234  1.00  0.00     0.220 C 
ATOM     10  N   UNL A   1      31.779  21.859  22.177  1.00  0.00    -0.370 N 
ATOM     11  H   UNL A   1      32.418  21.144  21.955  1.00  0.00     0.159 HD
ATOM     12  H   UNL A   1      30.966  21.978  21.636  1.00  0.00     0.159 HD
ATOM     13  O   UNL A   1      33.009  22.515  23.936  1.00  0.00    -0.275 OA
ENDBRANCH   8   9
ENDBRANCH   7   8
BRANCH   7  14
ATOM     14  N   UNL A   1      31.273  26.213  23.781  1.00  0.00    -0.280 N 
ATOM     15  C   UNL A   1      30.011  26.765  23.938  1.00  0.00     0.266 C 
ATOM     16  C   UNL A   1      32.149  26.932  22.992  1.00  0.00     0.149 C 
ATOM     17  O   UNL A   1      29.085  26.264  24.561  1.00  0.00    -0.268 OA
ATOM     18  C   UNL A   1      29.919  28.074  23.235  1.00  0.00     0.081 C 
ATOM     19  S   UNL A   1      31.459  28.498  22.614  1.00  0.00    -0.054 SA
ATOM     20  S   UNL A   1      33.645  26.479  22.410  1.00  0.00    -0.052 S 
ATOM     21  C   UNL A   1      28.766  28.755  23.168  1.00  0.00     0.029 C 
BRANCH  21  22
ATOM     22  C   UNL A   1      28.521  30.091  22.593  1.00  0.00    -0.024 A 
ATOM     23  C   UNL A   1      28.598  31.197  23.453  1.00  0.00     0.008 A 
ATOM     24  C   UNL A   1      28.189  30.314  21.251  1.00  0.00     0.008 A 
ATOM     25  C   UNL A   1      28.415  32.494  22.968  1.00  0.00     0.001 A 
ATOM     26  C   UNL A   1      28.025  31.613  20.762  1.00  0.00     0.001 A 
ATOM     27  C   UNL A   1      28.146  32.703  21.619  1.00  0.00     0.000 A 
ENDBRANCH  21  22
ENDBRANCH   7  14
ENDBRANCH   4   7
ENDBRANCH   2   3
ENDBRANCH   1   2
BRANCH   1  28
ATOM     28  C   UNL A   1      31.604  29.072  26.331  1.00  0.00     0.023 C 
BRANCH  28  29
ATOM     29  C   UNL A   1      32.829  29.948  26.092  1.00  0.00     0.116 C 
BRANCH  29  30
ATOM     30  N   UNL A   1      32.637  31.336  26.487  1.00  0.00    -0.352 N 
ATOM     31  C   UNL A   1      33.412  32.099  27.329  1.00  0.00     0.251 C 
ATOM     32  H   UNL A   1      31.852  31.786  26.100  1.00  0.00     0.163 HD
ATOM     33  O   UNL A   1      33.061  33.229  27.648  1.00  0.00    -0.269 OA
BRANCH  31  34
ATOM     34  C   UNL A   1      34.653  31.521  27.882  1.00  0.00     0.039 A 
ATOM     35  C   UNL A   1      35.773  32.342  28.030  1.00  0.00     0.014 A 
ATOM     36  C   UNL A   1      34.691  30.189  28.302  1.00  0.00     0.014 A 
ATOM     37  C   UNL A   1      36.909  31.846  28.672  1.00  0.00     0.010 A 
ATOM     38  C   UNL A   1      35.792  29.722  29.010  1.00  0.00     0.010 A 
ATOM     39  C   UNL A   1      36.912  30.547  29.203  1.00  0.00    -0.014 A 
BRANCH  39  40
ATOM     40  C   UNL A   1      38.075  30.027  29.967  1.00  0.00     0.031 A 
ATOM     41  C   UNL A   1      38.312  30.488  31.378  1.00  0.00     0.074 A 
ATOM     42  C   UNL A   1      38.953  29.199  29.369  1.00  0.00     0.049 A 
ATOM     43  N   UNL A   1      39.310  30.218  32.181  1.00  0.00    -0.248 NA
ATOM     44  C   UNL A   1      37.310  31.400  31.952  1.00  0.00     0.031 C 
ATOM     45  C   UNL A   1      38.861  28.721  27.988  1.00  0.00     0.029 A 
ATOM     46  N   UNL A   1      40.107  28.625  29.841  1.00  0.00    -0.354 N 
ATOM     47  C   UNL A   1      39.064  30.937  33.343  1.00  0.00     0.074 A 
ATOM     48  C   UNL A   1      37.856  31.701  33.121  1.00  0.00     0.031 C 
ATOM     49  C   UNL A   1      39.898  27.908  27.734  1.00  0.00     0.029 A 
ATOM     50  C   UNL A   1      40.751  27.839  28.916  1.00  0.00     0.049 A 
ATOM     51  H   UNL A   1      40.441  28.762  30.757  1.00  0.00     0.167 HD
ATOM     52  C   UNL A   1      39.768  30.941  34.501  1.00  0.00     0.037 A 
ATOM     53  C   UNL A   1      41.904  27.150  29.010  1.00  0.00     0.037 A 
ATOM     54  C   UNL A   1      40.955  30.158  34.726  1.00  0.00     0.049 A 
ATOM     55  C   UNL A   1      42.670  27.174  30.306  1.00  0.00     0.074 A 
ATOM     56  C   UNL A   1      41.705  30.044  35.883  1.00  0.00     0.029 A 
ATOM     57  N   UNL A   1      41.564  29.356  33.772  1.00  0.00    -0.354 N 
ATOM     58  N   UNL A   1      42.388  27.801  31.422  1.00  0.00    -0.248 NA
ATOM     59  C   UNL A   1      43.911  26.389  30.356  1.00  0.00     0.031 C 
ATOM     60  C   UNL A   1      42.797  29.211  35.615  1.00  0.00     0.029 A 
ATOM     61  C   UNL A   1      42.695  28.762  34.308  1.00  0.00     0.049 A 
ATOM     62  H   UNL A   1      41.241  29.229  32.851  1.00  0.00     0.167 HD
ATOM     63  C   UNL A   1      43.396  27.460  32.316  1.00  0.00     0.074 A 
ATOM     64  C   UNL A   1      44.288  26.561  31.616  1.00  0.00     0.031 C 
ATOM     65  C   UNL A   1      43.566  27.858  33.601  1.00  0.00     0.037 A 
BRANCH  52  66
ATOM     66  C   UNL A   1      39.268  31.814  35.614  1.00  0.00     0.064 A 
ATOM     67  C   UNL A   1      38.374  31.333  36.584  1.00  0.00     0.173 A 
ATOM     68  C   UNL A   1      39.712  33.140  35.734  1.00  0.00     0.173 A 
ATOM     69  F   UNL A   1      37.909  30.077  36.509  1.00  0.00    -0.203 F 
ATOM     70  C   UNL A   1      37.922  32.154  37.613  1.00  0.00     0.198 A 
ATOM     71  C   UNL A   1      39.283  33.948  36.783  1.00  0.00     0.198 A 
ATOM     72  F   UNL A   1      40.571  33.649  34.838  1.00  0.00    -0.203 F 
ATOM     73  F   UNL A   1      37.027  31.688  38.496  1.00  0.00    -0.200 F 
ATOM     74  C   UNL A   1      38.382  33.458  37.716  1.00  0.00     0.200 A 
ATOM     75  F   UNL A   1      39.739  35.204  36.890  1.00  0.00    -0.200 F 
ATOM     76  F   UNL A   1      37.951  34.245  38.712  1.00  0.00    -0.200 F 
ENDBRANCH  52  66
BRANCH  53  77
ATOM     77  C   UNL A   1      42.396  26.358  27.852  1.00  0.00     0.064 A 
ATOM     78  C   UNL A   1      43.346  26.889  26.968  1.00  0.00     0.173 A 
ATOM     79  C   UNL A   1      41.921  25.063  27.596  1.00  0.00     0.173 A 
ATOM     80  F   UNL A   1      43.816  28.131  27.158  1.00  0.00    -0.203 F 
ATOM     81  C   UNL A   1      43.784  26.167  25.859  1.00  0.00     0.198 A 
ATOM     82  C   UNL A   1      42.382  24.329  26.504  1.00  0.00     0.198 A 
ATOM     83  F   UNL A   1      41.016  24.506  28.413  1.00  0.00    -0.203 F 
ATOM     84  F   UNL A   1      44.655  26.719  25.003  1.00  0.00    -0.200 F 
ATOM     85  C   UNL A   1      43.306  24.885  25.632  1.00  0.00     0.200 A 
ATOM     86  F   UNL A   1      41.930  23.086  26.296  1.00  0.00    -0.200 F 
ATOM     87  F   UNL A   1      43.729  24.190  24.568  1.00  0.00    -0.200 F 
ENDBRANCH  53  77
BRANCH  65  88
ATOM     88  C   UNL A   1      44.735  27.288  34.350  1.00  0.00     0.064 A 
ATOM     89  C   UNL A   1      45.969  27.954  34.411  1.00  0.00     0.173 A 
ATOM     90  C   UNL A   1      44.605  26.081  35.054  1.00  0.00     0.173 A 
ATOM     91  F   UNL A   1      46.150  29.103  33.742  1.00  0.00    -0.203 F 
ATOM     92  C   UNL A   1      47.036  27.418  35.128  1.00  0.00     0.198 A 
ATOM     93  C   UNL A   1      45.664  25.565  35.796  1.00  0.00     0.198 A 
ATOM     94  F   UNL A   1      43.444  25.409  35.035  1.00  0.00    -0.203 F 
ATOM     95  F   UNL A   1      48.219  28.047  35.132  1.00  0.00    -0.200 F 
ATOM     96  C   UNL A   1      46.880  26.230  35.826  1.00  0.00     0.200 A 
ATOM     97  F   UNL A   1      45.506  24.425  36.483  1.00  0.00    -0.200 F 
ATOM     98  F   UNL A   1      47.905  25.722  36.524  1.00  0.00    -0.200 F 
ENDBRANCH  65  88
ENDBRANCH  39  40
ENDBRANCH  31  34
ENDBRANCH  29  30
ENDBRANCH  28  29
ENDBRANCH   1  28
TORSDOF 15
ENDMDL
MODEL 3
REMARK VINA RESULT:     -12.6      0.127      1.922
REMARK SMILES NC(=O)C[C@H](C(=O)NCCCCNC(=O)c1ccc(-c2c3nc(c(-c4c(F)c(F)c(F)c(F)c4F)c4ccc([nH]4)c(-c4c(F)c(F)c(F)c(F)c4F)c4nc(c(-c5c(F)c(F)c(F)c(F)c5F)c5ccc2[nH]5)C=C4)C=C3)cc1)N1C(=O)/C(=C/c2ccccc2)SC1=S
REMARK SMILES IDX 10 1 9 2 8 3 6 4 7 5 5 7 4 8 2 9 1 10 3 13 79 14 80 15 91 16
REMARK SMILES IDX 81 17 82 18 90 19 92 20 83 21 84 22 85 23 89 24 86 25 88 26
REMARK SMILES IDX 87 27 11 28 12 29 13 30 14 31 15 33 16 34 17 35 78 36 18 37
REMARK SMILES IDX 77 38 19 39 20 40 21 41 71 42 22 43 76 44 70 45 72 46 23 47
REMARK SMILES IDX 75 48 69 49 68 50 24 52 56 53 36 54 55 55 37 56 40 57 54 58
REMARK SMILES IDX 73 59 38 60 39 61 53 63 74 64 41 65 25 66 26 67 34 68 27 69
REMARK SMILES IDX 28 70 32 71 35 72 29 73 30 74 33 75 31 76 57 77 58 78 66 79
REMARK SMILES IDX 59 80 60 81 64 82 67 83 61 84 62 85 65 86 63 87 42 88 43 89
REMARK SMILES IDX 51 90 44 91 45 92 49 93 52 94 46 95 47 96 50 97 48 98
REMARK H PARENT 8 6 1 11 1 12 13 32 72 51 40 62
REMARK Flexibility Score: inf
ROOT
ATOM      1  C   UNL A   1      36.997  21.364  24.603  1.00  0.00     0.023 C 
ENDROOT
BRANCH   1   2
ATOM      2  C   UNL A   1      36.519  22.078  25.866  1.00  0.00     0.116 C 
BRANCH   2   3
ATOM      3  N   UNL A   1      35.368  21.421  26.447  1.00  0.00    -0.354 N 
ATOM      4  C   UNL A   1      34.044  21.441  26.120  1.00  0.00     0.243 C 
ATOM      5  O   UNL A   1      33.347  20.613  26.714  1.00  0.00    -0.273 OA
ATOM      6  H   UNL A   1      35.581  20.855  27.224  1.00  0.00     0.163 HD
BRANCH   4   7
ATOM      7  C   UNL A   1      33.492  22.265  24.921  1.00  0.00     0.190 C 
BRANCH   7   8
ATOM      8  C   UNL A   1      32.467  21.462  24.095  1.00  0.00     0.135 C 
BRANCH   8   9
ATOM      9  C   UNL A   1      32.478  21.868  22.642  1.00  0.00     0.220 C 
ATOM     10  N   UNL A   1      31.791  21.060  21.787  1.00  0.00    -0.370 N 
ATOM     11  H   UNL A   1      31.762  21.272  20.827  1.00  0.00     0.159 HD
ATOM     12  H   UNL A   1      31.326  20.263  22.130  1.00  0.00     0.159 HD
ATOM     13  O   UNL A   1      33.094  22.837  22.217  1.00  0.00    -0.275 OA
ENDBRANCH   8   9
ENDBRANCH   7   8
BRANCH   7  14
ATOM     14  N   UNL A   1      32.949  23.592  25.306  1.00  0.00    -0.280 N 
ATOM     15  C   UNL A   1      33.748  24.711  25.130  1.00  0.00     0.266 C 
ATOM     16  C   UNL A   1      31.730  23.814  25.915  1.00  0.00     0.149 C 
ATOM     17  O   UNL A   1      34.873  24.716  24.651  1.00  0.00    -0.268 OA
ATOM     18  C   UNL A   1      33.051  25.935  25.610  1.00  0.00     0.081 C 
ATOM     19  S   UNL A   1      31.446  25.538  26.065  1.00  0.00    -0.054 SA
ATOM     20  S   UNL A   1      30.624  22.700  26.480  1.00  0.00    -0.052 S 
ATOM     21  C   UNL A   1      33.660  27.129  25.627  1.00  0.00     0.029 C 
BRANCH  21  22
ATOM     22  C   UNL A   1      33.095  28.444  25.984  1.00  0.00    -0.024 A 
ATOM     23  C   UNL A   1      33.649  29.117  27.084  1.00  0.00     0.008 A 
ATOM     24  C   UNL A   1      32.024  29.042  25.309  1.00  0.00     0.008 A 
ATOM     25  C   UNL A   1      33.188  30.382  27.454  1.00  0.00     0.001 A 
ATOM     26  C   UNL A   1      31.575  30.316  25.668  1.00  0.00     0.001 A 
ATOM     27  C   UNL A   1      32.162  30.989  26.735  1.00  0.00     0.000 A 
ENDBRANCH  21  22
ENDBRANCH   7  14
ENDBRANCH   4   7
ENDBRANCH   2   3
ENDBRANCH   1   2
BRANCH   1  28
ATOM     28  C   UNL A   1      37.891  20.153  24.873  1.00  0.00     0.023 C 
BRANCH  28  29
ATOM     29  C   UNL A   1      39.133  20.441  25.709  1.00  0.00     0.116 C 
BRANCH  29  30
ATOM     30  N   UNL A   1      40.023  19.295  25.842  1.00  0.00    -0.352 N 
ATOM     31  C   UNL A   1      41.369  19.288  26.125  1.00  0.00     0.251 C 
ATOM     32  H   UNL A   1      39.607  18.413  25.712  1.00  0.00     0.163 HD
ATOM     33  O   UNL A   1      42.007  18.242  26.101  1.00  0.00    -0.269 OA
BRANCH  31  34
ATOM     34  C   UNL A   1      42.047  20.567  26.416  1.00  0.00     0.039 A 
ATOM     35  C   UNL A   1      42.395  21.404  25.353  1.00  0.00     0.014 A 
ATOM     36  C   UNL A   1      42.288  20.959  27.735  1.00  0.00     0.014 A 
ATOM     37  C   UNL A   1      42.915  22.672  25.619  1.00  0.00     0.010 A 
ATOM     38  C   UNL A   1      42.732  22.250  27.998  1.00  0.00     0.010 A 
ATOM     39  C   UNL A   1      43.049  23.120  26.943  1.00  0.00    -0.014 A 
BRANCH  39  40
ATOM     40  C   UNL A   1      43.517  24.496  27.249  1.00  0.00     0.031 A 
ATOM     41  C   UNL A   1      42.545  25.523  27.760  1.00  0.00     0.074 A 
ATOM     42  C   UNL A   1      44.795  24.838  27.001  1.00  0.00     0.049 A 
ATOM     43  N   UNL A   1      42.736  26.794  28.006  1.00  0.00    -0.248 NA
ATOM     44  C   UNL A   1      41.165  25.067  27.993  1.00  0.00     0.031 C 
ATOM     45  C   UNL A   1      45.822  23.947  26.457  1.00  0.00     0.029 A 
ATOM     46  N   UNL A   1      45.448  26.036  27.159  1.00  0.00    -0.354 N 
ATOM     47  C   UNL A   1      41.502  27.290  28.407  1.00  0.00     0.074 A 
ATOM     48  C   UNL A   1      40.557  26.199  28.314  1.00  0.00     0.031 C 
ATOM     49  C   UNL A   1      46.978  24.620  26.351  1.00  0.00     0.029 A 
ATOM     50  C   UNL A   1      46.768  26.000  26.777  1.00  0.00     0.049 A 
ATOM     51  H   UNL A   1      45.012  26.844  27.513  1.00  0.00     0.167 HD
ATOM     52  C   UNL A   1      41.191  28.535  28.838  1.00  0.00     0.037 A 
ATOM     53  C   UNL A   1      47.698  26.973  26.765  1.00  0.00     0.037 A 
ATOM     54  C   UNL A   1      42.142  29.610  28.954  1.00  0.00     0.049 A 
ATOM     55  C   UNL A   1      47.326  28.350  27.245  1.00  0.00     0.074 A 
ATOM     56  C   UNL A   1      41.940  30.890  29.439  1.00  0.00     0.029 A 
ATOM     57  N   UNL A   1      43.474  29.528  28.580  1.00  0.00    -0.354 N 
ATOM     58  N   UNL A   1      46.173  28.788  27.690  1.00  0.00    -0.248 NA
ATOM     59  C   UNL A   1      48.386  29.367  27.227  1.00  0.00     0.031 C 
ATOM     60  C   UNL A   1      43.139  31.600  29.311  1.00  0.00     0.029 A 
ATOM     61  C   UNL A   1      44.102  30.744  28.801  1.00  0.00     0.049 A 
ATOM     62  H   UNL A   1      43.910  28.726  28.211  1.00  0.00     0.167 HD
ATOM     63  C   UNL A   1      46.377  30.118  28.035  1.00  0.00     0.074 A 
ATOM     64  C   UNL A   1      47.768  30.411  27.761  1.00  0.00     0.031 C 
ATOM     65  C   UNL A   1      45.492  31.015  28.534  1.00  0.00     0.037 A 
BRANCH  52  66
ATOM     66  C   UNL A   1      39.764  28.801  29.221  1.00  0.00     0.064 A 
ATOM     67  C   UNL A   1      38.826  29.270  28.288  1.00  0.00     0.173 A 
ATOM     68  C   UNL A   1      39.320  28.552  30.528  1.00  0.00     0.173 A 
ATOM     69  F   UNL A   1      39.201  29.536  27.028  1.00  0.00    -0.203 F 
ATOM     70  C   UNL A   1      37.505  29.509  28.658  1.00  0.00     0.198 A 
ATOM     71  C   UNL A   1      37.991  28.761  30.886  1.00  0.00     0.198 A 
ATOM     72  F   UNL A   1      40.173  28.098  31.458  1.00  0.00    -0.203 F 
ATOM     73  F   UNL A   1      36.641  30.008  27.763  1.00  0.00    -0.200 F 
ATOM     74  C   UNL A   1      37.087  29.247  29.953  1.00  0.00     0.200 A 
ATOM     75  F   UNL A   1      37.584  28.495  32.134  1.00  0.00    -0.200 F 
ATOM     76  F   UNL A   1      35.813  29.471  30.305  1.00  0.00    -0.200 F 
ENDBRANCH  52  66
BRANCH  53  77
ATOM     77  C   UNL A   1      49.081  26.677  26.306  1.00  0.00     0.064 A 
ATOM     78  C   UNL A   1      50.043  26.176  27.195  1.00  0.00     0.173 A 
ATOM     79  C   UNL A   1      49.474  26.897  24.978  1.00  0.00     0.173 A 
ATOM     80  F   UNL A   1      49.721  25.967  28.480  1.00  0.00    -0.203 F 
ATOM     81  C   UNL A   1      51.350  25.931  26.780  1.00  0.00     0.198 A 
ATOM     82  C   UNL A   1      50.774  26.623  24.556  1.00  0.00     0.198 A 
ATOM     83  F   UNL A   1      48.592  27.369  24.085  1.00  0.00    -0.203 F 
ATOM     84  F   UNL A   1      52.262  25.501  27.663  1.00  0.00    -0.200 F 
ATOM     85  C   UNL A   1      51.713  26.149  25.460  1.00  0.00     0.200 A 
ATOM     86  F   UNL A   1      51.118  26.821  23.277  1.00  0.00    -0.200 F 
ATOM     87  F   UNL A   1      52.970  25.912  25.061  1.00  0.00    -0.200 F 
ENDBRANCH  53  77
BRANCH  65  88
ATOM     88  C   UNL A   1      46.008  32.386  28.860  1.00  0.00     0.064 A 
ATOM     89  C   UNL A   1      46.566  32.688  30.112  1.00  0.00     0.173 A 
ATOM     90  C   UNL A   1      45.987  33.400  27.890  1.00  0.00     0.173 A 
ATOM     91  F   UNL A   1      46.596  31.759  31.078  1.00  0.00    -0.203 F 
ATOM     92  C   UNL A   1      47.059  33.961  30.387  1.00  0.00     0.198 A 
ATOM     93  C   UNL A   1      46.510  34.662  28.158  1.00  0.00     0.198 A 
ATOM     94  F   UNL A   1      45.472  33.161  26.673  1.00  0.00    -0.203 F 
ATOM     95  F   UNL A   1      47.542  34.240  31.605  1.00  0.00    -0.200 F 
ATOM     96  C   UNL A   1      47.038  34.943  29.408  1.00  0.00     0.200 A 
ATOM     97  F   UNL A   1      46.503  35.605  27.205  1.00  0.00    -0.200 F 
ATOM     98  F   UNL A   1      47.522  36.165  29.672  1.00  0.00    -0.200 F 
ENDBRANCH  65  88
ENDBRANCH  39  40
ENDBRANCH  31  34
ENDBRANCH  29  30
ENDBRANCH  28  29
ENDBRANCH   1  28
TORSDOF 15
ENDMDL
