MODEL 1
REMARK VINA RESULT:     -12.8      0.000      0.000
REMARK SMILES Cc1cc([C@@H](C)NC(=O)N[C@H]2C=C[C@@H](C(=O)NCCCCNC(=O)c3ccc(-c4c5nc(c(-c6c(F)c(F)c(F)c(F)c6F)c6ccc([nH]6)c(-c6c(F)c(F)c(F)c(F)c6F)c6nc(c(-c7c(F)c(F)c(F)c(F)c7F)c7ccc4[nH]7)C=C6)C=C5)cc3)C2)c(C)s1
REMARK SMILES IDX 19 1 18 2 17 3 15 4 16 5 14 7 11 8 12 9 88 10 13 11 10 12
REMARK SMILES IDX 7 13 8 14 9 16 5 18 6 19 4 20 1 21 2 22 3 23 91 24 89 25
REMARK SMILES IDX 90 26 20 27 21 28 22 29 23 30 24 32 25 33 26 34 87 35 27 36
REMARK SMILES IDX 86 37 28 38 29 39 30 40 80 41 31 42 85 43 79 44 81 45 32 46
REMARK SMILES IDX 84 47 78 48 77 49 33 51 65 52 45 53 64 54 46 55 49 56 63 57
REMARK SMILES IDX 82 58 47 59 48 60 62 62 83 63 50 64 34 65 35 66 43 67 36 68
REMARK SMILES IDX 37 69 41 70 44 71 38 72 39 73 42 74 40 75 66 76 67 77 75 78
REMARK SMILES IDX 68 79 69 80 73 81 76 82 70 83 71 84 74 85 72 86 51 87 52 88
REMARK SMILES IDX 60 89 53 90 54 91 58 92 61 93 55 94 56 95 59 96 57 97
REMARK H PARENT 17 6 7 15 10 17 22 31 81 50 49 61
REMARK Flexibility Score: inf
ROOT
ATOM      1  C   UNL A   1      37.212  21.140  24.893  1.00  0.00     0.023 C 
ENDROOT
BRANCH   1   2
ATOM      2  C   UNL A   1      35.782  20.768  25.267  1.00  0.00     0.116 C 
BRANCH   2   3
ATOM      3  N   UNL A   1      35.336  21.413  26.483  1.00  0.00    -0.356 N 
ATOM      4  C   UNL A   1      34.528  22.493  26.653  1.00  0.00     0.227 C 
ATOM      5  O   UNL A   1      34.248  22.811  27.813  1.00  0.00    -0.274 OA
ATOM      6  H   UNL A   1      35.668  21.006  27.315  1.00  0.00     0.163 HD
BRANCH   4   7
ATOM      7  C   UNL A   1      34.036  23.355  25.484  1.00  0.00     0.103 C 
ATOM      8  C   UNL A   1      32.552  25.348  25.398  1.00  0.00     0.107 C 
ATOM      9  C   UNL A   1      33.982  25.664  25.061  1.00  0.00    -0.006 C 
ATOM     10  C   UNL A   1      32.608  23.848  25.703  1.00  0.00     0.047 C 
ATOM     11  C   UNL A   1      34.788  24.596  25.138  1.00  0.00    -0.016 C 
BRANCH   8  12
ATOM     12  N   UNL A   1      32.166  26.158  26.534  1.00  0.00    -0.332 N 
ATOM     13  N   UNL A   1      31.318  28.219  25.720  1.00  0.00    -0.332 N 
ATOM     14  C   UNL A   1      31.640  27.374  26.698  1.00  0.00     0.315 C 
ATOM     15  H   UNL A   1      30.905  29.043  26.069  1.00  0.00     0.165 HD
ATOM     16  O   UNL A   1      31.425  27.737  27.859  1.00  0.00    -0.249 OA
ATOM     17  H   UNL A   1      32.329  25.702  27.392  1.00  0.00     0.165 HD
BRANCH  13  18
ATOM     18  C   UNL A   1      31.418  28.238  24.270  1.00  0.00     0.112 C 
ATOM     19  C   UNL A   1      32.643  29.020  23.808  1.00  0.00     0.036 C 
BRANCH  18  20
ATOM     20  C   UNL A   1      30.097  28.745  23.713  1.00  0.00    -0.012 A 
ATOM     21  C   UNL A   1      28.229  31.640  22.094  1.00  0.00     0.056 C 
ATOM     22  C   UNL A   1      28.695  30.367  22.711  1.00  0.00     0.002 A 
ATOM     23  C   UNL A   1      29.900  30.120  23.326  1.00  0.00     0.021 A 
ATOM     24  S   UNL A   1      27.708  28.987  22.734  1.00  0.00    -0.146 S 
ATOM     25  C   UNL A   1      28.926  28.028  23.481  1.00  0.00     0.007 A 
ATOM     26  C   UNL A   1      28.583  26.605  23.781  1.00  0.00     0.057 C 
ENDBRANCH  18  20
ENDBRANCH  13  18
ENDBRANCH   8  12
ENDBRANCH   4   7
ENDBRANCH   2   3
ENDBRANCH   1   2
BRANCH   1  27
ATOM     27  C   UNL A   1      38.216  19.991  24.955  1.00  0.00     0.023 C 
BRANCH  27  28
ATOM     28  C   UNL A   1      39.324  20.143  25.993  1.00  0.00     0.116 C 
BRANCH  28  29
ATOM     29  N   UNL A   1      40.327  19.091  25.933  1.00  0.00    -0.352 N 
ATOM     30  C   UNL A   1      41.689  19.187  26.074  1.00  0.00     0.251 C 
ATOM     31  H   UNL A   1      39.981  18.184  25.768  1.00  0.00     0.163 HD
ATOM     32  O   UNL A   1      42.402  18.202  25.913  1.00  0.00    -0.269 OA
BRANCH  30  33
ATOM     33  C   UNL A   1      42.301  20.497  26.379  1.00  0.00     0.039 A 
ATOM     34  C   UNL A   1      42.724  21.301  25.317  1.00  0.00     0.014 A 
ATOM     35  C   UNL A   1      42.431  20.943  27.697  1.00  0.00     0.014 A 
ATOM     36  C   UNL A   1      43.211  22.581  25.574  1.00  0.00     0.010 A 
ATOM     37  C   UNL A   1      42.846  22.248  27.946  1.00  0.00     0.010 A 
ATOM     38  C   UNL A   1      43.240  23.080  26.887  1.00  0.00    -0.014 A 
BRANCH  38  39
ATOM     39  C   UNL A   1      43.667  24.476  27.161  1.00  0.00     0.031 A 
ATOM     40  C   UNL A   1      42.680  25.482  27.682  1.00  0.00     0.074 A 
ATOM     41  C   UNL A   1      44.933  24.846  26.890  1.00  0.00     0.049 A 
ATOM     42  N   UNL A   1      42.858  26.750  27.955  1.00  0.00    -0.248 NA
ATOM     43  C   UNL A   1      41.305  25.010  27.899  1.00  0.00     0.031 C 
ATOM     44  C   UNL A   1      45.967  23.976  26.327  1.00  0.00     0.029 A 
ATOM     45  N   UNL A   1      45.565  26.055  27.048  1.00  0.00    -0.354 N 
ATOM     46  C   UNL A   1      41.621  27.226  28.367  1.00  0.00     0.074 A 
ATOM     47  C   UNL A   1      40.686  26.128  28.251  1.00  0.00     0.031 C 
ATOM     48  C   UNL A   1      47.112  24.670  26.215  1.00  0.00     0.029 A 
ATOM     49  C   UNL A   1      46.885  26.040  26.664  1.00  0.00     0.049 A 
ATOM     50  H   UNL A   1      45.117  26.857  27.401  1.00  0.00     0.167 HD
ATOM     51  C   UNL A   1      41.298  28.459  28.825  1.00  0.00     0.037 A 
ATOM     52  C   UNL A   1      47.807  27.021  26.676  1.00  0.00     0.037 A 
ATOM     53  C   UNL A   1      42.235  29.544  28.958  1.00  0.00     0.049 A 
ATOM     54  C   UNL A   1      47.422  28.381  27.191  1.00  0.00     0.074 A 
ATOM     55  C   UNL A   1      42.022  30.812  29.466  1.00  0.00     0.029 A 
ATOM     56  N   UNL A   1      43.568  29.487  28.573  1.00  0.00    -0.354 N 
ATOM     57  N   UNL A   1      46.267  28.797  27.651  1.00  0.00    -0.248 NA
ATOM     58  C   UNL A   1      48.475  29.405  27.198  1.00  0.00     0.031 C 
ATOM     59  C   UNL A   1      43.212  31.539  29.347  1.00  0.00     0.029 A 
ATOM     60  C   UNL A   1      44.182  30.706  28.814  1.00  0.00     0.049 A 
ATOM     61  H   UNL A   1      44.011  28.698  28.187  1.00  0.00     0.167 HD
ATOM     62  C   UNL A   1      46.460  30.119  28.026  1.00  0.00     0.074 A 
ATOM     63  C   UNL A   1      47.849  30.430  27.759  1.00  0.00     0.031 C 
ATOM     64  C   UNL A   1      45.567  30.999  28.543  1.00  0.00     0.037 A 
BRANCH  51  65
ATOM     65  C   UNL A   1      39.870  28.699  29.224  1.00  0.00     0.064 A 
ATOM     66  C   UNL A   1      39.423  28.465  30.534  1.00  0.00     0.173 A 
ATOM     67  C   UNL A   1      38.945  29.201  28.297  1.00  0.00     0.173 A 
ATOM     68  F   UNL A   1      40.265  27.973  31.457  1.00  0.00    -0.203 F 
ATOM     69  C   UNL A   1      38.097  28.693  30.892  1.00  0.00     0.198 A 
ATOM     70  C   UNL A   1      37.627  29.460  28.667  1.00  0.00     0.198 A 
ATOM     71  F   UNL A   1      39.320  29.448  27.033  1.00  0.00    -0.203 F 
ATOM     72  F   UNL A   1      37.682  28.413  32.135  1.00  0.00    -0.200 F 
ATOM     73  C   UNL A   1      37.203  29.198  29.961  1.00  0.00     0.200 A 
ATOM     74  F   UNL A   1      36.767  29.959  27.769  1.00  0.00    -0.200 F 
ATOM     75  F   UNL A   1      35.928  29.425  30.308  1.00  0.00    -0.200 F 
ENDBRANCH  51  65
BRANCH  52  76
ATOM     76  C   UNL A   1      49.193  26.744  26.214  1.00  0.00     0.064 A 
ATOM     77  C   UNL A   1      49.571  26.987  24.887  1.00  0.00     0.173 A 
ATOM     78  C   UNL A   1      50.163  26.224  27.085  1.00  0.00     0.173 A 
ATOM     79  F   UNL A   1      48.673  27.464  24.012  1.00  0.00    -0.203 F 
ATOM     80  C   UNL A   1      50.859  26.700  24.441  1.00  0.00     0.198 A 
ATOM     81  C   UNL A   1      51.459  25.966  26.645  1.00  0.00     0.198 A 
ATOM     82  F   UNL A   1      49.853  25.979  28.366  1.00  0.00    -0.203 F 
ATOM     83  F   UNL A   1      51.178  26.896  23.154  1.00  0.00    -0.200 F 
ATOM     84  C   UNL A   1      51.804  26.195  25.321  1.00  0.00     0.200 A 
ATOM     85  F   UNL A   1      52.373  25.491  27.502  1.00  0.00    -0.200 F 
ATOM     86  F   UNL A   1      53.043  25.921  24.892  1.00  0.00    -0.200 F 
ENDBRANCH  52  76
BRANCH  64  87
ATOM     87  C   UNL A   1      46.075  32.371  28.881  1.00  0.00     0.064 A 
ATOM     88  C   UNL A   1      46.629  32.665  30.135  1.00  0.00     0.173 A 
ATOM     89  C   UNL A   1      46.026  33.400  27.927  1.00  0.00     0.173 A 
ATOM     90  F   UNL A   1      46.686  31.721  31.086  1.00  0.00    -0.203 F 
ATOM     91  C   UNL A   1      47.085  33.946  30.433  1.00  0.00     0.198 A 
ATOM     92  C   UNL A   1      46.512  34.671  28.218  1.00  0.00     0.198 A 
ATOM     93  F   UNL A   1      45.512  33.170  26.709  1.00  0.00    -0.203 F 
ATOM     94  F   UNL A   1      47.558  34.218  31.658  1.00  0.00    -0.200 F 
ATOM     95  C   UNL A   1      47.033  34.946  29.474  1.00  0.00     0.200 A 
ATOM     96  F   UNL A   1      46.474  35.632  27.284  1.00  0.00    -0.200 F 
ATOM     97  F   UNL A   1      47.473  36.178  29.762  1.00  0.00    -0.200 F 
ENDBRANCH  64  87
ENDBRANCH  38  39
ENDBRANCH  30  33
ENDBRANCH  28  29
ENDBRANCH  27  28
ENDBRANCH   1  27
TORSDOF 14
ENDMDL
MODEL 2
REMARK VINA RESULT:     -12.7      0.734      7.399
REMARK SMILES Cc1cc([C@@H](C)NC(=O)N[C@H]2C=C[C@@H](C(=O)NCCCCNC(=O)c3ccc(-c4c5nc(c(-c6c(F)c(F)c(F)c(F)c6F)c6ccc([nH]6)c(-c6c(F)c(F)c(F)c(F)c6F)c6nc(c(-c7c(F)c(F)c(F)c(F)c7F)c7ccc4[nH]7)C=C6)C=C5)cc3)C2)c(C)s1
REMARK SMILES IDX 19 1 18 2 17 3 15 4 16 5 14 7 11 8 12 9 88 10 13 11 10 12
REMARK SMILES IDX 7 13 8 14 9 16 5 18 6 19 4 20 1 21 2 22 3 23 91 24 89 25
REMARK SMILES IDX 90 26 20 27 21 28 22 29 23 30 24 32 25 33 26 34 87 35 27 36
REMARK SMILES IDX 86 37 28 38 29 39 30 40 80 41 31 42 85 43 79 44 81 45 32 46
REMARK SMILES IDX 84 47 78 48 77 49 33 51 65 52 45 53 64 54 46 55 49 56 63 57
REMARK SMILES IDX 82 58 47 59 48 60 62 62 83 63 50 64 34 65 35 66 43 67 36 68
REMARK SMILES IDX 37 69 41 70 44 71 38 72 39 73 42 74 40 75 66 76 67 77 75 78
REMARK SMILES IDX 68 79 69 80 73 81 76 82 70 83 71 84 74 85 72 86 51 87 52 88
REMARK SMILES IDX 60 89 53 90 54 91 58 92 61 93 55 94 56 95 59 96 57 97
REMARK H PARENT 17 6 7 15 10 17 22 31 81 50 49 61
REMARK Flexibility Score: inf
ROOT
ATOM      1  C   UNL A   1      37.266  21.140  25.001  1.00  0.00     0.023 C 
ENDROOT
BRANCH   1   2
ATOM      2  C   UNL A   1      35.815  20.756  25.263  1.00  0.00     0.116 C 
BRANCH   2   3
ATOM      3  N   UNL A   1      35.292  21.344  26.477  1.00  0.00    -0.356 N 
ATOM      4  C   UNL A   1      34.461  22.407  26.645  1.00  0.00     0.227 C 
ATOM      5  O   UNL A   1      34.111  22.673  27.800  1.00  0.00    -0.274 OA
ATOM      6  H   UNL A   1      35.581  20.906  27.310  1.00  0.00     0.163 HD
BRANCH   4   7
ATOM      7  C   UNL A   1      34.025  23.312  25.486  1.00  0.00     0.103 C 
ATOM      8  C   UNL A   1      32.593  25.343  25.413  1.00  0.00     0.107 C 
ATOM      9  C   UNL A   1      34.039  25.633  25.126  1.00  0.00    -0.006 C 
ATOM     10  C   UNL A   1      32.604  23.835  25.678  1.00  0.00     0.047 C 
ATOM     11  C   UNL A   1      34.817  24.544  25.197  1.00  0.00    -0.016 C 
BRANCH   8  12
ATOM     12  N   UNL A   1      32.193  26.131  26.559  1.00  0.00    -0.332 N 
ATOM     13  N   UNL A   1      31.355  28.209  25.774  1.00  0.00    -0.332 N 
ATOM     14  C   UNL A   1      31.665  27.345  26.740  1.00  0.00     0.315 C 
ATOM     15  H   UNL A   1      30.938  29.026  26.134  1.00  0.00     0.165 HD
ATOM     16  O   UNL A   1      31.436  27.686  27.905  1.00  0.00    -0.249 OA
ATOM     17  H   UNL A   1      32.345  25.659  27.410  1.00  0.00     0.165 HD
BRANCH  13  18
ATOM     18  C   UNL A   1      31.473  28.255  24.326  1.00  0.00     0.112 C 
ATOM     19  C   UNL A   1      32.683  29.076  23.894  1.00  0.00     0.036 C 
BRANCH  18  20
ATOM     20  C   UNL A   1      30.147  28.737  23.761  1.00  0.00    -0.012 A 
ATOM     21  C   UNL A   1      28.226  31.614  22.169  1.00  0.00     0.056 C 
ATOM     22  C   UNL A   1      28.717  30.341  22.769  1.00  0.00     0.002 A 
ATOM     23  C   UNL A   1      29.919  30.114  23.396  1.00  0.00     0.021 A 
ATOM     24  S   UNL A   1      27.765  28.937  22.753  1.00  0.00    -0.146 S 
ATOM     25  C   UNL A   1      28.998  27.996  23.500  1.00  0.00     0.007 A 
ATOM     26  C   UNL A   1      28.689  26.559  23.769  1.00  0.00     0.057 C 
ENDBRANCH  18  20
ENDBRANCH  13  18
ENDBRANCH   8  12
ENDBRANCH   4   7
ENDBRANCH   2   3
ENDBRANCH   1   2
BRANCH   1  27
ATOM     27  C   UNL A   1      38.261  19.982  25.060  1.00  0.00     0.023 C 
BRANCH  27  28
ATOM     28  C   UNL A   1      39.380  20.133  26.086  1.00  0.00     0.116 C 
BRANCH  28  29
ATOM     29  N   UNL A   1      40.437  19.143  25.944  1.00  0.00    -0.352 N 
ATOM     30  C   UNL A   1      41.794  19.303  26.076  1.00  0.00     0.251 C 
ATOM     31  H   UNL A   1      40.138  18.231  25.723  1.00  0.00     0.163 HD
ATOM     32  O   UNL A   1      42.557  18.371  25.841  1.00  0.00    -0.269 OA
BRANCH  30  33
ATOM     33  C   UNL A   1      42.340  20.621  26.460  1.00  0.00     0.039 A 
ATOM     34  C   UNL A   1      42.712  21.511  25.450  1.00  0.00     0.014 A 
ATOM     35  C   UNL A   1      42.457  20.989  27.803  1.00  0.00     0.014 A 
ATOM     36  C   UNL A   1      43.135  22.796  25.785  1.00  0.00     0.010 A 
ATOM     37  C   UNL A   1      42.807  22.296  28.133  1.00  0.00     0.010 A 
ATOM     38  C   UNL A   1      43.148  23.212  27.127  1.00  0.00    -0.014 A 
BRANCH  38  39
ATOM     39  C   UNL A   1      43.504  24.608  27.488  1.00  0.00     0.031 A 
ATOM     40  C   UNL A   1      44.942  25.043  27.507  1.00  0.00     0.074 A 
ATOM     41  C   UNL A   1      42.532  25.467  27.850  1.00  0.00     0.049 A 
ATOM     42  N   UNL A   1      45.450  26.209  27.821  1.00  0.00    -0.248 NA
ATOM     43  C   UNL A   1      45.946  24.029  27.152  1.00  0.00     0.031 C 
ATOM     44  C   UNL A   1      41.106  25.146  27.927  1.00  0.00     0.029 A 
ATOM     45  N   UNL A   1      42.596  26.786  28.224  1.00  0.00    -0.354 N 
ATOM     46  C   UNL A   1      46.826  26.065  27.710  1.00  0.00     0.074 A 
ATOM     47  C   UNL A   1      47.079  24.684  27.359  1.00  0.00     0.031 C 
ATOM     48  C   UNL A   1      40.427  26.245  28.295  1.00  0.00     0.029 A 
ATOM     49  C   UNL A   1      41.371  27.337  28.512  1.00  0.00     0.049 A 
ATOM     50  H   UNL A   1      43.440  27.290  28.281  1.00  0.00     0.167 HD
ATOM     51  C   UNL A   1      47.790  27.004  27.862  1.00  0.00     0.037 A 
ATOM     52  C   UNL A   1      41.047  28.583  28.905  1.00  0.00     0.037 A 
ATOM     53  C   UNL A   1      47.533  28.381  28.192  1.00  0.00     0.049 A 
ATOM     54  C   UNL A   1      42.137  29.608  29.064  1.00  0.00     0.074 A 
ATOM     55  C   UNL A   1      48.434  29.424  28.310  1.00  0.00     0.029 A 
ATOM     56  N   UNL A   1      46.277  28.907  28.462  1.00  0.00    -0.354 N 
ATOM     57  N   UNL A   1      43.428  29.479  28.881  1.00  0.00    -0.248 NA
ATOM     58  C   UNL A   1      41.721  30.955  29.476  1.00  0.00     0.031 C 
ATOM     59  C   UNL A   1      47.730  30.570  28.697  1.00  0.00     0.029 A 
ATOM     60  C   UNL A   1      46.384  30.255  28.768  1.00  0.00     0.049 A 
ATOM     61  H   UNL A   1      45.435  28.398  28.439  1.00  0.00     0.167 HD
ATOM     62  C   UNL A   1      43.975  30.730  29.127  1.00  0.00     0.074 A 
ATOM     63  C   UNL A   1      42.872  31.611  29.454  1.00  0.00     0.031 C 
ATOM     64  C   UNL A   1      45.275  31.117  29.089  1.00  0.00     0.037 A 
BRANCH  51  65
ATOM     65  C   UNL A   1      49.215  26.573  27.664  1.00  0.00     0.064 A 
ATOM     66  C   UNL A   1      49.763  26.412  26.382  1.00  0.00     0.173 A 
ATOM     67  C   UNL A   1      50.053  26.353  28.767  1.00  0.00     0.173 A 
ATOM     68  F   UNL A   1      49.001  26.599  25.293  1.00  0.00    -0.203 F 
ATOM     69  C   UNL A   1      51.087  26.014  26.212  1.00  0.00     0.198 A 
ATOM     70  C   UNL A   1      51.386  25.987  28.593  1.00  0.00     0.198 A 
ATOM     71  F   UNL A   1      49.583  26.498  30.014  1.00  0.00    -0.203 F 
ATOM     72  F   UNL A   1      51.572  25.816  24.978  1.00  0.00    -0.200 F 
ATOM     73  C   UNL A   1      51.899  25.810  27.317  1.00  0.00     0.200 A 
ATOM     74  F   UNL A   1      52.173  25.803  29.662  1.00  0.00    -0.200 F 
ATOM     75  F   UNL A   1      53.175  25.435  27.152  1.00  0.00    -0.200 F 
ENDBRANCH  51  65
BRANCH  52  76
ATOM     76  C   UNL A   1      39.624  28.941  29.143  1.00  0.00     0.064 A 
ATOM     77  C   UNL A   1      39.059  28.832  30.422  1.00  0.00     0.173 A 
ATOM     78  C   UNL A   1      38.798  29.390  28.101  1.00  0.00     0.173 A 
ATOM     79  F   UNL A   1      39.803  28.387  31.445  1.00  0.00    -0.203 F 
ATOM     80  C   UNL A   1      37.718  29.135  30.645  1.00  0.00     0.198 A 
ATOM     81  C   UNL A   1      37.465  29.721  28.333  1.00  0.00     0.198 A 
ATOM     82  F   UNL A   1      39.291  29.517  26.861  1.00  0.00    -0.203 F 
ATOM     83  F   UNL A   1      37.192  28.973  31.867  1.00  0.00    -0.200 F 
ATOM     84  C   UNL A   1      36.923  29.585  29.602  1.00  0.00     0.200 A 
ATOM     85  F   UNL A   1      36.704  30.169  27.325  1.00  0.00    -0.200 F 
ATOM     86  F   UNL A   1      35.634  29.878  29.817  1.00  0.00    -0.200 F 
ENDBRANCH  52  76
BRANCH  64  87
ATOM     87  C   UNL A   1      45.568  32.561  29.381  1.00  0.00     0.064 A 
ATOM     88  C   UNL A   1      45.557  33.534  28.371  1.00  0.00     0.173 A 
ATOM     89  C   UNL A   1      45.841  32.979  30.692  1.00  0.00     0.173 A 
ATOM     90  F   UNL A   1      45.316  33.185  27.098  1.00  0.00    -0.203 F 
ATOM     91  C   UNL A   1      45.843  34.866  28.658  1.00  0.00     0.198 A 
ATOM     92  C   UNL A   1      46.093  34.317  30.981  1.00  0.00     0.198 A 
ATOM     93  F   UNL A   1      45.856  32.089  31.697  1.00  0.00    -0.203 F 
ATOM     94  F   UNL A   1      45.883  35.769  27.668  1.00  0.00    -0.200 F 
ATOM     95  C   UNL A   1      46.104  35.258  29.963  1.00  0.00     0.200 A 
ATOM     96  F   UNL A   1      46.332  34.695  32.245  1.00  0.00    -0.200 F 
ATOM     97  F   UNL A   1      46.376  36.540  30.237  1.00  0.00    -0.200 F 
ENDBRANCH  64  87
ENDBRANCH  38  39
ENDBRANCH  30  33
ENDBRANCH  28  29
ENDBRANCH  27  28
ENDBRANCH   1  27
TORSDOF 14
ENDMDL
MODEL 3
REMARK VINA RESULT:     -12.7      0.323      1.615
REMARK SMILES Cc1cc([C@@H](C)NC(=O)N[C@H]2C=C[C@@H](C(=O)NCCCCNC(=O)c3ccc(-c4c5nc(c(-c6c(F)c(F)c(F)c(F)c6F)c6ccc([nH]6)c(-c6c(F)c(F)c(F)c(F)c6F)c6nc(c(-c7c(F)c(F)c(F)c(F)c7F)c7ccc4[nH]7)C=C6)C=C5)cc3)C2)c(C)s1
REMARK SMILES IDX 19 1 18 2 17 3 15 4 16 5 14 7 11 8 12 9 88 10 13 11 10 12
REMARK SMILES IDX 7 13 8 14 9 16 5 18 6 19 4 20 1 21 2 22 3 23 91 24 89 25
REMARK SMILES IDX 90 26 20 27 21 28 22 29 23 30 24 32 25 33 26 34 87 35 27 36
REMARK SMILES IDX 86 37 28 38 29 39 30 40 80 41 31 42 85 43 79 44 81 45 32 46
REMARK SMILES IDX 84 47 78 48 77 49 33 51 65 52 45 53 64 54 46 55 49 56 63 57
REMARK SMILES IDX 82 58 47 59 48 60 62 62 83 63 50 64 34 65 35 66 43 67 36 68
REMARK SMILES IDX 37 69 41 70 44 71 38 72 39 73 42 74 40 75 66 76 67 77 75 78
REMARK SMILES IDX 68 79 69 80 73 81 76 82 70 83 71 84 74 85 72 86 51 87 52 88
REMARK SMILES IDX 60 89 53 90 54 91 58 92 61 93 55 94 56 95 59 96 57 97
REMARK H PARENT 17 6 7 15 10 17 22 31 81 50 49 61
REMARK Flexibility Score: inf
ROOT
ATOM      1  C   UNL A   1      37.092  21.086  24.542  1.00  0.00     0.023 C 
ENDROOT
BRANCH   1   2
ATOM      2  C   UNL A   1      37.132  22.312  25.447  1.00  0.00     0.116 C 
BRANCH   2   3
ATOM      3  N   UNL A   1      36.141  22.261  26.501  1.00  0.00    -0.356 N 
ATOM      4  C   UNL A   1      34.858  22.709  26.515  1.00  0.00     0.227 C 
ATOM      5  O   UNL A   1      34.194  22.486  27.533  1.00  0.00    -0.274 OA
ATOM      6  H   UNL A   1      36.443  21.836  27.336  1.00  0.00     0.163 HD
BRANCH   4   7
ATOM      7  C   UNL A   1      34.253  23.533  25.372  1.00  0.00     0.103 C 
ATOM      8  C   UNL A   1      32.616  25.404  25.358  1.00  0.00     0.107 C 
ATOM      9  C   UNL A   1      34.001  25.832  24.965  1.00  0.00    -0.006 C 
ATOM     10  C   UNL A   1      32.801  23.912  25.653  1.00  0.00     0.047 C 
ATOM     11  C   UNL A   1      34.891  24.830  25.003  1.00  0.00    -0.016 C 
BRANCH   8  12
ATOM     12  N   UNL A   1      32.216  26.179  26.514  1.00  0.00    -0.332 N 
ATOM     13  N   UNL A   1      31.386  28.269  25.754  1.00  0.00    -0.332 N 
ATOM     14  C   UNL A   1      31.690  27.391  26.710  1.00  0.00     0.315 C 
ATOM     15  H   UNL A   1      30.971  29.082  26.123  1.00  0.00     0.165 HD
ATOM     16  O   UNL A   1      31.459  27.718  27.878  1.00  0.00    -0.249 OA
ATOM     17  H   UNL A   1      32.363  25.695  27.359  1.00  0.00     0.165 HD
BRANCH  13  18
ATOM     18  C   UNL A   1      31.509  28.333  24.307  1.00  0.00     0.112 C 
ATOM     19  C   UNL A   1      32.686  29.207  23.888  1.00  0.00     0.036 C 
BRANCH  18  20
ATOM     20  C   UNL A   1      30.166  28.767  23.740  1.00  0.00    -0.012 A 
ATOM     21  C   UNL A   1      28.163  31.548  22.080  1.00  0.00     0.056 C 
ATOM     22  C   UNL A   1      28.690  30.306  22.714  1.00  0.00     0.002 A 
ATOM     23  C   UNL A   1      29.903  30.126  23.336  1.00  0.00     0.021 A 
ATOM     24  S   UNL A   1      27.772  28.880  22.750  1.00  0.00    -0.146 S 
ATOM     25  C   UNL A   1      29.033  27.991  23.512  1.00  0.00     0.007 A 
ATOM     26  C   UNL A   1      28.761  26.556  23.828  1.00  0.00     0.057 C 
ENDBRANCH  18  20
ENDBRANCH  13  18
ENDBRANCH   8  12
ENDBRANCH   4   7
ENDBRANCH   2   3
ENDBRANCH   1   2
BRANCH   1  27
ATOM     27  C   UNL A   1      37.945  19.909  25.011  1.00  0.00     0.023 C 
BRANCH  27  28
ATOM     28  C   UNL A   1      39.202  20.281  25.791  1.00  0.00     0.116 C 
BRANCH  28  29
ATOM     29  N   UNL A   1      40.174  19.202  25.879  1.00  0.00    -0.352 N 
ATOM     30  C   UNL A   1      41.523  19.272  26.125  1.00  0.00     0.251 C 
ATOM     31  H   UNL A   1      39.815  18.295  25.742  1.00  0.00     0.163 HD
ATOM     32  O   UNL A   1      42.216  18.260  26.083  1.00  0.00    -0.269 OA
BRANCH  30  33
ATOM     33  C   UNL A   1      42.148  20.582  26.398  1.00  0.00     0.039 A 
ATOM     34  C   UNL A   1      42.633  21.328  25.321  1.00  0.00     0.014 A 
ATOM     35  C   UNL A   1      42.230  21.085  27.699  1.00  0.00     0.014 A 
ATOM     36  C   UNL A   1      43.136  22.610  25.541  1.00  0.00     0.010 A 
ATOM     37  C   UNL A   1      42.662  22.392  27.907  1.00  0.00     0.010 A 
ATOM     38  C   UNL A   1      43.118  23.167  26.831  1.00  0.00    -0.014 A 
BRANCH  38  39
ATOM     39  C   UNL A   1      43.561  24.565  27.061  1.00  0.00     0.031 A 
ATOM     40  C   UNL A   1      42.592  25.595  27.568  1.00  0.00     0.074 A 
ATOM     41  C   UNL A   1      44.827  24.917  26.763  1.00  0.00     0.049 A 
ATOM     42  N   UNL A   1      42.785  26.869  27.804  1.00  0.00    -0.248 NA
ATOM     43  C   UNL A   1      41.215  25.142  27.817  1.00  0.00     0.031 C 
ATOM     44  C   UNL A   1      45.845  24.022  26.210  1.00  0.00     0.029 A 
ATOM     45  N   UNL A   1      45.473  26.122  26.879  1.00  0.00    -0.354 N 
ATOM     46  C   UNL A   1      41.558  27.367  28.220  1.00  0.00     0.074 A 
ATOM     47  C   UNL A   1      40.612  26.275  28.146  1.00  0.00     0.031 C 
ATOM     48  C   UNL A   1      46.995  24.701  26.064  1.00  0.00     0.029 A 
ATOM     49  C   UNL A   1      46.787  26.084  26.478  1.00  0.00     0.049 A 
ATOM     50  H   UNL A   1      45.037  26.938  27.217  1.00  0.00     0.167 HD
ATOM     51  C   UNL A   1      41.254  28.615  28.648  1.00  0.00     0.037 A 
ATOM     52  C   UNL A   1      47.718  27.056  26.451  1.00  0.00     0.037 A 
ATOM     53  C   UNL A   1      42.202  29.694  28.739  1.00  0.00     0.049 A 
ATOM     54  C   UNL A   1      47.353  28.434  26.934  1.00  0.00     0.074 A 
ATOM     55  C   UNL A   1      42.008  30.978  29.216  1.00  0.00     0.029 A 
ATOM     56  N   UNL A   1      43.529  29.614  28.338  1.00  0.00    -0.354 N 
ATOM     57  N   UNL A   1      46.209  28.873  27.398  1.00  0.00    -0.248 NA
ATOM     58  C   UNL A   1      48.416  29.448  26.899  1.00  0.00     0.031 C 
ATOM     59  C   UNL A   1      43.203  31.689  29.061  1.00  0.00     0.029 A 
ATOM     60  C   UNL A   1      44.158  30.833  28.537  1.00  0.00     0.049 A 
ATOM     61  H   UNL A   1      43.959  28.810  27.968  1.00  0.00     0.167 HD
ATOM     62  C   UNL A   1      46.419  30.203  27.734  1.00  0.00     0.074 A 
ATOM     63  C   UNL A   1      47.807  30.493  27.440  1.00  0.00     0.031 C 
ATOM     64  C   UNL A   1      45.541  31.105  28.239  1.00  0.00     0.037 A 
BRANCH  51  65
ATOM     65  C   UNL A   1      39.834  28.880  29.061  1.00  0.00     0.064 A 
ATOM     66  C   UNL A   1      38.872  29.329  28.142  1.00  0.00     0.173 A 
ATOM     67  C   UNL A   1      39.419  28.648  30.381  1.00  0.00     0.173 A 
ATOM     68  F   UNL A   1      39.219  29.577  26.869  1.00  0.00    -0.203 F 
ATOM     69  C   UNL A   1      37.558  29.567  28.536  1.00  0.00     0.198 A 
ATOM     70  C   UNL A   1      38.097  28.856  30.764  1.00  0.00     0.198 A 
ATOM     71  F   UNL A   1      40.295  28.213  31.298  1.00  0.00    -0.203 F 
ATOM     72  F   UNL A   1      36.672  30.046  27.652  1.00  0.00    -0.200 F 
ATOM     73  C   UNL A   1      37.170  29.324  29.844  1.00  0.00     0.200 A 
ATOM     74  F   UNL A   1      37.720  28.608  32.026  1.00  0.00    -0.200 F 
ATOM     75  F   UNL A   1      35.903  29.546  30.221  1.00  0.00    -0.200 F 
ENDBRANCH  51  65
BRANCH  52  76
ATOM     76  C   UNL A   1      49.095  26.754  25.978  1.00  0.00     0.064 A 
ATOM     77  C   UNL A   1      49.472  27.005  24.652  1.00  0.00     0.173 A 
ATOM     78  C   UNL A   1      50.057  26.201  26.837  1.00  0.00     0.173 A 
ATOM     79  F   UNL A   1      48.580  27.513  23.788  1.00  0.00    -0.203 F 
ATOM     80  C   UNL A   1      50.750  26.694  24.195  1.00  0.00     0.198 A 
ATOM     81  C   UNL A   1      51.344  25.919  26.386  1.00  0.00     0.198 A 
ATOM     82  F   UNL A   1      49.749  25.946  28.116  1.00  0.00    -0.203 F 
ATOM     83  F   UNL A   1      51.067  26.899  22.909  1.00  0.00    -0.200 F 
ATOM     84  C   UNL A   1      51.688  26.156  25.064  1.00  0.00     0.200 A 
ATOM     85  F   UNL A   1      52.252  25.412  27.232  1.00  0.00    -0.200 F 
ATOM     86  F   UNL A   1      52.918  25.859  24.624  1.00  0.00    -0.200 F 
ENDBRANCH  52  76
BRANCH  64  87
ATOM     87  C   UNL A   1      46.067  32.481  28.532  1.00  0.00     0.064 A 
ATOM     88  C   UNL A   1      46.012  33.509  27.581  1.00  0.00     0.173 A 
ATOM     89  C   UNL A   1      46.612  32.779  29.791  1.00  0.00     0.173 A 
ATOM     90  F   UNL A   1      45.513  33.273  26.358  1.00  0.00    -0.203 F 
ATOM     91  C   UNL A   1      46.515  34.776  27.867  1.00  0.00     0.198 A 
ATOM     92  C   UNL A   1      47.084  34.055  30.084  1.00  0.00     0.198 A 
ATOM     93  F   UNL A   1      46.682  31.833  30.740  1.00  0.00    -0.203 F 
ATOM     94  F   UNL A   1      46.504  35.727  26.922  1.00  0.00    -0.200 F 
ATOM     95  C   UNL A   1      47.043  35.050  29.119  1.00  0.00     0.200 A 
ATOM     96  F   UNL A   1      47.582  34.321  31.300  1.00  0.00    -0.200 F 
ATOM     97  F   UNL A   1      47.525  36.270  29.393  1.00  0.00    -0.200 F 
ENDBRANCH  64  87
ENDBRANCH  38  39
ENDBRANCH  30  33
ENDBRANCH  28  29
ENDBRANCH  27  28
ENDBRANCH   1  27
TORSDOF 14
ENDMDL
