MODEL 1
REMARK VINA RESULT:     -12.3      0.000      0.000
REMARK SMILES O=C(CN1C(=O)N[C@](c2cccs2)(C2CC2)C1=O)NCCCCNC(=O)c1ccc(-c2c3nc(c(-c4c(F)c(F)c(F)c(F)c4F)c4ccc([nH]4)c(-c4c(F)c(F)c(F)c(F)c4F)c4nc(c(-c5c(F)c(F)c(F)c(F)c5F)c5ccc2[nH]5)C=C4)C=C3)cc1
REMARK SMILES IDX 21 1 20 2 19 3 1 4 2 5 3 7 4 8 5 9 17 10 6 11 7 12 8 13
REMARK SMILES IDX 18 14 14 16 15 17 16 18 9 19 10 20 13 21 11 22 12 23 22 24
REMARK SMILES IDX 23 25 24 26 25 27 26 29 27 30 28 31 89 32 29 33 88 34 30 35
REMARK SMILES IDX 31 36 32 37 82 38 33 39 87 40 81 41 83 42 34 43 86 44 80 45
REMARK SMILES IDX 79 46 35 48 67 49 47 50 66 51 48 52 51 53 65 54 84 55 49 56
REMARK SMILES IDX 50 57 64 59 85 60 52 61 36 62 37 63 45 64 38 65 39 66 43 67
REMARK SMILES IDX 46 68 40 69 41 70 44 71 42 72 68 73 69 74 77 75 70 76 71 77
REMARK SMILES IDX 75 78 78 79 72 80 73 81 76 82 74 83 53 84 54 85 62 86 55 87
REMARK SMILES IDX 56 88 60 89 63 90 57 91 58 92 61 93 59 94
REMARK H PARENT 19 6 7 15 24 28 83 47 51 58
REMARK Flexibility Score: inf
ROOT
ATOM      1  C   UNL A   1      31.424  30.669  26.400  1.00  0.00     0.023 C 
ENDROOT
BRANCH   1   2
ATOM      2  C   UNL A   1      31.183  30.113  24.996  1.00  0.00     0.116 C 
BRANCH   2   3
ATOM      3  N   UNL A   1      32.355  29.443  24.474  1.00  0.00    -0.355 N 
ATOM      4  O   UNL A   1      31.456  28.785  22.465  1.00  0.00    -0.273 OA
ATOM      5  C   UNL A   1      32.401  28.816  23.246  1.00  0.00     0.240 C 
ATOM      6  H   UNL A   1      33.168  29.435  25.029  1.00  0.00     0.163 HD
BRANCH   5   7
ATOM      7  C   UNL A   1      33.729  28.112  22.963  1.00  0.00     0.230 C 
BRANCH   7   8
ATOM      8  N   UNL A   1      33.627  26.690  23.224  1.00  0.00    -0.252 N 
ATOM      9  C   UNL A   1      33.408  25.745  22.274  1.00  0.00     0.325 C 
ATOM     10  C   UNL A   1      33.655  26.116  24.468  1.00  0.00     0.262 C 
ATOM     11  O   UNL A   1      33.278  25.917  21.073  1.00  0.00    -0.248 OA
ATOM     12  N   UNL A   1      33.314  24.518  22.880  1.00  0.00    -0.318 N 
ATOM     13  C   UNL A   1      33.492  24.569  24.316  1.00  0.00     0.158 C 
ATOM     14  O   UNL A   1      33.797  26.733  25.521  1.00  0.00    -0.271 OA
ATOM     15  H   UNL A   1      33.143  23.684  22.387  1.00  0.00     0.166 HD
BRANCH  13  16
ATOM     16  C   UNL A   1      32.167  24.168  24.939  1.00  0.00     0.030 C 
ATOM     17  C   UNL A   1      31.879  22.811  25.537  1.00  0.00     0.007 C 
ATOM     18  C   UNL A   1      31.886  24.037  26.417  1.00  0.00     0.007 C 
ENDBRANCH  13  16
BRANCH  13  19
ATOM     19  C   UNL A   1      34.856  23.934  24.598  1.00  0.00     0.040 A 
ATOM     20  C   UNL A   1      35.627  24.090  25.751  1.00  0.00     0.018 A 
ATOM     21  S   UNL A   1      35.710  22.953  23.478  1.00  0.00    -0.146 S 
ATOM     22  C   UNL A   1      36.869  23.395  25.709  1.00  0.00     0.012 A 
ATOM     23  C   UNL A   1      37.035  22.726  24.523  1.00  0.00     0.065 A 
ENDBRANCH  13  19
ENDBRANCH   7   8
ENDBRANCH   5   7
ENDBRANCH   2   3
ENDBRANCH   1   2
BRANCH   1  24
ATOM     24  C   UNL A   1      31.409  32.197  26.510  1.00  0.00     0.023 C 
BRANCH  24  25
ATOM     25  C   UNL A   1      32.590  32.816  27.252  1.00  0.00     0.116 C 
BRANCH  25  26
ATOM     26  N   UNL A   1      32.356  34.203  27.626  1.00  0.00    -0.352 N 
ATOM     27  C   UNL A   1      32.971  34.974  28.583  1.00  0.00     0.251 C 
ATOM     28  H   UNL A   1      31.649  34.658  27.115  1.00  0.00     0.163 HD
ATOM     29  O   UNL A   1      32.528  36.087  28.848  1.00  0.00    -0.269 OA
BRANCH  27  30
ATOM     30  C   UNL A   1      34.148  34.461  29.322  1.00  0.00     0.039 A 
ATOM     31  C   UNL A   1      33.951  33.883  30.581  1.00  0.00     0.014 A 
ATOM     32  C   UNL A   1      35.438  34.554  28.797  1.00  0.00     0.014 A 
ATOM     33  C   UNL A   1      35.032  33.338  31.276  1.00  0.00     0.010 A 
ATOM     34  C   UNL A   1      36.504  33.940  29.453  1.00  0.00     0.010 A 
ATOM     35  C   UNL A   1      36.314  33.323  30.699  1.00  0.00    -0.014 A 
BRANCH  35  36
ATOM     36  C   UNL A   1      37.456  32.654  31.377  1.00  0.00     0.031 A 
ATOM     37  C   UNL A   1      38.142  31.479  30.735  1.00  0.00     0.074 A 
ATOM     38  C   UNL A   1      37.840  33.065  32.602  1.00  0.00     0.049 A 
ATOM     39  N   UNL A   1      39.106  30.725  31.202  1.00  0.00    -0.248 NA
ATOM     40  C   UNL A   1      37.663  31.082  29.403  1.00  0.00     0.031 C 
ATOM     41  C   UNL A   1      37.230  34.163  33.352  1.00  0.00     0.029 A 
ATOM     42  N   UNL A   1      38.825  32.600  33.438  1.00  0.00    -0.354 N 
ATOM     43  C   UNL A   1      39.344  29.766  30.225  1.00  0.00     0.074 A 
ATOM     44  C   UNL A   1      38.381  29.993  29.170  1.00  0.00     0.031 C 
ATOM     45  C   UNL A   1      37.865  34.301  34.527  1.00  0.00     0.029 A 
ATOM     46  C   UNL A   1      38.897  33.273  34.633  1.00  0.00     0.049 A 
ATOM     47  H   UNL A   1      39.424  31.855  33.203  1.00  0.00     0.167 HD
ATOM     48  C   UNL A   1      40.292  28.798  30.201  1.00  0.00     0.037 A 
ATOM     49  C   UNL A   1      39.694  33.078  35.701  1.00  0.00     0.037 A 
ATOM     50  C   UNL A   1      41.254  28.579  31.251  1.00  0.00     0.049 A 
ATOM     51  C   UNL A   1      40.720  31.977  35.662  1.00  0.00     0.074 A 
ATOM     52  C   UNL A   1      42.283  27.655  31.298  1.00  0.00     0.029 A 
ATOM     53  N   UNL A   1      41.301  29.287  32.443  1.00  0.00    -0.354 N 
ATOM     54  N   UNL A   1      40.978  31.118  34.706  1.00  0.00    -0.248 NA
ATOM     55  C   UNL A   1      41.573  31.824  36.850  1.00  0.00     0.031 C 
ATOM     56  C   UNL A   1      42.915  27.763  32.541  1.00  0.00     0.029 A 
ATOM     57  C   UNL A   1      42.324  28.801  33.243  1.00  0.00     0.049 A 
ATOM     58  H   UNL A   1      40.697  30.027  32.684  1.00  0.00     0.167 HD
ATOM     59  C   UNL A   1      42.038  30.345  35.162  1.00  0.00     0.074 A 
ATOM     60  C   UNL A   1      42.386  30.848  36.474  1.00  0.00     0.031 C 
ATOM     61  C   UNL A   1      42.666  29.312  34.547  1.00  0.00     0.037 A 
BRANCH  48  62
ATOM     62  C   UNL A   1      40.334  27.898  28.999  1.00  0.00     0.064 A 
ATOM     63  C   UNL A   1      41.093  28.220  27.861  1.00  0.00     0.173 A 
ATOM     64  C   UNL A   1      39.637  26.680  28.993  1.00  0.00     0.173 A 
ATOM     65  F   UNL A   1      41.773  29.376  27.809  1.00  0.00    -0.203 F 
ATOM     66  C   UNL A   1      41.121  27.376  26.754  1.00  0.00     0.198 A 
ATOM     67  C   UNL A   1      39.698  25.820  27.899  1.00  0.00     0.198 A 
ATOM     68  F   UNL A   1      38.903  26.315  30.055  1.00  0.00    -0.203 F 
ATOM     69  F   UNL A   1      41.807  27.734  25.659  1.00  0.00    -0.200 F 
ATOM     70  C   UNL A   1      40.431  26.175  26.776  1.00  0.00     0.200 A 
ATOM     71  F   UNL A   1      39.043  24.652  27.928  1.00  0.00    -0.200 F 
ATOM     72  F   UNL A   1      40.467  25.360  25.713  1.00  0.00    -0.200 F 
ENDBRANCH  48  62
BRANCH  49  73
ATOM     73  C   UNL A   1      39.559  33.952  36.898  1.00  0.00     0.064 A 
ATOM     74  C   UNL A   1      38.796  33.551  38.003  1.00  0.00     0.173 A 
ATOM     75  C   UNL A   1      40.183  35.206  36.958  1.00  0.00     0.173 A 
ATOM     76  F   UNL A   1      38.161  32.369  37.985  1.00  0.00    -0.203 F 
ATOM     77  C   UNL A   1      38.642  34.380  39.112  1.00  0.00     0.198 A 
ATOM     78  C   UNL A   1      40.056  36.020  38.082  1.00  0.00     0.198 A 
ATOM     79  F   UNL A   1      40.928  35.637  35.931  1.00  0.00    -0.203 F 
ATOM     80  F   UNL A   1      37.864  33.993  40.132  1.00  0.00    -0.200 F 
ATOM     81  C   UNL A   1      39.278  35.611  39.154  1.00  0.00     0.200 A 
ATOM     82  F   UNL A   1      40.687  37.203  38.125  1.00  0.00    -0.200 F 
ATOM     83  F   UNL A   1      39.134  36.407  40.223  1.00  0.00    -0.200 F 
ENDBRANCH  49  73
BRANCH  61  84
ATOM     84  C   UNL A   1      43.823  28.679  35.267  1.00  0.00     0.064 A 
ATOM     85  C   UNL A   1      45.143  29.115  35.079  1.00  0.00     0.173 A 
ATOM     86  C   UNL A   1      43.600  27.643  36.191  1.00  0.00     0.173 A 
ATOM     87  F   UNL A   1      45.413  30.090  34.198  1.00  0.00    -0.203 F 
ATOM     88  C   UNL A   1      46.199  28.519  35.764  1.00  0.00     0.198 A 
ATOM     89  C   UNL A   1      44.655  27.076  36.900  1.00  0.00     0.198 A 
ATOM     90  F   UNL A   1      42.358  27.193  36.416  1.00  0.00    -0.203 F 
ATOM     91  F   UNL A   1      47.456  28.916  35.528  1.00  0.00    -0.200 F 
ATOM     92  C   UNL A   1      45.954  27.507  36.680  1.00  0.00     0.200 A 
ATOM     93  F   UNL A   1      44.413  26.110  37.797  1.00  0.00    -0.200 F 
ATOM     94  F   UNL A   1      46.970  26.943  37.345  1.00  0.00    -0.200 F 
ENDBRANCH  61  84
ENDBRANCH  35  36
ENDBRANCH  27  30
ENDBRANCH  25  26
ENDBRANCH  24  25
ENDBRANCH   1  24
TORSDOF 14
ENDMDL
MODEL 2
REMARK VINA RESULT:     -12.2      0.229      1.612
REMARK SMILES O=C(CN1C(=O)N[C@](c2cccs2)(C2CC2)C1=O)NCCCCNC(=O)c1ccc(-c2c3nc(c(-c4c(F)c(F)c(F)c(F)c4F)c4ccc([nH]4)c(-c4c(F)c(F)c(F)c(F)c4F)c4nc(c(-c5c(F)c(F)c(F)c(F)c5F)c5ccc2[nH]5)C=C4)C=C3)cc1
REMARK SMILES IDX 21 1 20 2 19 3 1 4 2 5 3 7 4 8 5 9 17 10 6 11 7 12 8 13
REMARK SMILES IDX 18 14 14 16 15 17 16 18 9 19 10 20 13 21 11 22 12 23 22 24
REMARK SMILES IDX 23 25 24 26 25 27 26 29 27 30 28 31 89 32 29 33 88 34 30 35
REMARK SMILES IDX 31 36 32 37 82 38 33 39 87 40 81 41 83 42 34 43 86 44 80 45
REMARK SMILES IDX 79 46 35 48 67 49 47 50 66 51 48 52 51 53 65 54 84 55 49 56
REMARK SMILES IDX 50 57 64 59 85 60 52 61 36 62 37 63 45 64 38 65 39 66 43 67
REMARK SMILES IDX 46 68 40 69 41 70 44 71 42 72 68 73 69 74 77 75 70 76 71 77
REMARK SMILES IDX 75 78 78 79 72 80 73 81 76 82 74 83 53 84 54 85 62 86 55 87
REMARK SMILES IDX 56 88 60 89 63 90 57 91 58 92 61 93 59 94
REMARK H PARENT 19 6 7 15 24 28 83 47 51 58
REMARK Flexibility Score: inf
ROOT
ATOM      1  C   UNL A   1      31.633  30.624  26.506  1.00  0.00     0.023 C 
ENDROOT
BRANCH   1   2
ATOM      2  C   UNL A   1      31.382  30.195  25.061  1.00  0.00     0.116 C 
BRANCH   2   3
ATOM      3  N   UNL A   1      32.524  29.507  24.497  1.00  0.00    -0.355 N 
ATOM      4  O   UNL A   1      31.551  28.880  22.514  1.00  0.00    -0.273 OA
ATOM      5  C   UNL A   1      32.520  28.888  23.264  1.00  0.00     0.240 C 
ATOM      6  H   UNL A   1      33.354  29.480  25.027  1.00  0.00     0.163 HD
BRANCH   5   7
ATOM      7  C   UNL A   1      33.826  28.161  22.935  1.00  0.00     0.230 C 
BRANCH   7   8
ATOM      8  N   UNL A   1      33.717  26.745  23.224  1.00  0.00    -0.252 N 
ATOM      9  C   UNL A   1      33.452  25.787  22.300  1.00  0.00     0.325 C 
ATOM     10  C   UNL A   1      33.786  26.192  24.476  1.00  0.00     0.262 C 
ATOM     11  O   UNL A   1      33.279  25.940  21.101  1.00  0.00    -0.248 OA
ATOM     12  N   UNL A   1      33.367  24.572  22.930  1.00  0.00    -0.318 N 
ATOM     13  C   UNL A   1      33.600  24.645  24.357  1.00  0.00     0.158 C 
ATOM     14  O   UNL A   1      33.974  26.825  25.512  1.00  0.00    -0.271 OA
ATOM     15  H   UNL A   1      33.168  23.732  22.458  1.00  0.00     0.166 HD
BRANCH  13  16
ATOM     16  C   UNL A   1      32.294  24.270  25.037  1.00  0.00     0.030 C 
ATOM     17  C   UNL A   1      32.190  23.681  26.424  1.00  0.00     0.007 C 
ATOM     18  C   UNL A   1      31.615  25.046  26.139  1.00  0.00     0.007 C 
ENDBRANCH  13  16
BRANCH  13  19
ATOM     19  C   UNL A   1      34.966  23.999  24.599  1.00  0.00     0.040 A 
ATOM     20  C   UNL A   1      35.777  24.157  25.723  1.00  0.00     0.018 A 
ATOM     21  S   UNL A   1      35.772  22.999  23.459  1.00  0.00    -0.146 S 
ATOM     22  C   UNL A   1      37.010  23.449  25.646  1.00  0.00     0.012 A 
ATOM     23  C   UNL A   1      37.129  22.768  24.461  1.00  0.00     0.065 A 
ENDBRANCH  13  19
ENDBRANCH   7   8
ENDBRANCH   5   7
ENDBRANCH   2   3
ENDBRANCH   1   2
BRANCH   1  24
ATOM     24  C   UNL A   1      31.441  32.118  26.787  1.00  0.00     0.023 C 
BRANCH  24  25
ATOM     25  C   UNL A   1      32.697  32.877  27.204  1.00  0.00     0.116 C 
BRANCH  25  26
ATOM     26  N   UNL A   1      32.417  34.241  27.628  1.00  0.00    -0.352 N 
ATOM     27  C   UNL A   1      32.998  34.992  28.621  1.00  0.00     0.251 C 
ATOM     28  H   UNL A   1      31.702  34.694  27.127  1.00  0.00     0.163 HD
ATOM     29  O   UNL A   1      32.518  36.080  28.925  1.00  0.00    -0.269 OA
BRANCH  27  30
ATOM     30  C   UNL A   1      34.182  34.486  29.354  1.00  0.00     0.039 A 
ATOM     31  C   UNL A   1      33.990  33.859  30.589  1.00  0.00     0.014 A 
ATOM     32  C   UNL A   1      35.474  34.635  28.845  1.00  0.00     0.014 A 
ATOM     33  C   UNL A   1      35.081  33.319  31.275  1.00  0.00     0.010 A 
ATOM     34  C   UNL A   1      36.551  34.029  29.490  1.00  0.00     0.010 A 
ATOM     35  C   UNL A   1      36.367  33.361  30.712  1.00  0.00    -0.014 A 
BRANCH  35  36
ATOM     36  C   UNL A   1      37.522  32.701  31.376  1.00  0.00     0.031 A 
ATOM     37  C   UNL A   1      38.224  31.546  30.716  1.00  0.00     0.074 A 
ATOM     38  C   UNL A   1      37.903  33.102  32.606  1.00  0.00     0.049 A 
ATOM     39  N   UNL A   1      39.202  30.802  31.170  1.00  0.00    -0.248 NA
ATOM     40  C   UNL A   1      37.747  31.160  29.380  1.00  0.00     0.031 C 
ATOM     41  C   UNL A   1      37.278  34.179  33.373  1.00  0.00     0.029 A 
ATOM     42  N   UNL A   1      38.898  32.641  33.433  1.00  0.00    -0.354 N 
ATOM     43  C   UNL A   1      39.451  29.859  30.180  1.00  0.00     0.074 A 
ATOM     44  C   UNL A   1      38.481  30.086  29.130  1.00  0.00     0.031 C 
ATOM     45  C   UNL A   1      37.916  34.311  34.548  1.00  0.00     0.029 A 
ATOM     46  C   UNL A   1      38.963  33.299  34.636  1.00  0.00     0.049 A 
ATOM     47  H   UNL A   1      39.508  31.908  33.186  1.00  0.00     0.167 HD
ATOM     48  C   UNL A   1      40.415  28.907  30.139  1.00  0.00     0.037 A 
ATOM     49  C   UNL A   1      39.767  33.102  35.700  1.00  0.00     0.037 A 
ATOM     50  C   UNL A   1      41.383  28.688  31.183  1.00  0.00     0.049 A 
ATOM     51  C   UNL A   1      40.810  32.017  35.643  1.00  0.00     0.074 A 
ATOM     52  C   UNL A   1      42.427  27.780  31.215  1.00  0.00     0.029 A 
ATOM     53  N   UNL A   1      41.422  29.381  32.385  1.00  0.00    -0.354 N 
ATOM     54  N   UNL A   1      41.078  31.176  34.674  1.00  0.00    -0.248 NA
ATOM     55  C   UNL A   1      41.668  31.862  36.826  1.00  0.00     0.031 C 
ATOM     56  C   UNL A   1      43.060  27.881  32.457  1.00  0.00     0.029 A 
ATOM     57  C   UNL A   1      42.455  28.900  33.176  1.00  0.00     0.049 A 
ATOM     58  H   UNL A   1      40.807  30.108  32.638  1.00  0.00     0.167 HD
ATOM     59  C   UNL A   1      42.152  30.413  35.116  1.00  0.00     0.074 A 
ATOM     60  C   UNL A   1      42.496  30.903  36.434  1.00  0.00     0.031 C 
ATOM     61  C   UNL A   1      42.794  29.399  34.485  1.00  0.00     0.037 A 
BRANCH  48  62
ATOM     62  C   UNL A   1      40.467  28.024  28.925  1.00  0.00     0.064 A 
ATOM     63  C   UNL A   1      39.753  26.816  28.860  1.00  0.00     0.173 A 
ATOM     64  C   UNL A   1      41.211  28.403  27.797  1.00  0.00     0.173 A 
ATOM     65  F   UNL A   1      39.033  26.401  29.913  1.00  0.00    -0.203 F 
ATOM     66  C   UNL A   1      39.812  26.007  27.728  1.00  0.00     0.198 A 
ATOM     67  C   UNL A   1      41.237  27.610  26.652  1.00  0.00     0.198 A 
ATOM     68  F   UNL A   1      41.905  29.551  27.798  1.00  0.00    -0.203 F 
ATOM     69  F   UNL A   1      39.168  24.832  27.713  1.00  0.00    -0.200 F 
ATOM     70  C   UNL A   1      40.547  26.408  26.623  1.00  0.00     0.200 A 
ATOM     71  F   UNL A   1      41.935  28.006  25.579  1.00  0.00    -0.200 F 
ATOM     72  F   UNL A   1      40.595  25.632  25.531  1.00  0.00    -0.200 F 
ENDBRANCH  48  62
BRANCH  49  73
ATOM     73  C   UNL A   1      39.622  33.957  36.909  1.00  0.00     0.064 A 
ATOM     74  C   UNL A   1      38.838  33.545  37.995  1.00  0.00     0.173 A 
ATOM     75  C   UNL A   1      40.257  35.204  37.000  1.00  0.00     0.173 A 
ATOM     76  F   UNL A   1      38.192  32.370  37.948  1.00  0.00    -0.203 F 
ATOM     77  C   UNL A   1      38.675  34.357  39.116  1.00  0.00     0.198 A 
ATOM     78  C   UNL A   1      40.121  36.000  38.135  1.00  0.00     0.198 A 
ATOM     79  F   UNL A   1      41.022  35.644  35.991  1.00  0.00    -0.203 F 
ATOM     80  F   UNL A   1      37.878  33.961  40.117  1.00  0.00    -0.200 F 
ATOM     81  C   UNL A   1      39.322  35.581  39.188  1.00  0.00     0.200 A 
ATOM     82  F   UNL A   1      40.762  37.175  38.207  1.00  0.00    -0.200 F 
ATOM     83  F   UNL A   1      39.170  36.360  40.267  1.00  0.00    -0.200 F 
ENDBRANCH  49  73
BRANCH  61  84
ATOM     84  C   UNL A   1      43.962  28.774  35.194  1.00  0.00     0.064 A 
ATOM     85  C   UNL A   1      43.807  27.681  36.060  1.00  0.00     0.173 A 
ATOM     86  C   UNL A   1      45.264  29.252  34.970  1.00  0.00     0.173 A 
ATOM     87  F   UNL A   1      42.584  27.194  36.320  1.00  0.00    -0.203 F 
ATOM     88  C   UNL A   1      44.905  27.112  36.700  1.00  0.00     0.198 A 
ATOM     89  C   UNL A   1      46.363  28.657  35.583  1.00  0.00     0.198 A 
ATOM     90  F   UNL A   1      45.472  30.288  34.145  1.00  0.00    -0.203 F 
ATOM     91  F   UNL A   1      44.725  26.105  37.565  1.00  0.00    -0.200 F 
ATOM     92  C   UNL A   1      46.182  27.594  36.455  1.00  0.00     0.200 A 
ATOM     93  F   UNL A   1      47.597  29.113  35.331  1.00  0.00    -0.200 F 
ATOM     94  F   UNL A   1      47.238  27.037  37.063  1.00  0.00    -0.200 F 
ENDBRANCH  61  84
ENDBRANCH  35  36
ENDBRANCH  27  30
ENDBRANCH  25  26
ENDBRANCH  24  25
ENDBRANCH   1  24
TORSDOF 14
ENDMDL
MODEL 3
REMARK VINA RESULT:     -12.0      0.582      7.241
REMARK SMILES O=C(CN1C(=O)N[C@](c2cccs2)(C2CC2)C1=O)NCCCCNC(=O)c1ccc(-c2c3nc(c(-c4c(F)c(F)c(F)c(F)c4F)c4ccc([nH]4)c(-c4c(F)c(F)c(F)c(F)c4F)c4nc(c(-c5c(F)c(F)c(F)c(F)c5F)c5ccc2[nH]5)C=C4)C=C3)cc1
REMARK SMILES IDX 21 1 20 2 19 3 1 4 2 5 3 7 4 8 5 9 17 10 6 11 7 12 8 13
REMARK SMILES IDX 18 14 14 16 15 17 16 18 9 19 10 20 13 21 11 22 12 23 22 24
REMARK SMILES IDX 23 25 24 26 25 27 26 29 27 30 28 31 89 32 29 33 88 34 30 35
REMARK SMILES IDX 31 36 32 37 82 38 33 39 87 40 81 41 83 42 34 43 86 44 80 45
REMARK SMILES IDX 79 46 35 48 67 49 47 50 66 51 48 52 51 53 65 54 84 55 49 56
REMARK SMILES IDX 50 57 64 59 85 60 52 61 36 62 37 63 45 64 38 65 39 66 43 67
REMARK SMILES IDX 46 68 40 69 41 70 44 71 42 72 68 73 69 74 77 75 70 76 71 77
REMARK SMILES IDX 75 78 78 79 72 80 73 81 76 82 74 83 53 84 54 85 62 86 55 87
REMARK SMILES IDX 56 88 60 89 63 90 57 91 58 92 61 93 59 94
REMARK H PARENT 19 6 7 15 24 28 83 47 51 58
REMARK Flexibility Score: inf
ROOT
ATOM      1  C   UNL A   1      31.432  30.717  26.409  1.00  0.00     0.023 C 
ENDROOT
BRANCH   1   2
ATOM      2  C   UNL A   1      31.229  30.184  24.990  1.00  0.00     0.116 C 
BRANCH   2   3
ATOM      3  N   UNL A   1      32.412  29.516  24.492  1.00  0.00    -0.355 N 
ATOM      4  O   UNL A   1      31.584  28.936  22.429  1.00  0.00    -0.273 OA
ATOM      5  C   UNL A   1      32.498  28.928  23.247  1.00  0.00     0.240 C 
ATOM      6  H   UNL A   1      33.202  29.478  25.078  1.00  0.00     0.163 HD
BRANCH   5   7
ATOM      7  C   UNL A   1      33.828  28.215  22.992  1.00  0.00     0.230 C 
BRANCH   7   8
ATOM      8  N   UNL A   1      33.719  26.799  23.280  1.00  0.00    -0.252 N 
ATOM      9  C   UNL A   1      33.484  25.838  22.350  1.00  0.00     0.325 C 
ATOM     10  C   UNL A   1      33.756  26.248  24.535  1.00  0.00     0.262 C 
ATOM     11  O   UNL A   1      33.343  25.988  21.148  1.00  0.00    -0.248 OA
ATOM     12  N   UNL A   1      33.388  24.623  22.980  1.00  0.00    -0.318 N 
ATOM     13  C   UNL A   1      33.581  24.700  24.413  1.00  0.00     0.158 C 
ATOM     14  O   UNL A   1      33.912  26.883  25.575  1.00  0.00    -0.271 OA
ATOM     15  H   UNL A   1      33.206  23.782  22.504  1.00  0.00     0.166 HD
BRANCH  13  16
ATOM     16  C   UNL A   1      32.260  24.319  25.057  1.00  0.00     0.030 C 
ATOM     17  C   UNL A   1      31.859  22.908  25.417  1.00  0.00     0.007 C 
ATOM     18  C   UNL A   1      32.057  23.936  26.504  1.00  0.00     0.007 C 
ENDBRANCH  13  16
BRANCH  13  19
ATOM     19  C   UNL A   1      34.944  24.061  24.693  1.00  0.00     0.040 A 
ATOM     20  C   UNL A   1      35.651  24.097  25.896  1.00  0.00     0.018 A 
ATOM     21  S   UNL A   1      35.877  23.231  23.515  1.00  0.00    -0.146 S 
ATOM     22  C   UNL A   1      36.910  23.433  25.841  1.00  0.00     0.012 A 
ATOM     23  C   UNL A   1      37.152  22.909  24.597  1.00  0.00     0.065 A 
ENDBRANCH  13  19
ENDBRANCH   7   8
ENDBRANCH   5   7
ENDBRANCH   2   3
ENDBRANCH   1   2
BRANCH   1  24
ATOM     24  C   UNL A   1      31.382  32.242  26.548  1.00  0.00     0.023 C 
BRANCH  24  25
ATOM     25  C   UNL A   1      32.652  32.896  27.085  1.00  0.00     0.116 C 
BRANCH  25  26
ATOM     26  N   UNL A   1      32.421  34.239  27.596  1.00  0.00    -0.352 N 
ATOM     27  C   UNL A   1      33.029  34.904  28.634  1.00  0.00     0.251 C 
ATOM     28  H   UNL A   1      31.722  34.748  27.127  1.00  0.00     0.163 HD
ATOM     29  O   UNL A   1      32.589  35.987  29.007  1.00  0.00    -0.269 OA
BRANCH  27  30
ATOM     30  C   UNL A   1      34.194  34.311  29.329  1.00  0.00     0.039 A 
ATOM     31  C   UNL A   1      33.968  33.488  30.438  1.00  0.00     0.014 A 
ATOM     32  C   UNL A   1      35.502  34.565  28.912  1.00  0.00     0.014 A 
ATOM     33  C   UNL A   1      35.043  32.866  31.078  1.00  0.00     0.010 A 
ATOM     34  C   UNL A   1      36.567  33.884  29.500  1.00  0.00     0.010 A 
ATOM     35  C   UNL A   1      36.350  33.025  30.588  1.00  0.00    -0.014 A 
BRANCH  35  36
ATOM     36  C   UNL A   1      37.493  32.290  31.191  1.00  0.00     0.031 A 
ATOM     37  C   UNL A   1      38.006  32.663  32.555  1.00  0.00     0.074 A 
ATOM     38  C   UNL A   1      38.112  31.322  30.485  1.00  0.00     0.049 A 
ATOM     39  N   UNL A   1      39.032  32.185  33.214  1.00  0.00    -0.248 NA
ATOM     40  C   UNL A   1      37.287  33.733  33.261  1.00  0.00     0.031 C 
ATOM     41  C   UNL A   1      37.741  30.895  29.136  1.00  0.00     0.029 A 
ATOM     42  N   UNL A   1      39.191  30.532  30.798  1.00  0.00    -0.354 N 
ATOM     43  C   UNL A   1      39.083  32.898  34.405  1.00  0.00     0.074 A 
ATOM     44  C   UNL A   1      38.025  33.883  34.351  1.00  0.00     0.031 C 
ATOM     45  C   UNL A   1      38.564  29.908  28.744  1.00  0.00     0.029 A 
ATOM     46  C   UNL A   1      39.548  29.665  29.795  1.00  0.00     0.049 A 
ATOM     47  H   UNL A   1      39.664  30.583  31.660  1.00  0.00     0.167 HD
ATOM     48  C   UNL A   1      39.921  32.732  35.458  1.00  0.00     0.037 A 
ATOM     49  C   UNL A   1      40.562  28.781  29.721  1.00  0.00     0.037 A 
ATOM     50  C   UNL A   1      40.969  31.745  35.512  1.00  0.00     0.049 A 
ATOM     51  C   UNL A   1      41.499  28.636  30.892  1.00  0.00     0.074 A 
ATOM     52  C   UNL A   1      41.839  31.468  36.552  1.00  0.00     0.029 A 
ATOM     53  N   UNL A   1      41.295  30.878  34.479  1.00  0.00    -0.354 N 
ATOM     54  N   UNL A   1      41.496  29.271  32.038  1.00  0.00    -0.248 NA
ATOM     55  C   UNL A   1      42.574  27.643  30.760  1.00  0.00     0.031 C 
ATOM     56  C   UNL A   1      42.729  30.476  36.128  1.00  0.00     0.029 A 
ATOM     57  C   UNL A   1      42.372  30.086  34.847  1.00  0.00     0.049 A 
ATOM     58  H   UNL A   1      40.829  30.832  33.612  1.00  0.00     0.167 HD
ATOM     59  C   UNL A   1      42.545  28.737  32.775  1.00  0.00     0.074 A 
ATOM     60  C   UNL A   1      43.152  27.713  31.951  1.00  0.00     0.031 C 
ATOM     61  C   UNL A   1      42.966  29.065  34.021  1.00  0.00     0.037 A 
BRANCH  48  62
ATOM     62  C   UNL A   1      39.740  33.643  36.639  1.00  0.00     0.064 A 
ATOM     63  C   UNL A   1      40.404  34.877  36.728  1.00  0.00     0.173 A 
ATOM     64  C   UNL A   1      38.866  33.296  37.681  1.00  0.00     0.173 A 
ATOM     65  F   UNL A   1      41.257  35.255  35.763  1.00  0.00    -0.203 F 
ATOM     66  C   UNL A   1      40.227  35.710  37.829  1.00  0.00     0.198 A 
ATOM     67  C   UNL A   1      38.663  34.149  38.764  1.00  0.00     0.198 A 
ATOM     68  F   UNL A   1      38.198  32.133  37.647  1.00  0.00    -0.203 F 
ATOM     69  F   UNL A   1      40.916  36.857  37.917  1.00  0.00    -0.200 F 
ATOM     70  C   UNL A   1      39.352  35.350  38.842  1.00  0.00     0.200 A 
ATOM     71  F   UNL A   1      37.805  33.806  39.734  1.00  0.00    -0.200 F 
ATOM     72  F   UNL A   1      39.177  36.157  39.898  1.00  0.00    -0.200 F 
ENDBRANCH  48  62
BRANCH  49  73
ATOM     73  C   UNL A   1      40.742  27.956  28.496  1.00  0.00     0.064 A 
ATOM     74  C   UNL A   1      40.135  26.698  28.377  1.00  0.00     0.173 A 
ATOM     75  C   UNL A   1      41.528  28.404  27.424  1.00  0.00     0.173 A 
ATOM     76  F   UNL A   1      39.392  26.215  29.383  1.00  0.00    -0.203 F 
ATOM     77  C   UNL A   1      40.327  25.910  27.244  1.00  0.00     0.198 A 
ATOM     78  C   UNL A   1      41.691  27.630  26.277  1.00  0.00     0.198 A 
ATOM     79  F   UNL A   1      42.127  29.602  27.484  1.00  0.00    -0.203 F 
ATOM     80  F   UNL A   1      39.778  24.689  27.179  1.00  0.00    -0.200 F 
ATOM     81  C   UNL A   1      41.099  26.379  26.192  1.00  0.00     0.200 A 
ATOM     82  F   UNL A   1      42.424  28.095  25.256  1.00  0.00    -0.200 F 
ATOM     83  F   UNL A   1      41.279  25.623  25.101  1.00  0.00    -0.200 F 
ENDBRANCH  49  73
BRANCH  61  84
ATOM     84  C   UNL A   1      44.116  28.283  34.591  1.00  0.00     0.064 A 
ATOM     85  C   UNL A   1      45.436  28.754  34.530  1.00  0.00     0.173 A 
ATOM     86  C   UNL A   1      43.887  27.059  35.242  1.00  0.00     0.173 A 
ATOM     87  F   UNL A   1      45.713  29.910  33.907  1.00  0.00    -0.203 F 
ATOM     88  C   UNL A   1      46.486  28.017  35.072  1.00  0.00     0.198 A 
ATOM     89  C   UNL A   1      44.934  26.344  35.815  1.00  0.00     0.198 A 
ATOM     90  F   UNL A   1      42.644  26.566  35.336  1.00  0.00    -0.203 F 
ATOM     91  F   UNL A   1      47.744  28.462  34.955  1.00  0.00    -0.200 F 
ATOM     92  C   UNL A   1      46.234  26.817  35.721  1.00  0.00     0.200 A 
ATOM     93  F   UNL A   1      44.686  25.194  36.456  1.00  0.00    -0.200 F 
ATOM     94  F   UNL A   1      47.244  26.116  36.251  1.00  0.00    -0.200 F 
ENDBRANCH  61  84
ENDBRANCH  35  36
ENDBRANCH  27  30
ENDBRANCH  25  26
ENDBRANCH  24  25
ENDBRANCH   1  24
TORSDOF 14
ENDMDL
