MODEL 1
REMARK VINA RESULT:     -10.4      0.000      0.000
REMARK SMILES O=C(/C=C/c1cccs1)NCC(=O)NCCCCNC(=O)c1ccc(-c2c3nc(c(-c4c(F)c(F)c(F)c(F)c4F)c4ccc([nH]4)c(-c4c(F)c(F)c(F)c(F)c4F)c4nc(c(-c5c(F)c(F)c(F)c(F)c5F)c5ccc2[nH]5)C=C4)C=C3)cc1
REMARK SMILES IDX 16 1 15 2 14 3 12 4 13 5 11 7 10 8 1 9 2 10 3 12 4 13 5 14
REMARK SMILES IDX 6 15 9 16 7 17 8 18 17 19 18 20 19 21 20 22 21 24 22 25
REMARK SMILES IDX 23 26 84 27 24 28 83 29 25 30 26 31 27 32 77 33 28 34 82 35
REMARK SMILES IDX 76 36 78 37 29 38 81 39 75 40 74 41 30 43 62 44 42 45 61 46
REMARK SMILES IDX 43 47 46 48 60 49 79 50 44 51 45 52 59 54 80 55 47 56 31 57
REMARK SMILES IDX 32 58 40 59 33 60 34 61 38 62 41 63 35 64 36 65 39 66 37 67
REMARK SMILES IDX 63 68 64 69 72 70 65 71 66 72 70 73 73 74 67 75 68 76 71 77
REMARK SMILES IDX 69 78 48 79 49 80 57 81 50 82 51 83 55 84 58 85 52 86 53 87
REMARK SMILES IDX 56 88 54 89
REMARK H PARENT 14 6 10 11 19 23 78 42 46 53
REMARK Flexibility Score: inf
ROOT
ATOM      1  C   UNL A   1      33.956  36.175  28.631  1.00  0.00     0.023 C 
ENDROOT
BRANCH   1   2
ATOM      2  C   UNL A   1      32.899  36.062  29.730  1.00  0.00     0.116 C 
BRANCH   2   3
ATOM      3  N   UNL A   1      32.935  37.210  30.615  1.00  0.00    -0.355 N 
ATOM      4  C   UNL A   1      33.301  37.259  31.930  1.00  0.00     0.239 C 
ATOM      5  O   UNL A   1      33.253  38.344  32.511  1.00  0.00    -0.273 OA
ATOM      6  H   UNL A   1      32.658  38.065  30.217  1.00  0.00     0.163 HD
BRANCH   4   7
ATOM      7  C   UNL A   1      33.801  35.997  32.637  1.00  0.00     0.216 C 
BRANCH   7   8
ATOM      8  N   UNL A   1      35.239  35.824  32.501  1.00  0.00    -0.343 N 
ATOM      9  O   UNL A   1      35.112  33.700  31.663  1.00  0.00    -0.270 OA
ATOM     10  C   UNL A   1      35.781  34.665  32.023  1.00  0.00     0.244 C 
ATOM     11  H   UNL A   1      35.838  36.562  32.759  1.00  0.00     0.164 HD
BRANCH  10  12
ATOM     12  C   UNL A   1      37.259  34.572  31.956  1.00  0.00     0.072 C 
ATOM     13  C   UNL A   1      38.011  34.386  30.861  1.00  0.00     0.024 C 
BRANCH  13  14
ATOM     14  C   UNL A   1      39.434  34.348  30.948  1.00  0.00     0.027 A 
ATOM     15  C   UNL A   1      40.263  34.110  32.034  1.00  0.00     0.020 A 
ATOM     16  S   UNL A   1      40.375  34.615  29.528  1.00  0.00    -0.144 S 
ATOM     17  C   UNL A   1      41.648  34.170  31.707  1.00  0.00     0.012 A 
ATOM     18  C   UNL A   1      41.848  34.452  30.375  1.00  0.00     0.065 A 
ENDBRANCH  13  14
ENDBRANCH  10  12
ENDBRANCH   7   8
ENDBRANCH   4   7
ENDBRANCH   2   3
ENDBRANCH   1   2
BRANCH   1  19
ATOM     19  C   UNL A   1      34.361  34.836  28.009  1.00  0.00     0.023 C 
BRANCH  19  20
ATOM     20  C   UNL A   1      33.729  33.604  28.648  1.00  0.00     0.116 C 
BRANCH  20  21
ATOM     21  N   UNL A   1      33.231  32.649  27.671  1.00  0.00    -0.352 N 
ATOM     22  C   UNL A   1      33.793  31.469  27.251  1.00  0.00     0.251 C 
ATOM     23  H   UNL A   1      32.370  32.880  27.254  1.00  0.00     0.163 HD
ATOM     24  O   UNL A   1      33.298  30.849  26.313  1.00  0.00    -0.269 OA
BRANCH  22  25
ATOM     25  C   UNL A   1      35.018  30.959  27.904  1.00  0.00     0.039 A 
ATOM     26  C   UNL A   1      36.146  31.782  27.950  1.00  0.00     0.014 A 
ATOM     27  C   UNL A   1      35.059  29.682  28.471  1.00  0.00     0.014 A 
ATOM     28  C   UNL A   1      37.295  31.346  28.611  1.00  0.00     0.010 A 
ATOM     29  C   UNL A   1      36.176  29.280  29.198  1.00  0.00     0.010 A 
ATOM     30  C   UNL A   1      37.310  30.104  29.269  1.00  0.00    -0.014 A 
BRANCH  30  31
ATOM     31  C   UNL A   1      38.506  29.656  30.028  1.00  0.00     0.031 A 
ATOM     32  C   UNL A   1      38.759  30.170  31.419  1.00  0.00     0.074 A 
ATOM     33  C   UNL A   1      39.389  28.821  29.447  1.00  0.00     0.049 A 
ATOM     34  N   UNL A   1      39.758  29.916  32.227  1.00  0.00    -0.248 NA
ATOM     35  C   UNL A   1      37.774  31.117  31.965  1.00  0.00     0.031 C 
ATOM     36  C   UNL A   1      39.284  28.294  28.086  1.00  0.00     0.029 A 
ATOM     37  N   UNL A   1      40.551  28.270  29.928  1.00  0.00    -0.354 N 
ATOM     38  C   UNL A   1      39.525  30.674  33.368  1.00  0.00     0.074 A 
ATOM     39  C   UNL A   1      38.327  31.446  33.123  1.00  0.00     0.031 C 
ATOM     40  C   UNL A   1      40.320  27.473  27.851  1.00  0.00     0.029 A 
ATOM     41  C   UNL A   1      41.182  27.444  29.029  1.00  0.00     0.049 A 
ATOM     42  H   UNL A   1      40.900  28.449  30.831  1.00  0.00     0.167 HD
ATOM     43  C   UNL A   1      40.230  30.703  34.524  1.00  0.00     0.037 A 
ATOM     44  C   UNL A   1      42.328  26.747  29.141  1.00  0.00     0.037 A 
ATOM     45  C   UNL A   1      41.412  29.919  34.769  1.00  0.00     0.049 A 
ATOM     46  C   UNL A   1      43.098  26.804  30.434  1.00  0.00     0.074 A 
ATOM     47  C   UNL A   1      42.167  29.835  35.927  1.00  0.00     0.029 A 
ATOM     48  N   UNL A   1      42.016  29.086  33.839  1.00  0.00    -0.354 N 
ATOM     49  N   UNL A   1      42.826  27.464  31.533  1.00  0.00    -0.248 NA
ATOM     50  C   UNL A   1      44.332  26.008  30.503  1.00  0.00     0.031 C 
ATOM     51  C   UNL A   1      43.258  28.996  35.678  1.00  0.00     0.029 A 
ATOM     52  C   UNL A   1      43.149  28.505  34.388  1.00  0.00     0.049 A 
ATOM     53  H   UNL A   1      41.689  28.931  32.923  1.00  0.00     0.167 HD
ATOM     54  C   UNL A   1      43.833  27.140  32.433  1.00  0.00     0.074 A 
ATOM     55  C   UNL A   1      44.711  26.209  31.757  1.00  0.00     0.031 C 
ATOM     56  C   UNL A   1      44.012  27.574  33.706  1.00  0.00     0.037 A 
BRANCH  43  57
ATOM     57  C   UNL A   1      39.739  31.612  35.614  1.00  0.00     0.064 A 
ATOM     58  C   UNL A   1      40.332  32.863  35.855  1.00  0.00     0.173 A 
ATOM     59  C   UNL A   1      38.641  31.248  36.407  1.00  0.00     0.173 A 
ATOM     60  F   UNL A   1      41.392  33.257  35.132  1.00  0.00    -0.203 F 
ATOM     61  C   UNL A   1      39.866  33.697  36.867  1.00  0.00     0.198 A 
ATOM     62  C   UNL A   1      38.155  32.099  37.397  1.00  0.00     0.198 A 
ATOM     63  F   UNL A   1      38.032  30.068  36.218  1.00  0.00    -0.203 F 
ATOM     64  F   UNL A   1      40.483  34.860  37.113  1.00  0.00    -0.200 F 
ATOM     65  C   UNL A   1      38.773  33.318  37.632  1.00  0.00     0.200 A 
ATOM     66  F   UNL A   1      37.089  31.739  38.125  1.00  0.00    -0.200 F 
ATOM     67  F   UNL A   1      38.319  34.124  38.602  1.00  0.00    -0.200 F 
ENDBRANCH  43  57
BRANCH  44  68
ATOM     68  C   UNL A   1      42.804  25.910  28.008  1.00  0.00     0.064 A 
ATOM     69  C   UNL A   1      43.688  26.427  27.050  1.00  0.00     0.173 A 
ATOM     70  C   UNL A   1      42.377  24.584  27.849  1.00  0.00     0.173 A 
ATOM     71  F   UNL A   1      44.110  27.696  27.145  1.00  0.00    -0.203 F 
ATOM     72  C   UNL A   1      44.104  25.659  25.964  1.00  0.00     0.198 A 
ATOM     73  C   UNL A   1      42.819  23.806  26.782  1.00  0.00     0.198 A 
ATOM     74  F   UNL A   1      41.536  24.037  28.740  1.00  0.00    -0.203 F 
ATOM     75  F   UNL A   1      44.907  26.197  25.035  1.00  0.00    -0.200 F 
ATOM     76  C   UNL A   1      43.675  24.347  25.834  1.00  0.00     0.200 A 
ATOM     77  F   UNL A   1      42.415  22.534  26.669  1.00  0.00    -0.200 F 
ATOM     78  F   UNL A   1      44.078  23.608  24.791  1.00  0.00    -0.200 F 
ENDBRANCH  44  68
BRANCH  56  79
ATOM     79  C   UNL A   1      45.181  27.014  34.465  1.00  0.00     0.064 A 
ATOM     80  C   UNL A   1      45.081  25.829  35.210  1.00  0.00     0.173 A 
ATOM     81  C   UNL A   1      46.427  27.657  34.422  1.00  0.00     0.173 A 
ATOM     82  F   UNL A   1      43.909  25.181  35.296  1.00  0.00    -0.203 F 
ATOM     83  C   UNL A   1      46.175  25.329  35.911  1.00  0.00     0.198 A 
ATOM     84  C   UNL A   1      47.529  27.135  35.095  1.00  0.00     0.198 A 
ATOM     85  F   UNL A   1      46.581  28.789  33.718  1.00  0.00    -0.203 F 
ATOM     86  F   UNL A   1      46.040  24.229  36.664  1.00  0.00    -0.200 F 
ATOM     87  C   UNL A   1      47.400  25.978  35.847  1.00  0.00     0.200 A 
ATOM     88  F   UNL A   1      48.715  27.754  35.017  1.00  0.00    -0.200 F 
ATOM     89  F   UNL A   1      48.452  25.492  36.519  1.00  0.00    -0.200 F 
ENDBRANCH  56  79
ENDBRANCH  30  31
ENDBRANCH  22  25
ENDBRANCH  20  21
ENDBRANCH  19  20
ENDBRANCH   1  19
TORSDOF 14
ENDMDL
MODEL 2
REMARK VINA RESULT:     -10.4      4.786     11.415
REMARK SMILES O=C(/C=C/c1cccs1)NCC(=O)NCCCCNC(=O)c1ccc(-c2c3nc(c(-c4c(F)c(F)c(F)c(F)c4F)c4ccc([nH]4)c(-c4c(F)c(F)c(F)c(F)c4F)c4nc(c(-c5c(F)c(F)c(F)c(F)c5F)c5ccc2[nH]5)C=C4)C=C3)cc1
REMARK SMILES IDX 16 1 15 2 14 3 12 4 13 5 11 7 10 8 1 9 2 10 3 12 4 13 5 14
REMARK SMILES IDX 6 15 9 16 7 17 8 18 17 19 18 20 19 21 20 22 21 24 22 25
REMARK SMILES IDX 23 26 84 27 24 28 83 29 25 30 26 31 27 32 77 33 28 34 82 35
REMARK SMILES IDX 76 36 78 37 29 38 81 39 75 40 74 41 30 43 62 44 42 45 61 46
REMARK SMILES IDX 43 47 46 48 60 49 79 50 44 51 45 52 59 54 80 55 47 56 31 57
REMARK SMILES IDX 32 58 40 59 33 60 34 61 38 62 41 63 35 64 36 65 39 66 37 67
REMARK SMILES IDX 63 68 64 69 72 70 65 71 66 72 70 73 73 74 67 75 68 76 71 77
REMARK SMILES IDX 69 78 48 79 49 80 57 81 50 82 51 83 55 84 58 85 52 86 53 87
REMARK SMILES IDX 56 88 54 89
REMARK H PARENT 14 6 10 11 19 23 78 42 46 53
REMARK Flexibility Score: inf
ROOT
ATOM      1  C   UNL A   1      42.121  19.689  27.026  1.00  0.00     0.023 C 
ENDROOT
BRANCH   1   2
ATOM      2  C   UNL A   1      42.855  19.548  25.692  1.00  0.00     0.116 C 
BRANCH   2   3
ATOM      3  N   UNL A   1      44.100  18.821  25.849  1.00  0.00    -0.355 N 
ATOM      4  C   UNL A   1      45.260  18.959  25.142  1.00  0.00     0.239 C 
ATOM      5  O   UNL A   1      46.211  18.232  25.431  1.00  0.00    -0.273 OA
ATOM      6  H   UNL A   1      44.110  18.140  26.558  1.00  0.00     0.163 HD
BRANCH   4   7
ATOM      7  C   UNL A   1      45.375  20.027  24.052  1.00  0.00     0.216 C 
BRANCH   7   8
ATOM      8  N   UNL A   1      45.649  21.345  24.601  1.00  0.00    -0.343 N 
ATOM      9  O   UNL A   1      43.861  22.361  23.601  1.00  0.00    -0.270 OA
ATOM     10  C   UNL A   1      44.856  22.421  24.316  1.00  0.00     0.244 C 
ATOM     11  H   UNL A   1      46.426  21.467  25.195  1.00  0.00     0.164 HD
BRANCH  10  12
ATOM     12  C   UNL A   1      45.239  23.731  24.894  1.00  0.00     0.072 C 
ATOM     13  C   UNL A   1      44.446  24.795  25.088  1.00  0.00     0.024 C 
BRANCH  13  14
ATOM     14  C   UNL A   1      44.952  25.987  25.688  1.00  0.00     0.027 A 
ATOM     15  C   UNL A   1      44.425  27.268  25.726  1.00  0.00     0.020 A 
ATOM     16  S   UNL A   1      46.450  25.932  26.539  1.00  0.00    -0.144 S 
ATOM     17  C   UNL A   1      45.253  28.194  26.425  1.00  0.00     0.012 A 
ATOM     18  C   UNL A   1      46.394  27.598  26.907  1.00  0.00     0.065 A 
ENDBRANCH  13  14
ENDBRANCH  10  12
ENDBRANCH   7   8
ENDBRANCH   4   7
ENDBRANCH   2   3
ENDBRANCH   1   2
BRANCH   1  19
ATOM     19  C   UNL A   1      42.023  21.128  27.540  1.00  0.00     0.023 C 
BRANCH  19  20
ATOM     20  C   UNL A   1      41.764  22.185  26.472  1.00  0.00     0.116 C 
BRANCH  20  21
ATOM     21  N   UNL A   1      40.399  22.164  25.971  1.00  0.00    -0.352 N 
ATOM     22  C   UNL A   1      39.399  23.089  26.147  1.00  0.00     0.251 C 
ATOM     23  H   UNL A   1      40.158  21.379  25.429  1.00  0.00     0.163 HD
ATOM     24  O   UNL A   1      38.258  22.845  25.763  1.00  0.00    -0.269 OA
BRANCH  22  25
ATOM     25  C   UNL A   1      39.687  24.368  26.832  1.00  0.00     0.039 A 
ATOM     26  C   UNL A   1      39.276  24.526  28.157  1.00  0.00     0.014 A 
ATOM     27  C   UNL A   1      40.357  25.405  26.177  1.00  0.00     0.014 A 
ATOM     28  C   UNL A   1      39.586  25.702  28.843  1.00  0.00     0.010 A 
ATOM     29  C   UNL A   1      40.735  26.543  26.884  1.00  0.00     0.010 A 
ATOM     30  C   UNL A   1      40.347  26.708  28.223  1.00  0.00    -0.014 A 
BRANCH  30  31
ATOM     31  C   UNL A   1      40.735  27.936  28.962  1.00  0.00     0.031 A 
ATOM     32  C   UNL A   1      42.135  28.094  29.492  1.00  0.00     0.074 A 
ATOM     33  C   UNL A   1      39.815  28.892  29.197  1.00  0.00     0.049 A 
ATOM     34  N   UNL A   1      42.654  29.079  30.181  1.00  0.00    -0.248 NA
ATOM     35  C   UNL A   1      43.068  26.985  29.236  1.00  0.00     0.031 C 
ATOM     36  C   UNL A   1      38.413  28.834  28.783  1.00  0.00     0.029 A 
ATOM     37  N   UNL A   1      39.920  30.098  29.844  1.00  0.00    -0.354 N 
ATOM     38  C   UNL A   1      43.966  28.706  30.446  1.00  0.00     0.074 A 
ATOM     39  C   UNL A   1      44.145  27.378  29.900  1.00  0.00     0.031 C 
ATOM     40  C   UNL A   1      37.796  29.966  29.158  1.00  0.00     0.029 A 
ATOM     41  C   UNL A   1      38.747  30.812  29.871  1.00  0.00     0.049 A 
ATOM     42  H   UNL A   1      40.757  30.421  30.250  1.00  0.00     0.167 HD
ATOM     43  C   UNL A   1      44.940  29.417  31.063  1.00  0.00     0.037 A 
ATOM     44  C   UNL A   1      38.470  32.013  30.414  1.00  0.00     0.037 A 
ATOM     45  C   UNL A   1      44.762  30.745  31.588  1.00  0.00     0.049 A 
ATOM     46  C   UNL A   1      39.568  32.778  31.103  1.00  0.00     0.074 A 
ATOM     47  C   UNL A   1      45.700  31.571  32.182  1.00  0.00     0.029 A 
ATOM     48  N   UNL A   1      43.562  31.441  31.589  1.00  0.00    -0.354 N 
ATOM     49  N   UNL A   1      40.824  32.448  31.280  1.00  0.00    -0.248 NA
ATOM     50  C   UNL A   1      39.210  34.090  31.661  1.00  0.00     0.031 C 
ATOM     51  C   UNL A   1      45.056  32.743  32.592  1.00  0.00     0.029 A 
ATOM     52  C   UNL A   1      43.730  32.676  32.196  1.00  0.00     0.049 A 
ATOM     53  H   UNL A   1      42.715  31.106  31.214  1.00  0.00     0.167 HD
ATOM     54  C   UNL A   1      41.413  33.520  31.937  1.00  0.00     0.074 A 
ATOM     55  C   UNL A   1      40.380  34.519  32.111  1.00  0.00     0.031 C 
ATOM     56  C   UNL A   1      42.694  33.664  32.358  1.00  0.00     0.037 A 
BRANCH  43  57
ATOM     57  C   UNL A   1      46.289  28.770  31.203  1.00  0.00     0.064 A 
ATOM     58  C   UNL A   1      47.311  28.986  30.264  1.00  0.00     0.173 A 
ATOM     59  C   UNL A   1      46.577  27.953  32.306  1.00  0.00     0.173 A 
ATOM     60  F   UNL A   1      47.086  29.750  29.184  1.00  0.00    -0.203 F 
ATOM     61  C   UNL A   1      48.557  28.382  30.407  1.00  0.00     0.198 A 
ATOM     62  C   UNL A   1      47.836  27.378  32.464  1.00  0.00     0.198 A 
ATOM     63  F   UNL A   1      45.641  27.717  33.237  1.00  0.00    -0.203 F 
ATOM     64  F   UNL A   1      49.498  28.559  29.469  1.00  0.00    -0.200 F 
ATOM     65  C   UNL A   1      48.821  27.585  31.511  1.00  0.00     0.200 A 
ATOM     66  F   UNL A   1      48.095  26.621  33.540  1.00  0.00    -0.200 F 
ATOM     67  F   UNL A   1      50.024  27.011  31.652  1.00  0.00    -0.200 F 
ENDBRANCH  43  57
BRANCH  44  68
ATOM     68  C   UNL A   1      37.100  32.582  30.303  1.00  0.00     0.064 A 
ATOM     69  C   UNL A   1      36.722  33.343  29.188  1.00  0.00     0.173 A 
ATOM     70  C   UNL A   1      36.145  32.390  31.312  1.00  0.00     0.173 A 
ATOM     71  F   UNL A   1      37.605  33.573  28.205  1.00  0.00    -0.203 F 
ATOM     72  C   UNL A   1      35.454  33.911  29.098  1.00  0.00     0.198 A 
ATOM     73  C   UNL A   1      34.866  32.930  31.207  1.00  0.00     0.198 A 
ATOM     74  F   UNL A   1      36.452  31.664  32.398  1.00  0.00    -0.203 F 
ATOM     75  F   UNL A   1      35.138  34.679  28.046  1.00  0.00    -0.200 F 
ATOM     76  C   UNL A   1      34.524  33.699  30.105  1.00  0.00     0.200 A 
ATOM     77  F   UNL A   1      33.965  32.709  32.174  1.00  0.00    -0.200 F 
ATOM     78  F   UNL A   1      33.302  34.244  30.017  1.00  0.00    -0.200 F 
ENDBRANCH  44  68
BRANCH  56  79
ATOM     79  C   UNL A   1      43.062  34.967  33.010  1.00  0.00     0.064 A 
ATOM     80  C   UNL A   1      43.499  36.072  32.264  1.00  0.00     0.173 A 
ATOM     81  C   UNL A   1      42.946  35.120  34.400  1.00  0.00     0.173 A 
ATOM     82  F   UNL A   1      43.641  35.975  30.933  1.00  0.00    -0.203 F 
ATOM     83  C   UNL A   1      43.840  37.269  32.889  1.00  0.00     0.198 A 
ATOM     84  C   UNL A   1      43.253  36.330  35.018  1.00  0.00     0.198 A 
ATOM     85  F   UNL A   1      42.524  34.098  35.161  1.00  0.00    -0.203 F 
ATOM     86  F   UNL A   1      44.312  38.290  32.163  1.00  0.00    -0.200 F 
ATOM     87  C   UNL A   1      43.709  37.399  34.264  1.00  0.00     0.200 A 
ATOM     88  F   UNL A   1      43.109  36.458  36.345  1.00  0.00    -0.200 F 
ATOM     89  F   UNL A   1      44.033  38.553  34.863  1.00  0.00    -0.200 F 
ENDBRANCH  56  79
ENDBRANCH  30  31
ENDBRANCH  22  25
ENDBRANCH  20  21
ENDBRANCH  19  20
ENDBRANCH   1  19
TORSDOF 14
ENDMDL
MODEL 3
REMARK VINA RESULT:     -10.4      2.745      4.057
REMARK SMILES O=C(/C=C/c1cccs1)NCC(=O)NCCCCNC(=O)c1ccc(-c2c3nc(c(-c4c(F)c(F)c(F)c(F)c4F)c4ccc([nH]4)c(-c4c(F)c(F)c(F)c(F)c4F)c4nc(c(-c5c(F)c(F)c(F)c(F)c5F)c5ccc2[nH]5)C=C4)C=C3)cc1
REMARK SMILES IDX 16 1 15 2 14 3 12 4 13 5 11 7 10 8 1 9 2 10 3 12 4 13 5 14
REMARK SMILES IDX 6 15 9 16 7 17 8 18 17 19 18 20 19 21 20 22 21 24 22 25
REMARK SMILES IDX 23 26 84 27 24 28 83 29 25 30 26 31 27 32 77 33 28 34 82 35
REMARK SMILES IDX 76 36 78 37 29 38 81 39 75 40 74 41 30 43 62 44 42 45 61 46
REMARK SMILES IDX 43 47 46 48 60 49 79 50 44 51 45 52 59 54 80 55 47 56 31 57
REMARK SMILES IDX 32 58 40 59 33 60 34 61 38 62 41 63 35 64 36 65 39 66 37 67
REMARK SMILES IDX 63 68 64 69 72 70 65 71 66 72 70 73 73 74 67 75 68 76 71 77
REMARK SMILES IDX 69 78 48 79 49 80 57 81 50 82 51 83 55 84 58 85 52 86 53 87
REMARK SMILES IDX 56 88 54 89
REMARK H PARENT 14 6 10 11 19 23 78 42 46 53
REMARK Flexibility Score: inf
ROOT
ATOM      1  C   UNL A   1      34.543  35.010  28.752  1.00  0.00     0.023 C 
ENDROOT
BRANCH   1   2
ATOM      2  C   UNL A   1      33.165  35.355  29.317  1.00  0.00     0.116 C 
BRANCH   2   3
ATOM      3  N   UNL A   1      33.199  36.591  30.073  1.00  0.00    -0.355 N 
ATOM      4  C   UNL A   1      33.093  36.766  31.423  1.00  0.00     0.239 C 
ATOM      5  O   UNL A   1      33.139  37.912  31.871  1.00  0.00    -0.273 OA
ATOM      6  H   UNL A   1      33.312  37.413  29.544  1.00  0.00     0.163 HD
BRANCH   4   7
ATOM      7  C   UNL A   1      32.968  35.553  32.348  1.00  0.00     0.216 C 
BRANCH   7   8
ATOM      8  N   UNL A   1      34.265  35.025  32.740  1.00  0.00    -0.343 N 
ATOM      9  O   UNL A   1      33.657  32.828  32.558  1.00  0.00    -0.270 OA
ATOM     10  C   UNL A   1      34.500  33.681  32.820  1.00  0.00     0.244 C 
ATOM     11  H   UNL A   1      34.995  35.652  32.954  1.00  0.00     0.164 HD
BRANCH  10  12
ATOM     12  C   UNL A   1      35.844  33.242  33.265  1.00  0.00     0.072 C 
ATOM     13  C   UNL A   1      36.381  32.019  33.137  1.00  0.00     0.024 C 
BRANCH  13  14
ATOM     14  C   UNL A   1      37.707  31.752  33.589  1.00  0.00     0.027 A 
ATOM     15  C   UNL A   1      38.679  32.608  34.085  1.00  0.00     0.020 A 
ATOM     16  S   UNL A   1      38.295  30.131  33.569  1.00  0.00    -0.144 S 
ATOM     17  C   UNL A   1      39.894  31.943  34.421  1.00  0.00     0.012 A 
ATOM     18  C   UNL A   1      39.822  30.592  34.174  1.00  0.00     0.065 A 
ENDBRANCH  13  14
ENDBRANCH  10  12
ENDBRANCH   7   8
ENDBRANCH   4   7
ENDBRANCH   2   3
ENDBRANCH   1   2
BRANCH   1  19
ATOM     19  C   UNL A   1      34.623  33.635  28.084  1.00  0.00     0.023 C 
BRANCH  19  20
ATOM     20  C   UNL A   1      34.596  32.445  29.038  1.00  0.00     0.116 C 
BRANCH  20  21
ATOM     21  N   UNL A   1      33.997  31.258  28.451  1.00  0.00    -0.352 N 
ATOM     22  C   UNL A   1      34.597  30.080  28.080  1.00  0.00     0.251 C 
ATOM     23  H   UNL A   1      33.026  31.305  28.297  1.00  0.00     0.163 HD
ATOM     24  O   UNL A   1      33.957  29.226  27.471  1.00  0.00    -0.269 OA
BRANCH  22  25
ATOM     25  C   UNL A   1      36.025  29.850  28.385  1.00  0.00     0.039 A 
ATOM     26  C   UNL A   1      36.372  29.360  29.646  1.00  0.00     0.014 A 
ATOM     27  C   UNL A   1      37.020  30.112  27.438  1.00  0.00     0.014 A 
ATOM     28  C   UNL A   1      37.708  29.081  29.939  1.00  0.00     0.010 A 
ATOM     29  C   UNL A   1      38.340  29.759  27.702  1.00  0.00     0.010 A 
ATOM     30  C   UNL A   1      38.700  29.247  28.958  1.00  0.00    -0.014 A 
BRANCH  30  31
ATOM     31  C   UNL A   1      40.116  28.895  29.238  1.00  0.00     0.031 A 
ATOM     32  C   UNL A   1      40.993  29.837  30.018  1.00  0.00     0.074 A 
ATOM     33  C   UNL A   1      40.626  27.747  28.752  1.00  0.00     0.049 A 
ATOM     34  N   UNL A   1      42.257  29.718  30.340  1.00  0.00    -0.248 NA
ATOM     35  C   UNL A   1      40.376  31.092  30.474  1.00  0.00     0.031 C 
ATOM     36  C   UNL A   1      39.895  26.776  27.937  1.00  0.00     0.029 A 
ATOM     37  N   UNL A   1      41.882  27.204  28.869  1.00  0.00    -0.354 N 
ATOM     38  C   UNL A   1      42.585  30.880  31.026  1.00  0.00     0.074 A 
ATOM     39  C   UNL A   1      41.407  31.720  31.018  1.00  0.00     0.031 C 
ATOM     40  C   UNL A   1      40.703  25.743  27.653  1.00  0.00     0.029 A 
ATOM     41  C   UNL A   1      42.019  25.994  28.232  1.00  0.00     0.049 A 
ATOM     42  H   UNL A   1      42.614  27.639  29.361  1.00  0.00     0.167 HD
ATOM     43  C   UNL A   1      43.752  31.206  31.631  1.00  0.00     0.037 A 
ATOM     44  C   UNL A   1      43.087  25.181  28.125  1.00  0.00     0.037 A 
ATOM     45  C   UNL A   1      44.916  30.358  31.651  1.00  0.00     0.049 A 
ATOM     46  C   UNL A   1      44.376  25.571  28.799  1.00  0.00     0.074 A 
ATOM     47  C   UNL A   1      46.128  30.572  32.284  1.00  0.00     0.029 A 
ATOM     48  N   UNL A   1      45.015  29.135  31.005  1.00  0.00    -0.354 N 
ATOM     49  N   UNL A   1      44.651  26.637  29.510  1.00  0.00    -0.248 NA
ATOM     50  C   UNL A   1      45.502  24.636  28.662  1.00  0.00     0.031 C 
ATOM     51  C   UNL A   1      46.979  29.506  31.973  1.00  0.00     0.029 A 
ATOM     52  C   UNL A   1      46.277  28.596  31.201  1.00  0.00     0.049 A 
ATOM     53  H   UNL A   1      44.294  28.712  30.482  1.00  0.00     0.167 HD
ATOM     54  C   UNL A   1      45.965  26.488  29.932  1.00  0.00     0.074 A 
ATOM     55  C   UNL A   1      46.427  25.218  29.412  1.00  0.00     0.031 C 
ATOM     56  C   UNL A   1      46.721  27.327  30.683  1.00  0.00     0.037 A 
BRANCH  43  57
ATOM     57  C   UNL A   1      43.828  32.537  32.323  1.00  0.00     0.064 A 
ATOM     58  C   UNL A   1      44.170  33.710  31.631  1.00  0.00     0.173 A 
ATOM     59  C   UNL A   1      43.521  32.650  33.688  1.00  0.00     0.173 A 
ATOM     60  F   UNL A   1      44.483  33.658  30.327  1.00  0.00    -0.203 F 
ATOM     61  C   UNL A   1      44.235  34.938  32.285  1.00  0.00     0.198 A 
ATOM     62  C   UNL A   1      43.554  33.885  34.332  1.00  0.00     0.198 A 
ATOM     63  F   UNL A   1      43.182  31.563  34.398  1.00  0.00    -0.203 F 
ATOM     64  F   UNL A   1      44.618  36.033  31.615  1.00  0.00    -0.200 F 
ATOM     65  C   UNL A   1      43.919  35.025  33.632  1.00  0.00     0.200 A 
ATOM     66  F   UNL A   1      43.232  33.971  35.630  1.00  0.00    -0.200 F 
ATOM     67  F   UNL A   1      43.973  36.208  34.259  1.00  0.00    -0.200 F 
ENDBRANCH  43  57
BRANCH  44  68
ATOM     68  C   UNL A   1      42.978  23.902  27.374  1.00  0.00     0.064 A 
ATOM     69  C   UNL A   1      42.518  22.734  28.000  1.00  0.00     0.173 A 
ATOM     70  C   UNL A   1      43.342  23.815  26.023  1.00  0.00     0.173 A 
ATOM     71  F   UNL A   1      42.177  22.760  29.297  1.00  0.00    -0.203 F 
ATOM     72  C   UNL A   1      42.452  21.525  27.312  1.00  0.00     0.198 A 
ATOM     73  C   UNL A   1      43.244  22.613  25.326  1.00  0.00     0.198 A 
ATOM     74  F   UNL A   1      43.782  24.903  25.374  1.00  0.00    -0.203 F 
ATOM     75  F   UNL A   1      42.060  20.414  27.950  1.00  0.00    -0.200 F 
ATOM     76  C   UNL A   1      42.809  21.466  25.973  1.00  0.00     0.200 A 
ATOM     77  F   UNL A   1      43.574  22.565  24.028  1.00  0.00    -0.200 F 
ATOM     78  F   UNL A   1      42.743  20.304  25.310  1.00  0.00    -0.200 F 
ENDBRANCH  44  68
BRANCH  56  79
ATOM     79  C   UNL A   1      48.115  26.879  31.024  1.00  0.00     0.064 A 
ATOM     80  C   UNL A   1      48.375  26.033  32.112  1.00  0.00     0.173 A 
ATOM     81  C   UNL A   1      49.201  27.279  30.230  1.00  0.00     0.173 A 
ATOM     82  F   UNL A   1      47.375  25.632  32.911  1.00  0.00    -0.203 F 
ATOM     83  C   UNL A   1      49.675  25.633  32.414  1.00  0.00     0.198 A 
ATOM     84  C   UNL A   1      50.494  26.848  30.513  1.00  0.00     0.198 A 
ATOM     85  F   UNL A   1      49.007  28.081  29.172  1.00  0.00    -0.203 F 
ATOM     86  F   UNL A   1      49.907  24.874  33.492  1.00  0.00    -0.200 F 
ATOM     87  C   UNL A   1      50.732  26.035  31.609  1.00  0.00     0.200 A 
ATOM     88  F   UNL A   1      51.511  27.223  29.724  1.00  0.00    -0.200 F 
ATOM     89  F   UNL A   1      51.981  25.645  31.898  1.00  0.00    -0.200 F 
ENDBRANCH  56  79
ENDBRANCH  30  31
ENDBRANCH  22  25
ENDBRANCH  20  21
ENDBRANCH  19  20
ENDBRANCH   1  19
TORSDOF 14
ENDMDL
