MODEL 1
REMARK VINA RESULT:     -14.0      0.000      0.000
REMARK SMILES O=C1[NH+]=C(Nc2ccc(C(=O)NCCCCNC(=O)c3ccc(-c4c5nc(c(-c6c(F)c(F)c(F)c(F)c6F)c6ccc([nH]6)c(-c6c(F)c(F)c(F)c(F)c6F)c6nc(c(-c7c(F)c(F)c(F)c(F)c7F)c7ccc4[nH]7)C=C6)C=C5)cc3)c(O)c2)S/C1=C\c1ccncc1
REMARK SMILES IDX 14 1 13 2 12 3 10 4 11 5 9 7 6 8 7 9 85 10 8 11 83 12 5 13
REMARK SMILES IDX 1 14 2 15 3 16 87 17 4 18 86 20 88 21 89 23 90 24 94 25
REMARK SMILES IDX 91 26 93 27 92 28 84 29 15 31 16 32 17 33 18 34 19 36 20 37
REMARK SMILES IDX 21 38 82 39 22 40 81 41 23 42 24 43 25 44 75 45 26 46 80 47
REMARK SMILES IDX 74 48 76 49 27 50 79 51 73 52 72 53 28 55 60 56 40 57 59 58
REMARK SMILES IDX 41 59 44 60 58 61 77 62 42 63 43 64 57 66 78 67 45 68 29 69
REMARK SMILES IDX 30 70 38 71 31 72 32 73 36 74 39 75 33 76 34 77 37 78 35 79
REMARK SMILES IDX 61 80 62 81 70 82 63 83 64 84 68 85 71 86 65 87 66 88 69 89
REMARK SMILES IDX 67 90 46 91 47 92 55 93 48 94 49 95 53 96 56 97 50 98 51 99
REMARK SMILES IDX 54 100 52 101
REMARK H PARENT 12 6 3 19 5 22 84 30 17 35 76 54 44 65
REMARK Flexibility Score: inf
ROOT
ATOM      1  C   UNL A   1      37.079  21.131  24.667  1.00  0.00     0.023 C 
ENDROOT
BRANCH   1   2
ATOM      2  C   UNL A   1      35.934  21.248  25.668  1.00  0.00     0.116 C 
BRANCH   2   3
ATOM      3  N   UNL A   1      34.724  20.528  25.303  1.00  0.00    -0.352 N 
ATOM      4  C   UNL A   1      33.548  20.996  24.760  1.00  0.00     0.255 C 
ATOM      5  O   UNL A   1      32.645  20.198  24.523  1.00  0.00    -0.269 OA
ATOM      6  H   UNL A   1      34.750  19.558  25.469  1.00  0.00     0.163 HD
BRANCH   4   7
ATOM      7  C   UNL A   1      33.323  22.442  24.512  1.00  0.00     0.081 A 
ATOM      8  C   UNL A   1      32.626  25.094  23.828  1.00  0.00     0.129 A 
ATOM      9  C   UNL A   1      32.943  24.160  22.838  1.00  0.00     0.053 A 
ATOM     10  C   UNL A   1      32.741  24.704  25.168  1.00  0.00     0.098 A 
ATOM     11  C   UNL A   1      33.293  22.849  23.173  1.00  0.00     0.022 A 
ATOM     12  C   UNL A   1      33.127  23.406  25.504  1.00  0.00     0.132 A 
BRANCH   8  13
ATOM     13  N   UNL A   1      32.114  26.363  23.532  1.00  0.00    -0.234 N 
ATOM     14  O   UNL A   1      27.480  26.336  24.089  1.00  0.00    -0.240 OA
ATOM     15  C   UNL A   1      28.587  26.763  23.789  1.00  0.00     0.346 C 
ATOM     16  N   UNL A   1      29.757  26.044  23.859  1.00  0.00    -0.199 N 
ATOM     17  C   UNL A   1      28.822  28.150  23.295  1.00  0.00     0.110 C 
ATOM     18  C   UNL A   1      30.801  26.730  23.534  1.00  0.00     0.322 C 
ATOM     19  H   UNL A   1      29.794  25.099  24.132  1.00  0.00     0.316 HD
ATOM     20  S   UNL A   1      30.508  28.392  23.067  1.00  0.00     0.006 SA
ATOM     21  C   UNL A   1      27.828  29.022  23.080  1.00  0.00     0.032 C 
ATOM     22  H   UNL A   1      32.767  27.061  23.298  1.00  0.00     0.313 HD
BRANCH  21  23
ATOM     23  C   UNL A   1      28.005  30.378  22.553  1.00  0.00    -0.021 A 
ATOM     24  C   UNL A   1      28.197  31.462  23.411  1.00  0.00     0.028 A 
ATOM     25  C   UNL A   1      27.988  30.599  21.177  1.00  0.00     0.028 A 
ATOM     26  C   UNL A   1      28.327  32.724  22.859  1.00  0.00     0.111 A 
ATOM     27  C   UNL A   1      28.132  31.899  20.722  1.00  0.00     0.111 A 
ATOM     28  N   UNL A   1      28.296  32.967  21.533  1.00  0.00    -0.265 NA
ENDBRANCH  21  23
ENDBRANCH   8  13
BRANCH  12  29
ATOM     29  O   UNL A   1      33.314  23.175  26.839  1.00  0.00    -0.507 OA
ATOM     30  H   UNL A   1      33.086  22.344  27.208  1.00  0.00     0.293 HD
ENDBRANCH  12  29
ENDBRANCH   4   7
ENDBRANCH   2   3
ENDBRANCH   1   2
BRANCH   1  31
ATOM     31  C   UNL A   1      38.060  19.982  24.886  1.00  0.00     0.023 C 
BRANCH  31  32
ATOM     32  C   UNL A   1      39.265  20.285  25.771  1.00  0.00     0.116 C 
BRANCH  32  33
ATOM     33  N   UNL A   1      40.219  19.190  25.856  1.00  0.00    -0.352 N 
ATOM     34  C   UNL A   1      41.573  19.211  26.105  1.00  0.00     0.251 C 
ATOM     35  H   UNL A   1      39.837  18.293  25.713  1.00  0.00     0.163 HD
ATOM     36  O   UNL A   1      42.229  18.175  26.028  1.00  0.00    -0.269 OA
BRANCH  34  37
ATOM     37  C   UNL A   1      42.252  20.485  26.423  1.00  0.00     0.039 A 
ATOM     38  C   UNL A   1      42.777  21.252  25.379  1.00  0.00     0.014 A 
ATOM     39  C   UNL A   1      42.346  20.941  27.739  1.00  0.00     0.014 A 
ATOM     40  C   UNL A   1      43.304  22.517  25.646  1.00  0.00     0.010 A 
ATOM     41  C   UNL A   1      42.777  22.239  27.991  1.00  0.00     0.010 A 
ATOM     42  C   UNL A   1      43.258  23.045  26.948  1.00  0.00    -0.014 A 
BRANCH  42  43
ATOM     43  C   UNL A   1      43.696  24.437  27.236  1.00  0.00     0.031 A 
ATOM     44  C   UNL A   1      42.711  25.451  27.748  1.00  0.00     0.074 A 
ATOM     45  C   UNL A   1      44.964  24.809  26.966  1.00  0.00     0.049 A 
ATOM     46  N   UNL A   1      42.882  26.728  27.985  1.00  0.00    -0.248 NA
ATOM     47  C   UNL A   1      41.340  24.975  27.994  1.00  0.00     0.031 C 
ATOM     48  C   UNL A   1      46.003  23.936  26.416  1.00  0.00     0.029 A 
ATOM     49  N   UNL A   1      45.593  26.022  27.107  1.00  0.00    -0.354 N 
ATOM     50  C   UNL A   1      41.644  27.205  28.392  1.00  0.00     0.074 A 
ATOM     51  C   UNL A   1      40.715  26.099  28.309  1.00  0.00     0.031 C 
ATOM     52  C   UNL A   1      47.144  24.632  26.292  1.00  0.00     0.029 A 
ATOM     53  C   UNL A   1      46.908  26.013  26.707  1.00  0.00     0.049 A 
ATOM     54  H   UNL A   1      45.143  26.823  27.460  1.00  0.00     0.167 HD
ATOM     55  C   UNL A   1      41.314  28.447  28.822  1.00  0.00     0.037 A 
ATOM     56  C   UNL A   1      47.818  27.004  26.667  1.00  0.00     0.037 A 
ATOM     57  C   UNL A   1      42.246  29.541  28.923  1.00  0.00     0.049 A 
ATOM     58  C   UNL A   1      47.424  28.380  27.136  1.00  0.00     0.074 A 
ATOM     59  C   UNL A   1      42.027  30.818  29.406  1.00  0.00     0.029 A 
ATOM     60  N   UNL A   1      43.573  29.487  28.522  1.00  0.00    -0.354 N 
ATOM     61  N   UNL A   1      46.269  28.800  27.594  1.00  0.00    -0.248 NA
ATOM     62  C   UNL A   1      48.462  29.419  27.090  1.00  0.00     0.031 C 
ATOM     63  C   UNL A   1      43.202  31.556  29.238  1.00  0.00     0.029 A 
ATOM     64  C   UNL A   1      44.176  30.720  28.718  1.00  0.00     0.049 A 
ATOM     65  H   UNL A   1      44.022  28.691  28.153  1.00  0.00     0.167 HD
ATOM     66  C   UNL A   1      46.451  30.138  27.921  1.00  0.00     0.074 A 
ATOM     67  C   UNL A   1      47.831  30.456  27.622  1.00  0.00     0.031 C 
ATOM     68  C   UNL A   1      45.555  31.023  28.424  1.00  0.00     0.037 A 
BRANCH  55  69
ATOM     69  C   UNL A   1      39.884  28.693  29.214  1.00  0.00     0.064 A 
ATOM     70  C   UNL A   1      39.423  28.459  30.519  1.00  0.00     0.173 A 
ATOM     71  C   UNL A   1      38.968  29.201  28.280  1.00  0.00     0.173 A 
ATOM     72  F   UNL A   1      40.252  27.964  31.450  1.00  0.00    -0.203 F 
ATOM     73  C   UNL A   1      38.093  28.689  30.864  1.00  0.00     0.198 A 
ATOM     74  C   UNL A   1      37.649  29.465  28.637  1.00  0.00     0.198 A 
ATOM     75  F   UNL A   1      39.355  29.449  27.019  1.00  0.00    -0.203 F 
ATOM     76  F   UNL A   1      37.664  28.402  32.100  1.00  0.00    -0.200 F 
ATOM     77  C   UNL A   1      37.209  29.200  29.925  1.00  0.00     0.200 A 
ATOM     78  F   UNL A   1      36.801  29.975  27.733  1.00  0.00    -0.200 F 
ATOM     79  F   UNL A   1      35.933  29.429  30.260  1.00  0.00    -0.200 F 
ENDBRANCH  55  69
BRANCH  56  80
ATOM     80  C   UNL A   1      49.197  26.732  26.181  1.00  0.00     0.064 A 
ATOM     81  C   UNL A   1      49.552  26.965  24.846  1.00  0.00     0.173 A 
ATOM     82  C   UNL A   1      50.186  26.225  27.038  1.00  0.00     0.173 A 
ATOM     83  F   UNL A   1      48.638  27.428  23.981  1.00  0.00    -0.203 F 
ATOM     84  C   UNL A   1      50.834  26.679  24.379  1.00  0.00     0.198 A 
ATOM     85  C   UNL A   1      51.478  25.973  26.579  1.00  0.00     0.198 A 
ATOM     86  F   UNL A   1      49.902  25.990  28.327  1.00  0.00    -0.203 F 
ATOM     87  F   UNL A   1      51.130  26.862  23.085  1.00  0.00    -0.200 F 
ATOM     88  C   UNL A   1      51.798  26.190  25.247  1.00  0.00     0.200 A 
ATOM     89  F   UNL A   1      52.410  25.517  27.427  1.00  0.00    -0.200 F 
ATOM     90  F   UNL A   1      53.032  25.921  24.801  1.00  0.00    -0.200 F 
ENDBRANCH  56  80
BRANCH  68  91
ATOM     91  C   UNL A   1      46.045  32.410  28.729  1.00  0.00     0.064 A 
ATOM     92  C   UNL A   1      45.969  33.447  27.789  1.00  0.00     0.173 A 
ATOM     93  C   UNL A   1      46.560  32.713  30.000  1.00  0.00     0.173 A 
ATOM     94  F   UNL A   1      45.498  33.209  26.556  1.00  0.00    -0.203 F 
ATOM     95  C   UNL A   1      46.416  34.730  28.100  1.00  0.00     0.198 A 
ATOM     96  C   UNL A   1      46.970  34.004  30.320  1.00  0.00     0.198 A 
ATOM     97  F   UNL A   1      46.649  31.760  30.940  1.00  0.00    -0.203 F 
ATOM     98  F   UNL A   1      46.383  35.692  27.169  1.00  0.00    -0.200 F 
ATOM     99  C   UNL A   1      46.907  35.009  29.368  1.00  0.00     0.200 A 
ATOM    100  F   UNL A   1      47.427  34.275  31.549  1.00  0.00    -0.200 F 
ATOM    101  F   UNL A   1      47.326  36.245  29.667  1.00  0.00    -0.200 F 
ENDBRANCH  68  91
ENDBRANCH  42  43
ENDBRANCH  34  37
ENDBRANCH  32  33
ENDBRANCH  31  32
ENDBRANCH   1  31
TORSDOF 14
ENDMDL
MODEL 2
REMARK VINA RESULT:     -14.0      5.663     11.774
REMARK SMILES O=C1[NH+]=C(Nc2ccc(C(=O)NCCCCNC(=O)c3ccc(-c4c5nc(c(-c6c(F)c(F)c(F)c(F)c6F)c6ccc([nH]6)c(-c6c(F)c(F)c(F)c(F)c6F)c6nc(c(-c7c(F)c(F)c(F)c(F)c7F)c7ccc4[nH]7)C=C6)C=C5)cc3)c(O)c2)S/C1=C\c1ccncc1
REMARK SMILES IDX 14 1 13 2 12 3 10 4 11 5 9 7 6 8 7 9 85 10 8 11 83 12 5 13
REMARK SMILES IDX 1 14 2 15 3 16 87 17 4 18 86 20 88 21 89 23 90 24 94 25
REMARK SMILES IDX 91 26 93 27 92 28 84 29 15 31 16 32 17 33 18 34 19 36 20 37
REMARK SMILES IDX 21 38 82 39 22 40 81 41 23 42 24 43 25 44 75 45 26 46 80 47
REMARK SMILES IDX 74 48 76 49 27 50 79 51 73 52 72 53 28 55 60 56 40 57 59 58
REMARK SMILES IDX 41 59 44 60 58 61 77 62 42 63 43 64 57 66 78 67 45 68 29 69
REMARK SMILES IDX 30 70 38 71 31 72 32 73 36 74 39 75 33 76 34 77 37 78 35 79
REMARK SMILES IDX 61 80 62 81 70 82 63 83 64 84 68 85 71 86 65 87 66 88 69 89
REMARK SMILES IDX 67 90 46 91 47 92 55 93 48 94 49 95 53 96 56 97 50 98 51 99
REMARK SMILES IDX 54 100 52 101
REMARK H PARENT 12 6 3 19 5 22 84 30 17 35 76 54 44 65
REMARK Flexibility Score: inf
ROOT
ATOM      1  C   UNL A   1      31.774  30.488  26.633  1.00  0.00     0.023 C 
ENDROOT
BRANCH   1   2
ATOM      2  C   UNL A   1      32.007  29.970  25.217  1.00  0.00     0.116 C 
BRANCH   2   3
ATOM      3  N   UNL A   1      30.843  30.020  24.346  1.00  0.00    -0.352 N 
ATOM      4  C   UNL A   1      30.168  29.000  23.714  1.00  0.00     0.255 C 
ATOM      5  O   UNL A   1      29.193  29.275  23.019  1.00  0.00    -0.269 OA
ATOM      6  H   UNL A   1      30.483  30.923  24.183  1.00  0.00     0.163 HD
BRANCH   4   7
ATOM      7  C   UNL A   1      30.623  27.590  23.801  1.00  0.00     0.081 A 
ATOM      8  C   UNL A   1      31.189  24.843  24.147  1.00  0.00     0.129 A 
ATOM      9  C   UNL A   1      30.945  25.667  25.250  1.00  0.00     0.053 A 
ATOM     10  C   UNL A   1      31.224  25.430  22.876  1.00  0.00     0.098 A 
ATOM     11  C   UNL A   1      30.670  27.027  25.082  1.00  0.00     0.022 A 
ATOM     12  C   UNL A   1      30.987  26.796  22.712  1.00  0.00     0.132 A 
BRANCH   8  13
ATOM     13  N   UNL A   1      31.305  23.452  24.256  1.00  0.00    -0.234 N 
ATOM     14  O   UNL A   1      35.748  22.328  25.138  1.00  0.00    -0.240 OA
ATOM     15  C   UNL A   1      34.561  22.164  24.885  1.00  0.00     0.346 C 
ATOM     16  N   UNL A   1      33.654  23.172  24.662  1.00  0.00    -0.199 N 
ATOM     17  C   UNL A   1      33.926  20.819  24.781  1.00  0.00     0.110 C 
ATOM     18  C   UNL A   1      32.452  22.746  24.462  1.00  0.00     0.322 C 
ATOM     19  H   UNL A   1      33.898  24.126  24.656  1.00  0.00     0.316 HD
ATOM     20  S   UNL A   1      32.242  21.008  24.502  1.00  0.00     0.006 SA
ATOM     21  C   UNL A   1      34.620  19.678  24.895  1.00  0.00     0.032 C 
ATOM     22  H   UNL A   1      30.473  22.931  24.177  1.00  0.00     0.313 HD
BRANCH  21  23
ATOM     23  C   UNL A   1      34.049  18.336  24.755  1.00  0.00    -0.021 A 
ATOM     24  C   UNL A   1      33.080  17.872  25.646  1.00  0.00     0.028 A 
ATOM     25  C   UNL A   1      34.468  17.503  23.719  1.00  0.00     0.028 A 
ATOM     26  C   UNL A   1      32.599  16.584  25.486  1.00  0.00     0.111 A 
ATOM     27  C   UNL A   1      33.923  16.233  23.640  1.00  0.00     0.111 A 
ATOM     28  N   UNL A   1      33.001  15.753  24.503  1.00  0.00    -0.265 NA
ENDBRANCH  21  23
ENDBRANCH   8  13
BRANCH  12  29
ATOM     29  O   UNL A   1      31.161  27.274  21.443  1.00  0.00    -0.507 OA
ATOM     30  H   UNL A   1      30.880  28.142  21.226  1.00  0.00     0.293 HD
ENDBRANCH  12  29
ENDBRANCH   4   7
ENDBRANCH   2   3
ENDBRANCH   1   2
BRANCH   1  31
ATOM     31  C   UNL A   1      31.558  31.992  26.781  1.00  0.00     0.023 C 
BRANCH  31  32
ATOM     32  C   UNL A   1      32.738  32.791  27.323  1.00  0.00     0.116 C 
BRANCH  32  33
ATOM     33  N   UNL A   1      32.406  34.165  27.668  1.00  0.00    -0.352 N 
ATOM     34  C   UNL A   1      32.971  35.006  28.601  1.00  0.00     0.251 C 
ATOM     35  H   UNL A   1      31.662  34.554  27.155  1.00  0.00     0.163 HD
ATOM     36  O   UNL A   1      32.472  36.107  28.818  1.00  0.00    -0.269 OA
BRANCH  34  37
ATOM     37  C   UNL A   1      34.154  34.572  29.375  1.00  0.00     0.039 A 
ATOM     38  C   UNL A   1      33.975  34.109  30.681  1.00  0.00     0.014 A 
ATOM     39  C   UNL A   1      35.430  34.593  28.810  1.00  0.00     0.014 A 
ATOM     40  C   UNL A   1      35.059  33.574  31.381  1.00  0.00     0.010 A 
ATOM     41  C   UNL A   1      36.485  33.968  29.466  1.00  0.00     0.010 A 
ATOM     42  C   UNL A   1      36.313  33.448  30.758  1.00  0.00    -0.014 A 
BRANCH  42  43
ATOM     43  C   UNL A   1      37.450  32.767  31.435  1.00  0.00     0.031 A 
ATOM     44  C   UNL A   1      38.131  31.597  30.780  1.00  0.00     0.074 A 
ATOM     45  C   UNL A   1      37.821  33.154  32.672  1.00  0.00     0.049 A 
ATOM     46  N   UNL A   1      39.085  30.828  31.242  1.00  0.00    -0.248 NA
ATOM     47  C   UNL A   1      37.654  31.219  29.440  1.00  0.00     0.031 C 
ATOM     48  C   UNL A   1      37.206  34.239  33.440  1.00  0.00     0.029 A 
ATOM     49  N   UNL A   1      38.797  32.672  33.508  1.00  0.00    -0.354 N 
ATOM     50  C   UNL A   1      39.309  29.873  30.259  1.00  0.00     0.074 A 
ATOM     51  C   UNL A   1      38.349  30.118  29.204  1.00  0.00     0.031 C 
ATOM     52  C   UNL A   1      37.835  34.357  34.619  1.00  0.00     0.029 A 
ATOM     53  C   UNL A   1      38.867  33.328  34.714  1.00  0.00     0.049 A 
ATOM     54  H   UNL A   1      39.393  31.926  33.266  1.00  0.00     0.167 HD
ATOM     55  C   UNL A   1      40.247  28.896  30.226  1.00  0.00     0.037 A 
ATOM     56  C   UNL A   1      39.661  33.117  35.781  1.00  0.00     0.037 A 
ATOM     57  C   UNL A   1      41.214  28.668  31.269  1.00  0.00     0.049 A 
ATOM     58  C   UNL A   1      40.686  32.016  35.726  1.00  0.00     0.074 A 
ATOM     59  C   UNL A   1      42.245  27.747  31.301  1.00  0.00     0.029 A 
ATOM     60  N   UNL A   1      41.260  29.364  32.468  1.00  0.00    -0.354 N 
ATOM     61  N   UNL A   1      40.941  31.168  34.758  1.00  0.00    -0.248 NA
ATOM     62  C   UNL A   1      41.539  31.844  36.910  1.00  0.00     0.031 C 
ATOM     63  C   UNL A   1      42.874  27.840  32.546  1.00  0.00     0.029 A 
ATOM     64  C   UNL A   1      42.284  28.869  33.261  1.00  0.00     0.049 A 
ATOM     65  H   UNL A   1      40.657  30.100  32.719  1.00  0.00     0.167 HD
ATOM     66  C   UNL A   1      42.002  30.389  35.201  1.00  0.00     0.074 A 
ATOM     67  C   UNL A   1      42.352  30.873  36.519  1.00  0.00     0.031 C 
ATOM     68  C   UNL A   1      42.629  29.365  34.570  1.00  0.00     0.037 A 
BRANCH  55  69
ATOM     69  C   UNL A   1      40.272  27.995  29.023  1.00  0.00     0.064 A 
ATOM     70  C   UNL A   1      41.006  28.317  27.871  1.00  0.00     0.173 A 
ATOM     71  C   UNL A   1      39.578  26.775  29.035  1.00  0.00     0.173 A 
ATOM     72  F   UNL A   1      41.680  29.475  27.801  1.00  0.00    -0.203 F 
ATOM     73  C   UNL A   1      41.015  27.471  26.765  1.00  0.00     0.198 A 
ATOM     74  C   UNL A   1      39.619  25.914  27.941  1.00  0.00     0.198 A 
ATOM     75  F   UNL A   1      38.865  26.412  30.112  1.00  0.00    -0.203 F 
ATOM     76  F   UNL A   1      41.675  27.829  25.654  1.00  0.00    -0.200 F 
ATOM     77  C   UNL A   1      40.329  26.266  26.804  1.00  0.00     0.200 A 
ATOM     78  F   UNL A   1      38.970  24.742  27.988  1.00  0.00    -0.200 F 
ATOM     79  F   UNL A   1      40.346  25.450  25.742  1.00  0.00    -0.200 F 
ENDBRANCH  55  69
BRANCH  56  80
ATOM     80  C   UNL A   1      39.533  33.978  36.987  1.00  0.00     0.064 A 
ATOM     81  C   UNL A   1      38.800  33.555  38.104  1.00  0.00     0.173 A 
ATOM     82  C   UNL A   1      40.133  35.246  37.046  1.00  0.00     0.173 A 
ATOM     83  F   UNL A   1      38.190  32.361  38.090  1.00  0.00    -0.203 F 
ATOM     84  C   UNL A   1      38.651  34.372  39.223  1.00  0.00     0.198 A 
ATOM     85  C   UNL A   1      40.013  36.049  38.179  1.00  0.00     0.198 A 
ATOM     86  F   UNL A   1      40.851  35.698  36.008  1.00  0.00    -0.203 F 
ATOM     87  F   UNL A   1      37.900  33.963  40.254  1.00  0.00    -0.200 F 
ATOM     88  C   UNL A   1      39.263  35.616  39.262  1.00  0.00     0.200 A 
ATOM     89  F   UNL A   1      40.621  37.242  38.219  1.00  0.00    -0.200 F 
ATOM     90  F   UNL A   1      39.124  36.400  40.340  1.00  0.00    -0.200 F 
ENDBRANCH  56  80
BRANCH  68  91
ATOM     91  C   UNL A   1      43.791  28.725  35.275  1.00  0.00     0.064 A 
ATOM     92  C   UNL A   1      45.108  29.172  35.091  1.00  0.00     0.173 A 
ATOM     93  C   UNL A   1      43.576  27.675  36.182  1.00  0.00     0.173 A 
ATOM     94  F   UNL A   1      45.371  30.162  34.225  1.00  0.00    -0.203 F 
ATOM     95  C   UNL A   1      46.169  28.572  35.767  1.00  0.00     0.198 A 
ATOM     96  C   UNL A   1      44.634  27.104  36.885  1.00  0.00     0.198 A 
ATOM     97  F   UNL A   1      42.336  27.214  36.402  1.00  0.00    -0.203 F 
ATOM     98  F   UNL A   1      47.424  28.980  35.535  1.00  0.00    -0.200 F 
ATOM     99  C   UNL A   1      45.930  27.547  36.670  1.00  0.00     0.200 A 
ATOM    100  F   UNL A   1      44.398  26.127  37.769  1.00  0.00    -0.200 F 
ATOM    101  F   UNL A   1      46.950  26.980  37.327  1.00  0.00    -0.200 F 
ENDBRANCH  68  91
ENDBRANCH  42  43
ENDBRANCH  34  37
ENDBRANCH  32  33
ENDBRANCH  31  32
ENDBRANCH   1  31
TORSDOF 14
ENDMDL
MODEL 3
REMARK VINA RESULT:     -13.8      5.710     11.744
REMARK SMILES O=C1[NH+]=C(Nc2ccc(C(=O)NCCCCNC(=O)c3ccc(-c4c5nc(c(-c6c(F)c(F)c(F)c(F)c6F)c6ccc([nH]6)c(-c6c(F)c(F)c(F)c(F)c6F)c6nc(c(-c7c(F)c(F)c(F)c(F)c7F)c7ccc4[nH]7)C=C6)C=C5)cc3)c(O)c2)S/C1=C\c1ccncc1
REMARK SMILES IDX 14 1 13 2 12 3 10 4 11 5 9 7 6 8 7 9 85 10 8 11 83 12 5 13
REMARK SMILES IDX 1 14 2 15 3 16 87 17 4 18 86 20 88 21 89 23 90 24 94 25
REMARK SMILES IDX 91 26 93 27 92 28 84 29 15 31 16 32 17 33 18 34 19 36 20 37
REMARK SMILES IDX 21 38 82 39 22 40 81 41 23 42 24 43 25 44 75 45 26 46 80 47
REMARK SMILES IDX 74 48 76 49 27 50 79 51 73 52 72 53 28 55 60 56 40 57 59 58
REMARK SMILES IDX 41 59 44 60 58 61 77 62 42 63 43 64 57 66 78 67 45 68 29 69
REMARK SMILES IDX 30 70 38 71 31 72 32 73 36 74 39 75 33 76 34 77 37 78 35 79
REMARK SMILES IDX 61 80 62 81 70 82 63 83 64 84 68 85 71 86 65 87 66 88 69 89
REMARK SMILES IDX 67 90 46 91 47 92 55 93 48 94 49 95 53 96 56 97 50 98 51 99
REMARK SMILES IDX 54 100 52 101
REMARK H PARENT 12 6 3 19 5 22 84 30 17 35 76 54 44 65
REMARK Flexibility Score: inf
ROOT
ATOM      1  C   UNL A   1      31.831  30.461  26.819  1.00  0.00     0.023 C 
ENDROOT
BRANCH   1   2
ATOM      2  C   UNL A   1      32.340  29.909  25.490  1.00  0.00     0.116 C 
BRANCH   2   3
ATOM      3  N   UNL A   1      31.305  29.621  24.509  1.00  0.00    -0.352 N 
ATOM      4  C   UNL A   1      30.847  28.411  24.040  1.00  0.00     0.255 C 
ATOM      5  O   UNL A   1      29.947  28.402  23.203  1.00  0.00    -0.269 OA
ATOM      6  H   UNL A   1      30.865  30.413  24.122  1.00  0.00     0.163 HD
BRANCH   4   7
ATOM      7  C   UNL A   1      31.451  27.125  24.471  1.00  0.00     0.081 A 
ATOM      8  C   UNL A   1      32.303  24.524  25.173  1.00  0.00     0.129 A 
ATOM      9  C   UNL A   1      31.099  25.039  25.664  1.00  0.00     0.053 A 
ATOM     10  C   UNL A   1      33.110  25.358  24.391  1.00  0.00     0.098 A 
ATOM     11  C   UNL A   1      30.678  26.327  25.323  1.00  0.00     0.022 A 
ATOM     12  C   UNL A   1      32.708  26.658  24.081  1.00  0.00     0.132 A 
BRANCH   8  13
ATOM     13  N   UNL A   1      32.680  23.188  25.354  1.00  0.00    -0.234 N 
ATOM     14  O   UNL A   1      31.723  20.763  21.482  1.00  0.00    -0.240 OA
ATOM     15  C   UNL A   1      32.076  20.972  22.636  1.00  0.00     0.346 C 
ATOM     16  N   UNL A   1      32.046  22.196  23.262  1.00  0.00    -0.199 N 
ATOM     17  C   UNL A   1      32.594  19.905  23.539  1.00  0.00     0.110 C 
ATOM     18  C   UNL A   1      32.514  22.169  24.465  1.00  0.00     0.322 C 
ATOM     19  H   UNL A   1      31.703  23.013  22.834  1.00  0.00     0.316 HD
ATOM     20  S   UNL A   1      33.062  20.606  25.036  1.00  0.00     0.006 SA
ATOM     21  C   UNL A   1      32.657  18.616  23.177  1.00  0.00     0.032 C 
ATOM     22  H   UNL A   1      33.110  22.961  26.211  1.00  0.00     0.313 HD
BRANCH  21  23
ATOM     23  C   UNL A   1      33.116  17.527  24.044  1.00  0.00    -0.021 A 
ATOM     24  C   UNL A   1      34.443  17.096  24.014  1.00  0.00     0.028 A 
ATOM     25  C   UNL A   1      32.224  16.907  24.917  1.00  0.00     0.028 A 
ATOM     26  C   UNL A   1      34.813  16.042  24.830  1.00  0.00     0.111 A 
ATOM     27  C   UNL A   1      32.692  15.864  25.698  1.00  0.00     0.111 A 
ATOM     28  N   UNL A   1      33.965  15.415  25.671  1.00  0.00    -0.265 NA
ENDBRANCH  21  23
ENDBRANCH   8  13
BRANCH  12  29
ATOM     29  O   UNL A   1      33.628  27.414  23.409  1.00  0.00    -0.507 OA
ATOM     30  H   UNL A   1      34.540  27.330  23.608  1.00  0.00     0.293 HD
ENDBRANCH  12  29
ENDBRANCH   4   7
ENDBRANCH   2   3
ENDBRANCH   1   2
BRANCH   1  31
ATOM     31  C   UNL A   1      31.594  31.967  26.885  1.00  0.00     0.023 C 
BRANCH  31  32
ATOM     32  C   UNL A   1      32.792  32.820  27.290  1.00  0.00     0.116 C 
BRANCH  32  33
ATOM     33  N   UNL A   1      32.443  34.185  27.655  1.00  0.00    -0.352 N 
ATOM     34  C   UNL A   1      32.989  35.015  28.608  1.00  0.00     0.251 C 
ATOM     35  H   UNL A   1      31.701  34.576  27.139  1.00  0.00     0.163 HD
ATOM     36  O   UNL A   1      32.477  36.107  28.838  1.00  0.00    -0.269 OA
BRANCH  34  37
ATOM     37  C   UNL A   1      34.166  34.578  29.389  1.00  0.00     0.039 A 
ATOM     38  C   UNL A   1      33.969  34.023  30.656  1.00  0.00     0.014 A 
ATOM     39  C   UNL A   1      35.456  34.687  28.867  1.00  0.00     0.014 A 
ATOM     40  C   UNL A   1      35.055  33.487  31.354  1.00  0.00     0.010 A 
ATOM     41  C   UNL A   1      36.517  34.063  29.515  1.00  0.00     0.010 A 
ATOM     42  C   UNL A   1      36.330  33.452  30.764  1.00  0.00    -0.014 A 
BRANCH  42  43
ATOM     43  C   UNL A   1      37.474  32.774  31.431  1.00  0.00     0.031 A 
ATOM     44  C   UNL A   1      38.153  31.607  30.769  1.00  0.00     0.074 A 
ATOM     45  C   UNL A   1      37.855  33.162  32.665  1.00  0.00     0.049 A 
ATOM     46  N   UNL A   1      39.113  30.840  31.222  1.00  0.00    -0.248 NA
ATOM     47  C   UNL A   1      37.666  31.228  29.433  1.00  0.00     0.031 C 
ATOM     48  C   UNL A   1      37.243  34.244  33.438  1.00  0.00     0.029 A 
ATOM     49  N   UNL A   1      38.840  32.681  33.492  1.00  0.00    -0.354 N 
ATOM     50  C   UNL A   1      39.332  29.887  30.237  1.00  0.00     0.074 A 
ATOM     51  C   UNL A   1      38.362  30.129  29.191  1.00  0.00     0.031 C 
ATOM     52  C   UNL A   1      37.882  34.363  34.612  1.00  0.00     0.029 A 
ATOM     53  C   UNL A   1      38.917  33.337  34.698  1.00  0.00     0.049 A 
ATOM     54  H   UNL A   1      39.435  31.937  33.245  1.00  0.00     0.167 HD
ATOM     55  C   UNL A   1      40.272  28.912  30.195  1.00  0.00     0.037 A 
ATOM     56  C   UNL A   1      39.721  33.128  35.758  1.00  0.00     0.037 A 
ATOM     57  C   UNL A   1      41.248  28.686  31.230  1.00  0.00     0.049 A 
ATOM     58  C   UNL A   1      40.749  32.029  35.694  1.00  0.00     0.074 A 
ATOM     59  C   UNL A   1      42.282  27.768  31.253  1.00  0.00     0.029 A 
ATOM     60  N   UNL A   1      41.303  29.381  32.430  1.00  0.00    -0.354 N 
ATOM     61  N   UNL A   1      40.998  31.183  34.723  1.00  0.00    -0.248 NA
ATOM     62  C   UNL A   1      41.612  31.859  36.870  1.00  0.00     0.031 C 
ATOM     63  C   UNL A   1      42.922  27.862  32.492  1.00  0.00     0.029 A 
ATOM     64  C   UNL A   1      42.335  28.889  33.213  1.00  0.00     0.049 A 
ATOM     65  H   UNL A   1      40.699  30.116  32.686  1.00  0.00     0.167 HD
ATOM     66  C   UNL A   1      42.065  30.407  35.156  1.00  0.00     0.074 A 
ATOM     67  C   UNL A   1      42.425  30.891  36.471  1.00  0.00     0.031 C 
ATOM     68  C   UNL A   1      42.690  29.385  34.520  1.00  0.00     0.037 A 
BRANCH  55  69
ATOM     69  C   UNL A   1      40.289  28.012  28.992  1.00  0.00     0.064 A 
ATOM     70  C   UNL A   1      41.024  28.329  27.839  1.00  0.00     0.173 A 
ATOM     71  C   UNL A   1      39.587  26.796  29.003  1.00  0.00     0.173 A 
ATOM     72  F   UNL A   1      41.705  29.484  27.769  1.00  0.00    -0.203 F 
ATOM     73  C   UNL A   1      41.026  27.485  26.732  1.00  0.00     0.198 A 
ATOM     74  C   UNL A   1      39.621  25.936  27.909  1.00  0.00     0.198 A 
ATOM     75  F   UNL A   1      38.873  26.437  30.081  1.00  0.00    -0.203 F 
ATOM     76  F   UNL A   1      41.687  27.839  25.621  1.00  0.00    -0.200 F 
ATOM     77  C   UNL A   1      40.332  26.285  26.771  1.00  0.00     0.200 A 
ATOM     78  F   UNL A   1      38.964  24.769  27.955  1.00  0.00    -0.200 F 
ATOM     79  F   UNL A   1      40.342  25.469  25.708  1.00  0.00    -0.200 F 
ENDBRANCH  55  69
BRANCH  56  80
ATOM     80  C   UNL A   1      39.601  33.988  36.966  1.00  0.00     0.064 A 
ATOM     81  C   UNL A   1      38.815  33.596  38.058  1.00  0.00     0.173 A 
ATOM     82  C   UNL A   1      40.263  35.223  37.051  1.00  0.00     0.173 A 
ATOM     83  F   UNL A   1      38.145  32.434  38.017  1.00  0.00    -0.203 F 
ATOM     84  C   UNL A   1      38.674  34.414  39.177  1.00  0.00     0.198 A 
ATOM     85  C   UNL A   1      40.149  36.025  38.185  1.00  0.00     0.198 A 
ATOM     86  F   UNL A   1      41.033  35.644  36.038  1.00  0.00    -0.203 F 
ATOM     87  F   UNL A   1      37.873  34.038  40.183  1.00  0.00    -0.200 F 
ATOM     88  C   UNL A   1      39.346  35.625  39.243  1.00  0.00     0.200 A 
ATOM     89  F   UNL A   1      40.815  37.185  38.252  1.00  0.00    -0.200 F 
ATOM     90  F   UNL A   1      39.215  36.409  40.322  1.00  0.00    -0.200 F 
ENDBRANCH  56  80
BRANCH  68  91
ATOM     91  C   UNL A   1      43.860  28.747  35.214  1.00  0.00     0.064 A 
ATOM     92  C   UNL A   1      45.172  29.208  35.031  1.00  0.00     0.173 A 
ATOM     93  C   UNL A   1      43.656  27.686  36.111  1.00  0.00     0.173 A 
ATOM     94  F   UNL A   1      45.423  30.209  34.175  1.00  0.00    -0.203 F 
ATOM     95  C   UNL A   1      46.240  28.610  35.698  1.00  0.00     0.198 A 
ATOM     96  C   UNL A   1      44.721  27.118  36.805  1.00  0.00     0.198 A 
ATOM     97  F   UNL A   1      42.421  27.212  36.330  1.00  0.00    -0.203 F 
ATOM     98  F   UNL A   1      47.490  29.032  35.465  1.00  0.00    -0.200 F 
ATOM     99  C   UNL A   1      46.012  27.573  36.590  1.00  0.00     0.200 A 
ATOM    100  F   UNL A   1      44.497  26.129  37.680  1.00  0.00    -0.200 F 
ATOM    101  F   UNL A   1      47.040  27.009  37.238  1.00  0.00    -0.200 F 
ENDBRANCH  68  91
ENDBRANCH  42  43
ENDBRANCH  34  37
ENDBRANCH  32  33
ENDBRANCH  31  32
ENDBRANCH   1  31
TORSDOF 14
ENDMDL
