MODEL 1
REMARK VINA RESULT:     -12.9      0.000      0.000
REMARK SMILES CC1=C2C(CSc3c(Cl)cccc3Cl)=CC(=O)N=C2S[C@H]1C(=O)NCCCCNC(=O)c1ccc(-c2c3nc(c(-c4c(F)c(F)c(F)c(F)c4F)c4ccc([nH]4)c(-c4c(F)c(F)c(F)c(F)c4F)c4nc(c(-c5c(F)c(F)c(F)c(F)c5F)c5ccc2[nH]5)C=C4)C=C3)cc1
REMARK SMILES IDX 26 1 25 2 24 3 22 4 23 5 21 7 1 8 2 9 3 10 4 11 19 12 20 13
REMARK SMILES IDX 15 14 18 15 16 16 17 17 5 18 6 19 7 20 8 21 13 22 9 23 10 24
REMARK SMILES IDX 12 25 14 26 11 27 27 28 28 29 29 30 30 31 31 33 32 34 33 35
REMARK SMILES IDX 94 36 34 37 93 38 35 39 36 40 37 41 87 42 38 43 92 44 86 45
REMARK SMILES IDX 88 46 39 47 91 48 85 49 84 50 40 52 72 53 52 54 71 55 53 56
REMARK SMILES IDX 56 57 70 58 89 59 54 60 55 61 69 63 90 64 57 65 41 66 42 67
REMARK SMILES IDX 50 68 43 69 44 70 48 71 51 72 45 73 46 74 49 75 47 76 73 77
REMARK SMILES IDX 74 78 82 79 75 80 76 81 80 82 83 83 77 84 78 85 81 86 79 87
REMARK SMILES IDX 58 88 59 89 67 90 60 91 61 92 65 93 68 94 62 95 63 96 66 97
REMARK SMILES IDX 64 98
REMARK H PARENT 24 6 29 32 88 51 56 62
REMARK Flexibility Score: inf
ROOT
ATOM      1  C   UNL A   1      37.926  21.485  25.046  1.00  0.00     0.023 C 
ENDROOT
BRANCH   1   2
ATOM      2  C   UNL A   1      37.106  20.196  25.043  1.00  0.00     0.116 C 
BRANCH   2   3
ATOM      3  N   UNL A   1      35.703  20.433  24.738  1.00  0.00    -0.355 N 
ATOM      4  C   UNL A   1      34.723  21.236  25.222  1.00  0.00     0.237 C 
ATOM      5  O   UNL A   1      33.637  21.122  24.630  1.00  0.00    -0.273 OA
ATOM      6  H   UNL A   1      35.387  19.869  23.995  1.00  0.00     0.163 HD
BRANCH   4   7
ATOM      7  C   UNL A   1      34.784  22.142  26.468  1.00  0.00     0.168 C 
ATOM      8  C   UNL A   1      35.923  24.167  25.429  1.00  0.00     0.042 C 
ATOM      9  C   UNL A   1      34.694  23.597  26.058  1.00  0.00    -0.040 C 
ATOM     10  C   UNL A   1      33.526  24.212  26.309  1.00  0.00     0.012 C 
ATOM     11  C   UNL A   1      32.974  25.525  26.046  1.00  0.00    -0.022 C 
ATOM     12  C   UNL A   1      32.645  23.317  27.107  1.00  0.00     0.109 C 
ATOM     13  S   UNL A   1      33.498  21.919  27.698  1.00  0.00    -0.088 SA
ATOM     14  C   UNL A   1      31.656  25.676  26.297  1.00  0.00     0.079 C 
ATOM     15  N   UNL A   1      31.398  23.481  27.347  1.00  0.00    -0.202 NA
ATOM     16  C   UNL A   1      30.783  24.557  26.754  1.00  0.00     0.271 C 
ATOM     17  O   UNL A   1      29.578  24.631  26.583  1.00  0.00    -0.267 OA
BRANCH  11  18
ATOM     18  C   UNL A   1      33.807  26.713  25.637  1.00  0.00     0.111 C 
BRANCH  18  19
ATOM     19  S   UNL A   1      33.769  27.048  23.839  1.00  0.00    -0.118 SA
BRANCH  19  20
ATOM     20  C   UNL A   1      32.157  27.827  23.651  1.00  0.00     0.045 A 
ATOM     21  C   UNL A   1      31.828  29.025  24.320  1.00  0.00     0.056 A 
ATOM     22  C   UNL A   1      31.160  27.229  22.854  1.00  0.00     0.056 A 
ATOM     23  Cl  UNL A   1      32.931  29.843  25.380  1.00  0.00    -0.083 Cl
ATOM     24  C   UNL A   1      30.580  29.638  24.130  1.00  0.00     0.022 A 
ATOM     25  C   UNL A   1      29.908  27.837  22.687  1.00  0.00     0.022 A 
ATOM     26  Cl  UNL A   1      31.399  25.723  22.030  1.00  0.00    -0.083 Cl
ATOM     27  C   UNL A   1      29.624  29.049  23.309  1.00  0.00     0.003 A 
ENDBRANCH  19  20
ENDBRANCH  18  19
ENDBRANCH  11  18
ENDBRANCH   4   7
ENDBRANCH   2   3
ENDBRANCH   1   2
BRANCH   1  28
ATOM     28  C   UNL A   1      39.389  21.304  25.433  1.00  0.00     0.023 C 
BRANCH  28  29
ATOM     29  C   UNL A   1      39.657  20.260  26.508  1.00  0.00     0.116 C 
BRANCH  29  30
ATOM     30  N   UNL A   1      40.524  19.158  26.123  1.00  0.00    -0.352 N 
ATOM     31  C   UNL A   1      41.907  19.172  26.090  1.00  0.00     0.251 C 
ATOM     32  H   UNL A   1      40.083  18.318  25.860  1.00  0.00     0.163 HD
ATOM     33  O   UNL A   1      42.563  18.193  25.757  1.00  0.00    -0.269 OA
BRANCH  31  34
ATOM     34  C   UNL A   1      42.595  20.444  26.401  1.00  0.00     0.039 A 
ATOM     35  C   UNL A   1      43.054  21.232  25.344  1.00  0.00     0.014 A 
ATOM     36  C   UNL A   1      42.639  20.916  27.713  1.00  0.00     0.014 A 
ATOM     37  C   UNL A   1      43.462  22.542  25.596  1.00  0.00     0.010 A 
ATOM     38  C   UNL A   1      42.947  22.251  27.945  1.00  0.00     0.010 A 
ATOM     39  C   UNL A   1      43.355  23.083  26.888  1.00  0.00    -0.014 A 
BRANCH  39  40
ATOM     40  C   UNL A   1      43.658  24.512  27.158  1.00  0.00     0.031 A 
ATOM     41  C   UNL A   1      45.054  25.031  26.950  1.00  0.00     0.074 A 
ATOM     42  C   UNL A   1      42.704  25.322  27.661  1.00  0.00     0.049 A 
ATOM     43  N   UNL A   1      45.545  26.217  27.206  1.00  0.00    -0.248 NA
ATOM     44  C   UNL A   1      46.039  24.078  26.417  1.00  0.00     0.031 C 
ATOM     45  C   UNL A   1      41.328  24.926  27.966  1.00  0.00     0.029 A 
ATOM     46  N   UNL A   1      42.749  26.650  28.012  1.00  0.00    -0.354 N 
ATOM     47  C   UNL A   1      46.894  26.142  26.885  1.00  0.00     0.074 A 
ATOM     48  C   UNL A   1      47.160  24.779  26.484  1.00  0.00     0.031 C 
ATOM     49  C   UNL A   1      40.652  25.992  28.426  1.00  0.00     0.029 A 
ATOM     50  C   UNL A   1      41.555  27.137  28.487  1.00  0.00     0.049 A 
ATOM     51  H   UNL A   1      43.561  27.201  27.930  1.00  0.00     0.167 HD
ATOM     52  C   UNL A   1      47.821  27.128  26.892  1.00  0.00     0.037 A 
ATOM     53  C   UNL A   1      41.227  28.369  28.925  1.00  0.00     0.037 A 
ATOM     54  C   UNL A   1      47.544  28.492  27.256  1.00  0.00     0.049 A 
ATOM     55  C   UNL A   1      42.276  29.450  28.916  1.00  0.00     0.074 A 
ATOM     56  C   UNL A   1      48.397  29.580  27.234  1.00  0.00     0.029 A 
ATOM     57  N   UNL A   1      46.315  28.953  27.705  1.00  0.00    -0.354 N 
ATOM     58  N   UNL A   1      43.530  29.385  28.541  1.00  0.00    -0.248 NA
ATOM     59  C   UNL A   1      41.861  30.780  29.386  1.00  0.00     0.031 C 
ATOM     60  C   UNL A   1      47.698  30.692  27.716  1.00  0.00     0.029 A 
ATOM     61  C   UNL A   1      46.393  30.308  27.984  1.00  0.00     0.049 A 
ATOM     62  H   UNL A   1      45.508  28.399  27.810  1.00  0.00     0.167 HD
ATOM     63  C   UNL A   1      44.044  30.666  28.698  1.00  0.00     0.074 A 
ATOM     64  C   UNL A   1      42.961  31.491  29.189  1.00  0.00     0.031 C 
ATOM     65  C   UNL A   1      45.300  31.117  28.459  1.00  0.00     0.037 A 
BRANCH  52  66
ATOM     66  C   UNL A   1      49.219  26.766  26.482  1.00  0.00     0.064 A 
ATOM     67  C   UNL A   1      49.662  26.921  25.158  1.00  0.00     0.173 A 
ATOM     68  C   UNL A   1      50.137  26.281  27.425  1.00  0.00     0.173 A 
ATOM     69  F   UNL A   1      48.822  27.369  24.213  1.00  0.00    -0.203 F 
ATOM     70  C   UNL A   1      50.958  26.570  24.789  1.00  0.00     0.198 A 
ATOM     71  C   UNL A   1      51.442  25.964  27.060  1.00  0.00     0.198 A 
ATOM     72  F   UNL A   1      49.769  26.118  28.705  1.00  0.00    -0.203 F 
ATOM     73  F   UNL A   1      51.338  26.673  23.508  1.00  0.00    -0.200 F 
ATOM     74  C   UNL A   1      51.849  26.101  25.741  1.00  0.00     0.200 A 
ATOM     75  F   UNL A   1      52.307  25.523  27.984  1.00  0.00    -0.200 F 
ATOM     76  F   UNL A   1      53.098  25.770  25.385  1.00  0.00    -0.200 F 
ENDBRANCH  52  66
BRANCH  53  77
ATOM     77  C   UNL A   1      39.841  28.659  29.380  1.00  0.00     0.064 A 
ATOM     78  C   UNL A   1      39.456  28.421  30.709  1.00  0.00     0.173 A 
ATOM     79  C   UNL A   1      38.869  29.158  28.502  1.00  0.00     0.173 A 
ATOM     80  F   UNL A   1      40.342  27.922  31.583  1.00  0.00    -0.203 F 
ATOM     81  C   UNL A   1      38.148  28.647  31.133  1.00  0.00     0.198 A 
ATOM     82  C   UNL A   1      37.569  29.413  28.935  1.00  0.00     0.198 A 
ATOM     83  F   UNL A   1      39.184  29.407  27.222  1.00  0.00    -0.203 F 
ATOM     84  F   UNL A   1      37.794  28.360  32.393  1.00  0.00    -0.200 F 
ATOM     85  C   UNL A   1      37.206  29.148  30.247  1.00  0.00     0.200 A 
ATOM     86  F   UNL A   1      36.665  29.910  28.078  1.00  0.00    -0.200 F 
ATOM     87  F   UNL A   1      35.948  29.366  30.654  1.00  0.00    -0.200 F 
ENDBRANCH  53  77
BRANCH  65  88
ATOM     88  C   UNL A   1      45.563  32.578  28.684  1.00  0.00     0.064 A 
ATOM     89  C   UNL A   1      46.030  33.063  29.913  1.00  0.00     0.173 A 
ATOM     90  C   UNL A   1      45.389  33.497  27.637  1.00  0.00     0.173 A 
ATOM     91  F   UNL A   1      46.200  32.228  30.948  1.00  0.00    -0.203 F 
ATOM     92  C   UNL A   1      46.290  34.419  30.095  1.00  0.00     0.198 A 
ATOM     93  C   UNL A   1      45.680  34.846  27.813  1.00  0.00     0.198 A 
ATOM     94  F   UNL A   1      44.952  33.083  26.438  1.00  0.00    -0.203 F 
ATOM     95  F   UNL A   1      46.689  34.868  31.292  1.00  0.00    -0.200 F 
ATOM     96  C   UNL A   1      46.123  35.308  29.042  1.00  0.00     0.200 A 
ATOM     97  F   UNL A   1      45.534  35.700  26.789  1.00  0.00    -0.200 F 
ATOM     98  F   UNL A   1      46.384  36.610  29.216  1.00  0.00    -0.200 F 
ENDBRANCH  65  88
ENDBRANCH  39  40
ENDBRANCH  31  34
ENDBRANCH  29  30
ENDBRANCH  28  29
ENDBRANCH   1  28
TORSDOF 14
ENDMDL
MODEL 2
REMARK VINA RESULT:     -12.9      3.641      8.613
REMARK SMILES CC1=C2C(CSc3c(Cl)cccc3Cl)=CC(=O)N=C2S[C@H]1C(=O)NCCCCNC(=O)c1ccc(-c2c3nc(c(-c4c(F)c(F)c(F)c(F)c4F)c4ccc([nH]4)c(-c4c(F)c(F)c(F)c(F)c4F)c4nc(c(-c5c(F)c(F)c(F)c(F)c5F)c5ccc2[nH]5)C=C4)C=C3)cc1
REMARK SMILES IDX 26 1 25 2 24 3 22 4 23 5 21 7 1 8 2 9 3 10 4 11 19 12 20 13
REMARK SMILES IDX 15 14 18 15 16 16 17 17 5 18 6 19 7 20 8 21 13 22 9 23 10 24
REMARK SMILES IDX 12 25 14 26 11 27 27 28 28 29 29 30 30 31 31 33 32 34 33 35
REMARK SMILES IDX 94 36 34 37 93 38 35 39 36 40 37 41 87 42 38 43 92 44 86 45
REMARK SMILES IDX 88 46 39 47 91 48 85 49 84 50 40 52 72 53 52 54 71 55 53 56
REMARK SMILES IDX 56 57 70 58 89 59 54 60 55 61 69 63 90 64 57 65 41 66 42 67
REMARK SMILES IDX 50 68 43 69 44 70 48 71 51 72 45 73 46 74 49 75 47 76 73 77
REMARK SMILES IDX 74 78 82 79 75 80 76 81 80 82 83 83 77 84 78 85 81 86 79 87
REMARK SMILES IDX 58 88 59 89 67 90 60 91 61 92 65 93 68 94 62 95 63 96 66 97
REMARK SMILES IDX 64 98
REMARK H PARENT 24 6 29 32 88 51 56 62
REMARK Flexibility Score: inf
ROOT
ATOM      1  C   UNL A   1      32.181  27.497  25.826  1.00  0.00     0.023 C 
ENDROOT
BRANCH   1   2
ATOM      2  C   UNL A   1      33.253  26.524  25.340  1.00  0.00     0.116 C 
BRANCH   2   3
ATOM      3  N   UNL A   1      33.700  26.824  23.988  1.00  0.00    -0.355 N 
ATOM      4  C   UNL A   1      33.299  26.499  22.734  1.00  0.00     0.237 C 
ATOM      5  O   UNL A   1      33.985  27.011  21.834  1.00  0.00    -0.273 OA
ATOM      6  H   UNL A   1      34.493  27.409  23.983  1.00  0.00     0.163 HD
BRANCH   4   7
ATOM      7  C   UNL A   1      32.202  25.493  22.332  1.00  0.00     0.168 C 
ATOM      8  C   UNL A   1      33.647  23.413  22.080  1.00  0.00     0.042 C 
ATOM      9  C   UNL A   1      32.558  24.108  22.830  1.00  0.00    -0.040 C 
ATOM     10  C   UNL A   1      31.857  23.659  23.884  1.00  0.00     0.012 C 
ATOM     11  C   UNL A   1      31.886  22.471  24.713  1.00  0.00    -0.022 C 
ATOM     12  C   UNL A   1      30.754  24.607  24.197  1.00  0.00     0.109 C 
ATOM     13  S   UNL A   1      30.547  25.804  22.951  1.00  0.00    -0.088 SA
ATOM     14  C   UNL A   1      31.116  22.501  25.821  1.00  0.00     0.079 C 
ATOM     15  N   UNL A   1      30.022  24.614  25.249  1.00  0.00    -0.202 NA
ATOM     16  C   UNL A   1      30.324  23.697  26.227  1.00  0.00     0.271 C 
ATOM     17  O   UNL A   1      29.982  23.822  27.391  1.00  0.00    -0.267 OA
BRANCH  11  18
ATOM     18  C   UNL A   1      32.620  21.209  24.335  1.00  0.00     0.111 C 
BRANCH  18  19
ATOM     19  S   UNL A   1      33.438  20.388  25.751  1.00  0.00    -0.118 SA
BRANCH  19  20
ATOM     20  C   UNL A   1      35.153  20.881  25.512  1.00  0.00     0.045 A 
ATOM     21  C   UNL A   1      36.112  19.998  24.974  1.00  0.00     0.056 A 
ATOM     22  C   UNL A   1      35.591  22.164  25.901  1.00  0.00     0.056 A 
ATOM     23  Cl  UNL A   1      35.734  18.371  24.507  1.00  0.00    -0.083 Cl
ATOM     24  C   UNL A   1      37.435  20.413  24.759  1.00  0.00     0.022 A 
ATOM     25  C   UNL A   1      36.920  22.564  25.703  1.00  0.00     0.022 A 
ATOM     26  Cl  UNL A   1      34.541  23.328  26.639  1.00  0.00    -0.083 Cl
ATOM     27  C   UNL A   1      37.837  21.696  25.116  1.00  0.00     0.003 A 
ENDBRANCH  19  20
ENDBRANCH  18  19
ENDBRANCH  11  18
ENDBRANCH   4   7
ENDBRANCH   2   3
ENDBRANCH   1   2
BRANCH   1  28
ATOM     28  C   UNL A   1      32.516  28.207  27.133  1.00  0.00     0.023 C 
BRANCH  28  29
ATOM     29  C   UNL A   1      33.831  28.972  27.143  1.00  0.00     0.116 C 
BRANCH  29  30
ATOM     30  N   UNL A   1      33.810  30.266  27.809  1.00  0.00    -0.352 N 
ATOM     31  C   UNL A   1      34.869  30.874  28.458  1.00  0.00     0.251 C 
ATOM     32  H   UNL A   1      32.956  30.756  27.797  1.00  0.00     0.163 HD
ATOM     33  O   UNL A   1      34.765  31.973  28.990  1.00  0.00    -0.269 OA
BRANCH  31  34
ATOM     34  C   UNL A   1      36.140  30.126  28.563  1.00  0.00     0.039 A 
ATOM     35  C   UNL A   1      37.065  30.229  27.523  1.00  0.00     0.014 A 
ATOM     36  C   UNL A   1      36.468  29.463  29.746  1.00  0.00     0.014 A 
ATOM     37  C   UNL A   1      38.364  29.755  27.714  1.00  0.00     0.010 A 
ATOM     38  C   UNL A   1      37.787  29.086  29.971  1.00  0.00     0.010 A 
ATOM     39  C   UNL A   1      38.753  29.235  28.960  1.00  0.00    -0.014 A 
BRANCH  39  40
ATOM     40  C   UNL A   1      40.160  28.845  29.232  1.00  0.00     0.031 A 
ATOM     41  C   UNL A   1      41.062  29.779  29.991  1.00  0.00     0.074 A 
ATOM     42  C   UNL A   1      40.650  27.691  28.732  1.00  0.00     0.049 A 
ATOM     43  N   UNL A   1      42.338  29.667  30.258  1.00  0.00    -0.248 NA
ATOM     44  C   UNL A   1      40.455  31.025  30.484  1.00  0.00     0.031 C 
ATOM     45  C   UNL A   1      39.897  26.727  27.928  1.00  0.00     0.029 A 
ATOM     46  N   UNL A   1      41.904  27.135  28.823  1.00  0.00    -0.354 N 
ATOM     47  C   UNL A   1      42.685  30.832  30.928  1.00  0.00     0.074 A 
ATOM     48  C   UNL A   1      41.506  31.668  30.965  1.00  0.00     0.031 C 
ATOM     49  C   UNL A   1      40.691  25.686  27.627  1.00  0.00     0.029 A 
ATOM     50  C   UNL A   1      42.020  25.926  28.182  1.00  0.00     0.049 A 
ATOM     51  H   UNL A   1      42.649  27.564  29.303  1.00  0.00     0.167 HD
ATOM     52  C   UNL A   1      43.871  31.163  31.491  1.00  0.00     0.037 A 
ATOM     53  C   UNL A   1      43.080  25.104  28.054  1.00  0.00     0.037 A 
ATOM     54  C   UNL A   1      45.031  30.312  31.485  1.00  0.00     0.049 A 
ATOM     55  C   UNL A   1      44.387  25.492  28.696  1.00  0.00     0.074 A 
ATOM     56  C   UNL A   1      46.260  30.526  32.082  1.00  0.00     0.029 A 
ATOM     57  N   UNL A   1      45.101  29.082  30.849  1.00  0.00    -0.354 N 
ATOM     58  N   UNL A   1      44.683  26.564  29.390  1.00  0.00    -0.248 NA
ATOM     59  C   UNL A   1      45.506  24.552  28.542  1.00  0.00     0.031 C 
ATOM     60  C   UNL A   1      47.091  29.445  31.768  1.00  0.00     0.029 A 
ATOM     61  C   UNL A   1      46.362  28.533  31.023  1.00  0.00     0.049 A 
ATOM     62  H   UNL A   1      44.365  28.661  30.349  1.00  0.00     0.167 HD
ATOM     63  C   UNL A   1      46.007  26.413  29.782  1.00  0.00     0.074 A 
ATOM     64  C   UNL A   1      46.452  25.139  29.260  1.00  0.00     0.031 C 
ATOM     65  C   UNL A   1      46.784  27.255  30.507  1.00  0.00     0.037 A 
BRANCH  52  66
ATOM     66  C   UNL A   1      43.965  32.498  32.172  1.00  0.00     0.064 A 
ATOM     67  C   UNL A   1      44.377  33.650  31.482  1.00  0.00     0.173 A 
ATOM     68  C   UNL A   1      43.618  32.635  33.525  1.00  0.00     0.173 A 
ATOM     69  F   UNL A   1      44.732  33.572  30.191  1.00  0.00    -0.203 F 
ATOM     70  C   UNL A   1      44.471  34.879  32.129  1.00  0.00     0.198 A 
ATOM     71  C   UNL A   1      43.680  33.872  34.159  1.00  0.00     0.198 A 
ATOM     72  F   UNL A   1      43.214  31.569  34.231  1.00  0.00    -0.203 F 
ATOM     73  F   UNL A   1      44.922  35.951  31.463  1.00  0.00    -0.200 F 
ATOM     74  C   UNL A   1      44.115  34.991  33.464  1.00  0.00     0.200 A 
ATOM     75  F   UNL A   1      43.323  33.983  35.447  1.00  0.00    -0.200 F 
ATOM     76  F   UNL A   1      44.200  36.176  34.083  1.00  0.00    -0.200 F 
ENDBRANCH  52  66
BRANCH  53  77
ATOM     77  C   UNL A   1      42.950  23.820  27.314  1.00  0.00     0.064 A 
ATOM     78  C   UNL A   1      42.461  22.669  27.951  1.00  0.00     0.173 A 
ATOM     79  C   UNL A   1      43.325  23.708  25.968  1.00  0.00     0.173 A 
ATOM     80  F   UNL A   1      42.109  22.718  29.244  1.00  0.00    -0.203 F 
ATOM     81  C   UNL A   1      42.377  21.451  27.278  1.00  0.00     0.198 A 
ATOM     82  C   UNL A   1      43.212  22.496  25.287  1.00  0.00     0.198 A 
ATOM     83  F   UNL A   1      43.795  24.777  25.309  1.00  0.00    -0.203 F 
ATOM     84  F   UNL A   1      41.958  20.357  27.926  1.00  0.00    -0.200 F 
ATOM     85  C   UNL A   1      42.748  21.367  25.944  1.00  0.00     0.200 A 
ATOM     86  F   UNL A   1      43.560  22.423  23.994  1.00  0.00    -0.200 F 
ATOM     87  F   UNL A   1      42.668  20.197  25.297  1.00  0.00    -0.200 F 
ENDBRANCH  53  77
BRANCH  65  88
ATOM     88  C   UNL A   1      48.183  26.809  30.816  1.00  0.00     0.064 A 
ATOM     89  C   UNL A   1      48.468  25.986  31.915  1.00  0.00     0.173 A 
ATOM     90  C   UNL A   1      49.245  27.174  29.974  1.00  0.00     0.173 A 
ATOM     91  F   UNL A   1      47.492  25.621  32.757  1.00  0.00    -0.203 F 
ATOM     92  C   UNL A   1      49.771  25.564  32.173  1.00  0.00     0.198 A 
ATOM     93  C   UNL A   1      50.539  26.724  30.217  1.00  0.00     0.198 A 
ATOM     94  F   UNL A   1      49.023  27.954  28.905  1.00  0.00    -0.203 F 
ATOM     95  F   UNL A   1      50.029  24.817  33.255  1.00  0.00    -0.200 F 
ATOM     96  C   UNL A   1      50.803  25.926  31.319  1.00  0.00     0.200 A 
ATOM     97  F   UNL A   1      51.531  27.062  29.381  1.00  0.00    -0.200 F 
ATOM     98  F   UNL A   1      52.053  25.510  31.563  1.00  0.00    -0.200 F 
ENDBRANCH  65  88
ENDBRANCH  39  40
ENDBRANCH  31  34
ENDBRANCH  29  30
ENDBRANCH  28  29
ENDBRANCH   1  28
TORSDOF 14
ENDMDL
MODEL 3
REMARK VINA RESULT:     -12.8      5.875     11.119
REMARK SMILES CC1=C2C(CSc3c(Cl)cccc3Cl)=CC(=O)N=C2S[C@H]1C(=O)NCCCCNC(=O)c1ccc(-c2c3nc(c(-c4c(F)c(F)c(F)c(F)c4F)c4ccc([nH]4)c(-c4c(F)c(F)c(F)c(F)c4F)c4nc(c(-c5c(F)c(F)c(F)c(F)c5F)c5ccc2[nH]5)C=C4)C=C3)cc1
REMARK SMILES IDX 26 1 25 2 24 3 22 4 23 5 21 7 1 8 2 9 3 10 4 11 19 12 20 13
REMARK SMILES IDX 15 14 18 15 16 16 17 17 5 18 6 19 7 20 8 21 13 22 9 23 10 24
REMARK SMILES IDX 12 25 14 26 11 27 27 28 28 29 29 30 30 31 31 33 32 34 33 35
REMARK SMILES IDX 94 36 34 37 93 38 35 39 36 40 37 41 87 42 38 43 92 44 86 45
REMARK SMILES IDX 88 46 39 47 91 48 85 49 84 50 40 52 72 53 52 54 71 55 53 56
REMARK SMILES IDX 56 57 70 58 89 59 54 60 55 61 69 63 90 64 57 65 41 66 42 67
REMARK SMILES IDX 50 68 43 69 44 70 48 71 51 72 45 73 46 74 49 75 47 76 73 77
REMARK SMILES IDX 74 78 82 79 75 80 76 81 80 82 83 83 77 84 78 85 81 86 79 87
REMARK SMILES IDX 58 88 59 89 67 90 60 91 61 92 65 93 68 94 62 95 63 96 66 97
REMARK SMILES IDX 64 98
REMARK H PARENT 24 6 29 32 88 51 56 62
REMARK Flexibility Score: inf
ROOT
ATOM      1  C   UNL A   1      35.281  32.443  28.114  1.00  0.00     0.023 C 
ENDROOT
BRANCH   1   2
ATOM      2  C   UNL A   1      35.029  30.995  27.696  1.00  0.00     0.116 C 
BRANCH   2   3
ATOM      3  N   UNL A   1      33.610  30.678  27.629  1.00  0.00    -0.355 N 
ATOM      4  C   UNL A   1      32.849  29.746  27.003  1.00  0.00     0.237 C 
ATOM      5  O   UNL A   1      31.634  29.836  27.251  1.00  0.00    -0.273 OA
ATOM      6  H   UNL A   1      33.068  31.293  28.174  1.00  0.00     0.163 HD
BRANCH   4   7
ATOM      7  C   UNL A   1      33.305  28.713  25.954  1.00  0.00     0.168 C 
ATOM      8  C   UNL A   1      32.116  26.661  26.876  1.00  0.00     0.042 C 
ATOM      9  C   UNL A   1      32.239  27.655  25.767  1.00  0.00    -0.040 C 
ATOM     10  C   UNL A   1      31.528  27.723  24.629  1.00  0.00     0.012 C 
ATOM     11  C   UNL A   1      30.409  26.997  24.067  1.00  0.00    -0.022 C 
ATOM     12  C   UNL A   1      32.107  28.761  23.735  1.00  0.00     0.109 C 
ATOM     13  S   UNL A   1      33.652  29.328  24.305  1.00  0.00    -0.088 SA
ATOM     14  C   UNL A   1      29.857  27.526  22.954  1.00  0.00     0.079 C 
ATOM     15  N   UNL A   1      31.576  29.244  22.674  1.00  0.00    -0.202 NA
ATOM     16  C   UNL A   1      30.311  28.814  22.356  1.00  0.00     0.271 C 
ATOM     17  O   UNL A   1      29.555  29.433  21.626  1.00  0.00    -0.267 OA
BRANCH  11  18
ATOM     18  C   UNL A   1      29.935  25.663  24.585  1.00  0.00     0.111 C 
BRANCH  18  19
ATOM     19  S   UNL A   1      30.653  24.236  23.694  1.00  0.00    -0.118 SA
BRANCH  19  20
ATOM     20  C   UNL A   1      32.268  24.096  24.477  1.00  0.00     0.045 A 
ATOM     21  C   UNL A   1      33.426  24.656  23.898  1.00  0.00     0.056 A 
ATOM     22  C   UNL A   1      32.421  23.378  25.680  1.00  0.00     0.056 A 
ATOM     23  Cl  UNL A   1      33.402  25.514  22.391  1.00  0.00    -0.083 Cl
ATOM     24  C   UNL A   1      34.669  24.570  24.543  1.00  0.00     0.022 A 
ATOM     25  C   UNL A   1      33.671  23.278  26.308  1.00  0.00     0.022 A 
ATOM     26  Cl  UNL A   1      31.100  22.578  26.469  1.00  0.00    -0.083 Cl
ATOM     27  C   UNL A   1      34.790  23.889  25.750  1.00  0.00     0.003 A 
ENDBRANCH  19  20
ENDBRANCH  18  19
ENDBRANCH  11  18
ENDBRANCH   4   7
ENDBRANCH   2   3
ENDBRANCH   1   2
BRANCH   1  28
ATOM     28  C   UNL A   1      34.056  33.347  28.031  1.00  0.00     0.023 C 
BRANCH  28  29
ATOM     29  C   UNL A   1      34.259  34.771  28.531  1.00  0.00     0.116 C 
BRANCH  29  30
ATOM     30  N   UNL A   1      33.181  35.321  29.338  1.00  0.00    -0.352 N 
ATOM     31  C   UNL A   1      33.108  35.328  30.719  1.00  0.00     0.251 C 
ATOM     32  H   UNL A   1      32.429  35.730  28.853  1.00  0.00     0.163 HD
ATOM     33  O   UNL A   1      32.162  35.820  31.321  1.00  0.00    -0.269 OA
BRANCH  31  34
ATOM     34  C   UNL A   1      34.184  34.649  31.474  1.00  0.00     0.039 A 
ATOM     35  C   UNL A   1      34.028  33.299  31.794  1.00  0.00     0.014 A 
ATOM     36  C   UNL A   1      35.392  35.303  31.716  1.00  0.00     0.014 A 
ATOM     37  C   UNL A   1      35.125  32.576  32.263  1.00  0.00     0.010 A 
ATOM     38  C   UNL A   1      36.507  34.559  32.085  1.00  0.00     0.010 A 
ATOM     39  C   UNL A   1      36.388  33.185  32.355  1.00  0.00    -0.014 A 
BRANCH  39  40
ATOM     40  C   UNL A   1      37.598  32.406  32.727  1.00  0.00     0.031 A 
ATOM     41  C   UNL A   1      38.295  32.686  34.029  1.00  0.00     0.074 A 
ATOM     42  C   UNL A   1      38.114  31.506  31.864  1.00  0.00     0.049 A 
ATOM     43  N   UNL A   1      39.407  32.181  34.501  1.00  0.00    -0.248 NA
ATOM     44  C   UNL A   1      37.679  33.696  34.904  1.00  0.00     0.031 C 
ATOM     45  C   UNL A   1      37.568  31.187  30.544  1.00  0.00     0.029 A 
ATOM     46  N   UNL A   1      39.219  30.697  31.967  1.00  0.00    -0.354 N 
ATOM     47  C   UNL A   1      39.630  32.827  35.709  1.00  0.00     0.074 A 
ATOM     48  C   UNL A   1      38.579  33.808  35.867  1.00  0.00     0.031 C 
ATOM     49  C   UNL A   1      38.319  30.229  29.975  1.00  0.00     0.029 A 
ATOM     50  C   UNL A   1      39.422  29.895  30.870  1.00  0.00     0.049 A 
ATOM     51  H   UNL A   1      39.811  30.693  32.754  1.00  0.00     0.167 HD
ATOM     52  C   UNL A   1      40.602  32.600  36.623  1.00  0.00     0.037 A 
ATOM     53  C   UNL A   1      40.390  28.992  30.616  1.00  0.00     0.037 A 
ATOM     54  C   UNL A   1      41.624  31.597  36.480  1.00  0.00     0.049 A 
ATOM     55  C   UNL A   1      41.458  28.754  31.652  1.00  0.00     0.074 A 
ATOM     56  C   UNL A   1      42.616  31.244  37.376  1.00  0.00     0.029 A 
ATOM     57  N   UNL A   1      41.780  30.785  35.367  1.00  0.00    -0.354 N 
ATOM     58  N   UNL A   1      41.616  29.319  32.824  1.00  0.00    -0.248 NA
ATOM     59  C   UNL A   1      42.479  27.746  31.332  1.00  0.00     0.031 C 
ATOM     60  C   UNL A   1      43.403  30.249  36.786  1.00  0.00     0.029 A 
ATOM     61  C   UNL A   1      42.866  29.944  35.545  1.00  0.00     0.049 A 
ATOM     62  H   UNL A   1      41.203  30.803  34.569  1.00  0.00     0.167 HD
ATOM     63  C   UNL A   1      42.730  28.716  33.393  1.00  0.00     0.074 A 
ATOM     64  C   UNL A   1      43.200  27.731  32.443  1.00  0.00     0.031 C 
ATOM     65  C   UNL A   1      43.312  28.958  34.593  1.00  0.00     0.037 A 
BRANCH  52  66
ATOM     66  C   UNL A   1      40.598  33.446  37.863  1.00  0.00     0.064 A 
ATOM     67  C   UNL A   1      39.710  33.197  38.922  1.00  0.00     0.173 A 
ATOM     68  C   UNL A   1      41.507  34.505  38.008  1.00  0.00     0.173 A 
ATOM     69  F   UNL A   1      38.811  32.205  38.830  1.00  0.00    -0.203 F 
ATOM     70  C   UNL A   1      39.709  33.998  40.062  1.00  0.00     0.198 A 
ATOM     71  C   UNL A   1      41.527  35.281  39.163  1.00  0.00     0.198 A 
ATOM     72  F   UNL A   1      42.381  34.785  37.030  1.00  0.00    -0.203 F 
ATOM     73  F   UNL A   1      38.812  33.776  41.033  1.00  0.00    -0.200 F 
ATOM     74  C   UNL A   1      40.622  35.033  40.185  1.00  0.00     0.200 A 
ATOM     75  F   UNL A   1      42.420  36.274  39.288  1.00  0.00    -0.200 F 
ATOM     76  F   UNL A   1      40.624  35.798  41.285  1.00  0.00    -0.200 F 
ENDBRANCH  52  66
BRANCH  53  77
ATOM     77  C   UNL A   1      40.383  28.224  29.342  1.00  0.00     0.064 A 
ATOM     78  C   UNL A   1      39.628  27.048  29.214  1.00  0.00     0.173 A 
ATOM     79  C   UNL A   1      41.140  28.633  28.235  1.00  0.00     0.173 A 
ATOM     80  F   UNL A   1      38.905  26.602  30.251  1.00  0.00    -0.203 F 
ATOM     81  C   UNL A   1      39.652  26.298  28.039  1.00  0.00     0.198 A 
ATOM     82  C   UNL A   1      41.139  27.899  27.050  1.00  0.00     0.198 A 
ATOM     83  F   UNL A   1      41.878  29.752  28.300  1.00  0.00    -0.203 F 
ATOM     84  F   UNL A   1      38.964  25.151  27.965  1.00  0.00    -0.200 F 
ATOM     85  C   UNL A   1      40.403  26.727  26.956  1.00  0.00     0.200 A 
ATOM     86  F   UNL A   1      41.856  28.324  26.000  1.00  0.00    -0.200 F 
ATOM     87  F   UNL A   1      40.426  26.007  25.826  1.00  0.00    -0.200 F 
ENDBRANCH  53  77
BRANCH  65  88
ATOM     88  C   UNL A   1      44.496  28.116  34.968  1.00  0.00     0.064 A 
ATOM     89  C   UNL A   1      45.809  28.525  34.693  1.00  0.00     0.173 A 
ATOM     90  C   UNL A   1      44.314  26.905  35.655  1.00  0.00     0.173 A 
ATOM     91  F   UNL A   1      46.035  29.666  34.026  1.00  0.00    -0.203 F 
ATOM     92  C   UNL A   1      46.896  27.739  35.069  1.00  0.00     0.198 A 
ATOM     93  C   UNL A   1      45.404  26.140  36.058  1.00  0.00     0.198 A 
ATOM     94  F   UNL A   1      43.079  26.474  35.950  1.00  0.00    -0.203 F 
ATOM     95  F   UNL A   1      48.140  28.125  34.753  1.00  0.00    -0.200 F 
ATOM     96  C   UNL A   1      46.693  26.552  35.759  1.00  0.00     0.200 A 
ATOM     97  F   UNL A   1      45.206  25.002  36.739  1.00  0.00    -0.200 F 
ATOM     98  F   UNL A   1      47.741  25.804  36.129  1.00  0.00    -0.200 F 
ENDBRANCH  65  88
ENDBRANCH  39  40
ENDBRANCH  31  34
ENDBRANCH  29  30
ENDBRANCH  28  29
ENDBRANCH   1  28
TORSDOF 14
ENDMDL
