MODEL 1
REMARK VINA RESULT:     -11.6      0.000      0.000
REMARK SMILES CN(C)S(=O)(=O)c1ccc(N(CC(=O)NCCCCNC(=O)c2ccc(-c3c4nc(c(-c5c(F)c(F)c(F)c(F)c5F)c5ccc([nH]5)c(-c5c(F)c(F)c(F)c(F)c5F)c5nc(c(-c6c(F)c(F)c(F)c(F)c6F)c6ccc3[nH]6)C=C5)C=C4)cc2)C(C)(C)C)cc1
REMARK SMILES IDX 16 1 15 2 13 3 14 4 12 6 11 7 10 8 7 9 8 10 91 11 9 12 90 13
REMARK SMILES IDX 4 14 5 15 6 16 2 17 1 18 3 19 86 20 87 21 88 22 89 23 17 24
REMARK SMILES IDX 18 25 19 26 20 27 21 28 22 30 23 31 24 32 85 33 25 34 84 35
REMARK SMILES IDX 26 36 27 37 28 38 78 39 29 40 83 41 77 42 79 43 30 44 82 45
REMARK SMILES IDX 76 46 75 47 31 49 63 50 43 51 62 52 44 53 47 54 61 55 80 56
REMARK SMILES IDX 45 57 46 58 60 60 81 61 48 62 32 63 33 64 41 65 34 66 35 67
REMARK SMILES IDX 39 68 42 69 36 70 37 71 40 72 38 73 64 74 65 75 73 76 66 77
REMARK SMILES IDX 67 78 71 79 74 80 68 81 69 82 72 83 70 84 49 85 50 86 58 87
REMARK SMILES IDX 51 88 52 89 56 90 59 91 53 92 54 93 57 94 55 95
REMARK H PARENT 15 5 20 29 79 48 47 59
REMARK Flexibility Score: inf
ROOT
ATOM      1  C   UNL A   1      32.873  29.825  26.082  1.00  0.00     0.116 C 
ENDROOT
BRANCH   1   2
ATOM      2  N   UNL A   1      33.061  28.493  26.609  1.00  0.00    -0.355 N 
ATOM      3  C   UNL A   1      33.441  27.363  25.941  1.00  0.00     0.239 C 
ATOM      4  O   UNL A   1      33.639  26.348  26.614  1.00  0.00    -0.273 OA
ATOM      5  H   UNL A   1      32.893  28.385  27.573  1.00  0.00     0.163 HD
BRANCH   3   6
ATOM      6  C   UNL A   1      33.714  27.400  24.429  1.00  0.00     0.217 C 
BRANCH   6   7
ATOM      7  N   UNL A   1      32.643  26.803  23.571  1.00  0.00    -0.357 N 
BRANCH   7   8
ATOM      8  C   UNL A   1      31.571  27.626  23.165  1.00  0.00     0.038 A 
ATOM      9  C   UNL A   1      29.399  29.386  22.486  1.00  0.00     0.082 A 
ATOM     10  C   UNL A   1      30.696  29.705  22.113  1.00  0.00     0.024 A 
ATOM     11  C   UNL A   1      29.158  28.197  23.157  1.00  0.00     0.024 A 
ATOM     12  C   UNL A   1      31.751  28.827  22.439  1.00  0.00     0.027 A 
ATOM     13  C   UNL A   1      30.228  27.344  23.475  1.00  0.00     0.027 A 
BRANCH   9  14
ATOM     14  S   UNL A   1      28.033  30.442  22.083  1.00  0.00     0.242 S 
ATOM     15  O   UNL A   1      27.144  30.475  23.223  1.00  0.00    -0.207 OA
ATOM     16  O   UNL A   1      27.566  30.030  20.774  1.00  0.00    -0.207 OA
BRANCH  14  17
ATOM     17  N   UNL A   1      28.711  32.013  21.936  1.00  0.00    -0.204 NA
ATOM     18  C   UNL A   1      28.038  32.811  20.878  1.00  0.00     0.124 C 
ATOM     19  C   UNL A   1      28.793  32.781  23.201  1.00  0.00     0.124 C 
ENDBRANCH  14  17
ENDBRANCH   9  14
ENDBRANCH   7   8
BRANCH   7  20
ATOM     20  C   UNL A   1      32.853  25.390  23.044  1.00  0.00     0.032 C 
ATOM     21  C   UNL A   1      34.314  24.922  23.217  1.00  0.00     0.034 C 
ATOM     22  C   UNL A   1      31.844  24.412  23.687  1.00  0.00     0.034 C 
ATOM     23  C   UNL A   1      32.591  25.248  21.517  1.00  0.00     0.034 C 
ENDBRANCH   7  20
ENDBRANCH   6   7
ENDBRANCH   3   6
ENDBRANCH   1   2
BRANCH   1  24
ATOM     24  C   UNL A   1      31.586  30.470  26.584  1.00  0.00     0.023 C 
BRANCH  24  25
ATOM     25  C   UNL A   1      31.576  31.998  26.535  1.00  0.00     0.023 C 
BRANCH  25  26
ATOM     26  C   UNL A   1      32.704  32.669  27.306  1.00  0.00     0.116 C 
BRANCH  26  27
ATOM     27  N   UNL A   1      32.426  34.059  27.629  1.00  0.00    -0.352 N 
ATOM     28  C   UNL A   1      33.041  34.865  28.554  1.00  0.00     0.251 C 
ATOM     29  H   UNL A   1      31.697  34.478  27.117  1.00  0.00     0.163 HD
ATOM     30  O   UNL A   1      32.618  35.993  28.776  1.00  0.00    -0.269 OA
BRANCH  28  31
ATOM     31  C   UNL A   1      34.200  34.343  29.306  1.00  0.00     0.039 A 
ATOM     32  C   UNL A   1      33.968  33.583  30.455  1.00  0.00     0.014 A 
ATOM     33  C   UNL A   1      35.504  34.584  28.866  1.00  0.00     0.014 A 
ATOM     34  C   UNL A   1      35.045  33.012  31.132  1.00  0.00     0.010 A 
ATOM     35  C   UNL A   1      36.572  33.963  29.505  1.00  0.00     0.010 A 
ATOM     36  C   UNL A   1      36.352  33.174  30.644  1.00  0.00    -0.014 A 
BRANCH  36  37
ATOM     37  C   UNL A   1      37.508  32.538  31.316  1.00  0.00     0.031 A 
ATOM     38  C   UNL A   1      38.242  31.415  30.642  1.00  0.00     0.074 A 
ATOM     39  C   UNL A   1      37.852  32.924  32.558  1.00  0.00     0.049 A 
ATOM     40  N   UNL A   1      39.228  30.681  31.090  1.00  0.00    -0.248 NA
ATOM     41  C   UNL A   1      37.784  31.049  29.293  1.00  0.00     0.031 C 
ATOM     42  C   UNL A   1      37.190  33.975  33.331  1.00  0.00     0.029 A 
ATOM     43  N   UNL A   1      38.842  32.470  33.393  1.00  0.00    -0.354 N 
ATOM     44  C   UNL A   1      39.492  29.755  30.092  1.00  0.00     0.074 A 
ATOM     45  C   UNL A   1      38.534  29.989  29.032  1.00  0.00     0.031 C 
ATOM     46  C   UNL A   1      37.811  34.106  34.515  1.00  0.00     0.029 A 
ATOM     47  C   UNL A   1      38.891  33.127  34.596  1.00  0.00     0.049 A 
ATOM     48  H   UNL A   1      39.458  31.741  33.150  1.00  0.00     0.167 HD
ATOM     49  C   UNL A   1      40.460  28.809  30.052  1.00  0.00     0.037 A 
ATOM     50  C   UNL A   1      39.719  32.959  35.643  1.00  0.00     0.037 A 
ATOM     51  C   UNL A   1      41.434  28.604  31.091  1.00  0.00     0.049 A 
ATOM     52  C   UNL A   1      40.787  31.903  35.575  1.00  0.00     0.074 A 
ATOM     53  C   UNL A   1      42.501  27.724  31.114  1.00  0.00     0.029 A 
ATOM     54  N   UNL A   1      41.457  29.294  32.294  1.00  0.00    -0.354 N 
ATOM     55  N   UNL A   1      41.068  31.074  34.601  1.00  0.00    -0.248 NA
ATOM     56  C   UNL A   1      41.651  31.761  36.756  1.00  0.00     0.031 C 
ATOM     57  C   UNL A   1      43.149  27.857  32.348  1.00  0.00     0.029 A 
ATOM     58  C   UNL A   1      42.507  28.845  33.077  1.00  0.00     0.049 A 
ATOM     59  H   UNL A   1      40.818  29.997  32.554  1.00  0.00     0.167 HD
ATOM     60  C   UNL A   1      42.158  30.331  35.035  1.00  0.00     0.074 A 
ATOM     61  C   UNL A   1      42.489  30.812  36.360  1.00  0.00     0.031 C 
ATOM     62  C   UNL A   1      42.825  29.342  34.391  1.00  0.00     0.037 A 
BRANCH  49  63
ATOM     63  C   UNL A   1      40.505  27.927  28.839  1.00  0.00     0.064 A 
ATOM     64  C   UNL A   1      41.257  28.272  27.706  1.00  0.00     0.173 A 
ATOM     65  C   UNL A   1      39.787  26.722  28.809  1.00  0.00     0.173 A 
ATOM     66  F   UNL A   1      41.948  29.422  27.681  1.00  0.00    -0.203 F 
ATOM     67  C   UNL A   1      41.257  27.464  26.572  1.00  0.00     0.198 A 
ATOM     68  C   UNL A   1      39.812  25.902  27.684  1.00  0.00     0.198 A 
ATOM     69  F   UNL A   1      39.055  26.344  29.868  1.00  0.00    -0.203 F 
ATOM     70  F   UNL A   1      41.934  27.845  25.480  1.00  0.00    -0.200 F 
ATOM     71  C   UNL A   1      40.538  26.278  26.564  1.00  0.00     0.200 A 
ATOM     72  F   UNL A   1      39.124  24.752  27.678  1.00  0.00    -0.200 F 
ATOM     73  F   UNL A   1      40.535  25.504  25.470  1.00  0.00    -0.200 F 
ENDBRANCH  49  63
BRANCH  50  74
ATOM     74  C   UNL A   1      39.602  33.849  36.825  1.00  0.00     0.064 A 
ATOM     75  C   UNL A   1      40.246  35.094  36.841  1.00  0.00     0.173 A 
ATOM     76  C   UNL A   1      38.839  33.491  37.944  1.00  0.00     0.173 A 
ATOM     77  F   UNL A   1      41.003  35.469  35.799  1.00  0.00    -0.203 F 
ATOM     78  C   UNL A   1      40.139  35.944  37.939  1.00  0.00     0.198 A 
ATOM     79  C   UNL A   1      38.717  34.350  39.034  1.00  0.00     0.198 A 
ATOM     80  F   UNL A   1      38.203  32.311  37.973  1.00  0.00    -0.203 F 
ATOM     81  F   UNL A   1      40.787  37.117  37.941  1.00  0.00    -0.200 F 
ATOM     82  C   UNL A   1      39.370  35.575  39.032  1.00  0.00     0.200 A 
ATOM     83  F   UNL A   1      37.964  33.995  40.084  1.00  0.00    -0.200 F 
ATOM     84  F   UNL A   1      39.261  36.396  40.085  1.00  0.00    -0.200 F 
ENDBRANCH  50  74
BRANCH  62  85
ATOM     85  C   UNL A   1      44.000  28.738  35.099  1.00  0.00     0.064 A 
ATOM     86  C   UNL A   1      45.288  29.278  34.973  1.00  0.00     0.173 A 
ATOM     87  C   UNL A   1      43.828  27.629  35.940  1.00  0.00     0.173 A 
ATOM     88  F   UNL A   1      45.504  30.328  34.167  1.00  0.00    -0.203 F 
ATOM     89  C   UNL A   1      46.366  28.717  35.652  1.00  0.00     0.198 A 
ATOM     90  C   UNL A   1      44.904  27.085  36.635  1.00  0.00     0.198 A 
ATOM     91  F   UNL A   1      42.614  27.079  36.094  1.00  0.00    -0.203 F 
ATOM     92  F   UNL A   1      47.595  29.224  35.488  1.00  0.00    -0.200 F 
ATOM     93  C   UNL A   1      46.172  27.626  36.487  1.00  0.00     0.200 A 
ATOM     94  F   UNL A   1      44.713  26.036  37.447  1.00  0.00    -0.200 F 
ATOM     95  F   UNL A   1      47.210  27.090  37.143  1.00  0.00    -0.200 F 
ENDBRANCH  62  85
ENDBRANCH  36  37
ENDBRANCH  28  31
ENDBRANCH  26  27
ENDBRANCH  25  26
ENDBRANCH  24  25
ENDBRANCH   1  24
TORSDOF 16
ENDMDL
MODEL 2
REMARK VINA RESULT:     -11.4      5.359     10.428
REMARK SMILES CN(C)S(=O)(=O)c1ccc(N(CC(=O)NCCCCNC(=O)c2ccc(-c3c4nc(c(-c5c(F)c(F)c(F)c(F)c5F)c5ccc([nH]5)c(-c5c(F)c(F)c(F)c(F)c5F)c5nc(c(-c6c(F)c(F)c(F)c(F)c6F)c6ccc3[nH]6)C=C5)C=C4)cc2)C(C)(C)C)cc1
REMARK SMILES IDX 16 1 15 2 13 3 14 4 12 6 11 7 10 8 7 9 8 10 91 11 9 12 90 13
REMARK SMILES IDX 4 14 5 15 6 16 2 17 1 18 3 19 86 20 87 21 88 22 89 23 17 24
REMARK SMILES IDX 18 25 19 26 20 27 21 28 22 30 23 31 24 32 85 33 25 34 84 35
REMARK SMILES IDX 26 36 27 37 28 38 78 39 29 40 83 41 77 42 79 43 30 44 82 45
REMARK SMILES IDX 76 46 75 47 31 49 63 50 43 51 62 52 44 53 47 54 61 55 80 56
REMARK SMILES IDX 45 57 46 58 60 60 81 61 48 62 32 63 33 64 41 65 34 66 35 67
REMARK SMILES IDX 39 68 42 69 36 70 37 71 40 72 38 73 64 74 65 75 73 76 66 77
REMARK SMILES IDX 67 78 71 79 74 80 68 81 69 82 72 83 70 84 49 85 50 86 58 87
REMARK SMILES IDX 51 88 52 89 56 90 59 91 53 92 54 93 57 94 55 95
REMARK H PARENT 15 5 20 29 79 48 47 59
REMARK Flexibility Score: inf
ROOT
ATOM      1  C   UNL A   1      37.634  23.232  25.800  1.00  0.00     0.116 C 
ENDROOT
BRANCH   1   2
ATOM      2  N   UNL A   1      37.435  23.317  24.371  1.00  0.00    -0.355 N 
ATOM      3  C   UNL A   1      36.437  22.764  23.620  1.00  0.00     0.239 C 
ATOM      4  O   UNL A   1      36.405  23.052  22.421  1.00  0.00    -0.273 OA
ATOM      5  H   UNL A   1      38.106  23.841  23.875  1.00  0.00     0.163 HD
BRANCH   3   6
ATOM      6  C   UNL A   1      35.341  21.910  24.278  1.00  0.00     0.217 C 
BRANCH   6   7
ATOM      7  N   UNL A   1      33.994  22.557  24.367  1.00  0.00    -0.357 N 
BRANCH   7   8
ATOM      8  C   UNL A   1      33.931  23.962  24.487  1.00  0.00     0.038 A 
ATOM      9  C   UNL A   1      33.636  26.810  24.763  1.00  0.00     0.082 A 
ATOM     10  C   UNL A   1      33.986  26.037  25.860  1.00  0.00     0.024 A 
ATOM     11  C   UNL A   1      33.464  26.201  23.530  1.00  0.00     0.024 A 
ATOM     12  C   UNL A   1      34.142  24.644  25.709  1.00  0.00     0.027 A 
ATOM     13  C   UNL A   1      33.619  24.810  23.409  1.00  0.00     0.027 A 
BRANCH   9  14
ATOM     14  S   UNL A   1      33.448  28.568  24.891  1.00  0.00     0.242 S 
ATOM     15  O   UNL A   1      33.566  29.127  23.563  1.00  0.00    -0.207 OA
ATOM     16  O   UNL A   1      34.316  28.998  25.970  1.00  0.00    -0.207 OA
BRANCH  14  17
ATOM     17  N   UNL A   1      31.822  28.809  25.388  1.00  0.00    -0.204 NA
ATOM     18  C   UNL A   1      31.737  29.578  26.657  1.00  0.00     0.124 C 
ATOM     19  C   UNL A   1      30.932  29.395  24.358  1.00  0.00     0.124 C 
ENDBRANCH  14  17
ENDBRANCH   9  14
ENDBRANCH   7   8
BRANCH   7  20
ATOM     20  C   UNL A   1      32.766  21.684  24.153  1.00  0.00     0.032 C 
ATOM     21  C   UNL A   1      31.617  22.061  25.112  1.00  0.00     0.034 C 
ATOM     22  C   UNL A   1      32.326  21.716  22.671  1.00  0.00     0.034 C 
ATOM     23  C   UNL A   1      33.015  20.175  24.436  1.00  0.00     0.034 C 
ENDBRANCH   7  20
ENDBRANCH   6   7
ENDBRANCH   3   6
ENDBRANCH   1   2
BRANCH   1  24
ATOM     24  C   UNL A   1      38.986  22.628  26.162  1.00  0.00     0.023 C 
BRANCH  24  25
ATOM     25  C   UNL A   1      39.257  21.255  25.547  1.00  0.00     0.023 C 
BRANCH  25  26
ATOM     26  C   UNL A   1      39.642  20.173  26.545  1.00  0.00     0.116 C 
BRANCH  26  27
ATOM     27  N   UNL A   1      40.705  19.304  26.063  1.00  0.00    -0.352 N 
ATOM     28  C   UNL A   1      42.045  19.574  25.944  1.00  0.00     0.251 C 
ATOM     29  H   UNL A   1      40.424  18.404  25.782  1.00  0.00     0.163 HD
ATOM     30  O   UNL A   1      42.799  18.762  25.422  1.00  0.00    -0.269 OA
BRANCH  28  31
ATOM     31  C   UNL A   1      42.565  20.871  26.422  1.00  0.00     0.039 A 
ATOM     32  C   UNL A   1      43.035  21.793  25.483  1.00  0.00     0.014 A 
ATOM     33  C   UNL A   1      42.564  21.183  27.784  1.00  0.00     0.014 A 
ATOM     34  C   UNL A   1      43.452  23.054  25.906  1.00  0.00     0.010 A 
ATOM     35  C   UNL A   1      42.919  22.462  28.197  1.00  0.00     0.010 A 
ATOM     36  C   UNL A   1      43.369  23.407  27.262  1.00  0.00    -0.014 A 
BRANCH  36  37
ATOM     37  C   UNL A   1      43.759  24.758  27.731  1.00  0.00     0.031 A 
ATOM     38  C   UNL A   1      42.701  25.764  28.079  1.00  0.00     0.074 A 
ATOM     39  C   UNL A   1      45.060  25.098  27.775  1.00  0.00     0.049 A 
ATOM     40  N   UNL A   1      42.833  27.016  28.437  1.00  0.00    -0.248 NA
ATOM     41  C   UNL A   1      41.305  25.309  27.984  1.00  0.00     0.031 C 
ATOM     42  C   UNL A   1      46.176  24.220  27.422  1.00  0.00     0.029 A 
ATOM     43  N   UNL A   1      45.663  26.278  28.129  1.00  0.00    -0.354 N 
ATOM     44  C   UNL A   1      41.542  27.502  28.586  1.00  0.00     0.074 A 
ATOM     45  C   UNL A   1      40.640  26.426  28.237  1.00  0.00     0.031 C 
ATOM     46  C   UNL A   1      47.330  24.882  27.607  1.00  0.00     0.029 A 
ATOM     47  C   UNL A   1      47.032  26.238  28.058  1.00  0.00     0.049 A 
ATOM     48  H   UNL A   1      45.160  27.077  28.409  1.00  0.00     0.167 HD
ATOM     49  C   UNL A   1      41.145  28.729  28.998  1.00  0.00     0.037 A 
ATOM     50  C   UNL A   1      47.943  27.191  28.330  1.00  0.00     0.037 A 
ATOM     51  C   UNL A   1      42.044  29.785  29.380  1.00  0.00     0.049 A 
ATOM     52  C   UNL A   1      47.478  28.545  28.788  1.00  0.00     0.074 A 
ATOM     53  C   UNL A   1      41.743  31.038  29.883  1.00  0.00     0.029 A 
ATOM     54  N   UNL A   1      43.427  29.707  29.300  1.00  0.00    -0.354 N 
ATOM     55  N   UNL A   1      46.256  28.976  28.986  1.00  0.00    -0.248 NA
ATOM     56  C   UNL A   1      48.521  29.545  29.058  1.00  0.00     0.031 C 
ATOM     57  C   UNL A   1      42.944  31.731  30.075  1.00  0.00     0.029 A 
ATOM     58  C   UNL A   1      43.994  30.897  29.725  1.00  0.00     0.049 A 
ATOM     59  H   UNL A   1      43.931  28.921  28.986  1.00  0.00     0.167 HD
ATOM     60  C   UNL A   1      46.381  30.284  29.431  1.00  0.00     0.074 A 
ATOM     61  C   UNL A   1      47.800  30.576  29.478  1.00  0.00     0.031 C 
ATOM     62  C   UNL A   1      45.408  31.164  29.772  1.00  0.00     0.037 A 
BRANCH  49  63
ATOM     63  C   UNL A   1      39.668  28.987  29.054  1.00  0.00     0.064 A 
ATOM     64  C   UNL A   1      38.938  28.825  30.241  1.00  0.00     0.173 A 
ATOM     65  C   UNL A   1      38.974  29.400  27.907  1.00  0.00     0.173 A 
ATOM     66  F   UNL A   1      39.553  28.416  31.361  1.00  0.00    -0.203 F 
ATOM     67  C   UNL A   1      37.560  29.028  30.269  1.00  0.00     0.198 A 
ATOM     68  C   UNL A   1      37.601  29.630  27.945  1.00  0.00     0.198 A 
ATOM     69  F   UNL A   1      39.626  29.573  26.748  1.00  0.00    -0.203 F 
ATOM     70  F   UNL A   1      36.875  28.808  31.399  1.00  0.00    -0.200 F 
ATOM     71  C   UNL A   1      36.894  29.434  29.122  1.00  0.00     0.200 A 
ATOM     72  F   UNL A   1      36.959  30.030  26.839  1.00  0.00    -0.200 F 
ATOM     73  F   UNL A   1      35.568  29.624  29.148  1.00  0.00    -0.200 F 
ENDBRANCH  49  63
BRANCH  50  74
ATOM     74  C   UNL A   1      49.390  26.877  28.228  1.00  0.00     0.064 A 
ATOM     75  C   UNL A   1      50.106  26.459  29.359  1.00  0.00     0.173 A 
ATOM     76  C   UNL A   1      50.079  26.967  27.012  1.00  0.00     0.173 A 
ATOM     77  F   UNL A   1      49.491  26.377  30.549  1.00  0.00    -0.203 F 
ATOM     78  C   UNL A   1      51.463  26.153  29.278  1.00  0.00     0.198 A 
ATOM     79  C   UNL A   1      51.431  26.641  26.927  1.00  0.00     0.198 A 
ATOM     80  F   UNL A   1      49.435  27.359  25.903  1.00  0.00    -0.203 F 
ATOM     81  F   UNL A   1      52.131  25.783  30.379  1.00  0.00    -0.200 F 
ATOM     82  C   UNL A   1      52.122  26.238  28.061  1.00  0.00     0.200 A 
ATOM     83  F   UNL A   1      52.064  26.714  25.749  1.00  0.00    -0.200 F 
ATOM     84  F   UNL A   1      53.426  25.936  27.982  1.00  0.00    -0.200 F 
ENDBRANCH  50  74
BRANCH  62  85
ATOM     85  C   UNL A   1      45.846  32.513  30.259  1.00  0.00     0.064 A 
ATOM     86  C   UNL A   1      46.128  32.747  31.612  1.00  0.00     0.173 A 
ATOM     87  C   UNL A   1      46.020  33.570  29.354  1.00  0.00     0.173 A 
ATOM     88  F   UNL A   1      45.959  31.771  32.516  1.00  0.00    -0.203 F 
ATOM     89  C   UNL A   1      46.552  34.001  32.045  1.00  0.00     0.198 A 
ATOM     90  C   UNL A   1      46.468  34.815  29.788  1.00  0.00     0.198 A 
ATOM     91  F   UNL A   1      45.766  33.393  28.049  1.00  0.00    -0.203 F 
ATOM     92  F   UNL A   1      46.779  34.215  33.348  1.00  0.00    -0.200 F 
ATOM     93  C   UNL A   1      46.728  35.031  31.132  1.00  0.00     0.200 A 
ATOM     94  F   UNL A   1      46.644  35.807  28.903  1.00  0.00    -0.200 F 
ATOM     95  F   UNL A   1      47.140  36.235  31.551  1.00  0.00    -0.200 F 
ENDBRANCH  62  85
ENDBRANCH  36  37
ENDBRANCH  28  31
ENDBRANCH  26  27
ENDBRANCH  25  26
ENDBRANCH  24  25
ENDBRANCH   1  24
TORSDOF 16
ENDMDL
MODEL 3
REMARK VINA RESULT:     -11.4      2.007      3.735
REMARK SMILES CN(C)S(=O)(=O)c1ccc(N(CC(=O)NCCCCNC(=O)c2ccc(-c3c4nc(c(-c5c(F)c(F)c(F)c(F)c5F)c5ccc([nH]5)c(-c5c(F)c(F)c(F)c(F)c5F)c5nc(c(-c6c(F)c(F)c(F)c(F)c6F)c6ccc3[nH]6)C=C5)C=C4)cc2)C(C)(C)C)cc1
REMARK SMILES IDX 16 1 15 2 13 3 14 4 12 6 11 7 10 8 7 9 8 10 91 11 9 12 90 13
REMARK SMILES IDX 4 14 5 15 6 16 2 17 1 18 3 19 86 20 87 21 88 22 89 23 17 24
REMARK SMILES IDX 18 25 19 26 20 27 21 28 22 30 23 31 24 32 85 33 25 34 84 35
REMARK SMILES IDX 26 36 27 37 28 38 78 39 29 40 83 41 77 42 79 43 30 44 82 45
REMARK SMILES IDX 76 46 75 47 31 49 63 50 43 51 62 52 44 53 47 54 61 55 80 56
REMARK SMILES IDX 45 57 46 58 60 60 81 61 48 62 32 63 33 64 41 65 34 66 35 67
REMARK SMILES IDX 39 68 42 69 36 70 37 71 40 72 38 73 64 74 65 75 73 76 66 77
REMARK SMILES IDX 67 78 71 79 74 80 68 81 69 82 72 83 70 84 49 85 50 86 58 87
REMARK SMILES IDX 51 88 52 89 56 90 59 91 53 92 54 93 57 94 55 95
REMARK H PARENT 15 5 20 29 79 48 47 59
REMARK Flexibility Score: inf
ROOT
ATOM      1  C   UNL A   1      34.151  29.722  27.231  1.00  0.00     0.116 C 
ENDROOT
BRANCH   1   2
ATOM      2  N   UNL A   1      33.018  29.029  27.802  1.00  0.00    -0.355 N 
ATOM      3  C   UNL A   1      31.866  28.634  27.182  1.00  0.00     0.239 C 
ATOM      4  O   UNL A   1      31.070  27.961  27.843  1.00  0.00    -0.273 OA
ATOM      5  H   UNL A   1      33.085  28.814  28.760  1.00  0.00     0.163 HD
BRANCH   3   6
ATOM      6  C   UNL A   1      31.636  28.928  25.691  1.00  0.00     0.217 C 
BRANCH   6   7
ATOM      7  N   UNL A   1      31.530  27.721  24.811  1.00  0.00    -0.357 N 
BRANCH   7   8
ATOM      8  C   UNL A   1      32.249  26.562  25.172  1.00  0.00     0.038 A 
ATOM      9  C   UNL A   1      33.747  24.271  26.057  1.00  0.00     0.082 A 
ATOM     10  C   UNL A   1      32.374  24.320  26.246  1.00  0.00     0.024 A 
ATOM     11  C   UNL A   1      34.381  25.319  25.409  1.00  0.00     0.024 A 
ATOM     12  C   UNL A   1      31.648  25.442  25.794  1.00  0.00     0.027 A 
ATOM     13  C   UNL A   1      33.636  26.428  24.976  1.00  0.00     0.027 A 
BRANCH   9  14
ATOM     14  S   UNL A   1      34.705  22.875  26.585  1.00  0.00     0.242 S 
ATOM     15  O   UNL A   1      34.169  22.420  27.849  1.00  0.00    -0.207 OA
ATOM     16  O   UNL A   1      36.096  23.257  26.451  1.00  0.00    -0.207 OA
BRANCH  14  17
ATOM     17  N   UNL A   1      34.375  21.645  25.434  1.00  0.00    -0.204 NA
ATOM     18  C   UNL A   1      35.612  20.941  25.004  1.00  0.00     0.124 C 
ATOM     19  C   UNL A   1      33.331  20.673  25.836  1.00  0.00     0.124 C 
ENDBRANCH  14  17
ENDBRANCH   9  14
ENDBRANCH   7   8
BRANCH   7  20
ATOM     20  C   UNL A   1      30.522  27.754  23.671  1.00  0.00     0.032 C 
ATOM     21  C   UNL A   1      29.987  29.180  23.416  1.00  0.00     0.034 C 
ATOM     22  C   UNL A   1      31.119  27.116  22.397  1.00  0.00     0.034 C 
ATOM     23  C   UNL A   1      29.242  26.914  23.945  1.00  0.00     0.034 C 
ENDBRANCH   7  20
ENDBRANCH   6   7
ENDBRANCH   3   6
ENDBRANCH   1   2
BRANCH   1  24
ATOM     24  C   UNL A   1      34.443  31.037  27.943  1.00  0.00     0.023 C 
BRANCH  24  25
ATOM     25  C   UNL A   1      33.878  32.278  27.251  1.00  0.00     0.023 C 
BRANCH  25  26
ATOM     26  C   UNL A   1      32.493  32.698  27.724  1.00  0.00     0.116 C 
BRANCH  26  27
ATOM     27  N   UNL A   1      32.354  34.137  27.874  1.00  0.00    -0.352 N 
ATOM     28  C   UNL A   1      33.095  34.994  28.650  1.00  0.00     0.251 C 
ATOM     29  H   UNL A   1      31.632  34.553  27.351  1.00  0.00     0.163 HD
ATOM     30  O   UNL A   1      32.784  36.175  28.743  1.00  0.00    -0.269 OA
BRANCH  28  31
ATOM     31  C   UNL A   1      34.252  34.468  29.402  1.00  0.00     0.039 A 
ATOM     32  C   UNL A   1      34.025  33.832  30.625  1.00  0.00     0.014 A 
ATOM     33  C   UNL A   1      35.547  34.581  28.890  1.00  0.00     0.014 A 
ATOM     34  C   UNL A   1      35.095  33.256  31.310  1.00  0.00     0.010 A 
ATOM     35  C   UNL A   1      36.602  33.951  29.541  1.00  0.00     0.010 A 
ATOM     36  C   UNL A   1      36.385  33.286  30.757  1.00  0.00    -0.014 A 
BRANCH  36  37
ATOM     37  C   UNL A   1      37.529  32.638  31.441  1.00  0.00     0.031 A 
ATOM     38  C   UNL A   1      38.262  31.512  30.770  1.00  0.00     0.074 A 
ATOM     39  C   UNL A   1      37.862  33.017  32.688  1.00  0.00     0.049 A 
ATOM     40  N   UNL A   1      39.237  30.769  31.227  1.00  0.00    -0.248 NA
ATOM     41  C   UNL A   1      37.817  31.154  29.414  1.00  0.00     0.031 C 
ATOM     42  C   UNL A   1      37.199  34.071  33.457  1.00  0.00     0.029 A 
ATOM     43  N   UNL A   1      38.839  32.552  33.532  1.00  0.00    -0.354 N 
ATOM     44  C   UNL A   1      39.506  29.845  30.228  1.00  0.00     0.074 A 
ATOM     45  C   UNL A   1      38.562  30.090  29.159  1.00  0.00     0.031 C 
ATOM     46  C   UNL A   1      37.807  34.193  34.648  1.00  0.00     0.029 A 
ATOM     47  C   UNL A   1      38.879  33.205  34.738  1.00  0.00     0.049 A 
ATOM     48  H   UNL A   1      39.452  31.820  33.294  1.00  0.00     0.167 HD
ATOM     49  C   UNL A   1      40.467  28.891  30.196  1.00  0.00     0.037 A 
ATOM     50  C   UNL A   1      39.693  33.027  35.794  1.00  0.00     0.037 A 
ATOM     51  C   UNL A   1      41.427  28.675  31.245  1.00  0.00     0.049 A 
ATOM     52  C   UNL A   1      40.755  31.963  35.734  1.00  0.00     0.074 A 
ATOM     53  C   UNL A   1      42.487  27.788  31.277  1.00  0.00     0.029 A 
ATOM     54  N   UNL A   1      41.442  29.361  32.451  1.00  0.00    -0.354 N 
ATOM     55  N   UNL A   1      41.041  31.136  34.759  1.00  0.00    -0.248 NA
ATOM     56  C   UNL A   1      41.604  31.810  36.924  1.00  0.00     0.031 C 
ATOM     57  C   UNL A   1      43.123  27.911  32.518  1.00  0.00     0.029 A 
ATOM     58  C   UNL A   1      42.480  28.902  33.244  1.00  0.00     0.049 A 
ATOM     59  H   UNL A   1      40.806  30.068  32.706  1.00  0.00     0.167 HD
ATOM     60  C   UNL A   1      42.120  30.383  35.203  1.00  0.00     0.074 A 
ATOM     61  C   UNL A   1      42.440  30.857  36.534  1.00  0.00     0.031 C 
ATOM     62  C   UNL A   1      42.786  29.392  34.563  1.00  0.00     0.037 A 
BRANCH  49  63
ATOM     63  C   UNL A   1      40.520  28.013  28.981  1.00  0.00     0.064 A 
ATOM     64  C   UNL A   1      41.291  28.354  27.860  1.00  0.00     0.173 A 
ATOM     65  C   UNL A   1      39.788  26.817  28.935  1.00  0.00     0.173 A 
ATOM     66  F   UNL A   1      41.996  29.497  27.848  1.00  0.00    -0.203 F 
ATOM     67  C   UNL A   1      41.298  27.551  26.723  1.00  0.00     0.198 A 
ATOM     68  C   UNL A   1      39.819  26.002  27.807  1.00  0.00     0.198 A 
ATOM     69  F   UNL A   1      39.036  26.444  29.982  1.00  0.00    -0.203 F 
ATOM     70  F   UNL A   1      41.995  27.928  25.642  1.00  0.00    -0.200 F 
ATOM     71  C   UNL A   1      40.566  26.373  26.699  1.00  0.00     0.200 A 
ATOM     72  F   UNL A   1      39.118  24.860  27.787  1.00  0.00    -0.200 F 
ATOM     73  F   UNL A   1      40.569  25.603  25.602  1.00  0.00    -0.200 F 
ENDBRANCH  49  63
BRANCH  50  74
ATOM     74  C   UNL A   1      39.570  33.913  36.977  1.00  0.00     0.064 A 
ATOM     75  C   UNL A   1      40.217  35.157  37.002  1.00  0.00     0.173 A 
ATOM     76  C   UNL A   1      38.798  33.554  38.090  1.00  0.00     0.173 A 
ATOM     77  F   UNL A   1      40.982  35.534  35.966  1.00  0.00    -0.203 F 
ATOM     78  C   UNL A   1      40.104  36.004  38.102  1.00  0.00     0.198 A 
ATOM     79  C   UNL A   1      38.669  34.410  39.181  1.00  0.00     0.198 A 
ATOM     80  F   UNL A   1      38.159  32.376  38.110  1.00  0.00    -0.203 F 
ATOM     81  F   UNL A   1      40.755  37.176  38.112  1.00  0.00    -0.200 F 
ATOM     82  C   UNL A   1      39.325  35.633  39.187  1.00  0.00     0.200 A 
ATOM     83  F   UNL A   1      37.909  34.054  40.224  1.00  0.00    -0.200 F 
ATOM     84  F   UNL A   1      39.211  36.451  40.242  1.00  0.00    -0.200 F 
ENDBRANCH  50  74
BRANCH  62  85
ATOM     85  C   UNL A   1      43.949  28.776  35.282  1.00  0.00     0.064 A 
ATOM     86  C   UNL A   1      45.240  29.312  35.180  1.00  0.00     0.173 A 
ATOM     87  C   UNL A   1      43.760  27.659  36.110  1.00  0.00     0.173 A 
ATOM     88  F   UNL A   1      45.472  30.369  34.388  1.00  0.00    -0.203 F 
ATOM     89  C   UNL A   1      46.307  28.740  35.870  1.00  0.00     0.198 A 
ATOM     90  C   UNL A   1      44.824  27.104  36.815  1.00  0.00     0.198 A 
ATOM     91  F   UNL A   1      42.542  27.113  36.240  1.00  0.00    -0.203 F 
ATOM     92  F   UNL A   1      47.540  29.244  35.729  1.00  0.00    -0.200 F 
ATOM     93  C   UNL A   1      46.096  27.642  36.691  1.00  0.00     0.200 A 
ATOM     94  F   UNL A   1      44.618  26.048  37.614  1.00  0.00    -0.200 F 
ATOM     95  F   UNL A   1      47.123  27.096  37.356  1.00  0.00    -0.200 F 
ENDBRANCH  62  85
ENDBRANCH  36  37
ENDBRANCH  28  31
ENDBRANCH  26  27
ENDBRANCH  25  26
ENDBRANCH  24  25
ENDBRANCH   1  24
TORSDOF 16
ENDMDL
