MODEL 1
REMARK VINA RESULT:     -14.3      0.000      0.000
REMARK SMILES Cc1ccc(-c2cc(Cl)cc3c2O[C@H](C(F)(F)F)C(C(=O)NCCCCNC(=O)c2ccc(-c4c5nc(c(-c6c(F)c(F)c(F)c(F)c6F)c6ccc([nH]6)c(-c6c(F)c(F)c(F)c(F)c6F)c6nc(c(-c7c(F)c(F)c(F)c(F)c7F)c7ccc4[nH]7)C=C6)C=C5)cc2)=C3)cc1F
REMARK SMILES IDX 25 1 24 2 23 3 22 4 20 5 21 6 19 8 6 9 7 10 12 11 8 12 11 13
REMARK SMILES IDX 13 14 9 15 10 16 93 17 14 18 5 19 1 20 2 21 3 22 95 23 4 24
REMARK SMILES IDX 94 25 96 26 15 27 16 28 17 29 18 30 26 31 27 32 28 33 29 35
REMARK SMILES IDX 30 36 31 37 92 38 32 39 91 40 33 41 34 42 35 43 85 44 36 45
REMARK SMILES IDX 90 46 84 47 86 48 37 49 89 50 83 51 82 52 38 54 70 55 50 56
REMARK SMILES IDX 69 57 51 58 54 59 68 60 87 61 52 62 53 63 67 65 88 66 55 67
REMARK SMILES IDX 39 68 40 69 48 70 41 71 42 72 46 73 49 74 43 75 44 76 47 77
REMARK SMILES IDX 45 78 71 79 72 80 80 81 73 82 74 83 78 84 81 85 75 86 76 87
REMARK SMILES IDX 79 88 77 89 56 90 57 91 65 92 58 93 59 94 63 95 66 96 60 97
REMARK SMILES IDX 61 98 64 99 62 100
REMARK H PARENT 22 7 27 34 86 53 54 64
REMARK Flexibility Score: inf
ROOT
ATOM      1  C   UNL A   1      37.361  23.294  24.926  1.00  0.00     0.023 C 
ENDROOT
BRANCH   1   2
ATOM      2  C   UNL A   1      36.584  22.831  23.705  1.00  0.00     0.023 C 
BRANCH   2   3
ATOM      3  C   UNL A   1      35.271  23.577  23.616  1.00  0.00     0.116 C 
BRANCH   3   4
ATOM      4  N   UNL A   1      34.434  23.243  24.754  1.00  0.00    -0.352 N 
ATOM      5  C   UNL A   1      33.580  23.883  25.579  1.00  0.00     0.251 C 
ATOM      6  O   UNL A   1      33.122  23.203  26.502  1.00  0.00    -0.270 OA
ATOM      7  H   UNL A   1      34.509  22.289  24.986  1.00  0.00     0.163 HD
BRANCH   5   8
ATOM      8  C   UNL A   1      33.173  25.302  25.424  1.00  0.00     0.067 C 
ATOM      9  C   UNL A   1      32.063  29.325  25.026  1.00  0.00     0.026 A 
ATOM     10  C   UNL A   1      32.577  30.259  25.933  1.00  0.00     0.033 A 
ATOM     11  C   UNL A   1      32.525  28.002  25.120  1.00  0.00     0.135 A 
ATOM     12  C   UNL A   1      33.513  29.867  26.896  1.00  0.00     0.042 A 
ATOM     13  C   UNL A   1      33.446  27.599  26.092  1.00  0.00     0.019 A 
ATOM     14  O   UNL A   1      32.079  27.130  24.166  1.00  0.00    -0.475 OA
ATOM     15  Cl  UNL A   1      34.138  31.033  27.997  1.00  0.00    -0.084 Cl
ATOM     16  C   UNL A   1      33.948  28.544  26.983  1.00  0.00     0.032 A 
ATOM     17  C   UNL A   1      33.863  26.203  26.148  1.00  0.00     0.025 C 
ATOM     18  C   UNL A   1      32.038  25.741  24.550  1.00  0.00     0.314 C 
BRANCH   9  19
ATOM     19  C   UNL A   1      31.062  29.693  24.010  1.00  0.00    -0.012 A 
ATOM     20  C   UNL A   1      27.881  30.508  21.190  1.00  0.00     0.047 C 
ATOM     21  C   UNL A   1      28.999  30.230  22.146  1.00  0.00    -0.015 A 
ATOM     22  C   UNL A   1      30.042  29.355  21.820  1.00  0.00     0.007 A 
ATOM     23  C   UNL A   1      29.006  30.835  23.401  1.00  0.00     0.126 A 
ATOM     24  C   UNL A   1      31.062  29.091  22.742  1.00  0.00     0.009 A 
ATOM     25  C   UNL A   1      30.021  30.584  24.320  1.00  0.00     0.048 A 
ATOM     26  F   UNL A   1      28.009  31.662  23.749  1.00  0.00    -0.207 F 
ENDBRANCH   9  19
BRANCH  18  27
ATOM     27  C   UNL A   1      30.648  25.403  25.127  1.00  0.00     0.429 C 
ATOM     28  F   UNL A   1      30.549  25.836  26.409  1.00  0.00    -0.167 F 
ATOM     29  F   UNL A   1      29.637  25.992  24.448  1.00  0.00    -0.167 F 
ATOM     30  F   UNL A   1      30.394  24.075  25.127  1.00  0.00    -0.167 F 
ENDBRANCH  18  27
ENDBRANCH   5   8
ENDBRANCH   3   4
ENDBRANCH   2   3
ENDBRANCH   1   2
BRANCH   1  31
ATOM     31  C   UNL A   1      38.153  22.190  25.636  1.00  0.00     0.116 C 
BRANCH  31  32
ATOM     32  N   UNL A   1      39.607  22.312  25.680  1.00  0.00    -0.352 N 
ATOM     33  C   UNL A   1      40.486  23.136  26.348  1.00  0.00     0.251 C 
ATOM     34  H   UNL A   1      40.062  21.657  25.102  1.00  0.00     0.163 HD
ATOM     35  O   UNL A   1      41.661  22.806  26.413  1.00  0.00    -0.269 OA
BRANCH  33  36
ATOM     36  C   UNL A   1      40.092  24.489  26.795  1.00  0.00     0.039 A 
ATOM     37  C   UNL A   1      40.608  25.664  26.262  1.00  0.00     0.014 A 
ATOM     38  C   UNL A   1      39.322  24.530  27.964  1.00  0.00     0.014 A 
ATOM     39  C   UNL A   1      40.674  26.795  27.063  1.00  0.00     0.010 A 
ATOM     40  C   UNL A   1      39.301  25.685  28.723  1.00  0.00     0.010 A 
ATOM     41  C   UNL A   1      40.082  26.772  28.330  1.00  0.00    -0.014 A 
BRANCH  41  42
ATOM     42  C   UNL A   1      40.183  27.902  29.244  1.00  0.00     0.031 A 
ATOM     43  C   UNL A   1      39.211  29.009  29.108  1.00  0.00     0.074 A 
ATOM     44  C   UNL A   1      41.190  27.983  30.145  1.00  0.00     0.049 A 
ATOM     45  N   UNL A   1      39.462  30.244  29.384  1.00  0.00    -0.248 NA
ATOM     46  C   UNL A   1      37.889  28.812  28.518  1.00  0.00     0.031 C 
ATOM     47  C   UNL A   1      41.292  28.916  31.258  1.00  0.00     0.029 A 
ATOM     48  N   UNL A   1      42.428  27.314  30.150  1.00  0.00    -0.354 N 
ATOM     49  C   UNL A   1      38.265  30.925  29.329  1.00  0.00     0.074 A 
ATOM     50  C   UNL A   1      37.382  30.045  28.608  1.00  0.00     0.031 C 
ATOM     51  C   UNL A   1      42.565  28.961  31.685  1.00  0.00     0.029 A 
ATOM     52  C   UNL A   1      43.365  28.180  30.760  1.00  0.00     0.049 A 
ATOM     53  H   UNL A   1      42.607  26.413  29.796  1.00  0.00     0.167 HD
ATOM     54  C   UNL A   1      38.123  32.060  30.075  1.00  0.00     0.037 A 
ATOM     55  C   UNL A   1      44.480  28.654  30.117  1.00  0.00     0.037 A 
ATOM     56  C   UNL A   1      39.402  32.419  30.692  1.00  0.00     0.049 A 
ATOM     57  C   UNL A   1      44.535  30.148  30.015  1.00  0.00     0.074 A 
ATOM     58  C   UNL A   1      39.917  32.180  31.956  1.00  0.00     0.029 A 
ATOM     59  N   UNL A   1      40.468  32.828  29.898  1.00  0.00    -0.354 N 
ATOM     60  N   UNL A   1      43.476  30.900  30.090  1.00  0.00    -0.248 NA
ATOM     61  C   UNL A   1      45.758  30.911  29.797  1.00  0.00     0.031 C 
ATOM     62  C   UNL A   1      41.313  32.403  31.907  1.00  0.00     0.029 A 
ATOM     63  C   UNL A   1      41.643  32.808  30.625  1.00  0.00     0.049 A 
ATOM     64  H   UNL A   1      40.396  33.094  28.953  1.00  0.00     0.167 HD
ATOM     65  C   UNL A   1      43.841  32.212  29.966  1.00  0.00     0.074 A 
ATOM     66  C   UNL A   1      45.281  32.169  29.786  1.00  0.00     0.031 C 
ATOM     67  C   UNL A   1      42.911  33.209  30.031  1.00  0.00     0.037 A 
BRANCH  54  68
ATOM     68  C   UNL A   1      36.804  32.663  30.541  1.00  0.00     0.064 A 
ATOM     69  C   UNL A   1      36.101  33.561  29.700  1.00  0.00     0.173 A 
ATOM     70  C   UNL A   1      36.210  32.487  31.806  1.00  0.00     0.173 A 
ATOM     71  F   UNL A   1      36.476  33.770  28.430  1.00  0.00    -0.203 F 
ATOM     72  C   UNL A   1      34.983  34.286  30.124  1.00  0.00     0.198 A 
ATOM     73  C   UNL A   1      35.102  33.224  32.239  1.00  0.00     0.198 A 
ATOM     74  F   UNL A   1      36.637  31.567  32.671  1.00  0.00    -0.203 F 
ATOM     75  F   UNL A   1      34.388  35.144  29.283  1.00  0.00    -0.200 F 
ATOM     76  C   UNL A   1      34.496  34.136  31.404  1.00  0.00     0.200 A 
ATOM     77  F   UNL A   1      34.628  33.038  33.480  1.00  0.00    -0.200 F 
ATOM     78  F   UNL A   1      33.438  34.843  31.821  1.00  0.00    -0.200 F 
ENDBRANCH  54  68
BRANCH  55  79
ATOM     79  C   UNL A   1      45.035  27.732  29.086  1.00  0.00     0.064 A 
ATOM     80  C   UNL A   1      44.773  28.071  27.748  1.00  0.00     0.173 A 
ATOM     81  C   UNL A   1      46.270  27.160  29.392  1.00  0.00     0.173 A 
ATOM     82  F   UNL A   1      43.560  28.524  27.397  1.00  0.00    -0.203 F 
ATOM     83  C   UNL A   1      45.805  28.122  26.818  1.00  0.00     0.198 A 
ATOM     84  C   UNL A   1      47.315  27.347  28.501  1.00  0.00     0.198 A 
ATOM     85  F   UNL A   1      46.536  26.729  30.635  1.00  0.00    -0.203 F 
ATOM     86  F   UNL A   1      45.582  28.574  25.577  1.00  0.00    -0.200 F 
ATOM     87  C   UNL A   1      47.095  27.849  27.228  1.00  0.00     0.200 A 
ATOM     88  F   UNL A   1      48.566  27.202  28.935  1.00  0.00    -0.200 F 
ATOM     89  F   UNL A   1      48.131  28.130  26.426  1.00  0.00    -0.200 F 
ENDBRANCH  55  79
BRANCH  67  90
ATOM     90  C   UNL A   1      43.128  34.660  29.681  1.00  0.00     0.064 A 
ATOM     91  C   UNL A   1      43.328  35.677  30.627  1.00  0.00     0.173 A 
ATOM     92  C   UNL A   1      43.273  35.054  28.328  1.00  0.00     0.173 A 
ATOM     93  F   UNL A   1      43.361  35.417  31.941  1.00  0.00    -0.203 F 
ATOM     94  C   UNL A   1      43.568  37.001  30.250  1.00  0.00     0.198 A 
ATOM     95  C   UNL A   1      43.580  36.361  27.957  1.00  0.00     0.198 A 
ATOM     96  F   UNL A   1      43.151  34.178  27.320  1.00  0.00    -0.203 F 
ATOM     97  F   UNL A   1      43.695  37.944  31.193  1.00  0.00    -0.200 F 
ATOM     98  C   UNL A   1      43.704  37.341  28.918  1.00  0.00     0.200 A 
ATOM     99  F   UNL A   1      43.774  36.656  26.664  1.00  0.00    -0.200 F 
ATOM    100  F   UNL A   1      43.979  38.603  28.562  1.00  0.00    -0.200 F 
ENDBRANCH  67  90
ENDBRANCH  41  42
ENDBRANCH  33  36
ENDBRANCH  31  32
ENDBRANCH   1  31
TORSDOF 13
ENDMDL
MODEL 2
REMARK VINA RESULT:     -14.2      3.643      9.460
REMARK SMILES Cc1ccc(-c2cc(Cl)cc3c2O[C@H](C(F)(F)F)C(C(=O)NCCCCNC(=O)c2ccc(-c4c5nc(c(-c6c(F)c(F)c(F)c(F)c6F)c6ccc([nH]6)c(-c6c(F)c(F)c(F)c(F)c6F)c6nc(c(-c7c(F)c(F)c(F)c(F)c7F)c7ccc4[nH]7)C=C6)C=C5)cc2)=C3)cc1F
REMARK SMILES IDX 25 1 24 2 23 3 22 4 20 5 21 6 19 8 6 9 7 10 12 11 8 12 11 13
REMARK SMILES IDX 13 14 9 15 10 16 93 17 14 18 5 19 1 20 2 21 3 22 95 23 4 24
REMARK SMILES IDX 94 25 96 26 15 27 16 28 17 29 18 30 26 31 27 32 28 33 29 35
REMARK SMILES IDX 30 36 31 37 92 38 32 39 91 40 33 41 34 42 35 43 85 44 36 45
REMARK SMILES IDX 90 46 84 47 86 48 37 49 89 50 83 51 82 52 38 54 70 55 50 56
REMARK SMILES IDX 69 57 51 58 54 59 68 60 87 61 52 62 53 63 67 65 88 66 55 67
REMARK SMILES IDX 39 68 40 69 48 70 41 71 42 72 46 73 49 74 43 75 44 76 47 77
REMARK SMILES IDX 45 78 71 79 72 80 80 81 73 82 74 83 78 84 81 85 75 86 76 87
REMARK SMILES IDX 79 88 77 89 56 90 57 91 65 92 58 93 59 94 63 95 66 96 60 97
REMARK SMILES IDX 61 98 64 99 62 100
REMARK H PARENT 22 7 27 34 86 53 54 64
REMARK Flexibility Score: inf
ROOT
ATOM      1  C   UNL A   1      34.105  28.186  23.761  1.00  0.00     0.023 C 
ENDROOT
BRANCH   1   2
ATOM      2  C   UNL A   1      32.658  28.256  23.303  1.00  0.00     0.023 C 
BRANCH   2   3
ATOM      3  C   UNL A   1      32.389  27.178  22.276  1.00  0.00     0.116 C 
BRANCH   3   4
ATOM      4  N   UNL A   1      31.251  26.375  22.688  1.00  0.00    -0.352 N 
ATOM      5  C   UNL A   1      31.040  25.155  23.223  1.00  0.00     0.251 C 
ATOM      6  O   UNL A   1      29.857  24.826  23.347  1.00  0.00    -0.270 OA
ATOM      7  H   UNL A   1      30.403  26.852  22.536  1.00  0.00     0.163 HD
BRANCH   5   8
ATOM      8  C   UNL A   1      32.120  24.236  23.664  1.00  0.00     0.067 C 
ATOM      9  C   UNL A   1      35.135  21.598  24.898  1.00  0.00     0.026 A 
ATOM     10  C   UNL A   1      34.837  20.234  25.000  1.00  0.00     0.033 A 
ATOM     11  C   UNL A   1      34.138  22.447  24.390  1.00  0.00     0.135 A 
ATOM     12  C   UNL A   1      33.581  19.754  24.613  1.00  0.00     0.042 A 
ATOM     13  C   UNL A   1      32.875  21.978  24.017  1.00  0.00     0.019 A 
ATOM     14  O   UNL A   1      34.485  23.758  24.212  1.00  0.00    -0.475 OA
ATOM     15  Cl  UNL A   1      33.238  18.073  24.741  1.00  0.00    -0.084 Cl
ATOM     16  C   UNL A   1      32.598  20.617  24.125  1.00  0.00     0.032 A 
ATOM     17  C   UNL A   1      31.879  22.920  23.522  1.00  0.00     0.025 C 
ATOM     18  C   UNL A   1      33.404  24.710  24.273  1.00  0.00     0.314 C 
BRANCH   9  19
ATOM     19  C   UNL A   1      36.438  22.146  25.313  1.00  0.00    -0.012 A 
ATOM     20  C   UNL A   1      40.211  23.576  26.880  1.00  0.00     0.047 C 
ATOM     21  C   UNL A   1      38.903  23.104  26.325  1.00  0.00    -0.015 A 
ATOM     22  C   UNL A   1      37.760  23.911  26.356  1.00  0.00     0.007 A 
ATOM     23  C   UNL A   1      38.801  21.827  25.776  1.00  0.00     0.126 A 
ATOM     24  C   UNL A   1      36.542  23.436  25.855  1.00  0.00     0.009 A 
ATOM     25  C   UNL A   1      37.596  21.351  25.269  1.00  0.00     0.048 A 
ATOM     26  F   UNL A   1      39.875  21.024  25.751  1.00  0.00    -0.207 F 
ENDBRANCH   9  19
BRANCH  18  27
ATOM     27  C   UNL A   1      33.249  25.225  25.719  1.00  0.00     0.429 C 
ATOM     28  F   UNL A   1      34.386  25.842  26.127  1.00  0.00    -0.167 F 
ATOM     29  F   UNL A   1      32.255  26.134  25.852  1.00  0.00    -0.167 F 
ATOM     30  F   UNL A   1      32.987  24.232  26.599  1.00  0.00    -0.167 F 
ENDBRANCH  18  27
ENDBRANCH   5   8
ENDBRANCH   3   4
ENDBRANCH   2   3
ENDBRANCH   1   2
BRANCH   1  31
ATOM     31  C   UNL A   1      34.405  28.959  25.051  1.00  0.00     0.116 C 
BRANCH  31  32
ATOM     32  N   UNL A   1      33.296  29.630  25.720  1.00  0.00    -0.352 N 
ATOM     33  C   UNL A   1      33.201  30.618  26.675  1.00  0.00     0.251 C 
ATOM     34  H   UNL A   1      32.416  29.304  25.421  1.00  0.00     0.163 HD
ATOM     35  O   UNL A   1      32.129  31.185  26.825  1.00  0.00    -0.269 OA
BRANCH  33  36
ATOM     36  C   UNL A   1      34.285  30.858  27.652  1.00  0.00     0.039 A 
ATOM     37  C   UNL A   1      35.027  32.033  27.716  1.00  0.00     0.014 A 
ATOM     38  C   UNL A   1      34.690  29.734  28.382  1.00  0.00     0.014 A 
ATOM     39  C   UNL A   1      36.329  31.980  28.191  1.00  0.00     0.010 A 
ATOM     40  C   UNL A   1      35.953  29.708  28.944  1.00  0.00     0.010 A 
ATOM     41  C   UNL A   1      36.813  30.786  28.735  1.00  0.00    -0.014 A 
BRANCH  41  42
ATOM     42  C   UNL A   1      38.194  30.650  29.180  1.00  0.00     0.031 A 
ATOM     43  C   UNL A   1      38.931  29.418  28.823  1.00  0.00     0.074 A 
ATOM     44  C   UNL A   1      38.768  31.586  29.972  1.00  0.00     0.049 A 
ATOM     45  N   UNL A   1      39.858  28.883  29.544  1.00  0.00    -0.248 NA
ATOM     46  C   UNL A   1      38.579  28.615  27.655  1.00  0.00     0.031 C 
ATOM     47  C   UNL A   1      40.181  31.702  30.301  1.00  0.00     0.029 A 
ATOM     48  N   UNL A   1      38.151  32.563  30.775  1.00  0.00    -0.354 N 
ATOM     49  C   UNL A   1      40.436  27.885  28.788  1.00  0.00     0.074 A 
ATOM     50  C   UNL A   1      39.490  27.640  27.731  1.00  0.00     0.031 C 
ATOM     51  C   UNL A   1      40.322  32.484  31.384  1.00  0.00     0.029 A 
ATOM     52  C   UNL A   1      38.994  32.772  31.893  1.00  0.00     0.049 A 
ATOM     53  H   UNL A   1      37.296  33.015  30.594  1.00  0.00     0.167 HD
ATOM     54  C   UNL A   1      41.731  27.537  29.046  1.00  0.00     0.037 A 
ATOM     55  C   UNL A   1      38.598  32.544  33.186  1.00  0.00     0.037 A 
ATOM     56  C   UNL A   1      42.210  28.232  30.243  1.00  0.00     0.049 A 
ATOM     57  C   UNL A   1      39.425  31.519  33.903  1.00  0.00     0.074 A 
ATOM     58  C   UNL A   1      42.952  29.391  30.403  1.00  0.00     0.029 A 
ATOM     59  N   UNL A   1      41.667  27.931  31.487  1.00  0.00    -0.354 N 
ATOM     60  N   UNL A   1      40.124  30.615  33.282  1.00  0.00    -0.248 NA
ATOM     61  C   UNL A   1      39.516  31.409  35.354  1.00  0.00     0.031 C 
ATOM     62  C   UNL A   1      42.814  29.815  31.746  1.00  0.00     0.029 A 
ATOM     63  C   UNL A   1      42.016  28.900  32.409  1.00  0.00     0.049 A 
ATOM     64  H   UNL A   1      41.112  27.142  31.683  1.00  0.00     0.167 HD
ATOM     65  C   UNL A   1      40.769  29.831  34.197  1.00  0.00     0.074 A 
ATOM     66  C   UNL A   1      40.359  30.368  35.482  1.00  0.00     0.031 C 
ATOM     67  C   UNL A   1      41.588  28.815  33.799  1.00  0.00     0.037 A 
BRANCH  54  68
ATOM     68  C   UNL A   1      42.684  26.860  28.069  1.00  0.00     0.064 A 
ATOM     69  C   UNL A   1      43.252  27.603  27.006  1.00  0.00     0.173 A 
ATOM     70  C   UNL A   1      43.020  25.492  28.050  1.00  0.00     0.173 A 
ATOM     71  F   UNL A   1      43.112  28.934  26.927  1.00  0.00    -0.203 F 
ATOM     72  C   UNL A   1      43.990  27.014  25.973  1.00  0.00     0.198 A 
ATOM     73  C   UNL A   1      43.743  24.898  27.009  1.00  0.00     0.198 A 
ATOM     74  F   UNL A   1      42.710  24.668  29.051  1.00  0.00    -0.203 F 
ATOM     75  F   UNL A   1      44.470  27.777  24.980  1.00  0.00    -0.200 F 
ATOM     76  C   UNL A   1      44.216  25.656  25.961  1.00  0.00     0.200 A 
ATOM     77  F   UNL A   1      43.976  23.577  27.036  1.00  0.00    -0.200 F 
ATOM     78  F   UNL A   1      44.904  25.085  24.965  1.00  0.00    -0.200 F 
ENDBRANCH  54  68
BRANCH  55  79
ATOM     79  C   UNL A   1      37.143  32.753  33.431  1.00  0.00     0.064 A 
ATOM     80  C   UNL A   1      36.724  34.087  33.569  1.00  0.00     0.173 A 
ATOM     81  C   UNL A   1      36.289  31.856  32.788  1.00  0.00     0.173 A 
ATOM     82  F   UNL A   1      37.469  34.953  34.273  1.00  0.00    -0.203 F 
ATOM     83  C   UNL A   1      35.647  34.568  32.833  1.00  0.00     0.198 A 
ATOM     84  C   UNL A   1      35.310  32.371  31.954  1.00  0.00     0.198 A 
ATOM     85  F   UNL A   1      36.595  30.551  32.715  1.00  0.00    -0.203 F 
ATOM     86  F   UNL A   1      35.332  35.869  32.860  1.00  0.00    -0.200 F 
ATOM     87  C   UNL A   1      35.004  33.722  31.951  1.00  0.00     0.200 A 
ATOM     88  F   UNL A   1      34.778  31.582  31.021  1.00  0.00    -0.200 F 
ATOM     89  F   UNL A   1      34.137  34.215  31.056  1.00  0.00    -0.200 F 
ENDBRANCH  55  79
BRANCH  67  90
ATOM     90  C   UNL A   1      42.169  27.737  34.679  1.00  0.00     0.064 A 
ATOM     91  C   UNL A   1      41.536  26.513  34.948  1.00  0.00     0.173 A 
ATOM     92  C   UNL A   1      43.486  27.862  35.188  1.00  0.00     0.173 A 
ATOM     93  F   UNL A   1      40.350  26.204  34.410  1.00  0.00    -0.203 F 
ATOM     94  C   UNL A   1      42.137  25.527  35.736  1.00  0.00     0.198 A 
ATOM     95  C   UNL A   1      44.108  26.851  35.915  1.00  0.00     0.198 A 
ATOM     96  F   UNL A   1      44.225  28.960  34.971  1.00  0.00    -0.203 F 
ATOM     97  F   UNL A   1      41.466  24.400  36.009  1.00  0.00    -0.200 F 
ATOM     98  C   UNL A   1      43.425  25.691  36.210  1.00  0.00     0.200 A 
ATOM     99  F   UNL A   1      45.380  27.001  36.308  1.00  0.00    -0.200 F 
ATOM    100  F   UNL A   1      44.014  24.725  36.927  1.00  0.00    -0.200 F 
ENDBRANCH  67  90
ENDBRANCH  41  42
ENDBRANCH  33  36
ENDBRANCH  31  32
ENDBRANCH   1  31
TORSDOF 13
ENDMDL
MODEL 3
REMARK VINA RESULT:     -14.1      3.789      9.655
REMARK SMILES Cc1ccc(-c2cc(Cl)cc3c2O[C@H](C(F)(F)F)C(C(=O)NCCCCNC(=O)c2ccc(-c4c5nc(c(-c6c(F)c(F)c(F)c(F)c6F)c6ccc([nH]6)c(-c6c(F)c(F)c(F)c(F)c6F)c6nc(c(-c7c(F)c(F)c(F)c(F)c7F)c7ccc4[nH]7)C=C6)C=C5)cc2)=C3)cc1F
REMARK SMILES IDX 25 1 24 2 23 3 22 4 20 5 21 6 19 8 6 9 7 10 12 11 8 12 11 13
REMARK SMILES IDX 13 14 9 15 10 16 93 17 14 18 5 19 1 20 2 21 3 22 95 23 4 24
REMARK SMILES IDX 94 25 96 26 15 27 16 28 17 29 18 30 26 31 27 32 28 33 29 35
REMARK SMILES IDX 30 36 31 37 92 38 32 39 91 40 33 41 34 42 35 43 85 44 36 45
REMARK SMILES IDX 90 46 84 47 86 48 37 49 89 50 83 51 82 52 38 54 70 55 50 56
REMARK SMILES IDX 69 57 51 58 54 59 68 60 87 61 52 62 53 63 67 65 88 66 55 67
REMARK SMILES IDX 39 68 40 69 48 70 41 71 42 72 46 73 49 74 43 75 44 76 47 77
REMARK SMILES IDX 45 78 71 79 72 80 80 81 73 82 74 83 78 84 81 85 75 86 76 87
REMARK SMILES IDX 79 88 77 89 56 90 57 91 65 92 58 93 59 94 63 95 66 96 60 97
REMARK SMILES IDX 61 98 64 99 62 100
REMARK H PARENT 22 7 27 34 86 53 54 64
REMARK Flexibility Score: inf
ROOT
ATOM      1  C   UNL A   1      32.238  29.315  27.255  1.00  0.00     0.023 C 
ENDROOT
BRANCH   1   2
ATOM      2  C   UNL A   1      32.825  27.914  27.262  1.00  0.00     0.023 C 
BRANCH   2   3
ATOM      3  C   UNL A   1      31.952  26.984  26.448  1.00  0.00     0.116 C 
BRANCH   3   4
ATOM      4  N   UNL A   1      32.317  27.064  25.045  1.00  0.00    -0.352 N 
ATOM      5  C   UNL A   1      33.042  26.342  24.166  1.00  0.00     0.251 C 
ATOM      6  O   UNL A   1      33.158  26.835  23.041  1.00  0.00    -0.270 OA
ATOM      7  H   UNL A   1      31.929  27.862  24.619  1.00  0.00     0.163 HD
BRANCH   5   8
ATOM      8  C   UNL A   1      33.666  25.030  24.475  1.00  0.00     0.067 C 
ATOM      9  C   UNL A   1      35.478  21.355  25.361  1.00  0.00     0.026 A 
ATOM     10  C   UNL A   1      36.852  21.327  25.627  1.00  0.00     0.033 A 
ATOM     11  C   UNL A   1      34.877  22.609  25.163  1.00  0.00     0.135 A 
ATOM     12  C   UNL A   1      37.585  22.518  25.682  1.00  0.00     0.042 A 
ATOM     13  C   UNL A   1      35.606  23.802  25.198  1.00  0.00     0.019 A 
ATOM     14  O   UNL A   1      33.519  22.617  24.997  1.00  0.00    -0.475 OA
ATOM     15  Cl  UNL A   1      39.272  22.462  26.017  1.00  0.00    -0.084 Cl
ATOM     16  C   UNL A   1      36.971  23.754  25.467  1.00  0.00     0.032 A 
ATOM     17  C   UNL A   1      34.921  25.066  24.958  1.00  0.00     0.025 C 
ATOM     18  C   UNL A   1      32.982  23.719  24.239  1.00  0.00     0.314 C 
BRANCH   9  19
ATOM     19  C   UNL A   1      34.674  20.123  25.274  1.00  0.00    -0.012 A 
ATOM     20  C   UNL A   1      32.209  16.619  24.658  1.00  0.00     0.047 C 
ATOM     21  C   UNL A   1      33.055  17.832  24.897  1.00  0.00    -0.015 A 
ATOM     22  C   UNL A   1      32.563  18.944  25.590  1.00  0.00     0.007 A 
ATOM     23  C   UNL A   1      34.360  17.876  24.408  1.00  0.00     0.126 A 
ATOM     24  C   UNL A   1      33.365  20.076  25.776  1.00  0.00     0.009 A 
ATOM     25  C   UNL A   1      35.165  18.994  24.597  1.00  0.00     0.048 A 
ATOM     26  F   UNL A   1      34.851  16.833  23.724  1.00  0.00    -0.207 F 
ENDBRANCH   9  19
BRANCH  18  27
ATOM     27  C   UNL A   1      32.894  23.328  22.749  1.00  0.00     0.429 C 
ATOM     28  F   UNL A   1      31.963  24.084  22.116  1.00  0.00    -0.167 F 
ATOM     29  F   UNL A   1      34.056  23.519  22.082  1.00  0.00    -0.167 F 
ATOM     30  F   UNL A   1      32.553  22.031  22.571  1.00  0.00    -0.167 F 
ENDBRANCH  18  27
ENDBRANCH   5   8
ENDBRANCH   3   4
ENDBRANCH   2   3
ENDBRANCH   1   2
BRANCH   1  31
ATOM     31  C   UNL A   1      33.256  30.434  27.009  1.00  0.00     0.116 C 
BRANCH  31  32
ATOM     32  N   UNL A   1      33.722  31.200  28.161  1.00  0.00    -0.352 N 
ATOM     33  C   UNL A   1      34.939  31.353  28.789  1.00  0.00     0.251 C 
ATOM     34  H   UNL A   1      33.006  31.725  28.585  1.00  0.00     0.163 HD
ATOM     35  O   UNL A   1      35.087  32.294  29.554  1.00  0.00    -0.269 OA
BRANCH  33  36
ATOM     36  C   UNL A   1      35.980  30.305  28.727  1.00  0.00     0.039 A 
ATOM     37  C   UNL A   1      36.391  29.552  29.821  1.00  0.00     0.014 A 
ATOM     38  C   UNL A   1      36.711  30.260  27.533  1.00  0.00     0.014 A 
ATOM     39  C   UNL A   1      37.689  29.062  29.852  1.00  0.00     0.010 A 
ATOM     40  C   UNL A   1      37.968  29.687  27.528  1.00  0.00     0.010 A 
ATOM     41  C   UNL A   1      38.502  29.203  28.723  1.00  0.00    -0.014 A 
BRANCH  41  42
ATOM     42  C   UNL A   1      39.895  28.776  28.722  1.00  0.00     0.031 A 
ATOM     43  C   UNL A   1      40.197  27.356  28.440  1.00  0.00     0.074 A 
ATOM     44  C   UNL A   1      40.888  29.634  29.052  1.00  0.00     0.049 A 
ATOM     45  N   UNL A   1      41.199  26.708  28.929  1.00  0.00    -0.248 NA
ATOM     46  C   UNL A   1      39.294  26.510  27.662  1.00  0.00     0.031 C 
ATOM     47  C   UNL A   1      42.317  29.423  28.877  1.00  0.00     0.029 A 
ATOM     48  N   UNL A   1      40.809  30.845  29.764  1.00  0.00    -0.354 N 
ATOM     49  C   UNL A   1      41.256  25.494  28.278  1.00  0.00     0.074 A 
ATOM     50  C   UNL A   1      39.962  25.353  27.665  1.00  0.00     0.031 C 
ATOM     51  C   UNL A   1      42.992  30.291  29.648  1.00  0.00     0.029 A 
ATOM     52  C   UNL A   1      42.024  30.988  30.475  1.00  0.00     0.049 A 
ATOM     53  H   UNL A   1      40.052  31.474  29.767  1.00  0.00     0.167 HD
ATOM     54  C   UNL A   1      42.463  24.860  28.181  1.00  0.00     0.037 A 
ATOM     55  C   UNL A   1      42.091  31.063  31.842  1.00  0.00     0.037 A 
ATOM     56  C   UNL A   1      43.470  25.573  28.970  1.00  0.00     0.049 A 
ATOM     57  C   UNL A   1      42.907  29.974  32.473  1.00  0.00     0.074 A 
ATOM     58  C   UNL A   1      44.429  26.507  28.614  1.00  0.00     0.029 A 
ATOM     59  N   UNL A   1      43.371  25.611  30.356  1.00  0.00    -0.354 N 
ATOM     60  N   UNL A   1      43.141  28.838  31.885  1.00  0.00    -0.248 NA
ATOM     61  C   UNL A   1      43.498  30.058  33.803  1.00  0.00     0.031 C 
ATOM     62  C   UNL A   1      44.876  27.145  29.797  1.00  0.00     0.029 A 
ATOM     63  C   UNL A   1      44.213  26.578  30.871  1.00  0.00     0.049 A 
ATOM     64  H   UNL A   1      42.784  25.032  30.894  1.00  0.00     0.167 HD
ATOM     65  C   UNL A   1      43.911  28.055  32.700  1.00  0.00     0.074 A 
ATOM     66  C   UNL A   1      44.110  28.863  33.890  1.00  0.00     0.031 C 
ATOM     67  C   UNL A   1      44.314  26.813  32.305  1.00  0.00     0.037 A 
BRANCH  54  68
ATOM     68  C   UNL A   1      42.843  23.821  27.134  1.00  0.00     0.064 A 
ATOM     69  C   UNL A   1      42.533  22.456  27.349  1.00  0.00     0.173 A 
ATOM     70  C   UNL A   1      43.575  24.059  25.954  1.00  0.00     0.173 A 
ATOM     71  F   UNL A   1      41.762  22.065  28.373  1.00  0.00    -0.203 F 
ATOM     72  C   UNL A   1      43.003  21.428  26.523  1.00  0.00     0.198 A 
ATOM     73  C   UNL A   1      44.059  23.032  25.136  1.00  0.00     0.198 A 
ATOM     74  F   UNL A   1      43.821  25.290  25.505  1.00  0.00    -0.203 F 
ATOM     75  F   UNL A   1      42.696  20.154  26.807  1.00  0.00    -0.200 F 
ATOM     76  C   UNL A   1      43.787  21.714  25.428  1.00  0.00     0.200 A 
ATOM     77  F   UNL A   1      44.797  23.338  24.058  1.00  0.00    -0.200 F 
ATOM     78  F   UNL A   1      44.255  20.734  24.646  1.00  0.00    -0.200 F 
ENDBRANCH  54  68
BRANCH  55  79
ATOM     79  C   UNL A   1      40.897  31.680  32.485  1.00  0.00     0.064 A 
ATOM     80  C   UNL A   1      40.010  30.795  33.122  1.00  0.00     0.173 A 
ATOM     81  C   UNL A   1      41.103  32.935  33.060  1.00  0.00     0.173 A 
ATOM     82  F   UNL A   1      39.704  29.623  32.544  1.00  0.00    -0.203 F 
ATOM     83  C   UNL A   1      39.591  31.033  34.426  1.00  0.00     0.198 A 
ATOM     84  C   UNL A   1      40.797  33.096  34.401  1.00  0.00     0.198 A 
ATOM     85  F   UNL A   1      41.863  33.854  32.444  1.00  0.00    -0.203 F 
ATOM     86  F   UNL A   1      38.856  30.125  35.080  1.00  0.00    -0.200 F 
ATOM     87  C   UNL A   1      40.069  32.142  35.094  1.00  0.00     0.200 A 
ATOM     88  F   UNL A   1      41.359  34.100  35.074  1.00  0.00    -0.200 F 
ATOM     89  F   UNL A   1      39.885  32.263  36.416  1.00  0.00    -0.200 F 
ENDBRANCH  55  79
BRANCH  67  90
ATOM     90  C   UNL A   1      44.954  25.761  33.175  1.00  0.00     0.064 A 
ATOM     91  C   UNL A   1      46.319  25.434  33.141  1.00  0.00     0.173 A 
ATOM     92  C   UNL A   1      44.204  25.122  34.194  1.00  0.00     0.173 A 
ATOM     93  F   UNL A   1      47.171  26.067  32.325  1.00  0.00    -0.203 F 
ATOM     94  C   UNL A   1      46.873  24.480  33.999  1.00  0.00     0.198 A 
ATOM     95  C   UNL A   1      44.774  24.223  35.092  1.00  0.00     0.198 A 
ATOM     96  F   UNL A   1      42.898  25.371  34.371  1.00  0.00    -0.203 F 
ATOM     97  F   UNL A   1      48.170  24.164  33.887  1.00  0.00    -0.200 F 
ATOM     98  C   UNL A   1      46.105  23.884  34.980  1.00  0.00     0.200 A 
ATOM     99  F   UNL A   1      44.027  23.706  36.078  1.00  0.00    -0.200 F 
ATOM    100  F   UNL A   1      46.650  23.003  35.830  1.00  0.00    -0.200 F 
ENDBRANCH  67  90
ENDBRANCH  41  42
ENDBRANCH  33  36
ENDBRANCH  31  32
ENDBRANCH   1  31
TORSDOF 13
ENDMDL
