MODEL 1
REMARK VINA RESULT:     -12.7      0.000      0.000
REMARK SMILES CC(C)C(=O)Nc1ccc(NC(=O)[C@@H]2[C@@H](C(=O)NCCCCNC(=O)c3ccc(-c4c5nc(c(-c6c(F)c(F)c(F)c(F)c6F)c6ccc([nH]6)c(-c6c(F)c(F)c(F)c(F)c6F)c6nc(c(-c7c(F)c(F)c(F)c(F)c7F)c7ccc4[nH]7)C=C6)C=C5)cc3)C2(C)C)cc1Cl
REMARK SMILES IDX 19 1 18 2 16 3 17 4 15 6 14 7 89 8 90 9 91 10 12 11 11 12
REMARK SMILES IDX 13 14 10 15 7 16 8 17 93 18 9 19 92 20 94 21 6 22 4 23 5 24
REMARK SMILES IDX 2 26 1 27 3 28 20 29 21 30 22 31 23 32 24 33 25 35 26 36
REMARK SMILES IDX 27 37 88 38 28 39 87 40 29 41 30 42 31 43 81 44 32 45 86 46
REMARK SMILES IDX 80 47 82 48 33 49 85 50 79 51 78 52 34 54 66 55 46 56 65 57
REMARK SMILES IDX 47 58 50 59 64 60 83 61 48 62 49 63 63 65 84 66 51 67 35 68
REMARK SMILES IDX 36 69 44 70 37 71 38 72 42 73 45 74 39 75 40 76 43 77 41 78
REMARK SMILES IDX 67 79 68 80 76 81 69 82 70 83 74 84 77 85 71 86 72 87 75 88
REMARK SMILES IDX 73 89 52 90 53 91 61 92 54 93 55 94 59 95 62 96 56 97 57 98
REMARK SMILES IDX 60 99 58 100
REMARK H PARENT 18 5 11 13 6 25 23 34 82 53 50 64
REMARK Flexibility Score: inf
ROOT
ATOM      1  C   UNL A   1      31.980  29.902  25.496  1.00  0.00     0.116 C 
ENDROOT
BRANCH   1   2
ATOM      2  N   UNL A   1      31.001  30.404  24.563  1.00  0.00    -0.356 N 
ATOM      3  C   UNL A   1      30.406  29.891  23.447  1.00  0.00     0.224 C 
ATOM      4  O   UNL A   1      29.668  30.661  22.829  1.00  0.00    -0.275 OA
ATOM      5  H   UNL A   1      30.694  31.315  24.777  1.00  0.00     0.163 HD
BRANCH   3   6
ATOM      6  C   UNL A   1      30.463  28.482  22.959  1.00  0.00     0.098 C 
ATOM      7  C   UNL A   1      30.241  27.414  24.001  1.00  0.00     0.098 C 
ATOM      8  C   UNL A   1      31.418  27.309  23.021  1.00  0.00    -0.011 C 
ATOM      9  C   UNL A   1      32.839  27.470  23.472  1.00  0.00     0.013 C 
ATOM     10  C   UNL A   1      31.319  26.316  21.873  1.00  0.00     0.013 C 
BRANCH   7  11
ATOM     11  C   UNL A   1      29.258  26.312  24.154  1.00  0.00     0.228 C 
ATOM     12  N   UNL A   1      29.483  25.037  24.597  1.00  0.00    -0.326 N 
ATOM     13  H   UNL A   1      28.650  24.535  24.749  1.00  0.00     0.169 HD
ATOM     14  O   UNL A   1      28.080  26.606  23.934  1.00  0.00    -0.274 OA
BRANCH  12  15
ATOM     15  C   UNL A   1      30.622  24.288  24.882  1.00  0.00     0.042 A 
ATOM     16  C   UNL A   1      32.763  22.570  25.403  1.00  0.00     0.060 A 
ATOM     17  C   UNL A   1      32.412  23.556  26.322  1.00  0.00     0.030 A 
ATOM     18  C   UNL A   1      32.036  22.434  24.216  1.00  0.00     0.066 A 
ATOM     19  C   UNL A   1      31.387  24.453  26.026  1.00  0.00     0.028 A 
ATOM     20  C   UNL A   1      30.988  23.314  23.944  1.00  0.00     0.048 A 
ATOM     21  Cl  UNL A   1      32.407  21.214  23.051  1.00  0.00    -0.082 Cl
BRANCH  16  22
ATOM     22  N   UNL A   1      33.838  21.735  25.715  1.00  0.00    -0.325 N 
ATOM     23  C   UNL A   1      35.163  21.996  25.507  1.00  0.00     0.226 C 
ATOM     24  O   UNL A   1      35.989  21.351  26.161  1.00  0.00    -0.274 OA
ATOM     25  H   UNL A   1      33.618  20.869  26.129  1.00  0.00     0.169 HD
BRANCH  23  26
ATOM     26  C   UNL A   1      35.630  23.017  24.461  1.00  0.00     0.072 C 
ATOM     27  C   UNL A   1      35.924  24.392  25.055  1.00  0.00     0.018 C 
ATOM     28  C   UNL A   1      36.761  22.543  23.559  1.00  0.00     0.018 C 
ENDBRANCH  23  26
ENDBRANCH  16  22
ENDBRANCH  12  15
ENDBRANCH   7  11
ENDBRANCH   3   6
ENDBRANCH   1   2
BRANCH   1  29
ATOM     29  C   UNL A   1      31.778  30.518  26.879  1.00  0.00     0.023 C 
BRANCH  29  30
ATOM     30  C   UNL A   1      31.536  32.023  26.870  1.00  0.00     0.023 C 
BRANCH  30  31
ATOM     31  C   UNL A   1      32.761  32.870  27.176  1.00  0.00     0.116 C 
BRANCH  31  32
ATOM     32  N   UNL A   1      32.433  34.207  27.649  1.00  0.00    -0.352 N 
ATOM     33  C   UNL A   1      33.017  34.928  28.659  1.00  0.00     0.251 C 
ATOM     34  H   UNL A   1      31.691  34.654  27.181  1.00  0.00     0.163 HD
ATOM     35  O   UNL A   1      32.542  36.001  29.018  1.00  0.00    -0.269 OA
BRANCH  33  36
ATOM     36  C   UNL A   1      34.204  34.375  29.336  1.00  0.00     0.039 A 
ATOM     37  C   UNL A   1      34.022  33.523  30.426  1.00  0.00     0.014 A 
ATOM     38  C   UNL A   1      35.487  34.655  28.857  1.00  0.00     0.014 A 
ATOM     39  C   UNL A   1      35.130  32.901  30.998  1.00  0.00     0.010 A 
ATOM     40  C   UNL A   1      36.575  33.959  29.362  1.00  0.00     0.010 A 
ATOM     41  C   UNL A   1      36.410  33.085  30.448  1.00  0.00    -0.014 A 
BRANCH  41  42
ATOM     42  C   UNL A   1      37.590  32.390  31.016  1.00  0.00     0.031 A 
ATOM     43  C   UNL A   1      38.102  32.775  32.377  1.00  0.00     0.074 A 
ATOM     44  C   UNL A   1      38.217  31.443  30.294  1.00  0.00     0.049 A 
ATOM     45  N   UNL A   1      39.126  32.301  33.040  1.00  0.00    -0.248 NA
ATOM     46  C   UNL A   1      37.390  33.860  33.073  1.00  0.00     0.031 C 
ATOM     47  C   UNL A   1      37.855  31.035  28.934  1.00  0.00     0.029 A 
ATOM     48  N   UNL A   1      39.293  30.648  30.602  1.00  0.00    -0.354 N 
ATOM     49  C   UNL A   1      39.176  33.025  34.223  1.00  0.00     0.074 A 
ATOM     50  C   UNL A   1      38.136  34.026  34.155  1.00  0.00     0.031 C 
ATOM     51  C   UNL A   1      38.675  30.048  28.538  1.00  0.00     0.029 A 
ATOM     52  C   UNL A   1      39.635  29.772  29.602  1.00  0.00     0.049 A 
ATOM     53  H   UNL A   1      39.773  30.702  31.459  1.00  0.00     0.167 HD
ATOM     54  C   UNL A   1      39.989  32.846  35.291  1.00  0.00     0.037 A 
ATOM     55  C   UNL A   1      40.613  28.847  29.554  1.00  0.00     0.037 A 
ATOM     56  C   UNL A   1      41.013  31.839  35.363  1.00  0.00     0.049 A 
ATOM     57  C   UNL A   1      41.492  28.659  30.761  1.00  0.00     0.074 A 
ATOM     58  C   UNL A   1      41.880  31.557  36.403  1.00  0.00     0.029 A 
ATOM     59  N   UNL A   1      41.302  30.940  34.346  1.00  0.00    -0.354 N 
ATOM     60  N   UNL A   1      41.487  29.308  31.902  1.00  0.00    -0.248 NA
ATOM     61  C   UNL A   1      42.498  27.593  30.684  1.00  0.00     0.031 C 
ATOM     62  C   UNL A   1      42.717  30.510  36.004  1.00  0.00     0.029 A 
ATOM     63  C   UNL A   1      42.337  30.104  34.735  1.00  0.00     0.049 A 
ATOM     64  H   UNL A   1      40.841  30.902  33.477  1.00  0.00     0.167 HD
ATOM     65  C   UNL A   1      42.465  28.711  32.685  1.00  0.00     0.074 A 
ATOM     66  C   UNL A   1      43.024  27.630  31.900  1.00  0.00     0.031 C 
ATOM     67  C   UNL A   1      42.869  29.027  33.940  1.00  0.00     0.037 A 
BRANCH  54  68
ATOM     68  C   UNL A   1      39.781  33.745  36.477  1.00  0.00     0.064 A 
ATOM     69  C   UNL A   1      40.418  34.993  36.566  1.00  0.00     0.173 A 
ATOM     70  C   UNL A   1      38.916  33.375  37.516  1.00  0.00     0.173 A 
ATOM     71  F   UNL A   1      41.269  35.387  35.608  1.00  0.00    -0.203 F 
ATOM     72  C   UNL A   1      40.219  35.823  37.666  1.00  0.00     0.198 A 
ATOM     73  C   UNL A   1      38.693  34.223  38.599  1.00  0.00     0.198 A 
ATOM     74  F   UNL A   1      38.280  32.194  37.481  1.00  0.00    -0.203 F 
ATOM     75  F   UNL A   1      40.880  36.987  37.753  1.00  0.00    -0.200 F 
ATOM     76  C   UNL A   1      39.351  35.442  38.676  1.00  0.00     0.200 A 
ATOM     77  F   UNL A   1      37.845  33.859  39.570  1.00  0.00    -0.200 F 
ATOM     78  F   UNL A   1      39.152  36.247  39.730  1.00  0.00    -0.200 F 
ENDBRANCH  54  68
BRANCH  55  79
ATOM     79  C   UNL A   1      40.794  28.010  28.339  1.00  0.00     0.064 A 
ATOM     80  C   UNL A   1      40.175  26.757  28.224  1.00  0.00     0.173 A 
ATOM     81  C   UNL A   1      41.613  28.430  27.281  1.00  0.00     0.173 A 
ATOM     82  F   UNL A   1      39.394  26.302  29.215  1.00  0.00    -0.203 F 
ATOM     83  C   UNL A   1      40.397  25.941  27.116  1.00  0.00     0.198 A 
ATOM     84  C   UNL A   1      41.808  27.628  26.159  1.00  0.00     0.198 A 
ATOM     85  F   UNL A   1      42.221  29.624  27.336  1.00  0.00    -0.203 F 
ATOM     86  F   UNL A   1      39.843  24.722  27.062  1.00  0.00    -0.200 F 
ATOM     87  C   UNL A   1      41.211  26.379  26.082  1.00  0.00     0.200 A 
ATOM     88  F   UNL A   1      42.581  28.062  25.154  1.00  0.00    -0.200 F 
ATOM     89  F   UNL A   1      41.428  25.593  25.019  1.00  0.00    -0.200 F 
ENDBRANCH  55  79
BRANCH  67  90
ATOM     90  C   UNL A   1      43.935  28.164  34.550  1.00  0.00     0.064 A 
ATOM     91  C   UNL A   1      43.625  26.985  35.245  1.00  0.00     0.173 A 
ATOM     92  C   UNL A   1      45.287  28.519  34.431  1.00  0.00     0.173 A 
ATOM     93  F   UNL A   1      42.345  26.608  35.397  1.00  0.00    -0.203 F 
ATOM     94  C   UNL A   1      44.624  26.220  35.837  1.00  0.00     0.198 A 
ATOM     95  C   UNL A   1      46.288  27.732  34.994  1.00  0.00     0.198 A 
ATOM     96  F   UNL A   1      45.639  29.631  33.767  1.00  0.00    -0.203 F 
ATOM     97  F   UNL A   1      44.299  25.135  36.555  1.00  0.00    -0.200 F 
ATOM     98  C   UNL A   1      45.955  26.591  35.708  1.00  0.00     0.200 A 
ATOM     99  F   UNL A   1      47.574  28.084  34.854  1.00  0.00    -0.200 F 
ATOM    100  F   UNL A   1      46.916  25.854  36.280  1.00  0.00    -0.200 F 
ENDBRANCH  67  90
ENDBRANCH  41  42
ENDBRANCH  33  36
ENDBRANCH  31  32
ENDBRANCH  30  31
ENDBRANCH  29  30
ENDBRANCH   1  29
TORSDOF 15
ENDMDL
MODEL 2
REMARK VINA RESULT:     -12.5      1.359      2.347
REMARK SMILES CC(C)C(=O)Nc1ccc(NC(=O)[C@@H]2[C@@H](C(=O)NCCCCNC(=O)c3ccc(-c4c5nc(c(-c6c(F)c(F)c(F)c(F)c6F)c6ccc([nH]6)c(-c6c(F)c(F)c(F)c(F)c6F)c6nc(c(-c7c(F)c(F)c(F)c(F)c7F)c7ccc4[nH]7)C=C6)C=C5)cc3)C2(C)C)cc1Cl
REMARK SMILES IDX 19 1 18 2 16 3 17 4 15 6 14 7 89 8 90 9 91 10 12 11 11 12
REMARK SMILES IDX 13 14 10 15 7 16 8 17 93 18 9 19 92 20 94 21 6 22 4 23 5 24
REMARK SMILES IDX 2 26 1 27 3 28 20 29 21 30 22 31 23 32 24 33 25 35 26 36
REMARK SMILES IDX 27 37 88 38 28 39 87 40 29 41 30 42 31 43 81 44 32 45 86 46
REMARK SMILES IDX 80 47 82 48 33 49 85 50 79 51 78 52 34 54 66 55 46 56 65 57
REMARK SMILES IDX 47 58 50 59 64 60 83 61 48 62 49 63 63 65 84 66 51 67 35 68
REMARK SMILES IDX 36 69 44 70 37 71 38 72 42 73 45 74 39 75 40 76 43 77 41 78
REMARK SMILES IDX 67 79 68 80 76 81 69 82 70 83 74 84 77 85 71 86 72 87 75 88
REMARK SMILES IDX 73 89 52 90 53 91 61 92 54 93 55 94 59 95 62 96 56 97 57 98
REMARK SMILES IDX 60 99 58 100
REMARK H PARENT 18 5 11 13 6 25 23 34 82 53 50 64
REMARK Flexibility Score: inf
ROOT
ATOM      1  C   UNL A   1      32.531  29.833  26.656  1.00  0.00     0.116 C 
ENDROOT
BRANCH   1   2
ATOM      2  N   UNL A   1      32.234  28.482  27.065  1.00  0.00    -0.356 N 
ATOM      3  C   UNL A   1      31.745  27.384  26.420  1.00  0.00     0.224 C 
ATOM      4  O   UNL A   1      31.524  26.399  27.128  1.00  0.00    -0.275 OA
ATOM      5  H   UNL A   1      32.426  28.315  28.016  1.00  0.00     0.163 HD
BRANCH   3   6
ATOM      6  C   UNL A   1      31.553  27.208  24.950  1.00  0.00     0.098 C 
ATOM      7  C   UNL A   1      32.628  27.797  24.071  1.00  0.00     0.098 C 
ATOM      8  C   UNL A   1      31.147  28.053  23.761  1.00  0.00    -0.011 C 
ATOM      9  C   UNL A   1      30.527  29.407  23.930  1.00  0.00     0.013 C 
ATOM     10  C   UNL A   1      30.507  27.300  22.605  1.00  0.00     0.013 C 
BRANCH   7  11
ATOM     11  C   UNL A   1      33.548  27.232  23.051  1.00  0.00     0.228 C 
ATOM     12  N   UNL A   1      33.801  25.914  22.783  1.00  0.00    -0.326 N 
ATOM     13  H   UNL A   1      34.337  25.789  21.966  1.00  0.00     0.169 HD
ATOM     14  O   UNL A   1      34.086  28.048  22.299  1.00  0.00    -0.274 OA
BRANCH  12  15
ATOM     15  C   UNL A   1      33.475  24.710  23.401  1.00  0.00     0.042 A 
ATOM     16  C   UNL A   1      32.592  22.303  24.511  1.00  0.00     0.060 A 
ATOM     17  C   UNL A   1      33.078  23.320  25.330  1.00  0.00     0.030 A 
ATOM     18  C   UNL A   1      32.539  22.490  23.126  1.00  0.00     0.066 A 
ATOM     19  C   UNL A   1      33.580  24.491  24.766  1.00  0.00     0.028 A 
ATOM     20  C   UNL A   1      33.011  23.680  22.572  1.00  0.00     0.048 A 
ATOM     21  Cl  UNL A   1      31.923  21.276  22.063  1.00  0.00    -0.082 Cl
BRANCH  16  22
ATOM     22  N   UNL A   1      32.159  21.122  25.119  1.00  0.00    -0.325 N 
ATOM     23  C   UNL A   1      32.903  20.000  25.346  1.00  0.00     0.226 C 
ATOM     24  O   UNL A   1      32.505  19.206  26.204  1.00  0.00    -0.274 OA
ATOM     25  H   UNL A   1      31.220  21.097  25.414  1.00  0.00     0.169 HD
BRANCH  23  26
ATOM     26  C   UNL A   1      34.167  19.690  24.532  1.00  0.00     0.072 C 
ATOM     27  C   UNL A   1      35.409  20.405  25.060  1.00  0.00     0.018 C 
ATOM     28  C   UNL A   1      34.432  18.211  24.292  1.00  0.00     0.018 C 
ENDBRANCH  23  26
ENDBRANCH  16  22
ENDBRANCH  12  15
ENDBRANCH   7  11
ENDBRANCH   3   6
ENDBRANCH   1   2
BRANCH   1  29
ATOM     29  C   UNL A   1      31.314  30.737  26.837  1.00  0.00     0.023 C 
BRANCH  29  30
ATOM     30  C   UNL A   1      31.556  32.200  26.486  1.00  0.00     0.023 C 
BRANCH  30  31
ATOM     31  C   UNL A   1      32.700  32.858  27.240  1.00  0.00     0.116 C 
BRANCH  31  32
ATOM     32  N   UNL A   1      32.396  34.211  27.683  1.00  0.00    -0.352 N 
ATOM     33  C   UNL A   1      33.005  34.951  28.664  1.00  0.00     0.251 C 
ATOM     34  H   UNL A   1      31.652  34.655  27.215  1.00  0.00     0.163 HD
ATOM     35  O   UNL A   1      32.550  36.039  29.001  1.00  0.00    -0.269 OA
BRANCH  33  36
ATOM     36  C   UNL A   1      34.196  34.401  29.337  1.00  0.00     0.039 A 
ATOM     37  C   UNL A   1      34.025  33.645  30.496  1.00  0.00     0.014 A 
ATOM     38  C   UNL A   1      35.468  34.588  28.788  1.00  0.00     0.014 A 
ATOM     39  C   UNL A   1      35.130  33.021  31.073  1.00  0.00     0.010 A 
ATOM     40  C   UNL A   1      36.548  33.886  29.305  1.00  0.00     0.010 A 
ATOM     41  C   UNL A   1      36.393  33.107  30.461  1.00  0.00    -0.014 A 
BRANCH  41  42
ATOM     42  C   UNL A   1      37.566  32.407  31.038  1.00  0.00     0.031 A 
ATOM     43  C   UNL A   1      38.069  32.787  32.404  1.00  0.00     0.074 A 
ATOM     44  C   UNL A   1      38.197  31.461  30.318  1.00  0.00     0.049 A 
ATOM     45  N   UNL A   1      39.086  32.309  33.074  1.00  0.00    -0.248 NA
ATOM     46  C   UNL A   1      37.353  33.872  33.097  1.00  0.00     0.031 C 
ATOM     47  C   UNL A   1      37.846  31.058  28.954  1.00  0.00     0.029 A 
ATOM     48  N   UNL A   1      39.269  30.663  30.633  1.00  0.00    -0.354 N 
ATOM     49  C   UNL A   1      39.128  33.030  34.260  1.00  0.00     0.074 A 
ATOM     50  C   UNL A   1      38.090  34.033  34.185  1.00  0.00     0.031 C 
ATOM     51  C   UNL A   1      38.667  30.070  28.562  1.00  0.00     0.029 A 
ATOM     52  C   UNL A   1      39.617  29.789  29.633  1.00  0.00     0.049 A 
ATOM     53  H   UNL A   1      39.742  30.713  31.494  1.00  0.00     0.167 HD
ATOM     54  C   UNL A   1      39.931  32.846  35.334  1.00  0.00     0.037 A 
ATOM     55  C   UNL A   1      40.593  28.862  29.591  1.00  0.00     0.037 A 
ATOM     56  C   UNL A   1      40.952  31.836  35.411  1.00  0.00     0.049 A 
ATOM     57  C   UNL A   1      41.462  28.668  30.804  1.00  0.00     0.074 A 
ATOM     58  C   UNL A   1      41.810  31.550  36.457  1.00  0.00     0.029 A 
ATOM     59  N   UNL A   1      41.248  30.939  34.394  1.00  0.00    -0.354 N 
ATOM     60  N   UNL A   1      41.449  29.314  31.947  1.00  0.00    -0.248 NA
ATOM     61  C   UNL A   1      42.467  27.600  30.732  1.00  0.00     0.031 C 
ATOM     62  C   UNL A   1      42.648  30.501  36.062  1.00  0.00     0.029 A 
ATOM     63  C   UNL A   1      42.277  30.100  34.789  1.00  0.00     0.049 A 
ATOM     64  H   UNL A   1      40.794  30.905  33.521  1.00  0.00     0.167 HD
ATOM     65  C   UNL A   1      42.419  28.712  32.736  1.00  0.00     0.074 A 
ATOM     66  C   UNL A   1      42.982  27.633  31.952  1.00  0.00     0.031 C 
ATOM     67  C   UNL A   1      42.814  29.024  33.995  1.00  0.00     0.037 A 
BRANCH  54  68
ATOM     68  C   UNL A   1      39.715  33.742  36.520  1.00  0.00     0.064 A 
ATOM     69  C   UNL A   1      38.882  33.357  37.582  1.00  0.00     0.173 A 
ATOM     70  C   UNL A   1      40.367  34.980  36.614  1.00  0.00     0.173 A 
ATOM     71  F   UNL A   1      38.221  32.191  37.534  1.00  0.00    -0.203 F 
ATOM     72  C   UNL A   1      38.688  34.191  38.681  1.00  0.00     0.198 A 
ATOM     73  C   UNL A   1      40.196  35.796  37.730  1.00  0.00     0.198 A 
ATOM     74  F   UNL A   1      41.175  35.397  35.628  1.00  0.00    -0.203 F 
ATOM     75  F   UNL A   1      37.846  33.823  39.657  1.00  0.00    -0.200 F 
ATOM     76  C   UNL A   1      39.351  35.404  38.758  1.00  0.00     0.200 A 
ATOM     77  F   UNL A   1      40.847  36.965  37.809  1.00  0.00    -0.200 F 
ATOM     78  F   UNL A   1      39.172  36.202  39.820  1.00  0.00    -0.200 F 
ENDBRANCH  54  68
BRANCH  55  79
ATOM     79  C   UNL A   1      40.783  28.027  28.374  1.00  0.00     0.064 A 
ATOM     80  C   UNL A   1      40.177  26.769  28.258  1.00  0.00     0.173 A 
ATOM     81  C   UNL A   1      41.597  28.457  27.316  1.00  0.00     0.173 A 
ATOM     82  F   UNL A   1      39.401  26.304  29.250  1.00  0.00    -0.203 F 
ATOM     83  C   UNL A   1      40.407  25.956  27.149  1.00  0.00     0.198 A 
ATOM     84  C   UNL A   1      41.800  27.658  26.193  1.00  0.00     0.198 A 
ATOM     85  F   UNL A   1      42.192  29.657  27.372  1.00  0.00    -0.203 F 
ATOM     86  F   UNL A   1      39.865  24.732  27.095  1.00  0.00    -0.200 F 
ATOM     87  C   UNL A   1      41.216  26.403  26.116  1.00  0.00     0.200 A 
ATOM     88  F   UNL A   1      42.568  28.102  25.189  1.00  0.00    -0.200 F 
ATOM     89  F   UNL A   1      41.440  25.621  25.052  1.00  0.00    -0.200 F 
ENDBRANCH  55  79
BRANCH  67  90
ATOM     90  C   UNL A   1      43.873  28.157  34.612  1.00  0.00     0.064 A 
ATOM     91  C   UNL A   1      45.229  28.513  34.586  1.00  0.00     0.173 A 
ATOM     92  C   UNL A   1      43.522  26.954  35.244  1.00  0.00     0.173 A 
ATOM     93  F   UNL A   1      45.618  29.648  33.983  1.00  0.00    -0.203 F 
ATOM     94  C   UNL A   1      46.199  27.676  35.129  1.00  0.00     0.198 A 
ATOM     95  C   UNL A   1      44.491  26.136  35.818  1.00  0.00     0.198 A 
ATOM     96  F   UNL A   1      42.236  26.572  35.306  1.00  0.00    -0.203 F 
ATOM     97  F   UNL A   1      47.496  28.003  35.031  1.00  0.00    -0.200 F 
ATOM     98  C   UNL A   1      45.829  26.490  35.748  1.00  0.00     0.200 A 
ATOM     99  F   UNL A   1      44.129  24.999  36.429  1.00  0.00    -0.200 F 
ATOM    100  F   UNL A   1      46.764  25.684  36.268  1.00  0.00    -0.200 F 
ENDBRANCH  67  90
ENDBRANCH  41  42
ENDBRANCH  33  36
ENDBRANCH  31  32
ENDBRANCH  30  31
ENDBRANCH  29  30
ENDBRANCH   1  29
TORSDOF 15
ENDMDL
MODEL 3
REMARK VINA RESULT:     -12.4      1.493      7.392
REMARK SMILES CC(C)C(=O)Nc1ccc(NC(=O)[C@@H]2[C@@H](C(=O)NCCCCNC(=O)c3ccc(-c4c5nc(c(-c6c(F)c(F)c(F)c(F)c6F)c6ccc([nH]6)c(-c6c(F)c(F)c(F)c(F)c6F)c6nc(c(-c7c(F)c(F)c(F)c(F)c7F)c7ccc4[nH]7)C=C6)C=C5)cc3)C2(C)C)cc1Cl
REMARK SMILES IDX 19 1 18 2 16 3 17 4 15 6 14 7 89 8 90 9 91 10 12 11 11 12
REMARK SMILES IDX 13 14 10 15 7 16 8 17 93 18 9 19 92 20 94 21 6 22 4 23 5 24
REMARK SMILES IDX 2 26 1 27 3 28 20 29 21 30 22 31 23 32 24 33 25 35 26 36
REMARK SMILES IDX 27 37 88 38 28 39 87 40 29 41 30 42 31 43 81 44 32 45 86 46
REMARK SMILES IDX 80 47 82 48 33 49 85 50 79 51 78 52 34 54 66 55 46 56 65 57
REMARK SMILES IDX 47 58 50 59 64 60 83 61 48 62 49 63 63 65 84 66 51 67 35 68
REMARK SMILES IDX 36 69 44 70 37 71 38 72 42 73 45 74 39 75 40 76 43 77 41 78
REMARK SMILES IDX 67 79 68 80 76 81 69 82 70 83 74 84 77 85 71 86 72 87 75 88
REMARK SMILES IDX 73 89 52 90 53 91 61 92 54 93 55 94 59 95 62 96 56 97 57 98
REMARK SMILES IDX 60 99 58 100
REMARK H PARENT 18 5 11 13 6 25 23 34 82 53 50 64
REMARK Flexibility Score: inf
ROOT
ATOM      1  C   UNL A   1      34.358  29.896  27.286  1.00  0.00     0.116 C 
ENDROOT
BRANCH   1   2
ATOM      2  N   UNL A   1      33.295  29.074  27.813  1.00  0.00    -0.356 N 
ATOM      3  C   UNL A   1      32.144  28.563  27.287  1.00  0.00     0.224 C 
ATOM      4  O   UNL A   1      31.410  27.969  28.079  1.00  0.00    -0.275 OA
ATOM      5  H   UNL A   1      33.430  28.826  28.756  1.00  0.00     0.163 HD
BRANCH   3   6
ATOM      6  C   UNL A   1      31.732  28.550  25.853  1.00  0.00     0.098 C 
ATOM      7  C   UNL A   1      32.741  29.096  24.873  1.00  0.00     0.098 C 
ATOM      8  C   UNL A   1      31.274  29.544  24.806  1.00  0.00    -0.011 C 
ATOM      9  C   UNL A   1      30.856  30.936  25.169  1.00  0.00     0.013 C 
ATOM     10  C   UNL A   1      30.394  28.979  23.702  1.00  0.00     0.013 C 
BRANCH   7  11
ATOM     11  C   UNL A   1      33.435  28.532  23.688  1.00  0.00     0.228 C 
ATOM     12  N   UNL A   1      33.680  27.216  23.403  1.00  0.00    -0.326 N 
ATOM     13  H   UNL A   1      34.026  27.083  22.490  1.00  0.00     0.169 HD
ATOM     14  O   UNL A   1      33.757  29.342  22.815  1.00  0.00    -0.274 OA
BRANCH  12  15
ATOM     15  C   UNL A   1      33.553  26.022  24.108  1.00  0.00     0.042 A 
ATOM     16  C   UNL A   1      33.039  23.637  25.470  1.00  0.00     0.060 A 
ATOM     17  C   UNL A   1      33.763  24.657  26.084  1.00  0.00     0.030 A 
ATOM     18  C   UNL A   1      32.561  23.810  24.167  1.00  0.00     0.066 A 
ATOM     19  C   UNL A   1      34.074  25.816  25.376  1.00  0.00     0.028 A 
ATOM     20  C   UNL A   1      32.846  24.989  23.478  1.00  0.00     0.048 A 
ATOM     21  Cl  UNL A   1      31.636  22.593  23.364  1.00  0.00    -0.082 Cl
BRANCH  16  22
ATOM     22  N   UNL A   1      32.807  22.468  26.198  1.00  0.00    -0.325 N 
ATOM     23  C   UNL A   1      33.602  21.358  26.236  1.00  0.00     0.226 C 
ATOM     24  O   UNL A   1      33.466  20.582  27.187  1.00  0.00    -0.274 OA
ATOM     25  H   UNL A   1      31.985  22.442  26.739  1.00  0.00     0.169 HD
BRANCH  23  26
ATOM     26  C   UNL A   1      34.599  21.040  25.113  1.00  0.00     0.072 C 
ATOM     27  C   UNL A   1      36.013  21.531  25.412  1.00  0.00     0.018 C 
ATOM     28  C   UNL A   1      34.597  19.593  24.641  1.00  0.00     0.018 C 
ENDBRANCH  23  26
ENDBRANCH  16  22
ENDBRANCH  12  15
ENDBRANCH   7  11
ENDBRANCH   3   6
ENDBRANCH   1   2
BRANCH   1  29
ATOM     29  C   UNL A   1      34.421  31.235  28.017  1.00  0.00     0.023 C 
BRANCH  29  30
ATOM     30  C   UNL A   1      33.790  32.398  27.259  1.00  0.00     0.023 C 
BRANCH  30  31
ATOM     31  C   UNL A   1      32.483  32.908  27.844  1.00  0.00     0.116 C 
BRANCH  31  32
ATOM     32  N   UNL A   1      32.417  34.360  27.927  1.00  0.00    -0.352 N 
ATOM     33  C   UNL A   1      33.178  35.212  28.687  1.00  0.00     0.251 C 
ATOM     34  H   UNL A   1      31.734  34.788  27.363  1.00  0.00     0.163 HD
ATOM     35  O   UNL A   1      32.916  36.409  28.736  1.00  0.00    -0.269 OA
BRANCH  33  36
ATOM     36  C   UNL A   1      34.295  34.660  29.475  1.00  0.00     0.039 A 
ATOM     37  C   UNL A   1      34.016  34.030  30.688  1.00  0.00     0.014 A 
ATOM     38  C   UNL A   1      35.603  34.718  28.986  1.00  0.00     0.014 A 
ATOM     39  C   UNL A   1      35.047  33.401  31.382  1.00  0.00     0.010 A 
ATOM     40  C   UNL A   1      36.608  34.006  29.627  1.00  0.00     0.010 A 
ATOM     41  C   UNL A   1      36.343  33.353  30.840  1.00  0.00    -0.014 A 
BRANCH  41  42
ATOM     42  C   UNL A   1      37.437  32.644  31.546  1.00  0.00     0.031 A 
ATOM     43  C   UNL A   1      38.123  31.478  30.887  1.00  0.00     0.074 A 
ATOM     44  C   UNL A   1      37.786  33.027  32.789  1.00  0.00     0.049 A 
ATOM     45  N   UNL A   1      39.085  30.719  31.344  1.00  0.00    -0.248 NA
ATOM     46  C   UNL A   1      37.640  31.092  29.551  1.00  0.00     0.031 C 
ATOM     47  C   UNL A   1      37.146  34.097  33.557  1.00  0.00     0.029 A 
ATOM     48  N   UNL A   1      38.767  32.559  33.627  1.00  0.00    -0.354 N 
ATOM     49  C   UNL A   1      39.321  29.774  30.354  1.00  0.00     0.074 A 
ATOM     50  C   UNL A   1      38.348  30.000  29.309  1.00  0.00     0.031 C 
ATOM     51  C   UNL A   1      37.769  34.223  34.740  1.00  0.00     0.029 A 
ATOM     52  C   UNL A   1      38.832  33.227  34.825  1.00  0.00     0.049 A 
ATOM     53  H   UNL A   1      39.366  31.815  33.391  1.00  0.00     0.167 HD
ATOM     54  C   UNL A   1      40.289  28.829  30.299  1.00  0.00     0.037 A 
ATOM     55  C   UNL A   1      39.662  33.055  35.871  1.00  0.00     0.037 A 
ATOM     56  C   UNL A   1      41.266  28.618  31.334  1.00  0.00     0.049 A 
ATOM     57  C   UNL A   1      40.739  32.007  35.777  1.00  0.00     0.074 A 
ATOM     58  C   UNL A   1      42.301  27.702  31.373  1.00  0.00     0.029 A 
ATOM     59  N   UNL A   1      41.328  29.343  32.515  1.00  0.00    -0.354 N 
ATOM     60  N   UNL A   1      40.993  31.162  34.806  1.00  0.00    -0.248 NA
ATOM     61  C   UNL A   1      41.660  31.905  36.916  1.00  0.00     0.031 C 
ATOM     62  C   UNL A   1      42.970  27.850  32.592  1.00  0.00     0.029 A 
ATOM     63  C   UNL A   1      42.384  28.893  33.291  1.00  0.00     0.049 A 
ATOM     64  H   UNL A   1      40.712  30.069  32.765  1.00  0.00     0.167 HD
ATOM     65  C   UNL A   1      42.117  30.451  35.203  1.00  0.00     0.074 A 
ATOM     66  C   UNL A   1      42.512  30.983  36.491  1.00  0.00     0.031 C 
ATOM     67  C   UNL A   1      42.765  29.445  34.565  1.00  0.00     0.037 A 
BRANCH  54  68
ATOM     68  C   UNL A   1      40.350  27.973  29.066  1.00  0.00     0.064 A 
ATOM     69  C   UNL A   1      41.121  28.349  27.955  1.00  0.00     0.173 A 
ATOM     70  C   UNL A   1      39.660  26.754  29.003  1.00  0.00     0.173 A 
ATOM     71  F   UNL A   1      41.787  29.513  27.958  1.00  0.00    -0.203 F 
ATOM     72  C   UNL A   1      41.177  27.550  26.816  1.00  0.00     0.198 A 
ATOM     73  C   UNL A   1      39.745  25.941  27.875  1.00  0.00     0.198 A 
ATOM     74  F   UNL A   1      38.909  26.346  30.036  1.00  0.00    -0.203 F 
ATOM     75  F   UNL A   1      41.879  27.956  25.749  1.00  0.00    -0.200 F 
ATOM     76  C   UNL A   1      40.496  26.343  26.780  1.00  0.00     0.200 A 
ATOM     77  F   UNL A   1      39.095  24.769  27.845  1.00  0.00    -0.200 F 
ATOM     78  F   UNL A   1      40.558  25.569  25.687  1.00  0.00    -0.200 F 
ENDBRANCH  54  68
BRANCH  55  79
ATOM     79  C   UNL A   1      39.532  33.910  37.081  1.00  0.00     0.064 A 
ATOM     80  C   UNL A   1      38.803  33.479  38.197  1.00  0.00     0.173 A 
ATOM     81  C   UNL A   1      40.108  35.188  37.134  1.00  0.00     0.173 A 
ATOM     82  F   UNL A   1      38.219  32.271  38.191  1.00  0.00    -0.203 F 
ATOM     83  C   UNL A   1      38.622  34.306  39.305  1.00  0.00     0.198 A 
ATOM     84  C   UNL A   1      39.955  36.001  38.255  1.00  0.00     0.198 A 
ATOM     85  F   UNL A   1      40.824  35.645  36.096  1.00  0.00    -0.203 F 
ATOM     86  F   UNL A   1      37.867  33.891  40.332  1.00  0.00    -0.200 F 
ATOM     87  C   UNL A   1      39.202  35.565  39.334  1.00  0.00     0.200 A 
ATOM     88  F   UNL A   1      40.531  37.210  38.286  1.00  0.00    -0.200 F 
ATOM     89  F   UNL A   1      39.025  36.361  40.397  1.00  0.00    -0.200 F 
ENDBRANCH  55  79
BRANCH  67  90
ATOM     90  C   UNL A   1      43.991  28.892  35.233  1.00  0.00     0.064 A 
ATOM     91  C   UNL A   1      45.272  29.396  34.962  1.00  0.00     0.173 A 
ATOM     92  C   UNL A   1      43.879  27.848  36.163  1.00  0.00     0.173 A 
ATOM     93  F   UNL A   1      45.433  30.387  34.071  1.00  0.00    -0.203 F 
ATOM     94  C   UNL A   1      46.399  28.843  35.562  1.00  0.00     0.198 A 
ATOM     95  C   UNL A   1      45.005  27.320  36.788  1.00  0.00     0.198 A 
ATOM     96  F   UNL A   1      42.675  27.337  36.466  1.00  0.00    -0.203 F 
ATOM     97  F   UNL A   1      47.619  29.293  35.236  1.00  0.00    -0.200 F 
ATOM     98  C   UNL A   1      46.265  27.809  36.478  1.00  0.00     0.200 A 
ATOM     99  F   UNL A   1      44.871  26.333  37.685  1.00  0.00    -0.200 F 
ATOM    100  F   UNL A   1      47.351  27.276  37.053  1.00  0.00    -0.200 F 
ENDBRANCH  67  90
ENDBRANCH  41  42
ENDBRANCH  33  36
ENDBRANCH  31  32
ENDBRANCH  30  31
ENDBRANCH  29  30
ENDBRANCH   1  29
TORSDOF 15
ENDMDL
