MODEL 1
REMARK VINA RESULT:     -13.8      0.000      0.000
REMARK SMILES Cc1cc(C(=O)NCCCCNC(=O)c2ccc(-c3c4nc(c(-c5c(F)c(F)c(F)c(F)c5F)c5ccc([nH]5)c(-c5c(F)c(F)c(F)c(F)c5F)c5nc(c(-c6c(F)c(F)c(F)c(F)c6F)c6ccc3[nH]6)C=C5)C=C4)cc2)ccc1NC(=O)c1ccc(=O)n(CCOc2ccccc2)n1
REMARK SMILES IDX 5 1 6 2 7 3 4 5 1 6 2 7 3 8 80 9 79 10 78 11 81 12 82 13
REMARK SMILES IDX 83 15 84 16 85 17 99 18 86 19 89 20 87 21 88 22 90 23 91 24
REMARK SMILES IDX 92 25 93 26 94 27 98 28 95 29 97 30 96 31 8 32 9 33 10 34
REMARK SMILES IDX 11 35 12 36 13 37 14 39 15 40 16 41 77 42 17 43 76 44 18 45
REMARK SMILES IDX 19 46 20 47 70 48 21 49 75 50 69 51 71 52 22 53 74 54 68 55
REMARK SMILES IDX 67 56 23 58 55 59 35 60 54 61 36 62 39 63 53 64 72 65 37 66
REMARK SMILES IDX 38 67 52 69 73 70 40 71 24 72 25 73 33 74 26 75 27 76 31 77
REMARK SMILES IDX 34 78 28 79 29 80 32 81 30 82 56 83 57 84 65 85 58 86 59 87
REMARK SMILES IDX 63 88 66 89 60 90 61 91 64 92 62 93 41 94 42 95 50 96 43 97
REMARK SMILES IDX 44 98 48 99 51 100 45 101 46 102 49 103 47 104
REMARK H PARENT 7 4 81 14 12 38 71 57 39 68
REMARK Flexibility Score: inf
ROOT
ATOM      1  C   UNL A   1      32.480  28.524  27.163  1.00  0.00     0.251 C 
ATOM      2  O   UNL A   1      31.664  27.842  27.782  1.00  0.00    -0.269 OA
ATOM      3  N   UNL A   1      33.290  29.386  27.870  1.00  0.00    -0.352 N 
ATOM      4  H   UNL A   1      33.005  29.527  28.802  1.00  0.00     0.163 HD
ENDROOT
BRANCH   1   5
ATOM      5  C   UNL A   1      32.569  28.372  25.687  1.00  0.00     0.040 A 
ATOM      6  C   UNL A   1      30.200  28.323  22.710  1.00  0.00     0.046 C 
ATOM      7  C   UNL A   1      31.465  28.127  23.499  1.00  0.00    -0.027 A 
ATOM      8  C   UNL A   1      31.408  28.347  24.900  1.00  0.00     0.019 A 
ATOM      9  C   UNL A   1      32.708  27.842  22.916  1.00  0.00     0.044 A 
ATOM     10  C   UNL A   1      33.841  28.141  23.663  1.00  0.00     0.027 A 
ATOM     11  C   UNL A   1      33.783  28.389  25.030  1.00  0.00     0.016 A 
BRANCH   9  12
ATOM     12  N   UNL A   1      32.808  27.274  21.624  1.00  0.00    -0.320 N 
ATOM     13  C   UNL A   1      32.954  25.940  21.260  1.00  0.00     0.276 C 
ATOM     14  H   UNL A   1      32.767  27.914  20.877  1.00  0.00     0.170 HD
ATOM     15  O   UNL A   1      33.045  25.587  20.090  1.00  0.00    -0.267 OA
BRANCH  13  16
ATOM     16  C   UNL A   1      32.985  24.872  22.339  1.00  0.00     0.149 A 
ATOM     17  C   UNL A   1      31.666  24.320  22.715  1.00  0.00     0.042 A 
ATOM     18  N   UNL A   1      34.122  24.464  22.820  1.00  0.00    -0.164 NA
ATOM     19  C   UNL A   1      31.695  23.070  23.181  1.00  0.00     0.076 A 
ATOM     20  N   UNL A   1      34.071  23.272  23.541  1.00  0.00    -0.226 N 
ATOM     21  C   UNL A   1      32.999  22.400  23.402  1.00  0.00     0.266 A 
ATOM     22  O   UNL A   1      33.044  21.180  23.513  1.00  0.00    -0.268 OA
BRANCH  20  23
ATOM     23  C   UNL A   1      35.268  22.873  24.282  1.00  0.00     0.190 C 
BRANCH  23  24
ATOM     24  C   UNL A   1      34.934  22.473  25.732  1.00  0.00     0.253 C 
BRANCH  24  25
ATOM     25  O   UNL A   1      34.479  23.602  26.504  1.00  0.00    -0.492 OA
BRANCH  25  26
ATOM     26  C   UNL A   1      33.120  23.722  26.524  1.00  0.00     0.119 A 
ATOM     27  C   UNL A   1      32.494  24.929  26.237  1.00  0.00     0.046 A 
ATOM     28  C   UNL A   1      32.366  22.636  26.952  1.00  0.00     0.046 A 
ATOM     29  C   UNL A   1      31.097  25.002  26.272  1.00  0.00     0.004 A 
ATOM     30  C   UNL A   1      30.976  22.682  26.923  1.00  0.00     0.004 A 
ATOM     31  C   UNL A   1      30.339  23.868  26.575  1.00  0.00     0.000 A 
ENDBRANCH  25  26
ENDBRANCH  24  25
ENDBRANCH  23  24
ENDBRANCH  20  23
ENDBRANCH  13  16
ENDBRANCH   9  12
ENDBRANCH   1   5
BRANCH   3  32
ATOM     32  C   UNL A   1      34.494  30.131  27.499  1.00  0.00     0.116 C 
BRANCH  32  33
ATOM     33  C   UNL A   1      34.397  31.646  27.752  1.00  0.00     0.023 C 
BRANCH  33  34
ATOM     34  C   UNL A   1      34.589  32.091  29.201  1.00  0.00     0.023 C 
BRANCH  34  35
ATOM     35  C   UNL A   1      34.806  33.589  29.359  1.00  0.00     0.116 C 
BRANCH  35  36
ATOM     36  N   UNL A   1      33.811  34.268  30.184  1.00  0.00    -0.352 N 
ATOM     37  C   UNL A   1      33.754  34.430  31.562  1.00  0.00     0.251 C 
ATOM     38  H   UNL A   1      33.065  34.673  29.686  1.00  0.00     0.163 HD
ATOM     39  O   UNL A   1      32.786  34.962  32.077  1.00  0.00    -0.269 OA
BRANCH  37  40
ATOM     40  C   UNL A   1      34.945  34.100  32.392  1.00  0.00     0.039 A 
ATOM     41  C   UNL A   1      36.078  34.915  32.252  1.00  0.00     0.014 A 
ATOM     42  C   UNL A   1      35.041  32.890  33.063  1.00  0.00     0.014 A 
ATOM     43  C   UNL A   1      37.337  34.377  32.502  1.00  0.00     0.010 A 
ATOM     44  C   UNL A   1      36.284  32.308  33.185  1.00  0.00     0.010 A 
ATOM     45  C   UNL A   1      37.427  33.024  32.815  1.00  0.00    -0.014 A 
BRANCH  45  46
ATOM     46  C   UNL A   1      38.627  32.226  32.594  1.00  0.00     0.031 A 
ATOM     47  C   UNL A   1      38.572  30.974  31.814  1.00  0.00     0.074 A 
ATOM     48  C   UNL A   1      39.818  32.764  32.942  1.00  0.00     0.049 A 
ATOM     49  N   UNL A   1      39.515  30.096  31.768  1.00  0.00    -0.248 NA
ATOM     50  C   UNL A   1      37.394  30.586  31.051  1.00  0.00     0.031 C 
ATOM     51  C   UNL A   1      41.145  32.373  32.472  1.00  0.00     0.029 A 
ATOM     52  N   UNL A   1      40.073  33.691  33.968  1.00  0.00    -0.354 N 
ATOM     53  C   UNL A   1      39.209  29.196  30.769  1.00  0.00     0.074 A 
ATOM     54  C   UNL A   1      37.839  29.493  30.427  1.00  0.00     0.031 C 
ATOM     55  C   UNL A   1      42.061  32.804  33.352  1.00  0.00     0.029 A 
ATOM     56  C   UNL A   1      41.335  33.332  34.494  1.00  0.00     0.049 A 
ATOM     57  H   UNL A   1      39.494  34.433  34.260  1.00  0.00     0.167 HD
ATOM     58  C   UNL A   1      40.208  28.410  30.267  1.00  0.00     0.037 A 
ATOM     59  C   UNL A   1      41.462  32.866  35.769  1.00  0.00     0.037 A 
ATOM     60  C   UNL A   1      41.425  28.547  31.074  1.00  0.00     0.049 A 
ATOM     61  C   UNL A   1      42.061  31.486  35.867  1.00  0.00     0.074 A 
ATOM     62  C   UNL A   1      42.599  29.263  30.894  1.00  0.00     0.029 A 
ATOM     63  N   UNL A   1      41.418  28.135  32.403  1.00  0.00    -0.354 N 
ATOM     64  N   UNL A   1      42.065  30.629  34.885  1.00  0.00    -0.248 NA
ATOM     65  C   UNL A   1      42.676  30.956  37.080  1.00  0.00     0.031 C 
ATOM     66  C   UNL A   1      43.268  29.331  32.142  1.00  0.00     0.029 A 
ATOM     67  C   UNL A   1      42.515  28.638  33.075  1.00  0.00     0.049 A 
ATOM     68  H   UNL A   1      40.728  27.562  32.808  1.00  0.00     0.167 HD
ATOM     69  C   UNL A   1      42.635  29.458  35.308  1.00  0.00     0.074 A 
ATOM     70  C   UNL A   1      43.019  29.719  36.682  1.00  0.00     0.031 C 
ATOM     71  C   UNL A   1      42.719  28.368  34.491  1.00  0.00     0.037 A 
BRANCH  58  72
ATOM     72  C   UNL A   1      40.198  27.753  28.891  1.00  0.00     0.064 A 
ATOM     73  C   UNL A   1      39.628  26.469  28.715  1.00  0.00     0.173 A 
ATOM     74  C   UNL A   1      40.804  28.270  27.730  1.00  0.00     0.173 A 
ATOM     75  F   UNL A   1      38.908  25.883  29.680  1.00  0.00    -0.203 F 
ATOM     76  C   UNL A   1      39.771  25.729  27.534  1.00  0.00     0.198 A 
ATOM     77  C   UNL A   1      40.980  27.518  26.562  1.00  0.00     0.198 A 
ATOM     78  F   UNL A   1      41.196  29.541  27.641  1.00  0.00    -0.203 F 
ATOM     79  F   UNL A   1      39.226  24.508  27.445  1.00  0.00    -0.200 F 
ATOM     80  C   UNL A   1      40.479  26.241  26.469  1.00  0.00     0.200 A 
ATOM     81  F   UNL A   1      41.641  28.054  25.524  1.00  0.00    -0.200 F 
ATOM     82  F   UNL A   1      40.648  25.522  25.351  1.00  0.00    -0.200 F 
ENDBRANCH  58  72
BRANCH  59  83
ATOM     83  C   UNL A   1      40.456  33.425  36.707  1.00  0.00     0.064 A 
ATOM     84  C   UNL A   1      39.320  32.646  36.983  1.00  0.00     0.173 A 
ATOM     85  C   UNL A   1      40.763  34.461  37.595  1.00  0.00     0.173 A 
ATOM     86  F   UNL A   1      39.000  31.646  36.149  1.00  0.00    -0.203 F 
ATOM     87  C   UNL A   1      38.590  32.812  38.157  1.00  0.00     0.198 A 
ATOM     88  C   UNL A   1      40.020  34.638  38.765  1.00  0.00     0.198 A 
ATOM     89  F   UNL A   1      41.849  35.222  37.400  1.00  0.00    -0.203 F 
ATOM     90  F   UNL A   1      37.582  31.979  38.451  1.00  0.00    -0.200 F 
ATOM     91  C   UNL A   1      38.960  33.792  39.062  1.00  0.00     0.200 A 
ATOM     92  F   UNL A   1      40.398  35.563  39.659  1.00  0.00    -0.200 F 
ATOM     93  F   UNL A   1      38.328  33.894  40.240  1.00  0.00    -0.200 F 
ENDBRANCH  59  83
BRANCH  71  94
ATOM     94  C   UNL A   1      43.079  26.971  34.928  1.00  0.00     0.064 A 
ATOM     95  C   UNL A   1      42.141  25.938  35.092  1.00  0.00     0.173 A 
ATOM     96  C   UNL A   1      44.437  26.587  35.045  1.00  0.00     0.173 A 
ATOM     97  F   UNL A   1      40.832  26.147  34.894  1.00  0.00    -0.203 F 
ATOM     98  C   UNL A   1      42.527  24.632  35.407  1.00  0.00     0.198 A 
ATOM     99  C   UNL A   1      44.820  25.271  35.301  1.00  0.00     0.198 A 
ATOM    100  F   UNL A   1      45.431  27.473  34.884  1.00  0.00    -0.203 F 
ATOM    101  F   UNL A   1      41.591  23.691  35.592  1.00  0.00    -0.200 F 
ATOM    102  C   UNL A   1      43.865  24.297  35.498  1.00  0.00     0.200 A 
ATOM    103  F   UNL A   1      46.121  24.951  35.334  1.00  0.00    -0.200 F 
ATOM    104  F   UNL A   1      44.231  23.033  35.751  1.00  0.00    -0.200 F 
ENDBRANCH  71  94
ENDBRANCH  45  46
ENDBRANCH  37  40
ENDBRANCH  35  36
ENDBRANCH  34  35
ENDBRANCH  33  34
ENDBRANCH  32  33
ENDBRANCH   3  32
TORSDOF 17
ENDMDL
MODEL 2
REMARK VINA RESULT:     -13.4      2.984      5.068
REMARK SMILES Cc1cc(C(=O)NCCCCNC(=O)c2ccc(-c3c4nc(c(-c5c(F)c(F)c(F)c(F)c5F)c5ccc([nH]5)c(-c5c(F)c(F)c(F)c(F)c5F)c5nc(c(-c6c(F)c(F)c(F)c(F)c6F)c6ccc3[nH]6)C=C5)C=C4)cc2)ccc1NC(=O)c1ccc(=O)n(CCOc2ccccc2)n1
REMARK SMILES IDX 5 1 6 2 7 3 4 5 1 6 2 7 3 8 80 9 79 10 78 11 81 12 82 13
REMARK SMILES IDX 83 15 84 16 85 17 99 18 86 19 89 20 87 21 88 22 90 23 91 24
REMARK SMILES IDX 92 25 93 26 94 27 98 28 95 29 97 30 96 31 8 32 9 33 10 34
REMARK SMILES IDX 11 35 12 36 13 37 14 39 15 40 16 41 77 42 17 43 76 44 18 45
REMARK SMILES IDX 19 46 20 47 70 48 21 49 75 50 69 51 71 52 22 53 74 54 68 55
REMARK SMILES IDX 67 56 23 58 55 59 35 60 54 61 36 62 39 63 53 64 72 65 37 66
REMARK SMILES IDX 38 67 52 69 73 70 40 71 24 72 25 73 33 74 26 75 27 76 31 77
REMARK SMILES IDX 34 78 28 79 29 80 32 81 30 82 56 83 57 84 65 85 58 86 59 87
REMARK SMILES IDX 63 88 66 89 60 90 61 91 64 92 62 93 41 94 42 95 50 96 43 97
REMARK SMILES IDX 44 98 48 99 51 100 45 101 46 102 49 103 47 104
REMARK H PARENT 7 4 81 14 12 38 71 57 39 68
REMARK Flexibility Score: inf
ROOT
ATOM      1  C   UNL A   1      31.872  29.654  25.339  1.00  0.00     0.251 C 
ATOM      2  O   UNL A   1      31.013  30.512  25.133  1.00  0.00    -0.269 OA
ATOM      3  N   UNL A   1      33.195  30.040  25.361  1.00  0.00    -0.352 N 
ATOM      4  H   UNL A   1      33.352  30.946  25.009  1.00  0.00     0.163 HD
ENDROOT
BRANCH   1   5
ATOM      5  C   UNL A   1      31.443  28.251  25.573  1.00  0.00     0.040 A 
ATOM      6  C   UNL A   1      29.516  25.545  23.719  1.00  0.00     0.046 C 
ATOM      7  C   UNL A   1      30.171  26.264  24.864  1.00  0.00    -0.027 A 
ATOM      8  C   UNL A   1      30.656  27.577  24.627  1.00  0.00     0.019 A 
ATOM      9  C   UNL A   1      30.420  25.673  26.111  1.00  0.00     0.044 A 
ATOM     10  C   UNL A   1      31.412  26.248  26.897  1.00  0.00     0.027 A 
ATOM     11  C   UNL A   1      31.911  27.522  26.648  1.00  0.00     0.016 A 
BRANCH   9  12
ATOM     12  N   UNL A   1      29.693  24.544  26.555  1.00  0.00    -0.320 N 
ATOM     13  C   UNL A   1      30.090  23.213  26.621  1.00  0.00     0.276 C 
ATOM     14  H   UNL A   1      28.775  24.726  26.862  1.00  0.00     0.170 HD
ATOM     15  O   UNL A   1      29.343  22.326  27.016  1.00  0.00    -0.267 OA
BRANCH  13  16
ATOM     16  C   UNL A   1      31.503  22.836  26.209  1.00  0.00     0.149 A 
ATOM     17  C   UNL A   1      32.451  22.638  27.325  1.00  0.00     0.042 A 
ATOM     18  N   UNL A   1      31.789  22.652  24.953  1.00  0.00    -0.164 NA
ATOM     19  C   UNL A   1      33.452  21.795  27.066  1.00  0.00     0.076 A 
ATOM     20  N   UNL A   1      32.991  21.993  24.707  1.00  0.00    -0.226 N 
ATOM     21  C   UNL A   1      33.611  21.243  25.698  1.00  0.00     0.266 A 
ATOM     22  O   UNL A   1      34.301  20.246  25.522  1.00  0.00    -0.268 OA
BRANCH  20  23
ATOM     23  C   UNL A   1      33.469  21.944  23.325  1.00  0.00     0.190 C 
BRANCH  23  24
ATOM     24  C   UNL A   1      33.993  23.315  22.853  1.00  0.00     0.253 C 
BRANCH  24  25
ATOM     25  O   UNL A   1      35.410  23.283  22.597  1.00  0.00    -0.492 OA
BRANCH  25  26
ATOM     26  C   UNL A   1      36.152  23.097  23.726  1.00  0.00     0.119 A 
ATOM     27  C   UNL A   1      36.990  21.997  23.871  1.00  0.00     0.046 A 
ATOM     28  C   UNL A   1      35.972  23.973  24.790  1.00  0.00     0.046 A 
ATOM     29  C   UNL A   1      37.731  21.850  25.048  1.00  0.00     0.004 A 
ATOM     30  C   UNL A   1      36.756  23.870  25.935  1.00  0.00     0.004 A 
ATOM     31  C   UNL A   1      37.643  22.808  26.062  1.00  0.00     0.000 A 
ENDBRANCH  25  26
ENDBRANCH  24  25
ENDBRANCH  23  24
ENDBRANCH  20  23
ENDBRANCH  13  16
ENDBRANCH   9  12
ENDBRANCH   1   5
BRANCH   3  32
ATOM     32  C   UNL A   1      34.410  29.358  25.807  1.00  0.00     0.116 C 
BRANCH  32  33
ATOM     33  C   UNL A   1      34.873  29.759  27.219  1.00  0.00     0.023 C 
BRANCH  33  34
ATOM     34  C   UNL A   1      34.645  31.221  27.602  1.00  0.00     0.023 C 
BRANCH  34  35
ATOM     35  C   UNL A   1      34.516  31.449  29.101  1.00  0.00     0.116 C 
BRANCH  35  36
ATOM     36  N   UNL A   1      35.572  32.269  29.688  1.00  0.00    -0.352 N 
ATOM     37  C   UNL A   1      36.869  31.932  30.047  1.00  0.00     0.251 C 
ATOM     38  H   UNL A   1      35.324  33.207  29.856  1.00  0.00     0.163 HD
ATOM     39  O   UNL A   1      37.582  32.746  30.609  1.00  0.00    -0.269 OA
BRANCH  37  40
ATOM     40  C   UNL A   1      37.441  30.631  29.601  1.00  0.00     0.039 A 
ATOM     41  C   UNL A   1      37.480  29.586  30.535  1.00  0.00     0.014 A 
ATOM     42  C   UNL A   1      38.158  30.529  28.418  1.00  0.00     0.014 A 
ATOM     43  C   UNL A   1      38.464  28.609  30.421  1.00  0.00     0.010 A 
ATOM     44  C   UNL A   1      39.215  29.646  28.369  1.00  0.00     0.010 A 
ATOM     45  C   UNL A   1      39.419  28.747  29.419  1.00  0.00    -0.014 A 
BRANCH  45  46
ATOM     46  C   UNL A   1      40.747  28.147  29.487  1.00  0.00     0.031 A 
ATOM     47  C   UNL A   1      40.989  26.784  28.975  1.00  0.00     0.074 A 
ATOM     48  C   UNL A   1      41.783  28.941  29.838  1.00  0.00     0.049 A 
ATOM     49  N   UNL A   1      42.054  26.093  29.203  1.00  0.00    -0.248 NA
ATOM     50  C   UNL A   1      39.999  26.061  28.191  1.00  0.00     0.031 C 
ATOM     51  C   UNL A   1      43.205  28.712  29.594  1.00  0.00     0.029 A 
ATOM     52  N   UNL A   1      41.752  30.070  30.676  1.00  0.00    -0.354 N 
ATOM     53  C   UNL A   1      42.027  24.986  28.382  1.00  0.00     0.074 A 
ATOM     54  C   UNL A   1      40.686  24.969  27.849  1.00  0.00     0.031 C 
ATOM     55  C   UNL A   1      43.917  29.452  30.457  1.00  0.00     0.029 A 
ATOM     56  C   UNL A   1      42.972  30.042  31.388  1.00  0.00     0.049 A 
ATOM     57  H   UNL A   1      41.033  30.738  30.751  1.00  0.00     0.167 HD
ATOM     58  C   UNL A   1      43.193  24.312  28.153  1.00  0.00     0.037 A 
ATOM     59  C   UNL A   1      42.998  29.846  32.738  1.00  0.00     0.037 A 
ATOM     60  C   UNL A   1      44.255  24.807  29.035  1.00  0.00     0.049 A 
ATOM     61  C   UNL A   1      43.783  28.636  33.173  1.00  0.00     0.074 A 
ATOM     62  C   UNL A   1      45.318  25.674  28.834  1.00  0.00     0.029 A 
ATOM     63  N   UNL A   1      44.134  24.649  30.412  1.00  0.00    -0.354 N 
ATOM     64  N   UNL A   1      44.051  27.629  32.391  1.00  0.00    -0.248 NA
ATOM     65  C   UNL A   1      44.304  28.453  34.524  1.00  0.00     0.031 C 
ATOM     66  C   UNL A   1      45.796  26.086  30.103  1.00  0.00     0.029 A 
ATOM     67  C   UNL A   1      45.041  25.453  31.075  1.00  0.00     0.049 A 
ATOM     68  H   UNL A   1      43.492  24.046  30.853  1.00  0.00     0.167 HD
ATOM     69  C   UNL A   1      44.732  26.674  33.097  1.00  0.00     0.074 A 
ATOM     70  C   UNL A   1      44.884  27.245  34.422  1.00  0.00     0.031 C 
ATOM     71  C   UNL A   1      45.092  25.486  32.530  1.00  0.00     0.037 A 
BRANCH  58  72
ATOM     72  C   UNL A   1      43.469  23.423  26.945  1.00  0.00     0.064 A 
ATOM     73  C   UNL A   1      43.033  22.077  26.931  1.00  0.00     0.173 A 
ATOM     74  C   UNL A   1      44.227  23.786  25.815  1.00  0.00     0.173 A 
ATOM     75  F   UNL A   1      42.201  21.599  27.867  1.00  0.00    -0.203 F 
ATOM     76  C   UNL A   1      43.431  21.158  25.952  1.00  0.00     0.198 A 
ATOM     77  C   UNL A   1      44.657  22.861  24.855  1.00  0.00     0.198 A 
ATOM     78  F   UNL A   1      44.535  25.054  25.546  1.00  0.00    -0.203 F 
ATOM     79  F   UNL A   1      42.999  19.891  26.015  1.00  0.00    -0.200 F 
ATOM     80  C   UNL A   1      44.273  21.542  24.932  1.00  0.00     0.200 A 
ATOM     81  F   UNL A   1      45.446  23.270  23.850  1.00  0.00    -0.200 F 
ATOM     82  F   UNL A   1      44.685  20.659  24.014  1.00  0.00    -0.200 F 
ENDBRANCH  58  72
BRANCH  59  83
ATOM     83  C   UNL A   1      41.801  30.380  33.436  1.00  0.00     0.064 A 
ATOM     84  C   UNL A   1      41.757  31.762  33.686  1.00  0.00     0.173 A 
ATOM     85  C   UNL A   1      40.597  29.671  33.495  1.00  0.00     0.173 A 
ATOM     86  F   UNL A   1      42.895  32.469  33.638  1.00  0.00    -0.203 F 
ATOM     87  C   UNL A   1      40.548  32.431  33.867  1.00  0.00     0.198 A 
ATOM     88  C   UNL A   1      39.387  30.341  33.692  1.00  0.00     0.198 A 
ATOM     89  F   UNL A   1      40.572  28.356  33.240  1.00  0.00    -0.203 F 
ATOM     90  F   UNL A   1      40.525  33.765  33.986  1.00  0.00    -0.200 F 
ATOM     91  C   UNL A   1      39.360  31.721  33.840  1.00  0.00     0.200 A 
ATOM     92  F   UNL A   1      38.233  29.660  33.632  1.00  0.00    -0.200 F 
ATOM     93  F   UNL A   1      38.188  32.367  33.911  1.00  0.00    -0.200 F 
ENDBRANCH  59  83
BRANCH  71  94
ATOM     94  C   UNL A   1      45.601  24.279  33.276  1.00  0.00     0.064 A 
ATOM     95  C   UNL A   1      46.890  24.188  33.829  1.00  0.00     0.173 A 
ATOM     96  C   UNL A   1      44.724  23.214  33.595  1.00  0.00     0.173 A 
ATOM     97  F   UNL A   1      47.777  25.184  33.696  1.00  0.00    -0.203 F 
ATOM     98  C   UNL A   1      47.290  23.090  34.594  1.00  0.00     0.198 A 
ATOM     99  C   UNL A   1      45.109  22.149  34.409  1.00  0.00     0.198 A 
ATOM    100  F   UNL A   1      43.458  23.194  33.152  1.00  0.00    -0.203 F 
ATOM    101  F   UNL A   1      48.543  23.033  35.066  1.00  0.00    -0.200 F 
ATOM    102  C   UNL A   1      46.397  22.079  34.894  1.00  0.00     0.200 A 
ATOM    103  F   UNL A   1      44.217  21.204  34.734  1.00  0.00    -0.200 F 
ATOM    104  F   UNL A   1      46.771  21.053  35.670  1.00  0.00    -0.200 F 
ENDBRANCH  71  94
ENDBRANCH  45  46
ENDBRANCH  37  40
ENDBRANCH  35  36
ENDBRANCH  34  35
ENDBRANCH  33  34
ENDBRANCH  32  33
ENDBRANCH   3  32
TORSDOF 17
ENDMDL
MODEL 3
REMARK VINA RESULT:     -13.2      1.629      2.405
REMARK SMILES Cc1cc(C(=O)NCCCCNC(=O)c2ccc(-c3c4nc(c(-c5c(F)c(F)c(F)c(F)c5F)c5ccc([nH]5)c(-c5c(F)c(F)c(F)c(F)c5F)c5nc(c(-c6c(F)c(F)c(F)c(F)c6F)c6ccc3[nH]6)C=C5)C=C4)cc2)ccc1NC(=O)c1ccc(=O)n(CCOc2ccccc2)n1
REMARK SMILES IDX 5 1 6 2 7 3 4 5 1 6 2 7 3 8 80 9 79 10 78 11 81 12 82 13
REMARK SMILES IDX 83 15 84 16 85 17 99 18 86 19 89 20 87 21 88 22 90 23 91 24
REMARK SMILES IDX 92 25 93 26 94 27 98 28 95 29 97 30 96 31 8 32 9 33 10 34
REMARK SMILES IDX 11 35 12 36 13 37 14 39 15 40 16 41 77 42 17 43 76 44 18 45
REMARK SMILES IDX 19 46 20 47 70 48 21 49 75 50 69 51 71 52 22 53 74 54 68 55
REMARK SMILES IDX 67 56 23 58 55 59 35 60 54 61 36 62 39 63 53 64 72 65 37 66
REMARK SMILES IDX 38 67 52 69 73 70 40 71 24 72 25 73 33 74 26 75 27 76 31 77
REMARK SMILES IDX 34 78 28 79 29 80 32 81 30 82 56 83 57 84 65 85 58 86 59 87
REMARK SMILES IDX 63 88 66 89 60 90 61 91 64 92 62 93 41 94 42 95 50 96 43 97
REMARK SMILES IDX 44 98 48 99 51 100 45 101 46 102 49 103 47 104
REMARK H PARENT 7 4 81 14 12 38 71 57 39 68
REMARK Flexibility Score: inf
ROOT
ATOM      1  C   UNL A   1      32.168  29.726  25.488  1.00  0.00     0.251 C 
ATOM      2  O   UNL A   1      31.376  30.521  24.983  1.00  0.00    -0.269 OA
ATOM      3  N   UNL A   1      33.377  30.203  25.948  1.00  0.00    -0.352 N 
ATOM      4  H   UNL A   1      33.585  31.117  25.648  1.00  0.00     0.163 HD
ENDROOT
BRANCH   1   5
ATOM      5  C   UNL A   1      31.778  28.295  25.597  1.00  0.00     0.040 A 
ATOM      6  C   UNL A   1      29.408  25.880  23.860  1.00  0.00     0.046 C 
ATOM      7  C   UNL A   1      30.333  26.423  24.913  1.00  0.00    -0.027 A 
ATOM      8  C   UNL A   1      30.774  27.764  24.774  1.00  0.00     0.019 A 
ATOM      9  C   UNL A   1      30.860  25.649  25.957  1.00  0.00     0.044 A 
ATOM     10  C   UNL A   1      32.023  26.111  26.562  1.00  0.00     0.027 A 
ATOM     11  C   UNL A   1      32.474  27.416  26.401  1.00  0.00     0.016 A 
BRANCH   9  12
ATOM     12  N   UNL A   1      30.236  24.451  26.380  1.00  0.00    -0.320 N 
ATOM     13  C   UNL A   1      30.545  23.136  26.052  1.00  0.00     0.276 C 
ATOM     14  H   UNL A   1      29.477  24.566  26.996  1.00  0.00     0.170 HD
ATOM     15  O   UNL A   1      29.904  22.186  26.484  1.00  0.00    -0.267 OA
BRANCH  13  16
ATOM     16  C   UNL A   1      31.727  22.853  25.142  1.00  0.00     0.149 A 
ATOM     17  C   UNL A   1      31.426  22.872  23.695  1.00  0.00     0.042 A 
ATOM     18  N   UNL A   1      32.912  22.674  25.648  1.00  0.00    -0.164 NA
ATOM     19  C   UNL A   1      32.457  23.197  22.913  1.00  0.00     0.076 A 
ATOM     20  N   UNL A   1      33.966  22.756  24.741  1.00  0.00    -0.226 N 
ATOM     21  C   UNL A   1      33.802  23.378  23.511  1.00  0.00     0.266 A 
ATOM     22  O   UNL A   1      34.668  23.979  22.885  1.00  0.00    -0.268 OA
BRANCH  20  23
ATOM     23  C   UNL A   1      35.295  22.358  25.205  1.00  0.00     0.190 C 
BRANCH  23  24
ATOM     24  C   UNL A   1      35.595  20.881  24.879  1.00  0.00     0.253 C 
BRANCH  24  25
ATOM     25  O   UNL A   1      34.617  19.999  25.465  1.00  0.00    -0.492 OA
BRANCH  25  26
ATOM     26  C   UNL A   1      34.058  19.146  24.560  1.00  0.00     0.119 A 
ATOM     27  C   UNL A   1      32.849  19.437  23.939  1.00  0.00     0.046 A 
ATOM     28  C   UNL A   1      34.665  17.914  24.348  1.00  0.00     0.046 A 
ATOM     29  C   UNL A   1      32.316  18.529  23.018  1.00  0.00     0.004 A 
ATOM     30  C   UNL A   1      34.176  17.038  23.384  1.00  0.00     0.004 A 
ATOM     31  C   UNL A   1      33.000  17.350  22.711  1.00  0.00     0.000 A 
ENDBRANCH  25  26
ENDBRANCH  24  25
ENDBRANCH  23  24
ENDBRANCH  20  23
ENDBRANCH  13  16
ENDBRANCH   9  12
ENDBRANCH   1   5
BRANCH   3  32
ATOM     32  C   UNL A   1      34.410  29.607  26.796  1.00  0.00     0.116 C 
BRANCH  32  33
ATOM     33  C   UNL A   1      34.852  30.501  27.968  1.00  0.00     0.023 C 
BRANCH  33  34
ATOM     34  C   UNL A   1      33.925  31.669  28.299  1.00  0.00     0.023 C 
BRANCH  34  35
ATOM     35  C   UNL A   1      34.660  32.942  28.696  1.00  0.00     0.116 C 
BRANCH  35  36
ATOM     36  N   UNL A   1      33.830  33.948  29.353  1.00  0.00    -0.352 N 
ATOM     37  C   UNL A   1      33.772  34.324  30.688  1.00  0.00     0.251 C 
ATOM     38  H   UNL A   1      33.216  34.434  28.757  1.00  0.00     0.163 HD
ATOM     39  O   UNL A   1      32.943  35.135  31.061  1.00  0.00    -0.269 OA
BRANCH  37  40
ATOM     40  C   UNL A   1      34.826  33.858  31.630  1.00  0.00     0.039 A 
ATOM     41  C   UNL A   1      35.940  34.688  31.819  1.00  0.00     0.014 A 
ATOM     42  C   UNL A   1      34.853  32.548  32.088  1.00  0.00     0.014 A 
ATOM     43  C   UNL A   1      37.160  34.119  32.173  1.00  0.00     0.010 A 
ATOM     44  C   UNL A   1      36.079  31.958  32.307  1.00  0.00     0.010 A 
ATOM     45  C   UNL A   1      37.242  32.733  32.258  1.00  0.00    -0.014 A 
BRANCH  45  46
ATOM     46  C   UNL A   1      38.488  31.990  32.099  1.00  0.00     0.031 A 
ATOM     47  C   UNL A   1      38.533  30.747  31.305  1.00  0.00     0.074 A 
ATOM     48  C   UNL A   1      39.632  32.575  32.521  1.00  0.00     0.049 A 
ATOM     49  N   UNL A   1      39.515  29.911  31.305  1.00  0.00    -0.248 NA
ATOM     50  C   UNL A   1      37.420  30.318  30.470  1.00  0.00     0.031 C 
ATOM     51  C   UNL A   1      40.999  32.248  32.127  1.00  0.00     0.029 A 
ATOM     52  N   UNL A   1      39.785  33.499  33.570  1.00  0.00    -0.354 N 
ATOM     53  C   UNL A   1      39.308  29.011  30.282  1.00  0.00     0.074 A 
ATOM     54  C   UNL A   1      37.948  29.253  29.862  1.00  0.00     0.031 C 
ATOM     55  C   UNL A   1      41.842  32.708  33.063  1.00  0.00     0.029 A 
ATOM     56  C   UNL A   1      41.029  33.189  34.165  1.00  0.00     0.049 A 
ATOM     57  H   UNL A   1      39.158  34.212  33.835  1.00  0.00     0.167 HD
ATOM     58  C   UNL A   1      40.368  28.276  29.831  1.00  0.00     0.037 A 
ATOM     59  C   UNL A   1      41.102  32.713  35.441  1.00  0.00     0.037 A 
ATOM     60  C   UNL A   1      41.529  28.456  30.709  1.00  0.00     0.049 A 
ATOM     61  C   UNL A   1      41.755  31.359  35.561  1.00  0.00     0.074 A 
ATOM     62  C   UNL A   1      42.678  29.224  30.606  1.00  0.00     0.029 A 
ATOM     63  N   UNL A   1      41.463  28.027  32.032  1.00  0.00    -0.354 N 
ATOM     64  N   UNL A   1      41.854  30.516  34.572  1.00  0.00    -0.248 NA
ATOM     65  C   UNL A   1      42.321  30.841  36.802  1.00  0.00     0.031 C 
ATOM     66  C   UNL A   1      43.270  29.306  31.891  1.00  0.00     0.029 A 
ATOM     67  C   UNL A   1      42.496  28.569  32.771  1.00  0.00     0.049 A 
ATOM     68  H   UNL A   1      40.776  27.419  32.390  1.00  0.00     0.167 HD
ATOM     69  C   UNL A   1      42.449  29.366  35.015  1.00  0.00     0.074 A 
ATOM     70  C   UNL A   1      42.741  29.625  36.413  1.00  0.00     0.031 C 
ATOM     71  C   UNL A   1      42.629  28.290  34.194  1.00  0.00     0.037 A 
BRANCH  58  72
ATOM     72  C   UNL A   1      40.467  27.637  28.451  1.00  0.00     0.064 A 
ATOM     73  C   UNL A   1      39.973  26.329  28.230  1.00  0.00     0.173 A 
ATOM     74  C   UNL A   1      41.109  28.197  27.330  1.00  0.00     0.173 A 
ATOM     75  F   UNL A   1      39.231  25.695  29.148  1.00  0.00    -0.203 F 
ATOM     76  C   UNL A   1      40.218  25.611  27.052  1.00  0.00     0.198 A 
ATOM     77  C   UNL A   1      41.387  27.469  26.166  1.00  0.00     0.198 A 
ATOM     78  F   UNL A   1      41.442  29.487  27.275  1.00  0.00    -0.203 F 
ATOM     79  F   UNL A   1      39.739  24.366  26.921  1.00  0.00    -0.200 F 
ATOM     80  C   UNL A   1      40.957  26.170  26.033  1.00  0.00     0.200 A 
ATOM     81  F   UNL A   1      42.077  28.051  25.173  1.00  0.00    -0.200 F 
ATOM     82  F   UNL A   1      41.223  25.475  24.920  1.00  0.00    -0.200 F 
ENDBRANCH  58  72
BRANCH  59  83
ATOM     83  C   UNL A   1      40.020  33.216  36.324  1.00  0.00     0.064 A 
ATOM     84  C   UNL A   1      38.969  32.335  36.632  1.00  0.00     0.173 A 
ATOM     85  C   UNL A   1      40.191  34.334  37.147  1.00  0.00     0.173 A 
ATOM     86  F   UNL A   1      38.779  31.255  35.861  1.00  0.00    -0.203 F 
ATOM     87  C   UNL A   1      38.198  32.495  37.781  1.00  0.00     0.198 A 
ATOM     88  C   UNL A   1      39.406  34.502  38.291  1.00  0.00     0.198 A 
ATOM     89  F   UNL A   1      41.191  35.196  36.920  1.00  0.00    -0.203 F 
ATOM     90  F   UNL A   1      37.281  31.576  38.113  1.00  0.00    -0.200 F 
ATOM     91  C   UNL A   1      38.439  33.565  38.626  1.00  0.00     0.200 A 
ATOM     92  F   UNL A   1      39.660  35.518  39.128  1.00  0.00    -0.200 F 
ATOM     93  F   UNL A   1      37.772  33.671  39.784  1.00  0.00    -0.200 F 
ENDBRANCH  59  83
BRANCH  71  94
ATOM     94  C   UNL A   1      43.024  26.905  34.638  1.00  0.00     0.064 A 
ATOM     95  C   UNL A   1      42.104  25.917  35.026  1.00  0.00     0.173 A 
ATOM     96  C   UNL A   1      44.369  26.477  34.531  1.00  0.00     0.173 A 
ATOM     97  F   UNL A   1      40.787  26.164  35.054  1.00  0.00    -0.203 F 
ATOM     98  C   UNL A   1      42.504  24.616  35.339  1.00  0.00     0.198 A 
ATOM     99  C   UNL A   1      44.757  25.163  34.788  1.00  0.00     0.198 A 
ATOM    100  F   UNL A   1      45.342  27.317  34.144  1.00  0.00    -0.203 F 
ATOM    101  F   UNL A   1      41.592  23.720  35.742  1.00  0.00    -0.200 F 
ATOM    102  C   UNL A   1      43.827  24.236  35.208  1.00  0.00     0.200 A 
ATOM    103  F   UNL A   1      46.033  24.798  34.605  1.00  0.00    -0.200 F 
ATOM    104  F   UNL A   1      44.199  22.974  35.461  1.00  0.00    -0.200 F 
ENDBRANCH  71  94
ENDBRANCH  45  46
ENDBRANCH  37  40
ENDBRANCH  35  36
ENDBRANCH  34  35
ENDBRANCH  33  34
ENDBRANCH  32  33
ENDBRANCH   3  32
TORSDOF 17
ENDMDL
