MODEL 1
REMARK VINA RESULT:     -12.3      0.000      0.000
REMARK SMILES CC[C@@H](C)[C@H](NC(=O)[C@H]1CCCN(S(=O)(=O)c2ccccc2)C1)C(=O)NCCCCNC(=O)c1ccc(-c2c3nc(c(-c4c(F)c(F)c(F)c(F)c4F)c4ccc([nH]4)c(-c4c(F)c(F)c(F)c(F)c4F)c4nc(c(-c5c(F)c(F)c(F)c(F)c5F)c5ccc2[nH]5)C=C4)C=C3)cc1
REMARK SMILES IDX 27 1 26 2 24 3 25 4 5 6 3 7 4 8 2 9 1 10 6 11 7 12 8 14 9 15
REMARK SMILES IDX 10 16 23 17 11 18 13 19 12 20 14 21 15 22 16 23 17 24 18 25
REMARK SMILES IDX 22 26 19 27 21 28 20 29 28 30 29 31 30 32 31 33 32 34 33 36
REMARK SMILES IDX 34 37 35 38 96 39 36 40 95 41 37 42 38 43 39 44 89 45 40 46
REMARK SMILES IDX 94 47 88 48 90 49 41 50 93 51 87 52 86 53 42 55 74 56 54 57
REMARK SMILES IDX 73 58 55 59 58 60 72 61 91 62 56 63 57 64 71 66 92 67 59 68
REMARK SMILES IDX 43 69 44 70 52 71 45 72 46 73 50 74 53 75 47 76 48 77 51 78
REMARK SMILES IDX 49 79 75 80 76 81 84 82 77 83 78 84 82 85 85 86 79 87 80 88
REMARK SMILES IDX 83 89 81 90 60 91 61 92 69 93 62 94 63 95 67 96 70 97 64 98
REMARK SMILES IDX 65 99 68 100 66 101
REMARK H PARENT 26 5 6 13 31 35 90 54 58 65
REMARK Flexibility Score: inf
ROOT
ATOM      1  C   UNL A   1      32.884  29.432  25.767  1.00  0.00     0.116 C 
ENDROOT
BRANCH   1   2
ATOM      2  N   UNL A   1      32.349  29.817  24.478  1.00  0.00    -0.354 N 
ATOM      3  C   UNL A   1      31.802  29.040  23.502  1.00  0.00     0.242 C 
ATOM      4  O   UNL A   1      31.243  29.614  22.563  1.00  0.00    -0.273 OA
ATOM      5  H   UNL A   1      32.387  30.780  24.279  1.00  0.00     0.163 HD
BRANCH   3   6
ATOM      6  C   UNL A   1      31.784  27.496  23.615  1.00  0.00     0.174 C 
BRANCH   6   7
ATOM      7  C   UNL A   1      32.892  26.801  22.725  1.00  0.00     0.018 C 
ATOM      8  C   UNL A   1      32.340  26.079  21.482  1.00  0.00     0.010 C 
BRANCH   7   9
ATOM      9  C   UNL A   1      33.895  25.910  23.503  1.00  0.00     0.002 C 
ATOM     10  C   UNL A   1      33.889  26.091  25.016  1.00  0.00     0.004 C 
ENDBRANCH   7   9
ENDBRANCH   6   7
BRANCH   6  11
ATOM     11  N   UNL A   1      30.414  26.997  23.422  1.00  0.00    -0.344 N 
ATOM     12  C   UNL A   1      29.835  25.857  23.892  1.00  0.00     0.225 C 
ATOM     13  H   UNL A   1      29.831  27.569  22.873  1.00  0.00     0.164 HD
ATOM     14  O   UNL A   1      28.681  25.616  23.532  1.00  0.00    -0.275 OA
BRANCH  12  15
ATOM     15  C   UNL A   1      30.562  24.961  24.880  1.00  0.00     0.094 C 
ATOM     16  C   UNL A   1      29.634  24.585  26.038  1.00  0.00     0.016 C 
ATOM     17  C   UNL A   1      30.999  23.697  24.149  1.00  0.00     0.116 C 
ATOM     18  C   UNL A   1      30.335  23.614  26.979  1.00  0.00     0.018 C 
ATOM     19  N   UNL A   1      31.728  22.774  25.088  1.00  0.00    -0.197 NA
ATOM     20  C   UNL A   1      30.858  22.384  26.240  1.00  0.00     0.102 C 
BRANCH  19  21
ATOM     21  S   UNL A   1      32.387  21.441  24.205  1.00  0.00     0.243 S 
ATOM     22  O   UNL A   1      32.000  20.227  24.901  1.00  0.00    -0.207 OA
ATOM     23  O   UNL A   1      32.042  21.634  22.814  1.00  0.00    -0.207 OA
BRANCH  21  24
ATOM     24  C   UNL A   1      34.149  21.609  24.351  1.00  0.00     0.082 A 
ATOM     25  C   UNL A   1      34.796  22.673  23.715  1.00  0.00     0.022 A 
ATOM     26  C   UNL A   1      34.893  20.596  24.966  1.00  0.00     0.022 A 
ATOM     27  C   UNL A   1      36.191  22.734  23.720  1.00  0.00     0.001 A 
ATOM     28  C   UNL A   1      36.285  20.676  24.990  1.00  0.00     0.001 A 
ATOM     29  C   UNL A   1      36.932  21.740  24.362  1.00  0.00     0.000 A 
ENDBRANCH  21  24
ENDBRANCH  19  21
ENDBRANCH  12  15
ENDBRANCH   6  11
ENDBRANCH   3   6
ENDBRANCH   1   2
BRANCH   1  30
ATOM     30  C   UNL A   1      32.174  30.106  26.935  1.00  0.00     0.023 C 
BRANCH  30  31
ATOM     31  C   UNL A   1      31.926  31.602  26.750  1.00  0.00     0.023 C 
BRANCH  31  32
ATOM     32  C   UNL A   1      33.022  32.505  27.297  1.00  0.00     0.116 C 
BRANCH  32  33
ATOM     33  N   UNL A   1      32.560  33.852  27.597  1.00  0.00    -0.352 N 
ATOM     34  C   UNL A   1      33.055  34.726  28.532  1.00  0.00     0.251 C 
ATOM     35  H   UNL A   1      31.799  34.176  27.062  1.00  0.00     0.163 HD
ATOM     36  O   UNL A   1      32.516  35.806  28.739  1.00  0.00    -0.269 OA
BRANCH  34  37
ATOM     37  C   UNL A   1      34.230  34.314  29.319  1.00  0.00     0.039 A 
ATOM     38  C   UNL A   1      34.032  33.602  30.505  1.00  0.00     0.014 A 
ATOM     39  C   UNL A   1      35.517  34.555  28.830  1.00  0.00     0.014 A 
ATOM     40  C   UNL A   1      35.134  33.074  31.175  1.00  0.00     0.010 A 
ATOM     41  C   UNL A   1      36.604  33.966  29.461  1.00  0.00     0.010 A 
ATOM     42  C   UNL A   1      36.422  33.222  30.639  1.00  0.00    -0.014 A 
BRANCH  42  43
ATOM     43  C   UNL A   1      37.612  32.639  31.300  1.00  0.00     0.031 A 
ATOM     44  C   UNL A   1      38.347  31.516  30.628  1.00  0.00     0.074 A 
ATOM     45  C   UNL A   1      37.969  33.047  32.532  1.00  0.00     0.049 A 
ATOM     46  N   UNL A   1      39.308  30.758  31.090  1.00  0.00    -0.248 NA
ATOM     47  C   UNL A   1      37.913  31.175  29.263  1.00  0.00     0.031 C 
ATOM     48  C   UNL A   1      37.306  34.100  33.302  1.00  0.00     0.029 A 
ATOM     49  N   UNL A   1      38.967  32.606  33.363  1.00  0.00    -0.354 N 
ATOM     50  C   UNL A   1      39.566  29.830  30.090  1.00  0.00     0.074 A 
ATOM     51  C   UNL A   1      38.633  30.092  29.015  1.00  0.00     0.031 C 
ATOM     52  C   UNL A   1      37.923  34.232  34.488  1.00  0.00     0.029 A 
ATOM     53  C   UNL A   1      38.997  33.248  34.576  1.00  0.00     0.049 A 
ATOM     54  H   UNL A   1      39.602  31.896  33.113  1.00  0.00     0.167 HD
ATOM     55  C   UNL A   1      40.509  28.861  30.063  1.00  0.00     0.037 A 
ATOM     56  C   UNL A   1      39.797  33.052  35.642  1.00  0.00     0.037 A 
ATOM     57  C   UNL A   1      41.463  28.637  31.117  1.00  0.00     0.049 A 
ATOM     58  C   UNL A   1      40.858  31.989  35.578  1.00  0.00     0.074 A 
ATOM     59  C   UNL A   1      42.502  27.725  31.162  1.00  0.00     0.029 A 
ATOM     60  N   UNL A   1      41.496  29.345  32.309  1.00  0.00    -0.354 N 
ATOM     61  N   UNL A   1      41.127  31.147  34.609  1.00  0.00    -0.248 NA
ATOM     62  C   UNL A   1      41.730  31.850  36.753  1.00  0.00     0.031 C 
ATOM     63  C   UNL A   1      43.145  27.859  32.397  1.00  0.00     0.029 A 
ATOM     64  C   UNL A   1      42.533  28.882  33.103  1.00  0.00     0.049 A 
ATOM     65  H   UNL A   1      40.875  30.068  32.555  1.00  0.00     0.167 HD
ATOM     66  C   UNL A   1      42.214  30.401  35.042  1.00  0.00     0.074 A 
ATOM     67  C   UNL A   1      42.560  30.894  36.360  1.00  0.00     0.031 C 
ATOM     68  C   UNL A   1      42.869  29.400  34.404  1.00  0.00     0.037 A 
BRANCH  55  69
ATOM     69  C   UNL A   1      40.550  27.973  28.855  1.00  0.00     0.064 A 
ATOM     70  C   UNL A   1      41.330  28.290  27.734  1.00  0.00     0.173 A 
ATOM     71  C   UNL A   1      39.803  26.786  28.821  1.00  0.00     0.173 A 
ATOM     72  F   UNL A   1      42.050  29.423  27.712  1.00  0.00    -0.203 F 
ATOM     73  C   UNL A   1      41.333  27.472  26.607  1.00  0.00     0.198 A 
ATOM     74  C   UNL A   1      39.832  25.953  27.704  1.00  0.00     0.198 A 
ATOM     75  F   UNL A   1      39.041  26.434  29.867  1.00  0.00    -0.203 F 
ATOM     76  F   UNL A   1      42.039  27.827  25.525  1.00  0.00    -0.200 F 
ATOM     77  C   UNL A   1      40.589  26.303  26.596  1.00  0.00     0.200 A 
ATOM     78  F   UNL A   1      39.120  24.819  27.698  1.00  0.00    -0.200 F 
ATOM     79  F   UNL A   1      40.591  25.516  25.511  1.00  0.00    -0.200 F 
ENDBRANCH  55  69
BRANCH  56  80
ATOM     80  C   UNL A   1      39.641  33.905  36.848  1.00  0.00     0.064 A 
ATOM     81  C   UNL A   1      40.290  35.145  36.937  1.00  0.00     0.173 A 
ATOM     82  C   UNL A   1      38.834  33.511  37.924  1.00  0.00     0.173 A 
ATOM     83  F   UNL A   1      41.087  35.554  35.940  1.00  0.00    -0.203 F 
ATOM     84  C   UNL A   1      40.151  35.950  38.064  1.00  0.00     0.198 A 
ATOM     85  C   UNL A   1      38.677  34.328  39.042  1.00  0.00     0.198 A 
ATOM     86  F   UNL A   1      38.187  32.337  37.884  1.00  0.00    -0.203 F 
ATOM     87  F   UNL A   1      40.812  37.114  38.139  1.00  0.00    -0.200 F 
ATOM     88  C   UNL A   1      39.340  35.545  39.114  1.00  0.00     0.200 A 
ATOM     89  F   UNL A   1      37.882  33.940  40.048  1.00  0.00    -0.200 F 
ATOM     90  F   UNL A   1      39.201  36.324  40.195  1.00  0.00    -0.200 F 
ENDBRANCH  56  80
BRANCH  68  91
ATOM     91  C   UNL A   1      44.054  28.799  35.100  1.00  0.00     0.064 A 
ATOM     92  C   UNL A   1      43.925  27.690  35.945  1.00  0.00     0.173 A 
ATOM     93  C   UNL A   1      45.341  29.309  34.869  1.00  0.00     0.173 A 
ATOM     94  F   UNL A   1      42.714  27.178  36.208  1.00  0.00    -0.203 F 
ATOM     95  C   UNL A   1      45.043  27.118  36.547  1.00  0.00     0.198 A 
ATOM     96  C   UNL A   1      46.458  28.720  35.452  1.00  0.00     0.198 A 
ATOM     97  F   UNL A   1      45.514  30.367  34.063  1.00  0.00    -0.203 F 
ATOM     98  F   UNL A   1      44.896  26.078  37.380  1.00  0.00    -0.200 F 
ATOM     99  C   UNL A   1      46.308  27.629  36.294  1.00  0.00     0.200 A 
ATOM    100  F   UNL A   1      47.680  29.207  35.198  1.00  0.00    -0.200 F 
ATOM    101  F   UNL A   1      47.384  27.070  36.866  1.00  0.00    -0.200 F 
ENDBRANCH  68  91
ENDBRANCH  42  43
ENDBRANCH  34  37
ENDBRANCH  32  33
ENDBRANCH  31  32
ENDBRANCH  30  31
ENDBRANCH   1  30
TORSDOF 17
ENDMDL
MODEL 2
REMARK VINA RESULT:     -12.0      1.616      7.380
REMARK SMILES CC[C@@H](C)[C@H](NC(=O)[C@H]1CCCN(S(=O)(=O)c2ccccc2)C1)C(=O)NCCCCNC(=O)c1ccc(-c2c3nc(c(-c4c(F)c(F)c(F)c(F)c4F)c4ccc([nH]4)c(-c4c(F)c(F)c(F)c(F)c4F)c4nc(c(-c5c(F)c(F)c(F)c(F)c5F)c5ccc2[nH]5)C=C4)C=C3)cc1
REMARK SMILES IDX 27 1 26 2 24 3 25 4 5 6 3 7 4 8 2 9 1 10 6 11 7 12 8 14 9 15
REMARK SMILES IDX 10 16 23 17 11 18 13 19 12 20 14 21 15 22 16 23 17 24 18 25
REMARK SMILES IDX 22 26 19 27 21 28 20 29 28 30 29 31 30 32 31 33 32 34 33 36
REMARK SMILES IDX 34 37 35 38 96 39 36 40 95 41 37 42 38 43 39 44 89 45 40 46
REMARK SMILES IDX 94 47 88 48 90 49 41 50 93 51 87 52 86 53 42 55 74 56 54 57
REMARK SMILES IDX 73 58 55 59 58 60 72 61 91 62 56 63 57 64 71 66 92 67 59 68
REMARK SMILES IDX 43 69 44 70 52 71 45 72 46 73 50 74 53 75 47 76 48 77 51 78
REMARK SMILES IDX 49 79 75 80 76 81 84 82 77 83 78 84 82 85 85 86 79 87 80 88
REMARK SMILES IDX 83 89 81 90 60 91 61 92 69 93 62 94 63 95 67 96 70 97 64 98
REMARK SMILES IDX 65 99 68 100 66 101
REMARK H PARENT 26 5 6 13 31 35 90 54 58 65
REMARK Flexibility Score: inf
ROOT
ATOM      1  C   UNL A   1      32.240  30.061  26.136  1.00  0.00     0.116 C 
ENDROOT
BRANCH   1   2
ATOM      2  N   UNL A   1      33.129  29.755  25.035  1.00  0.00    -0.354 N 
ATOM      3  C   UNL A   1      33.050  28.756  24.112  1.00  0.00     0.242 C 
ATOM      4  O   UNL A   1      33.825  28.805  23.153  1.00  0.00    -0.273 OA
ATOM      5  H   UNL A   1      33.902  30.356  24.942  1.00  0.00     0.163 HD
BRANCH   3   6
ATOM      6  C   UNL A   1      31.961  27.659  24.200  1.00  0.00     0.174 C 
BRANCH   6   7
ATOM      7  C   UNL A   1      30.555  28.144  23.661  1.00  0.00     0.018 C 
ATOM      8  C   UNL A   1      29.566  27.001  23.367  1.00  0.00     0.010 C 
BRANCH   7   9
ATOM      9  C   UNL A   1      30.615  29.160  22.493  1.00  0.00     0.002 C 
ATOM     10  C   UNL A   1      29.270  29.726  22.053  1.00  0.00     0.004 C 
ENDBRANCH   7   9
ENDBRANCH   6   7
BRANCH   6  11
ATOM     11  N   UNL A   1      31.953  27.070  25.548  1.00  0.00    -0.344 N 
ATOM     12  C   UNL A   1      32.199  25.787  25.932  1.00  0.00     0.225 C 
ATOM     13  H   UNL A   1      31.737  27.694  26.279  1.00  0.00     0.164 HD
ATOM     14  O   UNL A   1      32.060  25.515  27.126  1.00  0.00    -0.275 OA
BRANCH  12  15
ATOM     15  C   UNL A   1      32.699  24.755  24.936  1.00  0.00     0.094 C 
ATOM     16  C   UNL A   1      33.821  25.346  24.077  1.00  0.00     0.016 C 
ATOM     17  C   UNL A   1      33.231  23.556  25.712  1.00  0.00     0.116 C 
ATOM     18  C   UNL A   1      34.381  24.282  23.142  1.00  0.00     0.018 C 
ATOM     19  N   UNL A   1      33.738  22.502  24.766  1.00  0.00    -0.197 NA
ATOM     20  C   UNL A   1      34.835  23.037  23.903  1.00  0.00     0.102 C 
BRANCH  19  21
ATOM     21  S   UNL A   1      34.155  21.075  25.650  1.00  0.00     0.243 S 
ATOM     22  O   UNL A   1      35.592  21.095  25.852  1.00  0.00    -0.207 OA
ATOM     23  O   UNL A   1      33.253  20.987  26.776  1.00  0.00    -0.207 OA
BRANCH  21  24
ATOM     24  C   UNL A   1      33.783  19.723  24.558  1.00  0.00     0.082 A 
ATOM     25  C   UNL A   1      32.616  19.759  23.787  1.00  0.00     0.022 A 
ATOM     26  C   UNL A   1      34.573  18.568  24.590  1.00  0.00     0.022 A 
ATOM     27  C   UNL A   1      32.257  18.645  23.028  1.00  0.00     0.001 A 
ATOM     28  C   UNL A   1      34.222  17.468  23.809  1.00  0.00     0.001 A 
ATOM     29  C   UNL A   1      33.062  17.504  23.035  1.00  0.00     0.000 A 
ENDBRANCH  21  24
ENDBRANCH  19  21
ENDBRANCH  12  15
ENDBRANCH   6  11
ENDBRANCH   3   6
ENDBRANCH   1   2
BRANCH   1  30
ATOM     30  C   UNL A   1      31.127  31.030  25.755  1.00  0.00     0.023 C 
BRANCH  30  31
ATOM     31  C   UNL A   1      31.167  32.366  26.496  1.00  0.00     0.023 C 
BRANCH  31  32
ATOM     32  C   UNL A   1      32.484  32.673  27.191  1.00  0.00     0.116 C 
BRANCH  32  33
ATOM     33  N   UNL A   1      32.599  34.059  27.618  1.00  0.00    -0.352 N 
ATOM     34  C   UNL A   1      33.561  34.618  28.422  1.00  0.00     0.251 C 
ATOM     35  H   UNL A   1      31.901  34.671  27.290  1.00  0.00     0.163 HD
ATOM     36  O   UNL A   1      33.493  35.789  28.773  1.00  0.00    -0.269 OA
BRANCH  34  37
ATOM     37  C   UNL A   1      34.662  33.760  28.892  1.00  0.00     0.039 A 
ATOM     38  C   UNL A   1      35.978  34.199  28.728  1.00  0.00     0.014 A 
ATOM     39  C   UNL A   1      34.380  32.572  29.572  1.00  0.00     0.014 A 
ATOM     40  C   UNL A   1      37.017  33.472  29.305  1.00  0.00     0.010 A 
ATOM     41  C   UNL A   1      35.410  31.891  30.207  1.00  0.00     0.010 A 
ATOM     42  C   UNL A   1      36.737  32.334  30.077  1.00  0.00    -0.014 A 
BRANCH  42  43
ATOM     43  C   UNL A   1      37.811  31.560  30.741  1.00  0.00     0.031 A 
ATOM     44  C   UNL A   1      38.174  31.881  32.163  1.00  0.00     0.074 A 
ATOM     45  C   UNL A   1      38.516  30.649  30.046  1.00  0.00     0.049 A 
ATOM     46  N   UNL A   1      39.175  31.444  32.883  1.00  0.00    -0.248 NA
ATOM     47  C   UNL A   1      37.314  32.856  32.853  1.00  0.00     0.031 C 
ATOM     48  C   UNL A   1      38.283  30.282  28.649  1.00  0.00     0.029 A 
ATOM     49  N   UNL A   1      39.589  29.880  30.418  1.00  0.00    -0.354 N 
ATOM     50  C   UNL A   1      39.086  32.118  34.093  1.00  0.00     0.074 A 
ATOM     51  C   UNL A   1      37.961  33.023  33.996  1.00  0.00     0.031 C 
ATOM     52  C   UNL A   1      39.179  29.350  28.284  1.00  0.00     0.029 A 
ATOM     53  C   UNL A   1      40.072  29.084  29.408  1.00  0.00     0.049 A 
ATOM     54  H   UNL A   1      39.977  29.896  31.322  1.00  0.00     0.167 HD
ATOM     55  C   UNL A   1      39.862  31.980  35.193  1.00  0.00     0.037 A 
ATOM     56  C   UNL A   1      41.124  28.244  29.392  1.00  0.00     0.037 A 
ATOM     57  C   UNL A   1      40.950  31.045  35.298  1.00  0.00     0.049 A 
ATOM     58  C   UNL A   1      41.953  28.083  30.636  1.00  0.00     0.074 A 
ATOM     59  C   UNL A   1      41.758  30.778  36.388  1.00  0.00     0.029 A 
ATOM     60  N   UNL A   1      41.374  30.216  34.269  1.00  0.00    -0.354 N 
ATOM     61  N   UNL A   1      41.833  28.689  31.793  1.00  0.00    -0.248 NA
ATOM     62  C   UNL A   1      43.062  27.120  30.576  1.00  0.00     0.031 C 
ATOM     63  C   UNL A   1      42.693  29.809  36.010  1.00  0.00     0.029 A 
ATOM     64  C   UNL A   1      42.441  29.443  34.698  1.00  0.00     0.049 A 
ATOM     65  H   UNL A   1      40.977  30.182  33.369  1.00  0.00     0.167 HD
ATOM     66  C   UNL A   1      42.827  28.161  32.606  1.00  0.00     0.074 A 
ATOM     67  C   UNL A   1      43.539  27.181  31.812  1.00  0.00     0.031 C 
ATOM     68  C   UNL A   1      43.122  28.460  33.894  1.00  0.00     0.037 A 
BRANCH  55  69
ATOM     69  C   UNL A   1      39.556  32.863  36.366  1.00  0.00     0.064 A 
ATOM     70  C   UNL A   1      40.208  34.090  36.554  1.00  0.00     0.173 A 
ATOM     71  C   UNL A   1      38.593  32.479  37.312  1.00  0.00     0.173 A 
ATOM     72  F   UNL A   1      41.149  34.494  35.686  1.00  0.00    -0.203 F 
ATOM     73  C   UNL A   1      39.936  34.884  37.665  1.00  0.00     0.198 A 
ATOM     74  C   UNL A   1      38.301  33.291  38.406  1.00  0.00     0.198 A 
ATOM     75  F   UNL A   1      37.938  31.316  37.179  1.00  0.00    -0.203 F 
ATOM     76  F   UNL A   1      40.616  36.023  37.855  1.00  0.00    -0.200 F 
ATOM     77  C   UNL A   1      38.980  34.486  38.586  1.00  0.00     0.200 A 
ATOM     78  F   UNL A   1      37.370  32.910  39.290  1.00  0.00    -0.200 F 
ATOM     79  F   UNL A   1      38.719  35.251  39.656  1.00  0.00    -0.200 F 
ENDBRANCH  55  69
BRANCH  56  80
ATOM     80  C   UNL A   1      41.431  27.468  28.163  1.00  0.00     0.064 A 
ATOM     81  C   UNL A   1      40.820  26.228  27.928  1.00  0.00     0.173 A 
ATOM     82  C   UNL A   1      42.324  27.950  27.197  1.00  0.00     0.173 A 
ATOM     83  F   UNL A   1      39.973  25.718  28.834  1.00  0.00    -0.203 F 
ATOM     84  C   UNL A   1      41.103  25.493  26.780  1.00  0.00     0.198 A 
ATOM     85  C   UNL A   1      42.589  27.225  26.037  1.00  0.00     0.198 A 
ATOM     86  F   UNL A   1      42.930  29.134  27.373  1.00  0.00    -0.203 F 
ATOM     87  F   UNL A   1      40.532  24.295  26.597  1.00  0.00    -0.200 F 
ATOM     88  C   UNL A   1      41.982  25.994  25.831  1.00  0.00     0.200 A 
ATOM     89  F   UNL A   1      43.429  27.719  25.117  1.00  0.00    -0.200 F 
ATOM     90  F   UNL A   1      42.249  25.290  24.723  1.00  0.00    -0.200 F 
ENDBRANCH  56  80
BRANCH  68  91
ATOM     91  C   UNL A   1      44.232  27.689  34.543  1.00  0.00     0.064 A 
ATOM     92  C   UNL A   1      44.004  26.454  35.164  1.00  0.00     0.173 A 
ATOM     93  C   UNL A   1      45.550  28.168  34.490  1.00  0.00     0.173 A 
ATOM     94  F   UNL A   1      42.758  25.963  35.253  1.00  0.00    -0.203 F 
ATOM     95  C   UNL A   1      45.054  25.731  35.722  1.00  0.00     0.198 A 
ATOM     96  C   UNL A   1      46.601  27.431  35.027  1.00  0.00     0.198 A 
ATOM     97  F   UNL A   1      45.819  29.343  33.901  1.00  0.00    -0.203 F 
ATOM     98  F   UNL A   1      44.810  24.568  36.343  1.00  0.00    -0.200 F 
ATOM     99  C   UNL A   1      46.352  26.216  35.646  1.00  0.00     0.200 A 
ATOM    100  F   UNL A   1      47.855  27.895  34.943  1.00  0.00    -0.200 F 
ATOM    101  F   UNL A   1      47.363  25.513  36.175  1.00  0.00    -0.200 F 
ENDBRANCH  68  91
ENDBRANCH  42  43
ENDBRANCH  34  37
ENDBRANCH  32  33
ENDBRANCH  31  32
ENDBRANCH  30  31
ENDBRANCH   1  30
TORSDOF 17
ENDMDL
MODEL 3
REMARK VINA RESULT:     -12.0      0.939      2.181
REMARK SMILES CC[C@@H](C)[C@H](NC(=O)[C@H]1CCCN(S(=O)(=O)c2ccccc2)C1)C(=O)NCCCCNC(=O)c1ccc(-c2c3nc(c(-c4c(F)c(F)c(F)c(F)c4F)c4ccc([nH]4)c(-c4c(F)c(F)c(F)c(F)c4F)c4nc(c(-c5c(F)c(F)c(F)c(F)c5F)c5ccc2[nH]5)C=C4)C=C3)cc1
REMARK SMILES IDX 27 1 26 2 24 3 25 4 5 6 3 7 4 8 2 9 1 10 6 11 7 12 8 14 9 15
REMARK SMILES IDX 10 16 23 17 11 18 13 19 12 20 14 21 15 22 16 23 17 24 18 25
REMARK SMILES IDX 22 26 19 27 21 28 20 29 28 30 29 31 30 32 31 33 32 34 33 36
REMARK SMILES IDX 34 37 35 38 96 39 36 40 95 41 37 42 38 43 39 44 89 45 40 46
REMARK SMILES IDX 94 47 88 48 90 49 41 50 93 51 87 52 86 53 42 55 74 56 54 57
REMARK SMILES IDX 73 58 55 59 58 60 72 61 91 62 56 63 57 64 71 66 92 67 59 68
REMARK SMILES IDX 43 69 44 70 52 71 45 72 46 73 50 74 53 75 47 76 48 77 51 78
REMARK SMILES IDX 49 79 75 80 76 81 84 82 77 83 78 84 82 85 85 86 79 87 80 88
REMARK SMILES IDX 83 89 81 90 60 91 61 92 69 93 62 94 63 95 67 96 70 97 64 98
REMARK SMILES IDX 65 99 68 100 66 101
REMARK H PARENT 26 5 6 13 31 35 90 54 58 65
REMARK Flexibility Score: inf
ROOT
ATOM      1  C   UNL A   1      31.039  29.865  25.822  1.00  0.00     0.116 C 
ENDROOT
BRANCH   1   2
ATOM      2  N   UNL A   1      30.781  29.971  24.402  1.00  0.00    -0.354 N 
ATOM      3  C   UNL A   1      31.150  29.136  23.391  1.00  0.00     0.242 C 
ATOM      4  O   UNL A   1      30.656  29.335  22.278  1.00  0.00    -0.273 OA
ATOM      5  H   UNL A   1      30.264  30.762  24.127  1.00  0.00     0.163 HD
BRANCH   3   6
ATOM      6  C   UNL A   1      32.069  27.916  23.647  1.00  0.00     0.174 C 
BRANCH   6   7
ATOM      7  C   UNL A   1      33.596  28.310  23.765  1.00  0.00     0.018 C 
ATOM      8  C   UNL A   1      34.336  28.371  22.416  1.00  0.00     0.010 C 
BRANCH   7   9
ATOM      9  C   UNL A   1      34.401  27.510  24.820  1.00  0.00     0.002 C 
ATOM     10  C   UNL A   1      33.731  27.370  26.182  1.00  0.00     0.004 C 
ENDBRANCH   7   9
ENDBRANCH   6   7
BRANCH   6  11
ATOM     11  N   UNL A   1      31.764  26.849  22.682  1.00  0.00    -0.344 N 
ATOM     12  C   UNL A   1      31.756  25.498  22.859  1.00  0.00     0.225 C 
ATOM     13  H   UNL A   1      31.532  27.155  21.775  1.00  0.00     0.164 HD
ATOM     14  O   UNL A   1      31.537  24.797  21.870  1.00  0.00    -0.275 OA
BRANCH  12  15
ATOM     15  C   UNL A   1      31.937  24.891  24.239  1.00  0.00     0.094 C 
ATOM     16  C   UNL A   1      30.584  24.766  24.946  1.00  0.00     0.016 C 
ATOM     17  C   UNL A   1      32.554  23.506  24.077  1.00  0.00     0.116 C 
ATOM     18  C   UNL A   1      30.757  24.072  26.291  1.00  0.00     0.018 C 
ATOM     19  N   UNL A   1      32.755  22.861  25.421  1.00  0.00    -0.197 NA
ATOM     20  C   UNL A   1      31.458  22.723  26.150  1.00  0.00     0.102 C 
BRANCH  19  21
ATOM     21  S   UNL A   1      33.633  21.382  25.235  1.00  0.00     0.243 S 
ATOM     22  O   UNL A   1      33.374  20.574  26.413  1.00  0.00    -0.207 OA
ATOM     23  O   UNL A   1      33.342  20.873  23.914  1.00  0.00    -0.207 OA
BRANCH  21  24
ATOM     24  C   UNL A   1      35.347  21.848  25.266  1.00  0.00     0.082 A 
ATOM     25  C   UNL A   1      36.329  20.883  25.022  1.00  0.00     0.022 A 
ATOM     26  C   UNL A   1      35.709  23.133  25.686  1.00  0.00     0.022 A 
ATOM     27  C   UNL A   1      37.676  21.217  25.173  1.00  0.00     0.001 A 
ATOM     28  C   UNL A   1      37.056  23.467  25.811  1.00  0.00     0.001 A 
ATOM     29  C   UNL A   1      38.038  22.508  25.561  1.00  0.00     0.000 A 
ENDBRANCH  21  24
ENDBRANCH  19  21
ENDBRANCH  12  15
ENDBRANCH   6  11
ENDBRANCH   3   6
ENDBRANCH   1   2
BRANCH   1  30
ATOM     30  C   UNL A   1      32.177  30.762  26.293  1.00  0.00     0.023 C 
BRANCH  30  31
ATOM     31  C   UNL A   1      31.730  32.100  26.880  1.00  0.00     0.023 C 
BRANCH  31  32
ATOM     32  C   UNL A   1      32.839  32.919  27.524  1.00  0.00     0.116 C 
BRANCH  32  33
ATOM     33  N   UNL A   1      32.454  34.296  27.793  1.00  0.00    -0.352 N 
ATOM     34  C   UNL A   1      33.018  35.170  28.688  1.00  0.00     0.251 C 
ATOM     35  H   UNL A   1      31.697  34.642  27.268  1.00  0.00     0.163 HD
ATOM     36  O   UNL A   1      32.541  36.283  28.875  1.00  0.00    -0.269 OA
BRANCH  34  37
ATOM     37  C   UNL A   1      34.192  34.722  29.457  1.00  0.00     0.039 A 
ATOM     38  C   UNL A   1      34.009  34.273  30.767  1.00  0.00     0.014 A 
ATOM     39  C   UNL A   1      35.447  34.664  28.844  1.00  0.00     0.014 A 
ATOM     40  C   UNL A   1      35.083  33.703  31.449  1.00  0.00     0.010 A 
ATOM     41  C   UNL A   1      36.493  34.029  29.500  1.00  0.00     0.010 A 
ATOM     42  C   UNL A   1      36.321  33.546  30.807  1.00  0.00    -0.014 A 
BRANCH  42  43
ATOM     43  C   UNL A   1      37.473  32.906  31.485  1.00  0.00     0.031 A 
ATOM     44  C   UNL A   1      38.156  31.743  30.826  1.00  0.00     0.074 A 
ATOM     45  C   UNL A   1      37.836  33.303  32.719  1.00  0.00     0.049 A 
ATOM     46  N   UNL A   1      39.072  30.940  31.303  1.00  0.00    -0.248 NA
ATOM     47  C   UNL A   1      37.720  31.416  29.459  1.00  0.00     0.031 C 
ATOM     48  C   UNL A   1      37.220  34.392  33.475  1.00  0.00     0.029 A 
ATOM     49  N   UNL A   1      38.802  32.816  33.562  1.00  0.00    -0.354 N 
ATOM     50  C   UNL A   1      39.293  29.994  30.311  1.00  0.00     0.074 A 
ATOM     51  C   UNL A   1      38.386  30.297  29.224  1.00  0.00     0.031 C 
ATOM     52  C   UNL A   1      37.830  34.500  34.667  1.00  0.00     0.029 A 
ATOM     53  C   UNL A   1      38.852  33.462  34.773  1.00  0.00     0.049 A 
ATOM     54  H   UNL A   1      39.403  32.073  33.323  1.00  0.00     0.167 HD
ATOM     55  C   UNL A   1      40.186  28.978  30.299  1.00  0.00     0.037 A 
ATOM     56  C   UNL A   1      39.629  33.233  35.848  1.00  0.00     0.037 A 
ATOM     57  C   UNL A   1      41.115  28.712  31.364  1.00  0.00     0.049 A 
ATOM     58  C   UNL A   1      40.635  32.116  35.801  1.00  0.00     0.074 A 
ATOM     59  C   UNL A   1      42.105  27.748  31.426  1.00  0.00     0.029 A 
ATOM     60  N   UNL A   1      41.172  29.424  32.554  1.00  0.00    -0.354 N 
ATOM     61  N   UNL A   1      40.871  31.256  34.840  1.00  0.00    -0.248 NA
ATOM     62  C   UNL A   1      41.486  31.940  36.986  1.00  0.00     0.031 C 
ATOM     63  C   UNL A   1      42.741  27.856  32.668  1.00  0.00     0.029 A 
ATOM     64  C   UNL A   1      42.175  28.914  33.361  1.00  0.00     0.049 A 
ATOM     65  H   UNL A   1      40.586  30.179  32.789  1.00  0.00     0.167 HD
ATOM     66  C   UNL A   1      41.914  30.458  35.288  1.00  0.00     0.074 A 
ATOM     67  C   UNL A   1      42.271  30.940  36.607  1.00  0.00     0.031 C 
ATOM     68  C   UNL A   1      42.523  29.421  34.663  1.00  0.00     0.037 A 
BRANCH  55  69
ATOM     69  C   UNL A   1      40.194  28.082  29.096  1.00  0.00     0.064 A 
ATOM     70  C   UNL A   1      39.498  26.864  29.081  1.00  0.00     0.173 A 
ATOM     71  C   UNL A   1      40.901  28.449  27.942  1.00  0.00     0.173 A 
ATOM     72  F   UNL A   1      38.820  26.461  30.167  1.00  0.00    -0.203 F 
ATOM     73  C   UNL A   1      39.540  26.028  27.968  1.00  0.00     0.198 A 
ATOM     74  C   UNL A   1      40.916  27.625  26.819  1.00  0.00     0.198 A 
ATOM     75  F   UNL A   1      41.581  29.604  27.903  1.00  0.00    -0.203 F 
ATOM     76  F   UNL A   1      38.918  24.842  27.999  1.00  0.00    -0.200 F 
ATOM     77  C   UNL A   1      40.245  26.412  26.837  1.00  0.00     0.200 A 
ATOM     78  F   UNL A   1      41.589  28.001  25.724  1.00  0.00    -0.200 F 
ATOM     79  F   UNL A   1      40.286  25.606  25.767  1.00  0.00    -0.200 F 
ENDBRANCH  55  69
BRANCH  56  80
ATOM     80  C   UNL A   1      39.504  34.100  37.048  1.00  0.00     0.064 A 
ATOM     81  C   UNL A   1      38.739  33.691  38.149  1.00  0.00     0.173 A 
ATOM     82  C   UNL A   1      40.152  35.340  37.126  1.00  0.00     0.173 A 
ATOM     83  F   UNL A   1      38.085  32.521  38.112  1.00  0.00    -0.203 F 
ATOM     84  C   UNL A   1      38.615  34.497  39.277  1.00  0.00     0.198 A 
ATOM     85  C   UNL A   1      40.046  36.135  38.265  1.00  0.00     0.198 A 
ATOM     86  F   UNL A   1      40.901  35.772  36.101  1.00  0.00    -0.203 F 
ATOM     87  F   UNL A   1      37.848  34.099  40.302  1.00  0.00    -0.200 F 
ATOM     88  C   UNL A   1      39.273  35.716  39.338  1.00  0.00     0.200 A 
ATOM     89  F   UNL A   1      40.695  37.306  38.324  1.00  0.00    -0.200 F 
ATOM     90  F   UNL A   1      39.159  36.488  40.427  1.00  0.00    -0.200 F 
ENDBRANCH  56  80
BRANCH  68  91
ATOM     91  C   UNL A   1      43.669  28.765  35.375  1.00  0.00     0.064 A 
ATOM     92  C   UNL A   1      44.990  29.189  35.188  1.00  0.00     0.173 A 
ATOM     93  C   UNL A   1      43.429  27.737  36.300  1.00  0.00     0.173 A 
ATOM     94  F   UNL A   1      45.270  30.158  34.303  1.00  0.00    -0.203 F 
ATOM     95  C   UNL A   1      46.036  28.597  35.891  1.00  0.00     0.198 A 
ATOM     96  C   UNL A   1      44.473  27.165  37.018  1.00  0.00     0.198 A 
ATOM     97  F   UNL A   1      42.179  27.301  36.517  1.00  0.00    -0.203 F 
ATOM     98  F   UNL A   1      47.298  28.993  35.672  1.00  0.00    -0.200 F 
ATOM     99  C   UNL A   1      45.775  27.591  36.811  1.00  0.00     0.200 A 
ATOM    100  F   UNL A   1      44.219  26.202  37.915  1.00  0.00    -0.200 F 
ATOM    101  F   UNL A   1      46.783  27.030  37.495  1.00  0.00    -0.200 F 
ENDBRANCH  68  91
ENDBRANCH  42  43
ENDBRANCH  34  37
ENDBRANCH  32  33
ENDBRANCH  31  32
ENDBRANCH  30  31
ENDBRANCH   1  30
TORSDOF 17
ENDMDL
