MODEL 1
REMARK VINA RESULT:     -11.9      0.000      0.000
REMARK SMILES C[NH2+]CCC(=O)N1Cc2nc[nH]c2C[C@H]1C(=O)NCCCCNC(=O)c1ccc(-c2c3nc(c(-c4c(F)c(F)c(F)c(F)c4F)c4ccc([nH]4)c(-c4c(F)c(F)c(F)c(F)c4F)c4nc(c(-c5c(F)c(F)c(F)c(F)c5F)c5ccc2[nH]5)C=C4)C=C3)cc1
REMARK SMILES IDX 19 1 18 2 16 3 17 4 15 6 7 7 8 8 9 9 14 10 10 11 13 12 11 13
REMARK SMILES IDX 12 14 5 16 6 17 4 18 3 19 2 20 1 21 20 24 21 25 22 26 23 27
REMARK SMILES IDX 24 28 25 30 26 31 27 32 88 33 28 34 87 35 29 36 30 37 31 38
REMARK SMILES IDX 81 39 32 40 86 41 80 42 82 43 33 44 85 45 79 46 78 47 34 49
REMARK SMILES IDX 66 50 46 51 65 52 47 53 50 54 64 55 83 56 48 57 49 58 63 60
REMARK SMILES IDX 84 61 51 62 35 63 36 64 44 65 37 66 38 67 42 68 45 69 39 70
REMARK SMILES IDX 40 71 43 72 41 73 67 74 68 75 76 76 69 77 70 78 74 79 77 80
REMARK SMILES IDX 71 81 72 82 75 83 73 84 52 85 53 86 61 87 54 88 55 89 59 90
REMARK SMILES IDX 62 91 56 92 57 93 60 94 58 95
REMARK H PARENT 18 5 12 15 2 22 2 23 23 29 82 48 50 59
REMARK Flexibility Score: inf
ROOT
ATOM      1  C   UNL A   1      33.023  29.876  26.609  1.00  0.00     0.116 C 
ENDROOT
BRANCH   1   2
ATOM      2  N   UNL A   1      33.555  28.753  25.870  1.00  0.00    -0.354 N 
ATOM      3  C   UNL A   1      32.961  27.900  24.997  1.00  0.00     0.243 C 
ATOM      4  O   UNL A   1      33.723  27.455  24.123  1.00  0.00    -0.273 OA
ATOM      5  H   UNL A   1      34.511  28.578  26.028  1.00  0.00     0.163 HD
BRANCH   3   6
ATOM      6  C   UNL A   1      31.441  27.562  24.903  1.00  0.00     0.180 C 
ATOM      7  N   UNL A   1      30.827  27.021  23.649  1.00  0.00    -0.324 N 
ATOM      8  C   UNL A   1      30.864  25.566  23.405  1.00  0.00     0.178 C 
ATOM      9  C   UNL A   1      30.829  24.809  24.685  1.00  0.00     0.081 A 
ATOM     10  C   UNL A   1      30.928  26.842  26.189  1.00  0.00     0.091 C 
ATOM     11  N   UNL A   1      31.052  23.461  24.785  1.00  0.00    -0.240 NA
ATOM     12  C   UNL A   1      30.862  25.387  25.934  1.00  0.00     0.042 A 
ATOM     13  C   UNL A   1      31.161  23.221  26.075  1.00  0.00     0.197 A 
ATOM     14  N   UNL A   1      31.006  24.361  26.821  1.00  0.00    -0.348 N 
ATOM     15  H   UNL A   1      31.000  24.427  27.803  1.00  0.00     0.167 HD
BRANCH   7  16
ATOM     16  C   UNL A   1      29.912  27.740  22.885  1.00  0.00     0.229 C 
ATOM     17  O   UNL A   1      30.280  28.506  21.991  1.00  0.00    -0.275 OA
BRANCH  16  18
ATOM     18  C   UNL A   1      28.443  27.734  23.279  1.00  0.00     0.161 C 
BRANCH  18  19
ATOM     19  C   UNL A   1      27.638  29.019  23.082  1.00  0.00     0.270 C 
BRANCH  19  20
ATOM     20  N   UNL A   1      27.681  29.696  21.783  1.00  0.00    -0.348 N 
ATOM     21  C   UNL A   1      28.065  31.096  21.820  1.00  0.00     0.330 C 
ATOM     22  H   UNL A   1      28.350  29.200  21.194  1.00  0.00     0.346 HD
ATOM     23  H   UNL A   1      26.725  29.676  21.426  1.00  0.00     0.346 HD
ENDBRANCH  19  20
ENDBRANCH  18  19
ENDBRANCH  16  18
ENDBRANCH   7  16
ENDBRANCH   3   6
ENDBRANCH   1   2
BRANCH   1  24
ATOM     24  C   UNL A   1      34.072  30.678  27.371  1.00  0.00     0.023 C 
BRANCH  24  25
ATOM     25  C   UNL A   1      33.627  32.066  27.841  1.00  0.00     0.023 C 
BRANCH  25  26
ATOM     26  C   UNL A   1      34.714  32.915  28.493  1.00  0.00     0.116 C 
BRANCH  26  27
ATOM     27  N   UNL A   1      34.621  32.979  29.949  1.00  0.00    -0.352 N 
ATOM     28  C   UNL A   1      35.249  32.140  30.843  1.00  0.00     0.251 C 
ATOM     29  H   UNL A   1      34.056  33.691  30.328  1.00  0.00     0.163 HD
ATOM     30  O   UNL A   1      34.810  31.962  31.981  1.00  0.00    -0.269 OA
BRANCH  28  31
ATOM     31  C   UNL A   1      36.481  31.461  30.417  1.00  0.00     0.039 A 
ATOM     32  C   UNL A   1      37.682  32.160  30.292  1.00  0.00     0.014 A 
ATOM     33  C   UNL A   1      36.421  30.083  30.194  1.00  0.00     0.014 A 
ATOM     34  C   UNL A   1      38.845  31.442  30.030  1.00  0.00     0.010 A 
ATOM     35  C   UNL A   1      37.584  29.363  30.030  1.00  0.00     0.010 A 
ATOM     36  C   UNL A   1      38.798  30.037  29.932  1.00  0.00    -0.014 A 
BRANCH  36  37
ATOM     37  C   UNL A   1      40.047  29.277  29.921  1.00  0.00     0.031 A 
ATOM     38  C   UNL A   1      40.625  29.052  31.278  1.00  0.00     0.074 A 
ATOM     39  C   UNL A   1      40.573  28.668  28.836  1.00  0.00     0.049 A 
ATOM     40  N   UNL A   1      41.731  29.532  31.739  1.00  0.00    -0.248 NA
ATOM     41  C   UNL A   1      39.823  28.338  32.286  1.00  0.00     0.031 C 
ATOM     42  C   UNL A   1      40.000  28.531  27.496  1.00  0.00     0.029 A 
ATOM     43  N   UNL A   1      41.730  27.953  28.734  1.00  0.00    -0.354 N 
ATOM     44  C   UNL A   1      41.866  29.034  33.032  1.00  0.00     0.074 A 
ATOM     45  C   UNL A   1      40.596  28.446  33.369  1.00  0.00     0.031 C 
ATOM     46  C   UNL A   1      40.688  27.597  26.801  1.00  0.00     0.029 A 
ATOM     47  C   UNL A   1      41.839  27.179  27.582  1.00  0.00     0.049 A 
ATOM     48  H   UNL A   1      42.435  27.983  29.421  1.00  0.00     0.167 HD
ATOM     49  C   UNL A   1      43.096  28.947  33.610  1.00  0.00     0.037 A 
ATOM     50  C   UNL A   1      42.790  26.246  27.313  1.00  0.00     0.037 A 
ATOM     51  C   UNL A   1      44.041  29.806  32.935  1.00  0.00     0.049 A 
ATOM     52  C   UNL A   1      43.951  26.539  28.193  1.00  0.00     0.074 A 
ATOM     53  C   UNL A   1      44.076  31.160  32.649  1.00  0.00     0.029 A 
ATOM     54  N   UNL A   1      44.954  29.231  32.085  1.00  0.00    -0.354 N 
ATOM     55  N   UNL A   1      44.713  27.588  28.054  1.00  0.00    -0.248 NA
ATOM     56  C   UNL A   1      43.964  25.920  29.511  1.00  0.00     0.031 C 
ATOM     57  C   UNL A   1      44.581  31.237  31.316  1.00  0.00     0.029 A 
ATOM     58  C   UNL A   1      44.916  29.945  30.915  1.00  0.00     0.049 A 
ATOM     59  H   UNL A   1      45.527  28.454  32.278  1.00  0.00     0.167 HD
ATOM     60  C   UNL A   1      44.927  28.029  29.349  1.00  0.00     0.074 A 
ATOM     61  C   UNL A   1      44.503  26.924  30.208  1.00  0.00     0.031 C 
ATOM     62  C   UNL A   1      45.140  29.349  29.620  1.00  0.00     0.037 A 
BRANCH  49  63
ATOM     63  C   UNL A   1      43.543  27.806  34.499  1.00  0.00     0.064 A 
ATOM     64  C   UNL A   1      43.587  26.503  33.959  1.00  0.00     0.173 A 
ATOM     65  C   UNL A   1      43.604  27.876  35.907  1.00  0.00     0.173 A 
ATOM     66  F   UNL A   1      43.532  26.310  32.631  1.00  0.00    -0.203 F 
ATOM     67  C   UNL A   1      43.575  25.365  34.767  1.00  0.00     0.198 A 
ATOM     68  C   UNL A   1      43.645  26.737  36.711  1.00  0.00     0.198 A 
ATOM     69  F   UNL A   1      43.515  29.031  36.573  1.00  0.00    -0.203 F 
ATOM     70  F   UNL A   1      43.465  24.152  34.207  1.00  0.00    -0.200 F 
ATOM     71  C   UNL A   1      43.591  25.483  36.143  1.00  0.00     0.200 A 
ATOM     72  F   UNL A   1      43.645  26.876  38.044  1.00  0.00    -0.200 F 
ATOM     73  F   UNL A   1      43.504  24.398  36.924  1.00  0.00    -0.200 F 
ENDBRANCH  49  63
BRANCH  50  74
ATOM     74  C   UNL A   1      42.674  24.958  26.575  1.00  0.00     0.064 A 
ATOM     75  C   UNL A   1      43.434  24.722  25.412  1.00  0.00     0.173 A 
ATOM     76  C   UNL A   1      42.053  23.830  27.145  1.00  0.00     0.173 A 
ATOM     77  F   UNL A   1      44.090  25.729  24.817  1.00  0.00    -0.203 F 
ATOM     78  C   UNL A   1      43.603  23.435  24.888  1.00  0.00     0.198 A 
ATOM     79  C   UNL A   1      42.217  22.548  26.616  1.00  0.00     0.198 A 
ATOM     80  F   UNL A   1      41.354  23.930  28.284  1.00  0.00    -0.203 F 
ATOM     81  F   UNL A   1      44.397  23.243  23.825  1.00  0.00    -0.200 F 
ATOM     82  C   UNL A   1      43.006  22.347  25.500  1.00  0.00     0.200 A 
ATOM     83  F   UNL A   1      41.657  21.499  27.236  1.00  0.00    -0.200 F 
ATOM     84  F   UNL A   1      43.224  21.106  25.043  1.00  0.00    -0.200 F 
ENDBRANCH  50  74
BRANCH  62  85
ATOM     85  C   UNL A   1      45.406  30.291  28.480  1.00  0.00     0.064 A 
ATOM     86  C   UNL A   1      44.408  30.928  27.722  1.00  0.00     0.173 A 
ATOM     87  C   UNL A   1      46.733  30.686  28.257  1.00  0.00     0.173 A 
ATOM     88  F   UNL A   1      43.109  30.685  27.939  1.00  0.00    -0.203 F 
ATOM     89  C   UNL A   1      44.733  31.885  26.760  1.00  0.00     0.198 A 
ATOM     90  C   UNL A   1      47.050  31.671  27.327  1.00  0.00     0.198 A 
ATOM     91  F   UNL A   1      47.726  30.149  28.985  1.00  0.00    -0.203 F 
ATOM     92  F   UNL A   1      43.764  32.472  26.041  1.00  0.00    -0.200 F 
ATOM     93  C   UNL A   1      46.052  32.262  26.571  1.00  0.00     0.200 A 
ATOM     94  F   UNL A   1      48.322  32.066  27.187  1.00  0.00    -0.200 F 
ATOM     95  F   UNL A   1      46.360  33.216  25.681  1.00  0.00    -0.200 F 
ENDBRANCH  62  85
ENDBRANCH  36  37
ENDBRANCH  28  31
ENDBRANCH  26  27
ENDBRANCH  25  26
ENDBRANCH  24  25
ENDBRANCH   1  24
TORSDOF 15
ENDMDL
MODEL 2
REMARK VINA RESULT:     -11.9      1.456      2.228
REMARK SMILES C[NH2+]CCC(=O)N1Cc2nc[nH]c2C[C@H]1C(=O)NCCCCNC(=O)c1ccc(-c2c3nc(c(-c4c(F)c(F)c(F)c(F)c4F)c4ccc([nH]4)c(-c4c(F)c(F)c(F)c(F)c4F)c4nc(c(-c5c(F)c(F)c(F)c(F)c5F)c5ccc2[nH]5)C=C4)C=C3)cc1
REMARK SMILES IDX 19 1 18 2 16 3 17 4 15 6 7 7 8 8 9 9 14 10 10 11 13 12 11 13
REMARK SMILES IDX 12 14 5 16 6 17 4 18 3 19 2 20 1 21 20 24 21 25 22 26 23 27
REMARK SMILES IDX 24 28 25 30 26 31 27 32 88 33 28 34 87 35 29 36 30 37 31 38
REMARK SMILES IDX 81 39 32 40 86 41 80 42 82 43 33 44 85 45 79 46 78 47 34 49
REMARK SMILES IDX 66 50 46 51 65 52 47 53 50 54 64 55 83 56 48 57 49 58 63 60
REMARK SMILES IDX 84 61 51 62 35 63 36 64 44 65 37 66 38 67 42 68 45 69 39 70
REMARK SMILES IDX 40 71 43 72 41 73 67 74 68 75 76 76 69 77 70 78 74 79 77 80
REMARK SMILES IDX 71 81 72 82 75 83 73 84 52 85 53 86 61 87 54 88 55 89 59 90
REMARK SMILES IDX 62 91 56 92 57 93 60 94 58 95
REMARK H PARENT 18 5 12 15 2 22 2 23 23 29 82 48 50 59
REMARK Flexibility Score: inf
ROOT
ATOM      1  C   UNL A   1      33.204  26.614  25.666  1.00  0.00     0.116 C 
ENDROOT
BRANCH   1   2
ATOM      2  N   UNL A   1      31.880  26.544  26.242  1.00  0.00    -0.354 N 
ATOM      3  C   UNL A   1      30.691  26.175  25.699  1.00  0.00     0.243 C 
ATOM      4  O   UNL A   1      29.900  25.665  26.508  1.00  0.00    -0.273 OA
ATOM      5  H   UNL A   1      31.833  26.808  27.189  1.00  0.00     0.163 HD
BRANCH   3   6
ATOM      6  C   UNL A   1      30.305  26.194  24.188  1.00  0.00     0.180 C 
ATOM      7  N   UNL A   1      30.854  27.217  23.244  1.00  0.00    -0.324 N 
ATOM      8  C   UNL A   1      32.161  26.972  22.604  1.00  0.00     0.178 C 
ATOM      9  C   UNL A   1      32.391  25.516  22.402  1.00  0.00     0.081 A 
ATOM     10  C   UNL A   1      30.283  24.757  23.579  1.00  0.00     0.091 C 
ATOM     11  N   UNL A   1      33.590  24.975  22.018  1.00  0.00    -0.240 NA
ATOM     12  C   UNL A   1      31.546  24.524  22.846  1.00  0.00     0.042 A 
ATOM     13  C   UNL A   1      33.451  23.675  22.174  1.00  0.00     0.197 A 
ATOM     14  N   UNL A   1      32.201  23.347  22.634  1.00  0.00    -0.348 N 
ATOM     15  H   UNL A   1      31.847  22.441  22.783  1.00  0.00     0.167 HD
BRANCH   7  16
ATOM     16  C   UNL A   1      30.065  28.198  22.651  1.00  0.00     0.229 C 
ATOM     17  O   UNL A   1      30.541  29.017  21.859  1.00  0.00    -0.275 OA
BRANCH  16  18
ATOM     18  C   UNL A   1      28.634  28.395  23.127  1.00  0.00     0.161 C 
BRANCH  18  19
ATOM     19  C   UNL A   1      27.956  29.735  22.842  1.00  0.00     0.270 C 
BRANCH  19  20
ATOM     20  N   UNL A   1      27.654  30.101  21.455  1.00  0.00    -0.348 N 
ATOM     21  C   UNL A   1      28.073  31.434  21.056  1.00  0.00     0.330 C 
ATOM     22  H   UNL A   1      28.119  29.429  20.846  1.00  0.00     0.346 HD
ATOM     23  H   UNL A   1      26.637  30.092  21.379  1.00  0.00     0.346 HD
ENDBRANCH  19  20
ENDBRANCH  18  19
ENDBRANCH  16  18
ENDBRANCH   7  16
ENDBRANCH   3   6
ENDBRANCH   1   2
BRANCH   1  24
ATOM     24  C   UNL A   1      33.904  27.953  25.867  1.00  0.00     0.023 C 
BRANCH  24  25
ATOM     25  C   UNL A   1      33.046  29.059  26.488  1.00  0.00     0.023 C 
BRANCH  25  26
ATOM     26  C   UNL A   1      33.712  29.854  27.608  1.00  0.00     0.116 C 
BRANCH  26  27
ATOM     27  N   UNL A   1      34.140  31.192  27.211  1.00  0.00    -0.352 N 
ATOM     28  C   UNL A   1      35.271  31.847  27.645  1.00  0.00     0.251 C 
ATOM     29  H   UNL A   1      33.566  31.671  26.570  1.00  0.00     0.163 HD
ATOM     30  O   UNL A   1      35.352  33.077  27.631  1.00  0.00    -0.269 OA
BRANCH  28  31
ATOM     31  C   UNL A   1      36.406  31.043  28.119  1.00  0.00     0.039 A 
ATOM     32  C   UNL A   1      36.558  29.712  27.729  1.00  0.00     0.014 A 
ATOM     33  C   UNL A   1      37.356  31.672  28.929  1.00  0.00     0.014 A 
ATOM     34  C   UNL A   1      37.725  29.044  28.086  1.00  0.00     0.010 A 
ATOM     35  C   UNL A   1      38.551  31.041  29.200  1.00  0.00     0.010 A 
ATOM     36  C   UNL A   1      38.737  29.723  28.795  1.00  0.00    -0.014 A 
BRANCH  36  37
ATOM     37  C   UNL A   1      40.054  29.103  28.934  1.00  0.00     0.031 A 
ATOM     38  C   UNL A   1      40.465  28.877  30.350  1.00  0.00     0.074 A 
ATOM     39  C   UNL A   1      40.786  28.606  27.913  1.00  0.00     0.049 A 
ATOM     40  N   UNL A   1      41.437  29.450  30.976  1.00  0.00    -0.248 NA
ATOM     41  C   UNL A   1      39.619  28.034  31.213  1.00  0.00     0.031 C 
ATOM     42  C   UNL A   1      40.418  28.472  26.503  1.00  0.00     0.029 A 
ATOM     43  N   UNL A   1      42.020  28.025  27.950  1.00  0.00    -0.354 N 
ATOM     44  C   UNL A   1      41.451  28.908  32.258  1.00  0.00     0.074 A 
ATOM     45  C   UNL A   1      40.222  28.172  32.396  1.00  0.00     0.031 C 
ATOM     46  C   UNL A   1      41.295  27.651  25.881  1.00  0.00     0.029 A 
ATOM     47  C   UNL A   1      42.370  27.322  26.800  1.00  0.00     0.049 A 
ATOM     48  H   UNL A   1      42.618  28.098  28.730  1.00  0.00     0.167 HD
ATOM     49  C   UNL A   1      42.594  28.926  32.999  1.00  0.00     0.037 A 
ATOM     50  C   UNL A   1      43.448  26.510  26.637  1.00  0.00     0.037 A 
ATOM     51  C   UNL A   1      43.518  29.912  32.491  1.00  0.00     0.049 A 
ATOM     52  C   UNL A   1      44.438  26.884  27.679  1.00  0.00     0.074 A 
ATOM     53  C   UNL A   1      43.439  31.274  32.256  1.00  0.00     0.029 A 
ATOM     54  N   UNL A   1      44.597  29.479  31.758  1.00  0.00    -0.354 N 
ATOM     55  N   UNL A   1      45.089  28.013  27.682  1.00  0.00    -0.248 NA
ATOM     56  C   UNL A   1      44.343  26.208  28.965  1.00  0.00     0.031 C 
ATOM     57  C   UNL A   1      44.107  31.468  31.010  1.00  0.00     0.029 A 
ATOM     58  C   UNL A   1      44.637  30.240  30.618  1.00  0.00     0.049 A 
ATOM     59  H   UNL A   1      45.223  28.760  32.004  1.00  0.00     0.167 HD
ATOM     60  C   UNL A   1      45.075  28.414  29.008  1.00  0.00     0.074 A 
ATOM     61  C   UNL A   1      44.666  27.229  29.763  1.00  0.00     0.031 C 
ATOM     62  C   UNL A   1      45.100  29.734  29.349  1.00  0.00     0.037 A 
BRANCH  49  63
ATOM     63  C   UNL A   1      43.042  27.798  33.904  1.00  0.00     0.064 A 
ATOM     64  C   UNL A   1      43.309  28.083  35.261  1.00  0.00     0.173 A 
ATOM     65  C   UNL A   1      43.532  26.558  33.441  1.00  0.00     0.173 A 
ATOM     66  F   UNL A   1      42.895  29.234  35.813  1.00  0.00    -0.203 F 
ATOM     67  C   UNL A   1      44.101  27.247  36.051  1.00  0.00     0.198 A 
ATOM     68  C   UNL A   1      44.279  25.702  34.250  1.00  0.00     0.198 A 
ATOM     69  F   UNL A   1      43.413  26.169  32.169  1.00  0.00    -0.203 F 
ATOM     70  F   UNL A   1      44.450  27.635  37.285  1.00  0.00    -0.200 F 
ATOM     71  C   UNL A   1      44.596  26.063  35.540  1.00  0.00     0.200 A 
ATOM     72  F   UNL A   1      44.761  24.565  33.729  1.00  0.00    -0.200 F 
ATOM     73  F   UNL A   1      45.416  25.295  36.269  1.00  0.00    -0.200 F 
ENDBRANCH  49  63
BRANCH  50  74
ATOM     74  C   UNL A   1      43.578  25.254  25.849  1.00  0.00     0.064 A 
ATOM     75  C   UNL A   1      44.744  24.988  25.103  1.00  0.00     0.173 A 
ATOM     76  C   UNL A   1      42.707  24.165  26.041  1.00  0.00     0.173 A 
ATOM     77  F   UNL A   1      45.650  25.955  24.896  1.00  0.00    -0.203 F 
ATOM     78  C   UNL A   1      45.041  23.705  24.629  1.00  0.00     0.198 A 
ATOM     79  C   UNL A   1      43.002  22.887  25.560  1.00  0.00     0.198 A 
ATOM     80  F   UNL A   1      41.599  24.290  26.783  1.00  0.00    -0.203 F 
ATOM     81  F   UNL A   1      46.198  23.478  23.990  1.00  0.00    -0.200 F 
ATOM     82  C   UNL A   1      44.176  22.652  24.870  1.00  0.00     0.200 A 
ATOM     83  F   UNL A   1      42.170  21.870  25.828  1.00  0.00    -0.200 F 
ATOM     84  F   UNL A   1      44.492  21.410  24.480  1.00  0.00    -0.200 F 
ENDBRANCH  50  74
BRANCH  62  85
ATOM     85  C   UNL A   1      45.410  30.752  28.288  1.00  0.00     0.064 A 
ATOM     86  C   UNL A   1      44.470  31.265  27.376  1.00  0.00     0.173 A 
ATOM     87  C   UNL A   1      46.679  31.349  28.308  1.00  0.00     0.173 A 
ATOM     88  F   UNL A   1      43.206  30.823  27.357  1.00  0.00    -0.203 F 
ATOM     89  C   UNL A   1      44.805  32.299  26.501  1.00  0.00     0.198 A 
ATOM     90  C   UNL A   1      46.995  32.408  27.464  1.00  0.00     0.198 A 
ATOM     91  F   UNL A   1      47.602  30.935  29.191  1.00  0.00    -0.203 F 
ATOM     92  F   UNL A   1      43.895  32.766  25.632  1.00  0.00    -0.200 F 
ATOM     93  C   UNL A   1      46.063  32.876  26.553  1.00  0.00     0.200 A 
ATOM     94  F   UNL A   1      48.197  32.994  27.555  1.00  0.00    -0.200 F 
ATOM     95  F   UNL A   1      46.369  33.901  25.746  1.00  0.00    -0.200 F 
ENDBRANCH  62  85
ENDBRANCH  36  37
ENDBRANCH  28  31
ENDBRANCH  26  27
ENDBRANCH  25  26
ENDBRANCH  24  25
ENDBRANCH   1  24
TORSDOF 15
ENDMDL
MODEL 3
REMARK VINA RESULT:     -11.7      1.534      2.704
REMARK SMILES C[NH2+]CCC(=O)N1Cc2nc[nH]c2C[C@H]1C(=O)NCCCCNC(=O)c1ccc(-c2c3nc(c(-c4c(F)c(F)c(F)c(F)c4F)c4ccc([nH]4)c(-c4c(F)c(F)c(F)c(F)c4F)c4nc(c(-c5c(F)c(F)c(F)c(F)c5F)c5ccc2[nH]5)C=C4)C=C3)cc1
REMARK SMILES IDX 19 1 18 2 16 3 17 4 15 6 7 7 8 8 9 9 14 10 10 11 13 12 11 13
REMARK SMILES IDX 12 14 5 16 6 17 4 18 3 19 2 20 1 21 20 24 21 25 22 26 23 27
REMARK SMILES IDX 24 28 25 30 26 31 27 32 88 33 28 34 87 35 29 36 30 37 31 38
REMARK SMILES IDX 81 39 32 40 86 41 80 42 82 43 33 44 85 45 79 46 78 47 34 49
REMARK SMILES IDX 66 50 46 51 65 52 47 53 50 54 64 55 83 56 48 57 49 58 63 60
REMARK SMILES IDX 84 61 51 62 35 63 36 64 44 65 37 66 38 67 42 68 45 69 39 70
REMARK SMILES IDX 40 71 43 72 41 73 67 74 68 75 76 76 69 77 70 78 74 79 77 80
REMARK SMILES IDX 71 81 72 82 75 83 73 84 52 85 53 86 61 87 54 88 55 89 59 90
REMARK SMILES IDX 62 91 56 92 57 93 60 94 58 95
REMARK H PARENT 18 5 12 15 2 22 2 23 23 29 82 48 50 59
REMARK Flexibility Score: inf
ROOT
ATOM      1  C   UNL A   1      31.591  27.497  26.208  1.00  0.00     0.116 C 
ENDROOT
BRANCH   1   2
ATOM      2  N   UNL A   1      31.115  26.250  26.764  1.00  0.00    -0.354 N 
ATOM      3  C   UNL A   1      31.347  24.964  26.395  1.00  0.00     0.243 C 
ATOM      4  O   UNL A   1      31.314  24.152  27.333  1.00  0.00    -0.273 OA
ATOM      5  H   UNL A   1      30.522  26.351  27.543  1.00  0.00     0.163 HD
BRANCH   3   6
ATOM      6  C   UNL A   1      31.784  24.457  24.985  1.00  0.00     0.180 C 
ATOM      7  N   UNL A   1      33.186  24.619  24.487  1.00  0.00    -0.324 N 
ATOM      8  C   UNL A   1      34.193  23.599  24.841  1.00  0.00     0.178 C 
ATOM      9  C   UNL A   1      33.565  22.259  24.993  1.00  0.00     0.081 A 
ATOM     10  C   UNL A   1      31.184  23.053  24.663  1.00  0.00     0.091 C 
ATOM     11  N   UNL A   1      34.207  21.165  25.509  1.00  0.00    -0.240 NA
ATOM     12  C   UNL A   1      32.211  22.020  24.916  1.00  0.00     0.042 A 
ATOM     13  C   UNL A   1      33.267  20.262  25.688  1.00  0.00     0.197 A 
ATOM     14  N   UNL A   1      32.035  20.722  25.297  1.00  0.00    -0.348 N 
ATOM     15  H   UNL A   1      31.191  20.216  25.291  1.00  0.00     0.167 HD
BRANCH   7  16
ATOM     16  C   UNL A   1      33.519  25.454  23.425  1.00  0.00     0.229 C 
ATOM     17  O   UNL A   1      33.757  25.004  22.300  1.00  0.00    -0.275 OA
BRANCH  16  18
ATOM     18  C   UNL A   1      33.786  26.928  23.689  1.00  0.00     0.161 C 
BRANCH  18  19
ATOM     19  C   UNL A   1      33.059  27.959  22.825  1.00  0.00     0.270 C 
BRANCH  19  20
ATOM     20  N   UNL A   1      31.968  27.517  21.953  1.00  0.00    -0.348 N 
ATOM     21  C   UNL A   1      30.639  27.571  22.538  1.00  0.00     0.330 C 
ATOM     22  H   UNL A   1      31.971  28.108  21.122  1.00  0.00     0.346 HD
ATOM     23  H   UNL A   1      32.148  26.532  21.757  1.00  0.00     0.346 HD
ENDBRANCH  19  20
ENDBRANCH  18  19
ENDBRANCH  16  18
ENDBRANCH   7  16
ENDBRANCH   3   6
ENDBRANCH   1   2
BRANCH   1  24
ATOM     24  C   UNL A   1      32.740  28.131  26.984  1.00  0.00     0.023 C 
BRANCH  24  25
ATOM     25  C   UNL A   1      32.604  29.633  27.251  1.00  0.00     0.023 C 
BRANCH  25  26
ATOM     26  C   UNL A   1      33.914  30.415  27.270  1.00  0.00     0.116 C 
BRANCH  26  27
ATOM     27  N   UNL A   1      33.935  31.513  28.231  1.00  0.00    -0.352 N 
ATOM     28  C   UNL A   1      34.875  31.714  29.218  1.00  0.00     0.251 C 
ATOM     29  H   UNL A   1      33.208  32.174  28.168  1.00  0.00     0.163 HD
ATOM     30  O   UNL A   1      34.619  32.366  30.233  1.00  0.00    -0.269 OA
BRANCH  28  31
ATOM     31  C   UNL A   1      36.216  31.143  29.032  1.00  0.00     0.039 A 
ATOM     32  C   UNL A   1      37.359  31.857  29.392  1.00  0.00     0.014 A 
ATOM     33  C   UNL A   1      36.305  29.840  28.534  1.00  0.00     0.014 A 
ATOM     34  C   UNL A   1      38.591  31.213  29.333  1.00  0.00     0.010 A 
ATOM     35  C   UNL A   1      37.512  29.174  28.567  1.00  0.00     0.010 A 
ATOM     36  C   UNL A   1      38.661  29.859  28.951  1.00  0.00    -0.014 A 
BRANCH  36  37
ATOM     37  C   UNL A   1      39.910  29.123  29.144  1.00  0.00     0.031 A 
ATOM     38  C   UNL A   1      40.181  28.763  30.565  1.00  0.00     0.074 A 
ATOM     39  C   UNL A   1      40.685  28.641  28.148  1.00  0.00     0.049 A 
ATOM     40  N   UNL A   1      41.138  29.207  31.309  1.00  0.00    -0.248 NA
ATOM     41  C   UNL A   1      39.203  27.933  31.291  1.00  0.00     0.031 C 
ATOM     42  C   UNL A   1      40.428  28.640  26.707  1.00  0.00     0.029 A 
ATOM     43  N   UNL A   1      41.863  27.958  28.236  1.00  0.00    -0.354 N 
ATOM     44  C   UNL A   1      41.002  28.575  32.542  1.00  0.00     0.074 A 
ATOM     45  C   UNL A   1      39.712  27.936  32.525  1.00  0.00     0.031 C 
ATOM     46  C   UNL A   1      41.289  27.795  26.094  1.00  0.00     0.029 A 
ATOM     47  C   UNL A   1      42.253  27.313  27.066  1.00  0.00     0.049 A 
ATOM     48  H   UNL A   1      42.396  27.925  29.063  1.00  0.00     0.167 HD
ATOM     49  C   UNL A   1      42.076  28.445  33.369  1.00  0.00     0.037 A 
ATOM     50  C   UNL A   1      43.275  26.428  26.924  1.00  0.00     0.037 A 
ATOM     51  C   UNL A   1      43.114  29.385  33.014  1.00  0.00     0.049 A 
ATOM     52  C   UNL A   1      44.200  26.642  28.067  1.00  0.00     0.074 A 
ATOM     53  C   UNL A   1      43.159  30.762  32.880  1.00  0.00     0.029 A 
ATOM     54  N   UNL A   1      44.213  28.917  32.336  1.00  0.00    -0.354 N 
ATOM     55  N   UNL A   1      44.933  27.711  28.209  1.00  0.00    -0.248 NA
ATOM     56  C   UNL A   1      43.945  25.887  29.285  1.00  0.00     0.031 C 
ATOM     57  C   UNL A   1      43.944  30.988  31.710  1.00  0.00     0.029 A 
ATOM     58  C   UNL A   1      44.408  29.751  31.265  1.00  0.00     0.049 A 
ATOM     59  H   UNL A   1      44.759  28.132  32.573  1.00  0.00     0.167 HD
ATOM     60  C   UNL A   1      44.839  28.015  29.557  1.00  0.00     0.074 A 
ATOM     61  C   UNL A   1      44.277  26.817  30.183  1.00  0.00     0.031 C 
ATOM     62  C   UNL A   1      44.936  29.301  30.001  1.00  0.00     0.037 A 
BRANCH  49  63
ATOM     63  C   UNL A   1      42.358  27.222  34.216  1.00  0.00     0.064 A 
ATOM     64  C   UNL A   1      42.039  27.260  35.590  1.00  0.00     0.173 A 
ATOM     65  C   UNL A   1      43.210  26.167  33.825  1.00  0.00     0.173 A 
ATOM     66  F   UNL A   1      41.240  28.220  36.081  1.00  0.00    -0.203 F 
ATOM     67  C   UNL A   1      42.621  26.386  36.511  1.00  0.00     0.198 A 
ATOM     68  C   UNL A   1      43.748  25.263  34.740  1.00  0.00     0.198 A 
ATOM     69  F   UNL A   1      43.651  26.027  32.571  1.00  0.00    -0.203 F 
ATOM     70  F   UNL A   1      42.404  26.559  37.821  1.00  0.00    -0.200 F 
ATOM     71  C   UNL A   1      43.485  25.396  36.086  1.00  0.00     0.200 A 
ATOM     72  F   UNL A   1      44.596  24.319  34.308  1.00  0.00    -0.200 F 
ATOM     73  F   UNL A   1      44.103  24.603  36.971  1.00  0.00    -0.200 F 
ENDBRANCH  49  63
BRANCH  50  74
ATOM     74  C   UNL A   1      43.374  25.225  26.053  1.00  0.00     0.064 A 
ATOM     75  C   UNL A   1      44.497  25.024  25.225  1.00  0.00     0.173 A 
ATOM     76  C   UNL A   1      42.531  24.111  26.228  1.00  0.00     0.173 A 
ATOM     77  F   UNL A   1      45.376  26.017  25.025  1.00  0.00    -0.203 F 
ATOM     78  C   UNL A   1      44.782  23.778  24.655  1.00  0.00     0.198 A 
ATOM     79  C   UNL A   1      42.812  22.871  25.651  1.00  0.00     0.198 A 
ATOM     80  F   UNL A   1      41.467  24.173  27.040  1.00  0.00    -0.203 F 
ATOM     81  F   UNL A   1      45.901  23.610  23.937  1.00  0.00    -0.200 F 
ATOM     82  C   UNL A   1      43.946  22.698  24.881  1.00  0.00     0.200 A 
ATOM     83  F   UNL A   1      42.011  21.826  25.904  1.00  0.00    -0.200 F 
ATOM     84  F   UNL A   1      44.254  21.488  24.396  1.00  0.00    -0.200 F 
ENDBRANCH  50  74
BRANCH  62  85
ATOM     85  C   UNL A   1      45.412  30.363  29.051  1.00  0.00     0.064 A 
ATOM     86  C   UNL A   1      46.763  30.664  28.802  1.00  0.00     0.173 A 
ATOM     87  C   UNL A   1      44.454  30.988  28.239  1.00  0.00     0.173 A 
ATOM     88  F   UNL A   1      47.747  30.040  29.462  1.00  0.00    -0.203 F 
ATOM     89  C   UNL A   1      47.128  31.579  27.814  1.00  0.00     0.198 A 
ATOM     90  C   UNL A   1      44.824  31.866  27.226  1.00  0.00     0.198 A 
ATOM     91  F   UNL A   1      43.151  30.702  28.396  1.00  0.00    -0.203 F 
ATOM     92  F   UNL A   1      48.423  31.859  27.602  1.00  0.00    -0.200 F 
ATOM     93  C   UNL A   1      46.159  32.171  27.021  1.00  0.00     0.200 A 
ATOM     94  F   UNL A   1      43.885  32.395  26.430  1.00  0.00    -0.200 F 
ATOM     95  F   UNL A   1      46.513  33.013  26.040  1.00  0.00    -0.200 F 
ENDBRANCH  62  85
ENDBRANCH  36  37
ENDBRANCH  28  31
ENDBRANCH  26  27
ENDBRANCH  25  26
ENDBRANCH  24  25
ENDBRANCH   1  24
TORSDOF 15
ENDMDL
