MODEL 1
REMARK VINA RESULT:     -12.8      0.000      0.000
REMARK SMILES Cc1cc(C(=O)N[C@@H]2CC2(C)C)sc1/C=C/C(=O)NCCCCNC(=O)c1ccc(-c2c3nc(c(-c4c(F)c(F)c(F)c(F)c4F)c4ccc([nH]4)c(-c4c(F)c(F)c(F)c(F)c4F)c4nc(c(-c5c(F)c(F)c(F)c(F)c5F)c5ccc2[nH]5)C=C4)C=C3)cc1
REMARK SMILES IDX 21 1 20 2 19 3 17 4 18 5 16 7 15 8 14 9 1 10 2 11 3 12 4 13
REMARK SMILES IDX 13 14 5 15 6 16 7 17 8 19 9 20 10 21 11 22 12 23 22 24 23 25
REMARK SMILES IDX 24 26 25 27 26 29 27 30 28 31 89 32 29 33 88 34 30 35 31 36
REMARK SMILES IDX 32 37 82 38 33 39 87 40 81 41 83 42 34 43 86 44 80 45 79 46
REMARK SMILES IDX 35 48 67 49 47 50 66 51 48 52 51 53 65 54 84 55 49 56 50 57
REMARK SMILES IDX 64 59 85 60 52 61 36 62 37 63 45 64 38 65 39 66 43 67 46 68
REMARK SMILES IDX 40 69 41 70 44 71 42 72 68 73 69 74 77 75 70 76 71 77 75 78
REMARK SMILES IDX 78 79 72 80 73 81 76 82 74 83 53 84 54 85 62 86 55 87 56 88
REMARK SMILES IDX 60 89 63 90 57 91 58 92 61 93 59 94
REMARK H PARENT 19 6 7 18 24 28 83 47 51 58
REMARK Flexibility Score: inf
ROOT
ATOM      1  C   UNL A   1      31.998  30.191  26.778  1.00  0.00     0.023 C 
ENDROOT
BRANCH   1   2
ATOM      2  C   UNL A   1      33.405  29.778  26.345  1.00  0.00     0.116 C 
BRANCH   2   3
ATOM      3  N   UNL A   1      33.466  29.593  24.912  1.00  0.00    -0.353 N 
ATOM      4  C   UNL A   1      33.647  28.460  24.184  1.00  0.00     0.244 C 
ATOM      5  O   UNL A   1      33.597  28.523  22.956  1.00  0.00    -0.270 OA
ATOM      6  H   UNL A   1      33.361  30.416  24.382  1.00  0.00     0.163 HD
BRANCH   4   7
ATOM      7  C   UNL A   1      33.783  27.135  24.830  1.00  0.00     0.072 C 
ATOM      8  C   UNL A   1      33.378  25.940  24.373  1.00  0.00     0.025 C 
BRANCH   8   9
ATOM      9  C   UNL A   1      33.674  24.770  25.122  1.00  0.00     0.031 A 
ATOM     10  C   UNL A   1      31.567  24.485  26.576  1.00  0.00     0.046 C 
ATOM     11  C   UNL A   1      32.883  24.057  26.014  1.00  0.00    -0.032 A 
ATOM     12  C   UNL A   1      33.459  22.761  26.242  1.00  0.00     0.029 A 
ATOM     13  C   UNL A   1      34.641  22.566  25.543  1.00  0.00     0.093 A 
ATOM     14  S   UNL A   1      35.251  24.079  25.074  1.00  0.00    -0.130 S 
BRANCH  13  15
ATOM     15  C   UNL A   1      35.368  21.326  25.425  1.00  0.00     0.261 C 
ATOM     16  O   UNL A   1      36.560  21.264  25.752  1.00  0.00    -0.268 OA
ATOM     17  N   UNL A   1      34.817  20.118  25.054  1.00  0.00    -0.348 N 
ATOM     18  H   UNL A   1      35.511  19.421  25.081  1.00  0.00     0.164 HD
BRANCH  17  19
ATOM     19  C   UNL A   1      33.577  19.536  24.642  1.00  0.00     0.088 C 
ATOM     20  C   UNL A   1      32.694  18.514  25.274  1.00  0.00     0.034 C 
ATOM     21  C   UNL A   1      33.400  18.178  23.981  1.00  0.00    -0.013 C 
ATOM     22  C   UNL A   1      32.528  18.079  22.753  1.00  0.00     0.013 C 
ATOM     23  C   UNL A   1      34.492  17.143  24.012  1.00  0.00     0.013 C 
ENDBRANCH  17  19
ENDBRANCH  13  15
ENDBRANCH   8   9
ENDBRANCH   4   7
ENDBRANCH   2   3
ENDBRANCH   1   2
BRANCH   1  24
ATOM     24  C   UNL A   1      31.740  31.696  26.762  1.00  0.00     0.023 C 
BRANCH  24  25
ATOM     25  C   UNL A   1      32.851  32.543  27.364  1.00  0.00     0.116 C 
BRANCH  25  26
ATOM     26  N   UNL A   1      32.459  33.920  27.627  1.00  0.00    -0.352 N 
ATOM     27  C   UNL A   1      33.011  34.804  28.523  1.00  0.00     0.251 C 
ATOM     28  H   UNL A   1      31.702  34.260  27.097  1.00  0.00     0.163 HD
ATOM     29  O   UNL A   1      32.523  35.912  28.693  1.00  0.00    -0.269 OA
BRANCH  27  30
ATOM     30  C   UNL A   1      34.178  34.372  29.316  1.00  0.00     0.039 A 
ATOM     31  C   UNL A   1      33.957  33.725  30.535  1.00  0.00     0.014 A 
ATOM     32  C   UNL A   1      35.474  34.544  28.825  1.00  0.00     0.014 A 
ATOM     33  C   UNL A   1      35.040  33.181  31.227  1.00  0.00     0.010 A 
ATOM     34  C   UNL A   1      36.541  33.941  29.479  1.00  0.00     0.010 A 
ATOM     35  C   UNL A   1      36.333  33.250  30.684  1.00  0.00    -0.014 A 
BRANCH  35  36
ATOM     36  C   UNL A   1      37.484  32.599  31.352  1.00  0.00     0.031 A 
ATOM     37  C   UNL A   1      38.191  31.458  30.682  1.00  0.00     0.074 A 
ATOM     38  C   UNL A   1      37.835  32.984  32.595  1.00  0.00     0.049 A 
ATOM     39  N   UNL A   1      39.157  30.702  31.137  1.00  0.00    -0.248 NA
ATOM     40  C   UNL A   1      37.730  31.098  29.332  1.00  0.00     0.031 C 
ATOM     41  C   UNL A   1      37.186  34.043  33.369  1.00  0.00     0.029 A 
ATOM     42  N   UNL A   1      38.818  32.516  33.430  1.00  0.00    -0.354 N 
ATOM     43  C   UNL A   1      39.405  29.768  30.140  1.00  0.00     0.074 A 
ATOM     44  C   UNL A   1      38.455  30.019  29.078  1.00  0.00     0.031 C 
ATOM     45  C   UNL A   1      37.799  34.156  34.558  1.00  0.00     0.029 A 
ATOM     46  C   UNL A   1      38.863  33.159  34.643  1.00  0.00     0.049 A 
ATOM     47  H   UNL A   1      39.433  31.788  33.184  1.00  0.00     0.167 HD
ATOM     48  C   UNL A   1      40.352  28.802  30.106  1.00  0.00     0.037 A 
ATOM     49  C   UNL A   1      39.667  32.961  35.703  1.00  0.00     0.037 A 
ATOM     50  C   UNL A   1      41.316  28.579  31.151  1.00  0.00     0.049 A 
ATOM     51  C   UNL A   1      40.726  31.895  35.632  1.00  0.00     0.074 A 
ATOM     52  C   UNL A   1      42.358  27.669  31.184  1.00  0.00     0.029 A 
ATOM     53  N   UNL A   1      41.355  29.278  32.348  1.00  0.00    -0.354 N 
ATOM     54  N   UNL A   1      40.995  31.062  34.656  1.00  0.00    -0.248 NA
ATOM     55  C   UNL A   1      41.598  31.746  36.805  1.00  0.00     0.031 C 
ATOM     56  C   UNL A   1      43.008  27.794  32.416  1.00  0.00     0.029 A 
ATOM     57  C   UNL A   1      42.397  28.811  33.133  1.00  0.00     0.049 A 
ATOM     58  H   UNL A   1      40.736  29.999  32.603  1.00  0.00     0.167 HD
ATOM     59  C   UNL A   1      42.083  30.314  35.083  1.00  0.00     0.074 A 
ATOM     60  C   UNL A   1      42.430  30.796  36.404  1.00  0.00     0.031 C 
ATOM     61  C   UNL A   1      42.736  29.317  34.438  1.00  0.00     0.037 A 
BRANCH  48  62
ATOM     62  C   UNL A   1      40.399  27.920  28.894  1.00  0.00     0.064 A 
ATOM     63  C   UNL A   1      39.659  26.730  28.822  1.00  0.00     0.173 A 
ATOM     64  C   UNL A   1      41.169  28.284  27.779  1.00  0.00     0.173 A 
ATOM     65  F   UNL A   1      38.919  26.332  29.868  1.00  0.00    -0.203 F 
ATOM     66  C   UNL A   1      39.711  25.921  27.690  1.00  0.00     0.198 A 
ATOM     67  C   UNL A   1      41.195  27.487  26.637  1.00  0.00     0.198 A 
ATOM     68  F   UNL A   1      41.891  29.414  27.794  1.00  0.00    -0.203 F 
ATOM     69  F   UNL A   1      39.035  24.765  27.665  1.00  0.00    -0.200 F 
ATOM     70  C   UNL A   1      40.473  26.304  26.597  1.00  0.00     0.200 A 
ATOM     71  F   UNL A   1      41.924  27.862  25.576  1.00  0.00    -0.200 F 
ATOM     72  F   UNL A   1      40.517  25.527  25.505  1.00  0.00    -0.200 F 
ENDBRANCH  48  62
BRANCH  49  73
ATOM     73  C   UNL A   1      39.527  33.815  36.910  1.00  0.00     0.064 A 
ATOM     74  C   UNL A   1      40.163  35.062  36.984  1.00  0.00     0.173 A 
ATOM     75  C   UNL A   1      38.758  33.408  38.010  1.00  0.00     0.173 A 
ATOM     76  F   UNL A   1      40.924  35.485  35.964  1.00  0.00    -0.203 F 
ATOM     77  C   UNL A   1      40.052  35.861  38.120  1.00  0.00     0.198 A 
ATOM     78  C   UNL A   1      38.627  34.218  39.135  1.00  0.00     0.198 A 
ATOM     79  F   UNL A   1      38.125  32.225  37.985  1.00  0.00    -0.203 F 
ATOM     80  F   UNL A   1      40.704  37.030  38.180  1.00  0.00    -0.200 F 
ATOM     81  C   UNL A   1      39.280  35.441  39.192  1.00  0.00     0.200 A 
ATOM     82  F   UNL A   1      37.870  33.815  40.164  1.00  0.00    -0.200 F 
ATOM     83  F   UNL A   1      39.170  36.211  40.283  1.00  0.00    -0.200 F 
ENDBRANCH  49  73
BRANCH  61  84
ATOM     84  C   UNL A   1      43.919  28.708  35.132  1.00  0.00     0.064 A 
ATOM     85  C   UNL A   1      43.787  27.583  35.958  1.00  0.00     0.173 A 
ATOM     86  C   UNL A   1      45.205  29.228  34.925  1.00  0.00     0.173 A 
ATOM     87  F   UNL A   1      42.576  27.058  36.197  1.00  0.00    -0.203 F 
ATOM     88  C   UNL A   1      44.901  27.012  36.567  1.00  0.00     0.198 A 
ATOM     89  C   UNL A   1      46.318  28.639  35.515  1.00  0.00     0.198 A 
ATOM     90  F   UNL A   1      45.382  30.301  34.138  1.00  0.00    -0.203 F 
ATOM     91  F   UNL A   1      44.749  25.959  37.384  1.00  0.00    -0.200 F 
ATOM     92  C   UNL A   1      46.165  27.535  36.339  1.00  0.00     0.200 A 
ATOM     93  F   UNL A   1      47.541  29.138  35.285  1.00  0.00    -0.200 F 
ATOM     94  F   UNL A   1      47.237  26.977  36.920  1.00  0.00    -0.200 F 
ENDBRANCH  61  84
ENDBRANCH  35  36
ENDBRANCH  27  30
ENDBRANCH  25  26
ENDBRANCH  24  25
ENDBRANCH   1  24
TORSDOF 14
ENDMDL
MODEL 2
REMARK VINA RESULT:     -12.7      0.843      7.535
REMARK SMILES Cc1cc(C(=O)N[C@@H]2CC2(C)C)sc1/C=C/C(=O)NCCCCNC(=O)c1ccc(-c2c3nc(c(-c4c(F)c(F)c(F)c(F)c4F)c4ccc([nH]4)c(-c4c(F)c(F)c(F)c(F)c4F)c4nc(c(-c5c(F)c(F)c(F)c(F)c5F)c5ccc2[nH]5)C=C4)C=C3)cc1
REMARK SMILES IDX 21 1 20 2 19 3 17 4 18 5 16 7 15 8 14 9 1 10 2 11 3 12 4 13
REMARK SMILES IDX 13 14 5 15 6 16 7 17 8 19 9 20 10 21 11 22 12 23 22 24 23 25
REMARK SMILES IDX 24 26 25 27 26 29 27 30 28 31 89 32 29 33 88 34 30 35 31 36
REMARK SMILES IDX 32 37 82 38 33 39 87 40 81 41 83 42 34 43 86 44 80 45 79 46
REMARK SMILES IDX 35 48 67 49 47 50 66 51 48 52 51 53 65 54 84 55 49 56 50 57
REMARK SMILES IDX 64 59 85 60 52 61 36 62 37 63 45 64 38 65 39 66 43 67 46 68
REMARK SMILES IDX 40 69 41 70 44 71 42 72 68 73 69 74 77 75 70 76 71 77 75 78
REMARK SMILES IDX 78 79 72 80 73 81 76 82 74 83 53 84 54 85 62 86 55 87 56 88
REMARK SMILES IDX 60 89 63 90 57 91 58 92 61 93 59 94
REMARK H PARENT 19 6 7 18 24 28 83 47 51 58
REMARK Flexibility Score: inf
ROOT
ATOM      1  C   UNL A   1      31.554  30.854  25.762  1.00  0.00     0.023 C 
ENDROOT
BRANCH   1   2
ATOM      2  C   UNL A   1      32.681  29.824  25.848  1.00  0.00     0.116 C 
BRANCH   2   3
ATOM      3  N   UNL A   1      33.298  29.632  24.554  1.00  0.00    -0.353 N 
ATOM      4  C   UNL A   1      33.553  28.487  23.869  1.00  0.00     0.244 C 
ATOM      5  O   UNL A   1      34.031  28.559  22.738  1.00  0.00    -0.270 OA
ATOM      6  H   UNL A   1      33.576  30.459  24.099  1.00  0.00     0.163 HD
BRANCH   4   7
ATOM      7  C   UNL A   1      33.163  27.161  24.400  1.00  0.00     0.072 C 
ATOM      8  C   UNL A   1      33.472  25.947  23.918  1.00  0.00     0.025 C 
BRANCH   8   9
ATOM      9  C   UNL A   1      33.053  24.789  24.625  1.00  0.00     0.031 A 
ATOM     10  C   UNL A   1      30.776  24.260  23.543  1.00  0.00     0.046 C 
ATOM     11  C   UNL A   1      31.942  23.976  24.433  1.00  0.00    -0.032 A 
ATOM     12  C   UNL A   1      32.123  22.735  25.132  1.00  0.00     0.029 A 
ATOM     13  C   UNL A   1      33.326  22.675  25.821  1.00  0.00     0.093 A 
ATOM     14  S   UNL A   1      33.922  24.253  26.013  1.00  0.00    -0.130 S 
BRANCH  13  15
ATOM     15  C   UNL A   1      33.877  21.515  26.476  1.00  0.00     0.261 C 
ATOM     16  O   UNL A   1      34.168  21.551  27.678  1.00  0.00    -0.268 OA
ATOM     17  N   UNL A   1      34.033  20.276  25.890  1.00  0.00    -0.348 N 
ATOM     18  H   UNL A   1      34.398  19.646  26.553  1.00  0.00     0.164 HD
BRANCH  17  19
ATOM     19  C   UNL A   1      33.844  19.597  24.646  1.00  0.00     0.088 C 
ATOM     20  C   UNL A   1      32.626  19.331  23.827  1.00  0.00     0.034 C 
ATOM     21  C   UNL A   1      33.349  18.170  24.469  1.00  0.00    -0.013 C 
ATOM     22  C   UNL A   1      34.102  17.255  23.533  1.00  0.00     0.013 C 
ATOM     23  C   UNL A   1      32.664  17.433  25.588  1.00  0.00     0.013 C 
ENDBRANCH  17  19
ENDBRANCH  13  15
ENDBRANCH   8   9
ENDBRANCH   4   7
ENDBRANCH   2   3
ENDBRANCH   1   2
BRANCH   1  24
ATOM     24  C   UNL A   1      31.458  31.799  26.958  1.00  0.00     0.023 C 
BRANCH  24  25
ATOM     25  C   UNL A   1      32.689  32.661  27.192  1.00  0.00     0.116 C 
BRANCH  25  26
ATOM     26  N   UNL A   1      32.379  34.041  27.534  1.00  0.00    -0.352 N 
ATOM     27  C   UNL A   1      32.993  34.844  28.467  1.00  0.00     0.251 C 
ATOM     28  H   UNL A   1      31.636  34.452  27.036  1.00  0.00     0.163 HD
ATOM     29  O   UNL A   1      32.570  35.967  28.704  1.00  0.00    -0.269 OA
BRANCH  27  30
ATOM     30  C   UNL A   1      34.144  34.305  29.217  1.00  0.00     0.039 A 
ATOM     31  C   UNL A   1      33.900  33.541  30.361  1.00  0.00     0.014 A 
ATOM     32  C   UNL A   1      35.447  34.498  28.753  1.00  0.00     0.014 A 
ATOM     33  C   UNL A   1      34.965  32.903  30.998  1.00  0.00     0.010 A 
ATOM     34  C   UNL A   1      36.496  33.806  29.346  1.00  0.00     0.010 A 
ATOM     35  C   UNL A   1      36.263  32.998  30.471  1.00  0.00    -0.014 A 
BRANCH  35  36
ATOM     36  C   UNL A   1      37.395  32.255  31.074  1.00  0.00     0.031 A 
ATOM     37  C   UNL A   1      37.884  32.621  32.445  1.00  0.00     0.074 A 
ATOM     38  C   UNL A   1      38.029  31.310  30.353  1.00  0.00     0.049 A 
ATOM     39  N   UNL A   1      38.911  32.155  33.109  1.00  0.00    -0.248 NA
ATOM     40  C   UNL A   1      37.139  33.674  33.151  1.00  0.00     0.031 C 
ATOM     41  C   UNL A   1      37.679  30.907  28.990  1.00  0.00     0.029 A 
ATOM     42  N   UNL A   1      39.112  30.527  30.664  1.00  0.00    -0.354 N 
ATOM     43  C   UNL A   1      38.946  32.870  34.298  1.00  0.00     0.074 A 
ATOM     44  C   UNL A   1      37.869  33.835  34.245  1.00  0.00     0.031 C 
ATOM     45  C   UNL A   1      38.519  29.939  28.589  1.00  0.00     0.029 A 
ATOM     46  C   UNL A   1      39.484  29.676  29.653  1.00  0.00     0.049 A 
ATOM     47  H   UNL A   1      39.577  30.570  31.530  1.00  0.00     0.167 HD
ATOM     48  C   UNL A   1      39.787  32.719  35.347  1.00  0.00     0.037 A 
ATOM     49  C   UNL A   1      40.494  28.788  29.590  1.00  0.00     0.037 A 
ATOM     50  C   UNL A   1      40.834  31.734  35.409  1.00  0.00     0.049 A 
ATOM     51  C   UNL A   1      41.402  28.626  30.779  1.00  0.00     0.074 A 
ATOM     52  C   UNL A   1      41.698  31.457  36.453  1.00  0.00     0.029 A 
ATOM     53  N   UNL A   1      41.155  30.862  34.380  1.00  0.00    -0.354 N 
ATOM     54  N   UNL A   1      41.384  29.261  31.926  1.00  0.00    -0.248 NA
ATOM     55  C   UNL A   1      42.467  27.619  30.668  1.00  0.00     0.031 C 
ATOM     56  C   UNL A   1      42.565  30.440  36.044  1.00  0.00     0.029 A 
ATOM     57  C   UNL A   1      42.215  30.054  34.759  1.00  0.00     0.049 A 
ATOM     58  H   UNL A   1      40.699  30.822  33.508  1.00  0.00     0.167 HD
ATOM     59  C   UNL A   1      42.408  28.710  32.682  1.00  0.00     0.074 A 
ATOM     60  C   UNL A   1      43.025  27.684  31.867  1.00  0.00     0.031 C 
ATOM     61  C   UNL A   1      42.803  29.026  33.939  1.00  0.00     0.037 A 
BRANCH  48  62
ATOM     62  C   UNL A   1      39.600  33.635  36.521  1.00  0.00     0.064 A 
ATOM     63  C   UNL A   1      40.204  34.901  36.567  1.00  0.00     0.173 A 
ATOM     64  C   UNL A   1      38.786  33.255  37.597  1.00  0.00     0.173 A 
ATOM     65  F   UNL A   1      41.004  35.304  35.568  1.00  0.00    -0.203 F 
ATOM     66  C   UNL A   1      40.023  35.741  37.662  1.00  0.00     0.198 A 
ATOM     67  C   UNL A   1      38.582  34.111  38.677  1.00  0.00     0.198 A 
ATOM     68  F   UNL A   1      38.182  32.058  37.601  1.00  0.00    -0.203 F 
ATOM     69  F   UNL A   1      40.649  36.925  37.706  1.00  0.00    -0.200 F 
ATOM     70  C   UNL A   1      39.207  35.348  38.712  1.00  0.00     0.200 A 
ATOM     71  F   UNL A   1      37.786  33.735  39.688  1.00  0.00    -0.200 F 
ATOM     72  F   UNL A   1      39.028  36.162  39.762  1.00  0.00    -0.200 F 
ENDBRANCH  48  62
BRANCH  49  73
ATOM     73  C   UNL A   1      40.679  27.960  28.372  1.00  0.00     0.064 A 
ATOM     74  C   UNL A   1      40.080  26.697  28.267  1.00  0.00     0.173 A 
ATOM     75  C   UNL A   1      41.452  28.408  27.291  1.00  0.00     0.173 A 
ATOM     76  F   UNL A   1      39.346  26.218  29.283  1.00  0.00    -0.203 F 
ATOM     77  C   UNL A   1      40.263  25.905  27.136  1.00  0.00     0.198 A 
ATOM     78  C   UNL A   1      41.614  27.625  26.151  1.00  0.00     0.198 A 
ATOM     79  F   UNL A   1      42.042  29.611  27.342  1.00  0.00    -0.203 F 
ATOM     80  F   UNL A   1      39.712  24.685  27.079  1.00  0.00    -0.200 F 
ATOM     81  C   UNL A   1      41.025  26.371  26.076  1.00  0.00     0.200 A 
ATOM     82  F   UNL A   1      42.341  28.085  25.123  1.00  0.00    -0.200 F 
ATOM     83  F   UNL A   1      41.199  25.611  24.986  1.00  0.00    -0.200 F 
ENDBRANCH  49  73
BRANCH  61  84
ATOM     84  C   UNL A   1      43.927  28.227  34.529  1.00  0.00     0.064 A 
ATOM     85  C   UNL A   1      45.258  28.659  34.446  1.00  0.00     0.173 A 
ATOM     86  C   UNL A   1      43.660  27.041  35.230  1.00  0.00     0.173 A 
ATOM     87  F   UNL A   1      45.564  29.780  33.775  1.00  0.00    -0.203 F 
ATOM     88  C   UNL A   1      46.284  27.921  35.029  1.00  0.00     0.198 A 
ATOM     89  C   UNL A   1      44.686  26.320  35.831  1.00  0.00     0.198 A 
ATOM     90  F   UNL A   1      42.401  26.591  35.340  1.00  0.00    -0.203 F 
ATOM     91  F   UNL A   1      47.556  28.331  34.905  1.00  0.00    -0.200 F 
ATOM     92  C   UNL A   1      45.997  26.757  35.726  1.00  0.00     0.200 A 
ATOM     93  F   UNL A   1      44.406  25.202  36.516  1.00  0.00    -0.200 F 
ATOM     94  F   UNL A   1      46.987  26.054  36.294  1.00  0.00    -0.200 F 
ENDBRANCH  61  84
ENDBRANCH  35  36
ENDBRANCH  27  30
ENDBRANCH  25  26
ENDBRANCH  24  25
ENDBRANCH   1  24
TORSDOF 14
ENDMDL
MODEL 3
REMARK VINA RESULT:     -12.7      5.476     11.491
REMARK SMILES Cc1cc(C(=O)N[C@@H]2CC2(C)C)sc1/C=C/C(=O)NCCCCNC(=O)c1ccc(-c2c3nc(c(-c4c(F)c(F)c(F)c(F)c4F)c4ccc([nH]4)c(-c4c(F)c(F)c(F)c(F)c4F)c4nc(c(-c5c(F)c(F)c(F)c(F)c5F)c5ccc2[nH]5)C=C4)C=C3)cc1
REMARK SMILES IDX 21 1 20 2 19 3 17 4 18 5 16 7 15 8 14 9 1 10 2 11 3 12 4 13
REMARK SMILES IDX 13 14 5 15 6 16 7 17 8 19 9 20 10 21 11 22 12 23 22 24 23 25
REMARK SMILES IDX 24 26 25 27 26 29 27 30 28 31 89 32 29 33 88 34 30 35 31 36
REMARK SMILES IDX 32 37 82 38 33 39 87 40 81 41 83 42 34 43 86 44 80 45 79 46
REMARK SMILES IDX 35 48 67 49 47 50 66 51 48 52 51 53 65 54 84 55 49 56 50 57
REMARK SMILES IDX 64 59 85 60 52 61 36 62 37 63 45 64 38 65 39 66 43 67 46 68
REMARK SMILES IDX 40 69 41 70 44 71 42 72 68 73 69 74 77 75 70 76 71 77 75 78
REMARK SMILES IDX 78 79 72 80 73 81 76 82 74 83 53 84 54 85 62 86 55 87 56 88
REMARK SMILES IDX 60 89 63 90 57 91 58 92 61 93 59 94
REMARK H PARENT 19 6 7 18 24 28 83 47 51 58
REMARK Flexibility Score: inf
ROOT
ATOM      1  C   UNL A   1      37.333  21.326  24.601  1.00  0.00     0.023 C 
ENDROOT
BRANCH   1   2
ATOM      2  C   UNL A   1      37.161  22.403  25.672  1.00  0.00     0.116 C 
BRANCH   2   3
ATOM      3  N   UNL A   1      36.028  22.105  26.522  1.00  0.00    -0.353 N 
ATOM      4  C   UNL A   1      34.881  22.803  26.726  1.00  0.00     0.244 C 
ATOM      5  O   UNL A   1      34.009  22.324  27.450  1.00  0.00    -0.270 OA
ATOM      6  H   UNL A   1      36.100  21.265  27.030  1.00  0.00     0.163 HD
BRANCH   4   7
ATOM      7  C   UNL A   1      34.604  24.068  26.008  1.00  0.00     0.072 C 
ATOM      8  C   UNL A   1      33.495  24.418  25.336  1.00  0.00     0.025 C 
BRANCH   8   9
ATOM      9  C   UNL A   1      33.403  25.719  24.774  1.00  0.00     0.031 A 
ATOM     10  C   UNL A   1      33.451  25.246  22.243  1.00  0.00     0.046 C 
ATOM     11  C   UNL A   1      33.287  26.114  23.447  1.00  0.00    -0.032 A 
ATOM     12  C   UNL A   1      32.859  27.484  23.385  1.00  0.00     0.029 A 
ATOM     13  C   UNL A   1      32.694  28.054  24.639  1.00  0.00     0.093 A 
ATOM     14  S   UNL A   1      33.530  27.114  25.778  1.00  0.00    -0.130 S 
BRANCH  13  15
ATOM     15  C   UNL A   1      32.117  29.345  24.920  1.00  0.00     0.261 C 
ATOM     16  O   UNL A   1      32.676  30.126  25.700  1.00  0.00    -0.268 OA
ATOM     17  N   UNL A   1      30.998  29.863  24.303  1.00  0.00    -0.348 N 
ATOM     18  H   UNL A   1      30.828  30.770  24.644  1.00  0.00     0.164 HD
BRANCH  17  19
ATOM     19  C   UNL A   1      30.000  29.526  23.335  1.00  0.00     0.088 C 
ATOM     20  C   UNL A   1      29.689  30.081  21.986  1.00  0.00     0.034 C 
ATOM     21  C   UNL A   1      28.690  30.263  23.104  1.00  0.00    -0.013 C 
ATOM     22  C   UNL A   1      27.417  29.458  22.998  1.00  0.00     0.013 C 
ATOM     23  C   UNL A   1      28.466  31.651  23.642  1.00  0.00     0.013 C 
ENDBRANCH  17  19
ENDBRANCH  13  15
ENDBRANCH   8   9
ENDBRANCH   4   7
ENDBRANCH   2   3
ENDBRANCH   1   2
BRANCH   1  24
ATOM     24  C   UNL A   1      38.070  20.073  25.068  1.00  0.00     0.023 C 
BRANCH  24  25
ATOM     25  C   UNL A   1      39.367  20.334  25.820  1.00  0.00     0.116 C 
BRANCH  25  26
ATOM     26  N   UNL A   1      40.269  19.193  25.844  1.00  0.00    -0.352 N 
ATOM     27  C   UNL A   1      41.623  19.184  26.089  1.00  0.00     0.251 C 
ATOM     28  H   UNL A   1      39.860  18.317  25.661  1.00  0.00     0.163 HD
ATOM     29  O   UNL A   1      42.270  18.151  25.997  1.00  0.00    -0.269 OA
BRANCH  27  30
ATOM     30  C   UNL A   1      42.291  20.459  26.415  1.00  0.00     0.039 A 
ATOM     31  C   UNL A   1      42.872  21.195  25.380  1.00  0.00     0.014 A 
ATOM     32  C   UNL A   1      42.281  20.952  27.722  1.00  0.00     0.014 A 
ATOM     33  C   UNL A   1      43.379  22.467  25.645  1.00  0.00     0.010 A 
ATOM     34  C   UNL A   1      42.721  22.246  27.970  1.00  0.00     0.010 A 
ATOM     35  C   UNL A   1      43.270  23.017  26.933  1.00  0.00    -0.014 A 
BRANCH  35  36
ATOM     36  C   UNL A   1      43.715  24.401  27.219  1.00  0.00     0.031 A 
ATOM     37  C   UNL A   1      42.735  25.410  27.741  1.00  0.00     0.074 A 
ATOM     38  C   UNL A   1      44.980  24.766  26.929  1.00  0.00     0.049 A 
ATOM     39  N   UNL A   1      42.903  26.687  27.968  1.00  0.00    -0.248 NA
ATOM     40  C   UNL A   1      41.373  24.924  28.014  1.00  0.00     0.031 C 
ATOM     41  C   UNL A   1      46.007  23.888  26.366  1.00  0.00     0.029 A 
ATOM     42  N   UNL A   1      45.611  25.977  27.057  1.00  0.00    -0.354 N 
ATOM     43  C   UNL A   1      41.669  27.160  28.391  1.00  0.00     0.074 A 
ATOM     44  C   UNL A   1      40.747  26.046  28.341  1.00  0.00     0.031 C 
ATOM     45  C   UNL A   1      47.144  24.584  26.214  1.00  0.00     0.029 A 
ATOM     46  C   UNL A   1      46.919  25.963  26.638  1.00  0.00     0.049 A 
ATOM     47  H   UNL A   1      45.168  26.781  27.415  1.00  0.00     0.167 HD
ATOM     48  C   UNL A   1      41.340  28.407  28.803  1.00  0.00     0.037 A 
ATOM     49  C   UNL A   1      47.830  26.953  26.597  1.00  0.00     0.037 A 
ATOM     50  C   UNL A   1      42.269  29.502  28.884  1.00  0.00     0.049 A 
ATOM     51  C   UNL A   1      47.444  28.325  27.081  1.00  0.00     0.074 A 
ATOM     52  C   UNL A   1      42.051  30.787  29.350  1.00  0.00     0.029 A 
ATOM     53  N   UNL A   1      43.596  29.439  28.489  1.00  0.00    -0.354 N 
ATOM     54  N   UNL A   1      46.291  28.744  27.543  1.00  0.00    -0.248 NA
ATOM     55  C   UNL A   1      48.488  29.358  27.046  1.00  0.00     0.031 C 
ATOM     56  C   UNL A   1      43.238  31.511  29.206  1.00  0.00     0.029 A 
ATOM     57  C   UNL A   1      44.207  30.666  28.689  1.00  0.00     0.049 A 
ATOM     58  H   UNL A   1      44.040  28.641  28.121  1.00  0.00     0.167 HD
ATOM     59  C   UNL A   1      46.479  30.077  27.882  1.00  0.00     0.074 A 
ATOM     60  C   UNL A   1      47.859  30.395  27.579  1.00  0.00     0.031 C 
ATOM     61  C   UNL A   1      45.587  30.958  28.397  1.00  0.00     0.037 A 
BRANCH  48  62
ATOM     62  C   UNL A   1      39.916  28.648  29.210  1.00  0.00     0.064 A 
ATOM     63  C   UNL A   1      39.480  28.420  30.524  1.00  0.00     0.173 A 
ATOM     64  C   UNL A   1      38.985  29.140  28.284  1.00  0.00     0.173 A 
ATOM     65  F   UNL A   1      40.330  27.935  31.443  1.00  0.00    -0.203 F 
ATOM     66  C   UNL A   1      38.156  28.648  30.889  1.00  0.00     0.198 A 
ATOM     67  C   UNL A   1      37.669  29.396  28.660  1.00  0.00     0.198 A 
ATOM     68  F   UNL A   1      39.352  29.379  27.017  1.00  0.00    -0.203 F 
ATOM     69  F   UNL A   1      37.751  28.376  32.137  1.00  0.00    -0.200 F 
ATOM     70  C   UNL A   1      37.254  29.143  29.959  1.00  0.00     0.200 A 
ATOM     71  F   UNL A   1      36.800  29.882  27.764  1.00  0.00    -0.200 F 
ATOM     72  F   UNL A   1      35.981  29.367  30.314  1.00  0.00    -0.200 F 
ENDBRANCH  48  62
BRANCH  49  73
ATOM     73  C   UNL A   1      49.205  26.676  26.113  1.00  0.00     0.064 A 
ATOM     74  C   UNL A   1      49.572  26.968  24.792  1.00  0.00     0.173 A 
ATOM     75  C   UNL A   1      50.180  26.118  26.953  1.00  0.00     0.173 A 
ATOM     76  F   UNL A   1      48.669  27.485  23.946  1.00  0.00    -0.203 F 
ATOM     77  C   UNL A   1      50.855  26.694  24.323  1.00  0.00     0.198 A 
ATOM     78  C   UNL A   1      51.469  25.868  26.490  1.00  0.00     0.198 A 
ATOM     79  F   UNL A   1      49.879  25.826  28.227  1.00  0.00    -0.203 F 
ATOM     80  F   UNL A   1      51.166  26.945  23.044  1.00  0.00    -0.200 F 
ATOM     81  C   UNL A   1      51.804  26.149  25.174  1.00  0.00     0.200 A 
ATOM     82  F   UNL A   1      52.388  25.353  27.319  1.00  0.00    -0.200 F 
ATOM     83  F   UNL A   1      53.040  25.889  24.724  1.00  0.00    -0.200 F 
ENDBRANCH  49  73
BRANCH  61  84
ATOM     84  C   UNL A   1      46.085  32.338  28.707  1.00  0.00     0.064 A 
ATOM     85  C   UNL A   1      45.994  33.379  27.773  1.00  0.00     0.173 A 
ATOM     86  C   UNL A   1      46.612  32.632  29.974  1.00  0.00     0.173 A 
ATOM     87  F   UNL A   1      45.510  33.144  26.544  1.00  0.00    -0.203 F 
ATOM     88  C   UNL A   1      46.431  34.662  28.091  1.00  0.00     0.198 A 
ATOM     89  C   UNL A   1      47.024  33.921  30.295  1.00  0.00     0.198 A 
ATOM     90  F   UNL A   1      46.714  31.670  30.903  1.00  0.00    -0.203 F 
ATOM     91  F   UNL A   1      46.372  35.636  27.170  1.00  0.00    -0.200 F 
ATOM     92  C   UNL A   1      46.939  34.933  29.353  1.00  0.00     0.200 A 
ATOM     93  F   UNL A   1      47.503  34.185  31.520  1.00  0.00    -0.200 F 
ATOM     94  F   UNL A   1      47.350  36.172  29.658  1.00  0.00    -0.200 F 
ENDBRANCH  61  84
ENDBRANCH  35  36
ENDBRANCH  27  30
ENDBRANCH  25  26
ENDBRANCH  24  25
ENDBRANCH   1  24
TORSDOF 14
ENDMDL
