MODEL 1
REMARK VINA RESULT:     -13.7      0.000      0.000
REMARK SMILES Cc1ccc(S(=O)(=O)Nc2ccccn2)cc1C(=O)NCCCCNC(=O)c1ccc(-c2c3nc(c(-c4c(F)c(F)c(F)c(F)c4F)c4ccc([nH]4)c(-c4c(F)c(F)c(F)c(F)c4F)c4nc(c(-c5c(F)c(F)c(F)c(F)c5F)c5ccc2[nH]5)C=C4)C=C3)cc1
REMARK SMILES IDX 22 1 21 2 20 3 18 4 19 5 17 7 1 8 2 9 3 10 4 11 16 12 5 13
REMARK SMILES IDX 6 14 7 15 8 16 9 17 10 19 11 20 15 21 12 22 14 23 13 24
REMARK SMILES IDX 23 25 24 26 25 27 26 28 27 30 28 31 29 32 90 33 30 34 89 35
REMARK SMILES IDX 31 36 32 37 33 38 83 39 34 40 88 41 82 42 84 43 35 44 87 45
REMARK SMILES IDX 81 46 80 47 36 49 68 50 48 51 67 52 49 53 52 54 66 55 85 56
REMARK SMILES IDX 50 57 51 58 65 60 86 61 53 62 37 63 38 64 46 65 39 66 40 67
REMARK SMILES IDX 44 68 47 69 41 70 42 71 45 72 43 73 69 74 70 75 78 76 71 77
REMARK SMILES IDX 72 78 76 79 79 80 73 81 74 82 77 83 75 84 54 85 55 86 63 87
REMARK SMILES IDX 56 88 57 89 61 90 64 91 58 92 59 93 62 94 60 95
REMARK H PARENT 20 6 9 18 25 29 84 48 52 59
REMARK Flexibility Score: inf
ROOT
ATOM      1  C   UNL A   1      31.828  29.665  26.743  1.00  0.00     0.023 C 
ENDROOT
BRANCH   1   2
ATOM      2  C   UNL A   1      31.998  28.367  27.545  1.00  0.00     0.116 C 
BRANCH   2   3
ATOM      3  N   UNL A   1      31.091  27.332  27.111  1.00  0.00    -0.352 N 
ATOM      4  C   UNL A   1      31.156  26.104  26.519  1.00  0.00     0.251 C 
ATOM      5  O   UNL A   1      30.038  25.567  26.476  1.00  0.00    -0.269 OA
ATOM      6  H   UNL A   1      30.157  27.584  27.294  1.00  0.00     0.163 HD
BRANCH   4   7
ATOM      7  C   UNL A   1      32.326  25.342  25.919  1.00  0.00     0.044 A 
ATOM      8  C   UNL A   1      33.890  27.174  24.921  1.00  0.00     0.045 C 
ATOM      9  C   UNL A   1      33.489  25.771  25.242  1.00  0.00    -0.038 A 
ATOM     10  C   UNL A   1      34.382  24.807  24.704  1.00  0.00     0.005 A 
ATOM     11  C   UNL A   1      34.079  23.454  24.679  1.00  0.00     0.022 A 
ATOM     12  C   UNL A   1      32.103  23.932  25.957  1.00  0.00     0.036 A 
ATOM     13  C   UNL A   1      32.897  23.021  25.255  1.00  0.00     0.088 A 
BRANCH  13  14
ATOM     14  S   UNL A   1      32.391  21.364  24.831  1.00  0.00     0.263 S 
ATOM     15  O   UNL A   1      31.047  21.222  25.351  1.00  0.00    -0.201 OA
ATOM     16  O   UNL A   1      32.654  21.220  23.412  1.00  0.00    -0.201 OA
BRANCH  14  17
ATOM     17  N   UNL A   1      33.363  20.264  25.581  1.00  0.00    -0.263 N 
ATOM     18  H   UNL A   1      33.885  20.576  26.355  1.00  0.00     0.182 HD
BRANCH  17  19
ATOM     19  C   UNL A   1      33.507  18.924  25.209  1.00  0.00     0.139 A 
ATOM     20  C   UNL A   1      34.472  18.406  24.362  1.00  0.00     0.048 A 
ATOM     21  N   UNL A   1      32.508  18.202  25.750  1.00  0.00    -0.239 NA
ATOM     22  C   UNL A   1      34.334  17.077  23.965  1.00  0.00     0.005 A 
ATOM     23  C   UNL A   1      32.412  16.914  25.360  1.00  0.00     0.113 A 
ATOM     24  C   UNL A   1      33.280  16.317  24.463  1.00  0.00     0.020 A 
ENDBRANCH  17  19
ENDBRANCH  14  17
ENDBRANCH  13  14
ENDBRANCH   4   7
ENDBRANCH   2   3
ENDBRANCH   1   2
BRANCH   1  25
ATOM     25  C   UNL A   1      32.790  30.798  27.097  1.00  0.00     0.023 C 
BRANCH  25  26
ATOM     26  C   UNL A   1      34.162  30.334  27.554  1.00  0.00     0.116 C 
BRANCH  26  27
ATOM     27  N   UNL A   1      34.906  31.285  28.373  1.00  0.00    -0.352 N 
ATOM     28  C   UNL A   1      36.091  31.099  29.069  1.00  0.00     0.251 C 
ATOM     29  H   UNL A   1      34.512  32.183  28.442  1.00  0.00     0.163 HD
ATOM     30  O   UNL A   1      36.529  31.993  29.788  1.00  0.00    -0.269 OA
BRANCH  28  31
ATOM     31  C   UNL A   1      36.912  29.886  28.819  1.00  0.00     0.039 A 
ATOM     32  C   UNL A   1      37.083  28.986  29.879  1.00  0.00     0.014 A 
ATOM     33  C   UNL A   1      37.726  29.799  27.696  1.00  0.00     0.014 A 
ATOM     34  C   UNL A   1      38.253  28.235  29.948  1.00  0.00     0.010 A 
ATOM     35  C   UNL A   1      38.946  29.170  27.827  1.00  0.00     0.010 A 
ATOM     36  C   UNL A   1      39.241  28.458  28.994  1.00  0.00    -0.014 A 
BRANCH  36  37
ATOM     37  C   UNL A   1      40.649  28.137  29.208  1.00  0.00     0.031 A 
ATOM     38  C   UNL A   1      41.226  26.891  28.662  1.00  0.00     0.074 A 
ATOM     39  C   UNL A   1      41.449  29.068  29.776  1.00  0.00     0.049 A 
ATOM     40  N   UNL A   1      42.346  26.376  29.044  1.00  0.00    -0.248 NA
ATOM     41  C   UNL A   1      40.541  26.085  27.663  1.00  0.00     0.031 C 
ATOM     42  C   UNL A   1      42.910  29.107  29.770  1.00  0.00     0.029 A 
ATOM     43  N   UNL A   1      41.079  30.105  30.652  1.00  0.00    -0.354 N 
ATOM     44  C   UNL A   1      42.669  25.365  28.165  1.00  0.00     0.074 A 
ATOM     45  C   UNL A   1      41.468  25.164  27.392  1.00  0.00     0.031 C 
ATOM     46  C   UNL A   1      43.327  29.878  30.788  1.00  0.00     0.029 A 
ATOM     47  C   UNL A   1      42.152  30.229  31.565  1.00  0.00     0.049 A 
ATOM     48  H   UNL A   1      40.248  30.634  30.633  1.00  0.00     0.167 HD
ATOM     49  C   UNL A   1      43.964  24.931  28.114  1.00  0.00     0.037 A 
ATOM     50  C   UNL A   1      41.991  29.957  32.893  1.00  0.00     0.037 A 
ATOM     51  C   UNL A   1      44.743  25.511  29.215  1.00  0.00     0.049 A 
ATOM     52  C   UNL A   1      42.870  28.840  33.403  1.00  0.00     0.074 A 
ATOM     53  C   UNL A   1      45.652  26.555  29.281  1.00  0.00     0.029 A 
ATOM     54  N   UNL A   1      44.403  25.205  30.530  1.00  0.00    -0.354 N 
ATOM     55  N   UNL A   1      43.460  27.971  32.630  1.00  0.00    -0.248 NA
ATOM     56  C   UNL A   1      43.122  28.588  34.820  1.00  0.00     0.031 C 
ATOM     57  C   UNL A   1      45.803  26.920  30.643  1.00  0.00     0.029 A 
ATOM     58  C   UNL A   1      45.006  26.086  31.407  1.00  0.00     0.049 A 
ATOM     59  H   UNL A   1      43.813  24.463  30.798  1.00  0.00     0.167 HD
ATOM     60  C   UNL A   1      44.121  27.050  33.399  1.00  0.00     0.074 A 
ATOM     61  C   UNL A   1      43.899  27.492  34.763  1.00  0.00     0.031 C 
ATOM     62  C   UNL A   1      44.778  25.988  32.842  1.00  0.00     0.037 A 
BRANCH  49  63
ATOM     63  C   UNL A   1      44.609  24.234  26.921  1.00  0.00     0.064 A 
ATOM     64  C   UNL A   1      44.342  22.869  26.659  1.00  0.00     0.173 A 
ATOM     65  C   UNL A   1      45.567  24.800  26.056  1.00  0.00     0.173 A 
ATOM     66  F   UNL A   1      43.374  22.208  27.307  1.00  0.00    -0.203 F 
ATOM     67  C   UNL A   1      45.060  22.120  25.717  1.00  0.00     0.198 A 
ATOM     68  C   UNL A   1      46.309  24.046  25.138  1.00  0.00     0.198 A 
ATOM     69  F   UNL A   1      45.791  26.113  26.008  1.00  0.00    -0.203 F 
ATOM     70  F   UNL A   1      44.772  20.822  25.541  1.00  0.00    -0.200 F 
ATOM     71  C   UNL A   1      46.067  22.701  24.981  1.00  0.00     0.200 A 
ATOM     72  F   UNL A   1      47.259  24.647  24.406  1.00  0.00    -0.200 F 
ATOM     73  F   UNL A   1      46.781  21.981  24.105  1.00  0.00    -0.200 F 
ENDBRANCH  49  63
BRANCH  50  74
ATOM     74  C   UNL A   1      40.625  30.266  33.390  1.00  0.00     0.064 A 
ATOM     75  C   UNL A   1      40.278  31.616  33.591  1.00  0.00     0.173 A 
ATOM     76  C   UNL A   1      39.582  29.336  33.298  1.00  0.00     0.173 A 
ATOM     77  F   UNL A   1      41.241  32.548  33.680  1.00  0.00    -0.203 F 
ATOM     78  C   UNL A   1      38.949  32.033  33.579  1.00  0.00     0.198 A 
ATOM     79  C   UNL A   1      38.250  29.758  33.299  1.00  0.00     0.198 A 
ATOM     80  F   UNL A   1      39.846  28.041  33.080  1.00  0.00    -0.203 F 
ATOM     81  F   UNL A   1      38.659  33.340  33.655  1.00  0.00    -0.200 F 
ATOM     82  C   UNL A   1      37.937  31.106  33.404  1.00  0.00     0.200 A 
ATOM     83  F   UNL A   1      37.271  28.866  33.092  1.00  0.00    -0.200 F 
ATOM     84  F   UNL A   1      36.665  31.513  33.291  1.00  0.00    -0.200 F 
ENDBRANCH  50  74
BRANCH  62  85
ATOM     85  C   UNL A   1      45.336  24.804  33.591  1.00  0.00     0.064 A 
ATOM     86  C   UNL A   1      44.672  23.574  33.717  1.00  0.00     0.173 A 
ATOM     87  C   UNL A   1      46.664  24.835  34.082  1.00  0.00     0.173 A 
ATOM     88  F   UNL A   1      43.454  23.381  33.192  1.00  0.00    -0.203 F 
ATOM     89  C   UNL A   1      45.269  22.473  34.339  1.00  0.00     0.198 A 
ATOM     90  C   UNL A   1      47.276  23.719  34.651  1.00  0.00     0.198 A 
ATOM     91  F   UNL A   1      47.415  25.944  34.001  1.00  0.00    -0.203 F 
ATOM     92  F   UNL A   1      44.580  21.331  34.470  1.00  0.00    -0.200 F 
ATOM     93  C   UNL A   1      46.573  22.541  34.793  1.00  0.00     0.200 A 
ATOM     94  F   UNL A   1      48.558  23.786  35.038  1.00  0.00    -0.200 F 
ATOM     95  F   UNL A   1      47.157  21.468  35.344  1.00  0.00    -0.200 F 
ENDBRANCH  62  85
ENDBRANCH  36  37
ENDBRANCH  28  31
ENDBRANCH  26  27
ENDBRANCH  25  26
ENDBRANCH   1  25
TORSDOF 14
ENDMDL
MODEL 2
REMARK VINA RESULT:     -13.6      1.956      2.345
REMARK SMILES Cc1ccc(S(=O)(=O)Nc2ccccn2)cc1C(=O)NCCCCNC(=O)c1ccc(-c2c3nc(c(-c4c(F)c(F)c(F)c(F)c4F)c4ccc([nH]4)c(-c4c(F)c(F)c(F)c(F)c4F)c4nc(c(-c5c(F)c(F)c(F)c(F)c5F)c5ccc2[nH]5)C=C4)C=C3)cc1
REMARK SMILES IDX 22 1 21 2 20 3 18 4 19 5 17 7 1 8 2 9 3 10 4 11 16 12 5 13
REMARK SMILES IDX 6 14 7 15 8 16 9 17 10 19 11 20 15 21 12 22 14 23 13 24
REMARK SMILES IDX 23 25 24 26 25 27 26 28 27 30 28 31 29 32 90 33 30 34 89 35
REMARK SMILES IDX 31 36 32 37 33 38 83 39 34 40 88 41 82 42 84 43 35 44 87 45
REMARK SMILES IDX 81 46 80 47 36 49 68 50 48 51 67 52 49 53 52 54 66 55 85 56
REMARK SMILES IDX 50 57 51 58 65 60 86 61 53 62 37 63 38 64 46 65 39 66 40 67
REMARK SMILES IDX 44 68 47 69 41 70 42 71 45 72 43 73 69 74 70 75 78 76 71 77
REMARK SMILES IDX 72 78 76 79 79 80 73 81 74 82 77 83 75 84 54 85 55 86 63 87
REMARK SMILES IDX 56 88 57 89 61 90 64 91 58 92 59 93 62 94 60 95
REMARK H PARENT 20 6 9 18 25 29 84 48 52 59
REMARK Flexibility Score: inf
ROOT
ATOM      1  C   UNL A   1      33.596  28.666  26.416  1.00  0.00     0.023 C 
ENDROOT
BRANCH   1   2
ATOM      2  C   UNL A   1      32.980  29.498  25.283  1.00  0.00     0.116 C 
BRANCH   2   3
ATOM      3  N   UNL A   1      33.581  29.212  24.002  1.00  0.00    -0.352 N 
ATOM      4  C   UNL A   1      33.503  28.256  23.031  1.00  0.00     0.251 C 
ATOM      5  O   UNL A   1      34.182  28.566  22.041  1.00  0.00    -0.269 OA
ATOM      6  H   UNL A   1      34.237  29.904  23.760  1.00  0.00     0.163 HD
BRANCH   4   7
ATOM      7  C   UNL A   1      32.763  26.929  22.990  1.00  0.00     0.044 A 
ATOM      8  C   UNL A   1      30.261  27.532  23.406  1.00  0.00     0.045 C 
ATOM      9  C   UNL A   1      31.398  26.599  23.144  1.00  0.00    -0.038 A 
ATOM     10  C   UNL A   1      31.003  25.236  23.146  1.00  0.00     0.005 A 
ATOM     11  C   UNL A   1      31.926  24.201  23.159  1.00  0.00     0.022 A 
ATOM     12  C   UNL A   1      33.671  25.830  22.907  1.00  0.00     0.036 A 
ATOM     13  C   UNL A   1      33.275  24.504  23.103  1.00  0.00     0.088 A 
BRANCH  13  14
ATOM     14  S   UNL A   1      34.386  23.176  23.529  1.00  0.00     0.263 S 
ATOM     15  O   UNL A   1      33.571  21.980  23.557  1.00  0.00    -0.201 OA
ATOM     16  O   UNL A   1      35.507  23.286  22.614  1.00  0.00    -0.201 OA
BRANCH  14  17
ATOM     17  N   UNL A   1      35.011  23.420  25.035  1.00  0.00    -0.263 N 
ATOM     18  H   UNL A   1      34.447  23.895  25.687  1.00  0.00     0.182 HD
BRANCH  17  19
ATOM     19  C   UNL A   1      36.277  23.008  25.463  1.00  0.00     0.139 A 
ATOM     20  C   UNL A   1      37.250  23.806  26.041  1.00  0.00     0.048 A 
ATOM     21  N   UNL A   1      36.446  21.707  25.162  1.00  0.00    -0.239 NA
ATOM     22  C   UNL A   1      38.514  23.250  26.226  1.00  0.00     0.005 A 
ATOM     23  C   UNL A   1      37.676  21.192  25.369  1.00  0.00     0.113 A 
ATOM     24  C   UNL A   1      38.738  21.922  25.874  1.00  0.00     0.020 A 
ENDBRANCH  17  19
ENDBRANCH  14  17
ENDBRANCH  13  14
ENDBRANCH   4   7
ENDBRANCH   2   3
ENDBRANCH   1   2
BRANCH   1  25
ATOM     25  C   UNL A   1      34.042  29.448  27.651  1.00  0.00     0.023 C 
BRANCH  25  26
ATOM     26  C   UNL A   1      34.603  30.827  27.349  1.00  0.00     0.116 C 
BRANCH  26  27
ATOM     27  N   UNL A   1      35.202  31.524  28.481  1.00  0.00    -0.352 N 
ATOM     28  C   UNL A   1      36.222  31.108  29.324  1.00  0.00     0.251 C 
ATOM     29  H   UNL A   1      34.830  32.414  28.675  1.00  0.00     0.163 HD
ATOM     30  O   UNL A   1      36.538  31.794  30.292  1.00  0.00    -0.269 OA
BRANCH  28  31
ATOM     31  C   UNL A   1      37.038  29.920  28.964  1.00  0.00     0.039 A 
ATOM     32  C   UNL A   1      37.168  28.906  29.923  1.00  0.00     0.014 A 
ATOM     33  C   UNL A   1      37.884  29.946  27.862  1.00  0.00     0.014 A 
ATOM     34  C   UNL A   1      38.327  28.136  29.941  1.00  0.00     0.010 A 
ATOM     35  C   UNL A   1      39.093  29.290  27.958  1.00  0.00     0.010 A 
ATOM     36  C   UNL A   1      39.346  28.450  29.047  1.00  0.00    -0.014 A 
BRANCH  36  37
ATOM     37  C   UNL A   1      40.744  28.089  29.264  1.00  0.00     0.031 A 
ATOM     38  C   UNL A   1      41.295  26.844  28.692  1.00  0.00     0.074 A 
ATOM     39  C   UNL A   1      41.562  28.985  29.862  1.00  0.00     0.049 A 
ATOM     40  N   UNL A   1      42.398  26.291  29.070  1.00  0.00    -0.248 NA
ATOM     41  C   UNL A   1      40.598  26.080  27.667  1.00  0.00     0.031 C 
ATOM     42  C   UNL A   1      43.023  28.988  29.870  1.00  0.00     0.029 A 
ATOM     43  N   UNL A   1      41.209  30.009  30.762  1.00  0.00    -0.354 N 
ATOM     44  C   UNL A   1      42.704  25.295  28.168  1.00  0.00     0.074 A 
ATOM     45  C   UNL A   1      41.505  25.143  27.380  1.00  0.00     0.031 C 
ATOM     46  C   UNL A   1      43.449  29.722  30.910  1.00  0.00     0.029 A 
ATOM     47  C   UNL A   1      42.277  30.083  31.686  1.00  0.00     0.049 A 
ATOM     48  H   UNL A   1      40.392  30.558  30.749  1.00  0.00     0.167 HD
ATOM     49  C   UNL A   1      43.988  24.830  28.117  1.00  0.00     0.037 A 
ATOM     50  C   UNL A   1      42.097  29.782  33.006  1.00  0.00     0.037 A 
ATOM     51  C   UNL A   1      44.771  25.363  29.239  1.00  0.00     0.049 A 
ATOM     52  C   UNL A   1      42.944  28.630  33.495  1.00  0.00     0.074 A 
ATOM     53  C   UNL A   1      45.705  26.382  29.339  1.00  0.00     0.029 A 
ATOM     54  N   UNL A   1      44.412  25.032  30.543  1.00  0.00    -0.354 N 
ATOM     55  N   UNL A   1      43.519  27.766  32.705  1.00  0.00    -0.248 NA
ATOM     56  C   UNL A   1      43.177  28.336  34.907  1.00  0.00     0.031 C 
ATOM     57  C   UNL A   1      45.853  26.708  30.712  1.00  0.00     0.029 A 
ATOM     58  C   UNL A   1      45.029  25.875  31.447  1.00  0.00     0.049 A 
ATOM     59  H   UNL A   1      43.801  24.298  30.787  1.00  0.00     0.167 HD
ATOM     60  C   UNL A   1      44.150  26.810  33.455  1.00  0.00     0.074 A 
ATOM     61  C   UNL A   1      43.926  27.223  34.828  1.00  0.00     0.031 C 
ATOM     62  C   UNL A   1      44.786  25.747  32.877  1.00  0.00     0.037 A 
BRANCH  49  63
ATOM     63  C   UNL A   1      44.627  24.147  26.912  1.00  0.00     0.064 A 
ATOM     64  C   UNL A   1      44.357  22.785  26.635  1.00  0.00     0.173 A 
ATOM     65  C   UNL A   1      45.580  24.723  26.049  1.00  0.00     0.173 A 
ATOM     66  F   UNL A   1      43.391  22.117  27.279  1.00  0.00    -0.203 F 
ATOM     67  C   UNL A   1      45.069  22.048  25.680  1.00  0.00     0.198 A 
ATOM     68  C   UNL A   1      46.317  23.980  25.119  1.00  0.00     0.198 A 
ATOM     69  F   UNL A   1      45.806  26.036  26.017  1.00  0.00    -0.203 F 
ATOM     70  F   UNL A   1      44.779  20.753  25.489  1.00  0.00    -0.200 F 
ATOM     71  C   UNL A   1      46.073  22.637  24.946  1.00  0.00     0.200 A 
ATOM     72  F   UNL A   1      47.264  24.589  24.389  1.00  0.00    -0.200 F 
ATOM     73  F   UNL A   1      46.782  21.927  24.057  1.00  0.00    -0.200 F 
ENDBRANCH  49  63
BRANCH  50  74
ATOM     74  C   UNL A   1      40.735  30.111  33.499  1.00  0.00     0.064 A 
ATOM     75  C   UNL A   1      40.431  31.461  33.766  1.00  0.00     0.173 A 
ATOM     76  C   UNL A   1      39.662  29.225  33.344  1.00  0.00     0.173 A 
ATOM     77  F   UNL A   1      41.424  32.353  33.918  1.00  0.00    -0.203 F 
ATOM     78  C   UNL A   1      39.118  31.924  33.758  1.00  0.00     0.198 A 
ATOM     79  C   UNL A   1      38.346  29.693  33.348  1.00  0.00     0.198 A 
ATOM     80  F   UNL A   1      39.885  27.934  33.061  1.00  0.00    -0.203 F 
ATOM     81  F   UNL A   1      38.871  33.235  33.898  1.00  0.00    -0.200 F 
ATOM     82  C   UNL A   1      38.077  31.043  33.519  1.00  0.00     0.200 A 
ATOM     83  F   UNL A   1      37.339  28.848  33.080  1.00  0.00    -0.200 F 
ATOM     84  F   UNL A   1      36.822  31.500  33.410  1.00  0.00    -0.200 F 
ENDBRANCH  50  74
BRANCH  62  85
ATOM     85  C   UNL A   1      45.307  24.531  33.600  1.00  0.00     0.064 A 
ATOM     86  C   UNL A   1      44.547  23.375  33.839  1.00  0.00     0.173 A 
ATOM     87  C   UNL A   1      46.678  24.441  33.943  1.00  0.00     0.173 A 
ATOM     88  F   UNL A   1      43.265  23.292  33.456  1.00  0.00    -0.203 F 
ATOM     89  C   UNL A   1      45.100  22.235  34.429  1.00  0.00     0.198 A 
ATOM     90  C   UNL A   1      47.240  23.283  34.479  1.00  0.00     0.198 A 
ATOM     91  F   UNL A   1      47.518  25.468  33.744  1.00  0.00    -0.203 F 
ATOM     92  F   UNL A   1      44.324  21.170  34.672  1.00  0.00    -0.200 F 
ATOM     93  C   UNL A   1      46.448  22.184  34.736  1.00  0.00     0.200 A 
ATOM     94  F   UNL A   1      48.557  23.232  34.722  1.00  0.00    -0.200 F 
ATOM     95  F   UNL A   1      46.983  21.071  35.257  1.00  0.00    -0.200 F 
ENDBRANCH  62  85
ENDBRANCH  36  37
ENDBRANCH  28  31
ENDBRANCH  26  27
ENDBRANCH  25  26
ENDBRANCH   1  25
TORSDOF 14
ENDMDL
MODEL 3
REMARK VINA RESULT:     -13.4      1.120      1.763
REMARK SMILES Cc1ccc(S(=O)(=O)Nc2ccccn2)cc1C(=O)NCCCCNC(=O)c1ccc(-c2c3nc(c(-c4c(F)c(F)c(F)c(F)c4F)c4ccc([nH]4)c(-c4c(F)c(F)c(F)c(F)c4F)c4nc(c(-c5c(F)c(F)c(F)c(F)c5F)c5ccc2[nH]5)C=C4)C=C3)cc1
REMARK SMILES IDX 22 1 21 2 20 3 18 4 19 5 17 7 1 8 2 9 3 10 4 11 16 12 5 13
REMARK SMILES IDX 6 14 7 15 8 16 9 17 10 19 11 20 15 21 12 22 14 23 13 24
REMARK SMILES IDX 23 25 24 26 25 27 26 28 27 30 28 31 29 32 90 33 30 34 89 35
REMARK SMILES IDX 31 36 32 37 33 38 83 39 34 40 88 41 82 42 84 43 35 44 87 45
REMARK SMILES IDX 81 46 80 47 36 49 68 50 48 51 67 52 49 53 52 54 66 55 85 56
REMARK SMILES IDX 50 57 51 58 65 60 86 61 53 62 37 63 38 64 46 65 39 66 40 67
REMARK SMILES IDX 44 68 47 69 41 70 42 71 45 72 43 73 69 74 70 75 78 76 71 77
REMARK SMILES IDX 72 78 76 79 79 80 73 81 74 82 77 83 75 84 54 85 55 86 63 87
REMARK SMILES IDX 56 88 57 89 61 90 64 91 58 92 59 93 62 94 60 95
REMARK H PARENT 20 6 9 18 25 29 84 48 52 59
REMARK Flexibility Score: inf
ROOT
ATOM      1  C   UNL A   1      32.245  29.325  26.734  1.00  0.00     0.023 C 
ENDROOT
BRANCH   1   2
ATOM      2  C   UNL A   1      31.879  28.251  27.768  1.00  0.00     0.116 C 
BRANCH   2   3
ATOM      3  N   UNL A   1      31.063  27.203  27.205  1.00  0.00    -0.352 N 
ATOM      4  C   UNL A   1      31.184  26.198  26.289  1.00  0.00     0.251 C 
ATOM      5  O   UNL A   1      30.170  25.484  26.268  1.00  0.00    -0.269 OA
ATOM      6  H   UNL A   1      30.158  27.216  27.592  1.00  0.00     0.163 HD
BRANCH   4   7
ATOM      7  C   UNL A   1      32.309  25.852  25.326  1.00  0.00     0.044 A 
ATOM      8  C   UNL A   1      31.417  26.523  22.970  1.00  0.00     0.045 C 
ATOM      9  C   UNL A   1      32.429  25.980  23.924  1.00  0.00    -0.038 A 
ATOM     10  C   UNL A   1      33.587  25.479  23.273  1.00  0.00     0.005 A 
ATOM     11  C   UNL A   1      34.539  24.723  23.940  1.00  0.00     0.022 A 
ATOM     12  C   UNL A   1      33.363  25.152  25.988  1.00  0.00     0.036 A 
ATOM     13  C   UNL A   1      34.392  24.505  25.299  1.00  0.00     0.088 A 
BRANCH  13  14
ATOM     14  S   UNL A   1      35.408  23.213  25.991  1.00  0.00     0.263 S 
ATOM     15  O   UNL A   1      36.719  23.801  26.169  1.00  0.00    -0.201 OA
ATOM     16  O   UNL A   1      34.670  22.694  27.127  1.00  0.00    -0.201 OA
BRANCH  14  17
ATOM     17  N   UNL A   1      35.534  21.959  24.928  1.00  0.00    -0.263 N 
ATOM     18  H   UNL A   1      36.399  21.837  24.473  1.00  0.00     0.182 HD
BRANCH  17  19
ATOM     19  C   UNL A   1      34.515  21.054  24.617  1.00  0.00     0.139 A 
ATOM     20  C   UNL A   1      33.206  21.370  24.292  1.00  0.00     0.048 A 
ATOM     21  N   UNL A   1      34.979  19.798  24.752  1.00  0.00    -0.239 NA
ATOM     22  C   UNL A   1      32.294  20.321  24.200  1.00  0.00     0.005 A 
ATOM     23  C   UNL A   1      34.075  18.803  24.640  1.00  0.00     0.113 A 
ATOM     24  C   UNL A   1      32.731  19.013  24.388  1.00  0.00     0.020 A 
ENDBRANCH  17  19
ENDBRANCH  14  17
ENDBRANCH  13  14
ENDBRANCH   4   7
ENDBRANCH   2   3
ENDBRANCH   1   2
BRANCH   1  25
ATOM     25  C   UNL A   1      32.940  30.570  27.283  1.00  0.00     0.023 C 
BRANCH  25  26
ATOM     26  C   UNL A   1      34.457  30.496  27.273  1.00  0.00     0.116 C 
BRANCH  26  27
ATOM     27  N   UNL A   1      35.135  31.359  28.234  1.00  0.00    -0.352 N 
ATOM     28  C   UNL A   1      36.226  31.080  29.043  1.00  0.00     0.251 C 
ATOM     29  H   UNL A   1      34.765  32.267  28.320  1.00  0.00     0.163 HD
ATOM     30  O   UNL A   1      36.608  31.906  29.866  1.00  0.00    -0.269 OA
BRANCH  28  31
ATOM     31  C   UNL A   1      37.029  29.854  28.801  1.00  0.00     0.039 A 
ATOM     32  C   UNL A   1      37.201  28.968  29.874  1.00  0.00     0.014 A 
ATOM     33  C   UNL A   1      37.828  29.739  27.671  1.00  0.00     0.014 A 
ATOM     34  C   UNL A   1      38.362  28.203  29.940  1.00  0.00     0.010 A 
ATOM     35  C   UNL A   1      39.042  29.097  27.798  1.00  0.00     0.010 A 
ATOM     36  C   UNL A   1      39.342  28.400  28.972  1.00  0.00    -0.014 A 
BRANCH  36  37
ATOM     37  C   UNL A   1      40.748  28.064  29.174  1.00  0.00     0.031 A 
ATOM     38  C   UNL A   1      41.311  26.818  28.617  1.00  0.00     0.074 A 
ATOM     39  C   UNL A   1      41.561  28.985  29.743  1.00  0.00     0.049 A 
ATOM     40  N   UNL A   1      42.428  26.289  28.987  1.00  0.00    -0.248 NA
ATOM     41  C   UNL A   1      40.612  26.025  27.616  1.00  0.00     0.031 C 
ATOM     42  C   UNL A   1      43.021  29.011  29.729  1.00  0.00     0.029 A 
ATOM     43  N   UNL A   1      41.206  30.019  30.629  1.00  0.00    -0.354 N 
ATOM     44  C   UNL A   1      42.737  25.282  28.099  1.00  0.00     0.074 A 
ATOM     45  C   UNL A   1      41.529  25.097  27.333  1.00  0.00     0.031 C 
ATOM     46  C   UNL A   1      43.452  29.770  30.749  1.00  0.00     0.029 A 
ATOM     47  C   UNL A   1      42.286  30.127  31.536  1.00  0.00     0.049 A 
ATOM     48  H   UNL A   1      40.379  30.555  30.619  1.00  0.00     0.167 HD
ATOM     49  C   UNL A   1      44.028  24.837  28.038  1.00  0.00     0.037 A 
ATOM     50  C   UNL A   1      42.130  29.847  32.863  1.00  0.00     0.037 A 
ATOM     51  C   UNL A   1      44.819  25.402  29.137  1.00  0.00     0.049 A 
ATOM     52  C   UNL A   1      43.003  28.719  33.360  1.00  0.00     0.074 A 
ATOM     53  C   UNL A   1      45.737  26.437  29.205  1.00  0.00     0.029 A 
ATOM     54  N   UNL A   1      44.484  25.090  30.452  1.00  0.00    -0.354 N 
ATOM     55  N   UNL A   1      43.580  27.850  32.578  1.00  0.00    -0.248 NA
ATOM     56  C   UNL A   1      43.261  28.455  34.773  1.00  0.00     0.031 C 
ATOM     57  C   UNL A   1      45.901  26.792  30.568  1.00  0.00     0.029 A 
ATOM     58  C   UNL A   1      45.101  25.959  31.331  1.00  0.00     0.049 A 
ATOM     59  H   UNL A   1      43.889  24.352  30.719  1.00  0.00     0.167 HD
ATOM     60  C   UNL A   1      44.237  26.917  33.335  1.00  0.00     0.074 A 
ATOM     61  C   UNL A   1      44.028  27.352  34.704  1.00  0.00     0.031 C 
ATOM     62  C   UNL A   1      44.881  25.854  32.767  1.00  0.00     0.037 A 
BRANCH  49  63
ATOM     63  C   UNL A   1      44.659  24.142  26.836  1.00  0.00     0.064 A 
ATOM     64  C   UNL A   1      44.398  22.774  26.581  1.00  0.00     0.173 A 
ATOM     65  C   UNL A   1      45.598  24.713  25.954  1.00  0.00     0.173 A 
ATOM     66  F   UNL A   1      43.445  22.107  27.245  1.00  0.00    -0.203 F 
ATOM     67  C   UNL A   1      45.106  22.029  25.629  1.00  0.00     0.198 A 
ATOM     68  C   UNL A   1      46.330  23.963  25.026  1.00  0.00     0.198 A 
ATOM     69  F   UNL A   1      45.811  26.028  25.900  1.00  0.00    -0.203 F 
ATOM     70  F   UNL A   1      44.825  20.729  25.460  1.00  0.00    -0.200 F 
ATOM     71  C   UNL A   1      46.097  22.616  24.875  1.00  0.00     0.200 A 
ATOM     72  F   UNL A   1      47.264  24.570  24.277  1.00  0.00    -0.200 F 
ATOM     73  F   UNL A   1      46.802  21.899  23.989  1.00  0.00    -0.200 F 
ENDBRANCH  49  63
BRANCH  50  74
ATOM     74  C   UNL A   1      40.770  30.165  33.371  1.00  0.00     0.064 A 
ATOM     75  C   UNL A   1      40.429  31.518  33.562  1.00  0.00     0.173 A 
ATOM     76  C   UNL A   1      39.724  29.237  33.300  1.00  0.00     0.173 A 
ATOM     77  F   UNL A   1      41.396  32.448  33.632  1.00  0.00    -0.203 F 
ATOM     78  C   UNL A   1      39.102  31.939  33.560  1.00  0.00     0.198 A 
ATOM     79  C   UNL A   1      38.393  29.663  33.310  1.00  0.00     0.198 A 
ATOM     80  F   UNL A   1      39.982  27.939  33.092  1.00  0.00    -0.203 F 
ATOM     81  F   UNL A   1      38.816  33.247  33.625  1.00  0.00    -0.200 F 
ATOM     82  C   UNL A   1      38.085  31.012  33.404  1.00  0.00     0.200 A 
ATOM     83  F   UNL A   1      37.409  28.772  33.122  1.00  0.00    -0.200 F 
ATOM     84  F   UNL A   1      36.813  31.422  33.300  1.00  0.00    -0.200 F 
ENDBRANCH  50  74
BRANCH  62  85
ATOM     85  C   UNL A   1      45.433  24.660  33.504  1.00  0.00     0.064 A 
ATOM     86  C   UNL A   1      46.661  24.659  34.186  1.00  0.00     0.173 A 
ATOM     87  C   UNL A   1      44.639  23.500  33.675  1.00  0.00     0.173 A 
ATOM     88  F   UNL A   1      47.453  25.740  34.197  1.00  0.00    -0.203 F 
ATOM     89  C   UNL A   1      47.088  23.559  34.936  1.00  0.00     0.198 A 
ATOM     90  C   UNL A   1      45.043  22.428  34.469  1.00  0.00     0.198 A 
ATOM     91  F   UNL A   1      43.435  23.385  33.095  1.00  0.00    -0.203 F 
ATOM     92  F   UNL A   1      48.285  23.591  35.537  1.00  0.00    -0.200 F 
ATOM     93  C   UNL A   1      46.275  22.451  35.089  1.00  0.00     0.200 A 
ATOM     94  F   UNL A   1      44.221  21.384  34.649  1.00  0.00    -0.200 F 
ATOM     95  F   UNL A   1      46.669  21.420  35.848  1.00  0.00    -0.200 F 
ENDBRANCH  62  85
ENDBRANCH  36  37
ENDBRANCH  28  31
ENDBRANCH  26  27
ENDBRANCH  25  26
ENDBRANCH   1  25
TORSDOF 14
ENDMDL
