MODEL 1
REMARK VINA RESULT:     -12.5      0.000      0.000
REMARK SMILES CC(=O)N/C(=C\c1ccccc1)C(=O)N[C@H](C(=O)NCCCCNC(=O)c1ccc(-c2c3nc(c(-c4c(F)c(F)c(F)c(F)c4F)c4ccc([nH]4)c(-c4c(F)c(F)c(F)c(F)c4F)c4nc(c(-c5c(F)c(F)c(F)c(F)c5F)c5ccc2[nH]5)C=C4)C=C3)cc1)C(C)C
REMARK SMILES IDX 21 1 20 2 19 3 17 4 18 5 16 7 15 8 13 9 14 10 5 12 6 13 4 14
REMARK SMILES IDX 1 15 2 16 3 17 7 19 8 20 12 21 9 22 11 23 10 24 90 25 91 26
REMARK SMILES IDX 92 27 22 28 23 29 24 30 25 31 26 33 27 34 28 35 89 36 29 37
REMARK SMILES IDX 88 38 30 39 31 40 32 41 82 42 33 43 87 44 81 45 83 46 34 47
REMARK SMILES IDX 86 48 80 49 79 50 35 52 67 53 47 54 66 55 48 56 51 57 65 58
REMARK SMILES IDX 84 59 49 60 50 61 64 63 85 64 52 65 36 66 37 67 45 68 38 69
REMARK SMILES IDX 39 70 43 71 46 72 40 73 41 74 44 75 42 76 68 77 69 78 77 79
REMARK SMILES IDX 70 80 71 81 75 82 78 83 72 84 73 85 76 86 74 87 53 88 54 89
REMARK SMILES IDX 62 90 55 91 56 92 60 93 63 94 57 95 58 96 61 97 59 98
REMARK H PARENT 19 6 15 11 4 18 24 32 83 51 51 62
REMARK Flexibility Score: inf
ROOT
ATOM      1  C   UNL A   1      37.203  21.168  24.648  1.00  0.00     0.023 C 
ENDROOT
BRANCH   1   2
ATOM      2  C   UNL A   1      36.255  21.632  25.751  1.00  0.00     0.116 C 
BRANCH   2   3
ATOM      3  N   UNL A   1      35.123  20.742  25.942  1.00  0.00    -0.354 N 
ATOM      4  C   UNL A   1      33.778  20.947  25.811  1.00  0.00     0.242 C 
ATOM      5  O   UNL A   1      33.044  19.964  25.960  1.00  0.00    -0.273 OA
ATOM      6  H   UNL A   1      35.368  19.829  26.213  1.00  0.00     0.163 HD
BRANCH   4   7
ATOM      7  C   UNL A   1      33.173  22.317  25.393  1.00  0.00     0.174 C 
BRANCH   7   8
ATOM      8  N   UNL A   1      33.680  22.645  24.055  1.00  0.00    -0.339 N 
ATOM      9  C   UNL A   1      34.206  23.772  23.490  1.00  0.00     0.268 C 
ATOM     10  O   UNL A   1      34.892  23.547  22.492  1.00  0.00    -0.268 OA
ATOM     11  H   UNL A   1      33.629  21.888  23.429  1.00  0.00     0.164 HD
BRANCH   9  12
ATOM     12  C   UNL A   1      33.938  25.192  23.954  1.00  0.00     0.107 C 
ATOM     13  C   UNL A   1      33.685  25.431  25.259  1.00  0.00     0.040 C 
BRANCH  12  14
ATOM     14  N   UNL A   1      34.007  26.287  23.102  1.00  0.00    -0.322 N 
ATOM     15  C   UNL A   1      32.202  26.121  21.336  1.00  0.00     0.114 C 
ATOM     16  C   UNL A   1      33.362  26.779  22.013  1.00  0.00     0.221 C 
ATOM     17  O   UNL A   1      33.798  27.844  21.556  1.00  0.00    -0.275 OA
ATOM     18  H   UNL A   1      34.744  26.885  23.365  1.00  0.00     0.170 HD
ENDBRANCH  12  14
BRANCH  13  19
ATOM     19  C   UNL A   1      33.148  26.637  25.925  1.00  0.00    -0.023 A 
ATOM     20  C   UNL A   1      34.024  27.692  26.216  1.00  0.00     0.008 A 
ATOM     21  C   UNL A   1      31.844  26.691  26.442  1.00  0.00     0.008 A 
ATOM     22  C   UNL A   1      33.597  28.789  26.969  1.00  0.00     0.001 A 
ATOM     23  C   UNL A   1      31.411  27.799  27.176  1.00  0.00     0.001 A 
ATOM     24  C   UNL A   1      32.288  28.845  27.441  1.00  0.00     0.000 A 
ENDBRANCH  13  19
ENDBRANCH   9  12
ENDBRANCH   7   8
BRANCH   7  25
ATOM     25  C   UNL A   1      31.628  22.299  25.500  1.00  0.00     0.015 C 
ATOM     26  C   UNL A   1      31.169  22.954  26.812  1.00  0.00     0.010 C 
ATOM     27  C   UNL A   1      30.980  23.033  24.323  1.00  0.00     0.010 C 
ENDBRANCH   7  25
ENDBRANCH   4   7
ENDBRANCH   2   3
ENDBRANCH   1   2
BRANCH   1  28
ATOM     28  C   UNL A   1      38.061  19.950  24.980  1.00  0.00     0.023 C 
BRANCH  28  29
ATOM     29  C   UNL A   1      39.224  20.207  25.927  1.00  0.00     0.116 C 
BRANCH  29  30
ATOM     30  N   UNL A   1      40.213  19.141  25.935  1.00  0.00    -0.352 N 
ATOM     31  C   UNL A   1      41.573  19.222  26.119  1.00  0.00     0.251 C 
ATOM     32  H   UNL A   1      39.859  18.235  25.787  1.00  0.00     0.163 HD
ATOM     33  O   UNL A   1      42.271  18.223  26.004  1.00  0.00    -0.269 OA
BRANCH  31  34
ATOM     34  C   UNL A   1      42.198  20.529  26.416  1.00  0.00     0.039 A 
ATOM     35  C   UNL A   1      42.654  21.311  25.350  1.00  0.00     0.014 A 
ATOM     36  C   UNL A   1      42.318  20.992  27.729  1.00  0.00     0.014 A 
ATOM     37  C   UNL A   1      43.161  22.589  25.596  1.00  0.00     0.010 A 
ATOM     38  C   UNL A   1      42.757  22.292  27.966  1.00  0.00     0.010 A 
ATOM     39  C   UNL A   1      43.179  23.104  26.902  1.00  0.00    -0.014 A 
BRANCH  39  40
ATOM     40  C   UNL A   1      43.628  24.491  27.178  1.00  0.00     0.031 A 
ATOM     41  C   UNL A   1      42.650  25.514  27.680  1.00  0.00     0.074 A 
ATOM     42  C   UNL A   1      44.896  24.848  26.898  1.00  0.00     0.049 A 
ATOM     43  N   UNL A   1      42.826  26.795  27.892  1.00  0.00    -0.248 NA
ATOM     44  C   UNL A   1      41.284  25.042  27.955  1.00  0.00     0.031 C 
ATOM     45  C   UNL A   1      45.926  23.960  26.358  1.00  0.00     0.029 A 
ATOM     46  N   UNL A   1      45.531  26.060  27.015  1.00  0.00    -0.354 N 
ATOM     47  C   UNL A   1      41.593  27.282  28.302  1.00  0.00     0.074 A 
ATOM     48  C   UNL A   1      40.665  26.172  28.267  1.00  0.00     0.031 C 
ATOM     49  C   UNL A   1      47.066  24.651  26.204  1.00  0.00     0.029 A 
ATOM     50  C   UNL A   1      46.840  26.037  26.602  1.00  0.00     0.049 A 
ATOM     51  H   UNL A   1      45.089  26.868  27.363  1.00  0.00     0.167 HD
ATOM     52  C   UNL A   1      41.268  28.537  28.694  1.00  0.00     0.037 A 
ATOM     53  C   UNL A   1      47.753  27.026  26.544  1.00  0.00     0.037 A 
ATOM     54  C   UNL A   1      42.200  29.632  28.761  1.00  0.00     0.049 A 
ATOM     55  C   UNL A   1      47.370  28.409  26.997  1.00  0.00     0.074 A 
ATOM     56  C   UNL A   1      41.985  30.923  29.211  1.00  0.00     0.029 A 
ATOM     57  N   UNL A   1      43.527  29.563  28.365  1.00  0.00    -0.354 N 
ATOM     58  N   UNL A   1      46.219  28.842  27.449  1.00  0.00    -0.248 NA
ATOM     59  C   UNL A   1      48.418  29.438  26.938  1.00  0.00     0.031 C 
ATOM     60  C   UNL A   1      43.172  31.645  29.052  1.00  0.00     0.029 A 
ATOM     61  C   UNL A   1      44.139  30.794  28.543  1.00  0.00     0.049 A 
ATOM     62  H   UNL A   1      43.970  28.759  28.010  1.00  0.00     0.167 HD
ATOM     63  C   UNL A   1      46.408  30.183  27.752  1.00  0.00     0.074 A 
ATOM     64  C   UNL A   1      47.790  30.491  27.444  1.00  0.00     0.031 C 
ATOM     65  C   UNL A   1      45.517  31.079  28.240  1.00  0.00     0.037 A 
BRANCH  52  66
ATOM     66  C   UNL A   1      39.843  28.793  29.086  1.00  0.00     0.064 A 
ATOM     67  C   UNL A   1      39.405  28.635  30.409  1.00  0.00     0.173 A 
ATOM     68  C   UNL A   1      38.911  29.236  28.135  1.00  0.00     0.173 A 
ATOM     69  F   UNL A   1      40.254  28.201  31.353  1.00  0.00    -0.203 F 
ATOM     70  C   UNL A   1      38.081  28.881  30.761  1.00  0.00     0.198 A 
ATOM     71  C   UNL A   1      37.595  29.510  28.495  1.00  0.00     0.198 A 
ATOM     72  F   UNL A   1      39.280  29.410  26.857  1.00  0.00    -0.203 F 
ATOM     73  F   UNL A   1      37.673  28.676  32.021  1.00  0.00    -0.200 F 
ATOM     74  C   UNL A   1      37.179  29.326  29.805  1.00  0.00     0.200 A 
ATOM     75  F   UNL A   1      36.727  29.949  27.573  1.00  0.00    -0.200 F 
ATOM     76  F   UNL A   1      35.905  29.567  30.146  1.00  0.00    -0.200 F 
ENDBRANCH  52  66
BRANCH  53  77
ATOM     77  C   UNL A   1      49.126  26.738  26.060  1.00  0.00     0.064 A 
ATOM     78  C   UNL A   1      49.483  26.983  24.727  1.00  0.00     0.173 A 
ATOM     79  C   UNL A   1      50.108  26.216  26.915  1.00  0.00     0.173 A 
ATOM     80  F   UNL A   1      48.572  27.461  23.868  1.00  0.00    -0.203 F 
ATOM     81  C   UNL A   1      50.766  26.699  24.262  1.00  0.00     0.198 A 
ATOM     82  C   UNL A   1      51.398  25.956  26.455  1.00  0.00     0.198 A 
ATOM     83  F   UNL A   1      49.817  25.969  28.200  1.00  0.00    -0.203 F 
ATOM     84  F   UNL A   1      51.068  26.904  22.973  1.00  0.00    -0.200 F 
ATOM     85  C   UNL A   1      51.723  26.192  25.127  1.00  0.00     0.200 A 
ATOM     86  F   UNL A   1      52.323  25.477  27.297  1.00  0.00    -0.200 F 
ATOM     87  F   UNL A   1      52.957  25.922  24.680  1.00  0.00    -0.200 F 
ENDBRANCH  53  77
BRANCH  65  88
ATOM     88  C   UNL A   1      46.015  32.470  28.502  1.00  0.00     0.064 A 
ATOM     89  C   UNL A   1      45.955  33.468  27.520  1.00  0.00     0.173 A 
ATOM     90  C   UNL A   1      46.520  32.817  29.764  1.00  0.00     0.173 A 
ATOM     91  F   UNL A   1      45.495  33.183  26.293  1.00  0.00    -0.203 F 
ATOM     92  C   UNL A   1      46.402  34.761  27.787  1.00  0.00     0.198 A 
ATOM     93  C   UNL A   1      46.940  34.116  30.036  1.00  0.00     0.198 A 
ATOM     94  F   UNL A   1      46.593  31.897  30.739  1.00  0.00    -0.203 F 
ATOM     95  F   UNL A   1      46.373  35.690  26.821  1.00  0.00    -0.200 F 
ATOM     96  C   UNL A   1      46.887  35.084  29.045  1.00  0.00     0.200 A 
ATOM     97  F   UNL A   1      47.399  34.429  31.255  1.00  0.00    -0.200 F 
ATOM     98  F   UNL A   1      47.310  36.329  29.302  1.00  0.00    -0.200 F 
ENDBRANCH  65  88
ENDBRANCH  39  40
ENDBRANCH  31  34
ENDBRANCH  29  30
ENDBRANCH  28  29
ENDBRANCH   1  28
TORSDOF 16
ENDMDL
MODEL 2
REMARK VINA RESULT:     -12.3      5.494      9.682
REMARK SMILES CC(=O)N/C(=C\c1ccccc1)C(=O)N[C@H](C(=O)NCCCCNC(=O)c1ccc(-c2c3nc(c(-c4c(F)c(F)c(F)c(F)c4F)c4ccc([nH]4)c(-c4c(F)c(F)c(F)c(F)c4F)c4nc(c(-c5c(F)c(F)c(F)c(F)c5F)c5ccc2[nH]5)C=C4)C=C3)cc1)C(C)C
REMARK SMILES IDX 21 1 20 2 19 3 17 4 18 5 16 7 15 8 13 9 14 10 5 12 6 13 4 14
REMARK SMILES IDX 1 15 2 16 3 17 7 19 8 20 12 21 9 22 11 23 10 24 90 25 91 26
REMARK SMILES IDX 92 27 22 28 23 29 24 30 25 31 26 33 27 34 28 35 89 36 29 37
REMARK SMILES IDX 88 38 30 39 31 40 32 41 82 42 33 43 87 44 81 45 83 46 34 47
REMARK SMILES IDX 86 48 80 49 79 50 35 52 67 53 47 54 66 55 48 56 51 57 65 58
REMARK SMILES IDX 84 59 49 60 50 61 64 63 85 64 52 65 36 66 37 67 45 68 38 69
REMARK SMILES IDX 39 70 43 71 46 72 40 73 41 74 44 75 42 76 68 77 69 78 77 79
REMARK SMILES IDX 70 80 71 81 75 82 78 83 72 84 73 85 76 86 74 87 53 88 54 89
REMARK SMILES IDX 62 90 55 91 56 92 60 93 63 94 57 95 58 96 61 97 59 98
REMARK H PARENT 19 6 15 11 4 18 24 32 83 51 51 62
REMARK Flexibility Score: inf
ROOT
ATOM      1  C   UNL A   1      31.648  30.411  26.134  1.00  0.00     0.023 C 
ENDROOT
BRANCH   1   2
ATOM      2  C   UNL A   1      33.068  29.866  26.266  1.00  0.00     0.116 C 
BRANCH   2   3
ATOM      3  N   UNL A   1      33.685  29.569  24.986  1.00  0.00    -0.354 N 
ATOM      4  C   UNL A   1      33.660  28.447  24.206  1.00  0.00     0.242 C 
ATOM      5  O   UNL A   1      34.220  28.514  23.107  1.00  0.00    -0.273 OA
ATOM      6  H   UNL A   1      34.218  30.308  24.612  1.00  0.00     0.163 HD
BRANCH   4   7
ATOM      7  C   UNL A   1      32.881  27.163  24.608  1.00  0.00     0.174 C 
BRANCH   7   8
ATOM      8  N   UNL A   1      32.447  26.494  23.375  1.00  0.00    -0.339 N 
ATOM      9  C   UNL A   1      31.553  26.808  22.390  1.00  0.00     0.268 C 
ATOM     10  O   UNL A   1      31.765  26.219  21.329  1.00  0.00    -0.268 OA
ATOM     11  H   UNL A   1      32.897  25.632  23.226  1.00  0.00     0.164 HD
BRANCH   9  12
ATOM     12  C   UNL A   1      30.351  27.719  22.554  1.00  0.00     0.107 C 
ATOM     13  C   UNL A   1      30.413  28.991  22.104  1.00  0.00     0.040 C 
BRANCH  12  14
ATOM     14  N   UNL A   1      29.146  27.285  23.092  1.00  0.00    -0.322 N 
ATOM     15  C   UNL A   1      29.580  25.859  25.137  1.00  0.00     0.114 C 
ATOM     16  C   UNL A   1      28.702  26.535  24.133  1.00  0.00     0.221 C 
ATOM     17  O   UNL A   1      27.474  26.403  24.225  1.00  0.00    -0.275 OA
ATOM     18  H   UNL A   1      28.389  27.620  22.560  1.00  0.00     0.170 HD
ENDBRANCH  12  14
BRANCH  13  19
ATOM     19  C   UNL A   1      29.518  30.141  22.359  1.00  0.00    -0.023 A 
ATOM     20  C   UNL A   1      28.879  30.750  21.269  1.00  0.00     0.008 A 
ATOM     21  C   UNL A   1      29.429  30.759  23.615  1.00  0.00     0.008 A 
ATOM     22  C   UNL A   1      28.139  31.923  21.439  1.00  0.00     0.001 A 
ATOM     23  C   UNL A   1      28.672  31.921  23.789  1.00  0.00     0.001 A 
ATOM     24  C   UNL A   1      28.029  32.503  22.701  1.00  0.00     0.000 A 
ENDBRANCH  13  19
ENDBRANCH   9  12
ENDBRANCH   7   8
BRANCH   7  25
ATOM     25  C   UNL A   1      33.726  26.270  25.550  1.00  0.00     0.015 C 
ATOM     26  C   UNL A   1      32.825  25.553  26.567  1.00  0.00     0.010 C 
ATOM     27  C   UNL A   1      34.520  25.224  24.763  1.00  0.00     0.010 C 
ENDBRANCH   7  25
ENDBRANCH   4   7
ENDBRANCH   2   3
ENDBRANCH   1   2
BRANCH   1  28
ATOM     28  C   UNL A   1      31.420  31.811  26.700  1.00  0.00     0.023 C 
BRANCH  28  29
ATOM     29  C   UNL A   1      32.678  32.574  27.086  1.00  0.00     0.116 C 
BRANCH  29  30
ATOM     30  N   UNL A   1      32.423  33.946  27.495  1.00  0.00    -0.352 N 
ATOM     31  C   UNL A   1      33.053  34.694  28.461  1.00  0.00     0.251 C 
ATOM     32  H   UNL A   1      31.696  34.403  27.014  1.00  0.00     0.163 HD
ATOM     33  O   UNL A   1      32.645  35.815  28.737  1.00  0.00    -0.269 OA
BRANCH  31  34
ATOM     34  C   UNL A   1      34.203  34.125  29.198  1.00  0.00     0.039 A 
ATOM     35  C   UNL A   1      33.952  33.234  30.246  1.00  0.00     0.014 A 
ATOM     36  C   UNL A   1      35.517  34.449  28.850  1.00  0.00     0.014 A 
ATOM     37  C   UNL A   1      35.020  32.610  30.895  1.00  0.00     0.010 A 
ATOM     38  C   UNL A   1      36.576  33.774  29.449  1.00  0.00     0.010 A 
ATOM     39  C   UNL A   1      36.338  32.846  30.474  1.00  0.00    -0.014 A 
BRANCH  39  40
ATOM     40  C   UNL A   1      37.483  32.127  31.087  1.00  0.00     0.031 A 
ATOM     41  C   UNL A   1      37.969  32.510  32.455  1.00  0.00     0.074 A 
ATOM     42  C   UNL A   1      38.134  31.185  30.377  1.00  0.00     0.049 A 
ATOM     43  N   UNL A   1      39.006  32.066  33.120  1.00  0.00    -0.248 NA
ATOM     44  C   UNL A   1      37.205  33.551  33.159  1.00  0.00     0.031 C 
ATOM     45  C   UNL A   1      37.790  30.761  29.019  1.00  0.00     0.029 A 
ATOM     46  N   UNL A   1      39.232  30.425  30.695  1.00  0.00    -0.354 N 
ATOM     47  C   UNL A   1      39.030  32.786  34.306  1.00  0.00     0.074 A 
ATOM     48  C   UNL A   1      37.933  33.727  34.253  1.00  0.00     0.031 C 
ATOM     49  C   UNL A   1      38.650  29.807  28.626  1.00  0.00     0.029 A 
ATOM     50  C   UNL A   1      39.624  29.577  29.689  1.00  0.00     0.049 A 
ATOM     51  H   UNL A   1      39.694  30.482  31.562  1.00  0.00     0.167 HD
ATOM     52  C   UNL A   1      39.878  32.658  35.355  1.00  0.00     0.037 A 
ATOM     53  C   UNL A   1      40.657  28.716  29.627  1.00  0.00     0.037 A 
ATOM     54  C   UNL A   1      40.948  31.698  35.421  1.00  0.00     0.049 A 
ATOM     55  C   UNL A   1      41.577  28.584  30.811  1.00  0.00     0.074 A 
ATOM     56  C   UNL A   1      41.816  31.444  36.468  1.00  0.00     0.029 A 
ATOM     57  N   UNL A   1      41.294  30.833  34.394  1.00  0.00    -0.354 N 
ATOM     58  N   UNL A   1      41.548  29.223  31.956  1.00  0.00    -0.248 NA
ATOM     59  C   UNL A   1      42.669  27.608  30.696  1.00  0.00     0.031 C 
ATOM     60  C   UNL A   1      42.713  30.450  36.060  1.00  0.00     0.029 A 
ATOM     61  C   UNL A   1      42.376  30.055  34.776  1.00  0.00     0.049 A 
ATOM     62  H   UNL A   1      40.840  30.778  33.523  1.00  0.00     0.167 HD
ATOM     63  C   UNL A   1      42.597  28.708  32.706  1.00  0.00     0.074 A 
ATOM     64  C   UNL A   1      43.237  27.696  31.891  1.00  0.00     0.031 C 
ATOM     65  C   UNL A   1      42.995  29.046  33.956  1.00  0.00     0.037 A 
BRANCH  52  66
ATOM     66  C   UNL A   1      39.679  33.580  36.522  1.00  0.00     0.064 A 
ATOM     67  C   UNL A   1      38.870  33.223  37.611  1.00  0.00     0.173 A 
ATOM     68  C   UNL A   1      40.331  34.821  36.569  1.00  0.00     0.173 A 
ATOM     69  F   UNL A   1      38.215  32.052  37.609  1.00  0.00    -0.203 F 
ATOM     70  C   UNL A   1      38.699  34.085  38.690  1.00  0.00     0.198 A 
ATOM     71  C   UNL A   1      40.181  35.669  37.663  1.00  0.00     0.198 A 
ATOM     72  F   UNL A   1      41.120  35.209  35.555  1.00  0.00    -0.203 F 
ATOM     73  F   UNL A   1      37.883  33.742  39.698  1.00  0.00    -0.200 F 
ATOM     74  C   UNL A   1      39.360  35.304  38.718  1.00  0.00     0.200 A 
ATOM     75  F   UNL A   1      40.828  36.843  37.693  1.00  0.00    -0.200 F 
ATOM     76  F   UNL A   1      39.197  36.131  39.760  1.00  0.00    -0.200 F 
ENDBRANCH  52  66
BRANCH  53  77
ATOM     77  C   UNL A   1      40.864  27.892  28.410  1.00  0.00     0.064 A 
ATOM     78  C   UNL A   1      41.661  28.358  27.355  1.00  0.00     0.173 A 
ATOM     79  C   UNL A   1      40.275  26.627  28.275  1.00  0.00     0.173 A 
ATOM     80  F   UNL A   1      42.228  29.571  27.431  1.00  0.00    -0.203 F 
ATOM     81  C   UNL A   1      41.845  27.597  26.203  1.00  0.00     0.198 A 
ATOM     82  C   UNL A   1      40.480  25.856  27.132  1.00  0.00     0.198 A 
ATOM     83  F   UNL A   1      39.507  26.135  29.259  1.00  0.00    -0.203 F 
ATOM     84  F   UNL A   1      42.578  28.084  25.192  1.00  0.00    -0.200 F 
ATOM     85  C   UNL A   1      41.260  26.344  26.095  1.00  0.00     0.200 A 
ATOM     86  F   UNL A   1      39.922  24.642  27.037  1.00  0.00    -0.200 F 
ATOM     87  F   UNL A   1      41.440  25.612  24.988  1.00  0.00    -0.200 F 
ENDBRANCH  53  77
BRANCH  65  88
ATOM     88  C   UNL A   1      44.157  28.293  34.534  1.00  0.00     0.064 A 
ATOM     89  C   UNL A   1      43.978  27.087  35.225  1.00  0.00     0.173 A 
ATOM     90  C   UNL A   1      45.466  28.764  34.357  1.00  0.00     0.173 A 
ATOM     91  F   UNL A   1      42.745  26.603  35.434  1.00  0.00    -0.203 F 
ATOM     92  C   UNL A   1      45.070  26.389  35.737  1.00  0.00     0.198 A 
ATOM     93  C   UNL A   1      46.556  28.050  34.847  1.00  0.00     0.198 A 
ATOM     94  F   UNL A   1      45.689  29.912  33.698  1.00  0.00    -0.203 F 
ATOM     95  F   UNL A   1      44.874  25.258  36.430  1.00  0.00    -0.200 F 
ATOM     96  C   UNL A   1      46.357  26.868  35.541  1.00  0.00     0.200 A 
ATOM     97  F   UNL A   1      47.800  28.508  34.647  1.00  0.00    -0.200 F 
ATOM     98  F   UNL A   1      47.405  26.191  36.028  1.00  0.00    -0.200 F 
ENDBRANCH  65  88
ENDBRANCH  39  40
ENDBRANCH  31  34
ENDBRANCH  29  30
ENDBRANCH  28  29
ENDBRANCH   1  28
TORSDOF 16
ENDMDL
MODEL 3
REMARK VINA RESULT:     -12.2      1.501      7.456
REMARK SMILES CC(=O)N/C(=C\c1ccccc1)C(=O)N[C@H](C(=O)NCCCCNC(=O)c1ccc(-c2c3nc(c(-c4c(F)c(F)c(F)c(F)c4F)c4ccc([nH]4)c(-c4c(F)c(F)c(F)c(F)c4F)c4nc(c(-c5c(F)c(F)c(F)c(F)c5F)c5ccc2[nH]5)C=C4)C=C3)cc1)C(C)C
REMARK SMILES IDX 21 1 20 2 19 3 17 4 18 5 16 7 15 8 13 9 14 10 5 12 6 13 4 14
REMARK SMILES IDX 1 15 2 16 3 17 7 19 8 20 12 21 9 22 11 23 10 24 90 25 91 26
REMARK SMILES IDX 92 27 22 28 23 29 24 30 25 31 26 33 27 34 28 35 89 36 29 37
REMARK SMILES IDX 88 38 30 39 31 40 32 41 82 42 33 43 87 44 81 45 83 46 34 47
REMARK SMILES IDX 86 48 80 49 79 50 35 52 67 53 47 54 66 55 48 56 51 57 65 58
REMARK SMILES IDX 84 59 49 60 50 61 64 63 85 64 52 65 36 66 37 67 45 68 38 69
REMARK SMILES IDX 39 70 43 71 46 72 40 73 41 74 44 75 42 76 68 77 69 78 77 79
REMARK SMILES IDX 70 80 71 81 75 82 78 83 72 84 73 85 76 86 74 87 53 88 54 89
REMARK SMILES IDX 62 90 55 91 56 92 60 93 63 94 57 95 58 96 61 97 59 98
REMARK H PARENT 19 6 15 11 4 18 24 32 83 51 51 62
REMARK Flexibility Score: inf
ROOT
ATOM      1  C   UNL A   1      37.077  20.846  24.717  1.00  0.00     0.023 C 
ENDROOT
BRANCH   1   2
ATOM      2  C   UNL A   1      35.681  20.668  25.309  1.00  0.00     0.116 C 
BRANCH   2   3
ATOM      3  N   UNL A   1      35.371  21.644  26.339  1.00  0.00    -0.354 N 
ATOM      4  C   UNL A   1      34.217  22.315  26.634  1.00  0.00     0.242 C 
ATOM      5  O   UNL A   1      34.227  23.034  27.639  1.00  0.00    -0.273 OA
ATOM      6  H   UNL A   1      36.126  21.861  26.931  1.00  0.00     0.163 HD
BRANCH   4   7
ATOM      7  C   UNL A   1      32.903  22.123  25.824  1.00  0.00     0.174 C 
BRANCH   7   8
ATOM      8  N   UNL A   1      31.775  22.373  26.729  1.00  0.00    -0.339 N 
ATOM      9  C   UNL A   1      30.828  23.354  26.817  1.00  0.00     0.268 C 
ATOM     10  O   UNL A   1      29.817  23.009  27.430  1.00  0.00    -0.268 OA
ATOM     11  H   UNL A   1      31.679  21.683  27.424  1.00  0.00     0.164 HD
BRANCH   9  12
ATOM     12  C   UNL A   1      30.987  24.773  26.303  1.00  0.00     0.107 C 
ATOM     13  C   UNL A   1      32.081  25.488  26.643  1.00  0.00     0.040 C 
BRANCH  12  14
ATOM     14  N   UNL A   1      30.081  25.362  25.429  1.00  0.00    -0.322 N 
ATOM     15  C   UNL A   1      31.147  25.658  23.153  1.00  0.00     0.114 C 
ATOM     16  C   UNL A   1      30.023  25.765  24.134  1.00  0.00     0.221 C 
ATOM     17  O   UNL A   1      28.954  26.271  23.768  1.00  0.00    -0.275 OA
ATOM     18  H   UNL A   1      29.226  25.539  25.884  1.00  0.00     0.170 HD
ENDBRANCH  12  14
BRANCH  13  19
ATOM     19  C   UNL A   1      32.361  26.933  26.508  1.00  0.00    -0.023 A 
ATOM     20  C   UNL A   1      33.492  27.334  25.784  1.00  0.00     0.008 A 
ATOM     21  C   UNL A   1      31.648  27.906  27.226  1.00  0.00     0.008 A 
ATOM     22  C   UNL A   1      33.879  28.677  25.747  1.00  0.00     0.001 A 
ATOM     23  C   UNL A   1      32.022  29.252  27.171  1.00  0.00     0.001 A 
ATOM     24  C   UNL A   1      33.138  29.636  26.434  1.00  0.00     0.000 A 
ENDBRANCH  13  19
ENDBRANCH   9  12
ENDBRANCH   7   8
BRANCH   7  25
ATOM     25  C   UNL A   1      32.901  23.004  24.550  1.00  0.00     0.015 C 
ATOM     26  C   UNL A   1      34.207  23.806  24.445  1.00  0.00     0.010 C 
ATOM     27  C   UNL A   1      32.734  22.156  23.286  1.00  0.00     0.010 C 
ENDBRANCH   7  25
ENDBRANCH   4   7
ENDBRANCH   2   3
ENDBRANCH   1   2
BRANCH   1  28
ATOM     28  C   UNL A   1      38.074  19.732  25.026  1.00  0.00     0.023 C 
BRANCH  28  29
ATOM     29  C   UNL A   1      39.276  20.142  25.865  1.00  0.00     0.116 C 
BRANCH  29  30
ATOM     30  N   UNL A   1      40.330  19.141  25.898  1.00  0.00    -0.352 N 
ATOM     31  C   UNL A   1      41.673  19.304  26.145  1.00  0.00     0.251 C 
ATOM     32  H   UNL A   1      40.042  18.217  25.717  1.00  0.00     0.163 HD
ATOM     33  O   UNL A   1      42.438  18.354  26.044  1.00  0.00    -0.269 OA
BRANCH  31  34
ATOM     34  C   UNL A   1      42.199  20.642  26.494  1.00  0.00     0.039 A 
ATOM     35  C   UNL A   1      42.602  21.493  25.461  1.00  0.00     0.014 A 
ATOM     36  C   UNL A   1      42.277  21.064  27.824  1.00  0.00     0.014 A 
ATOM     37  C   UNL A   1      43.013  22.795  25.757  1.00  0.00     0.010 A 
ATOM     38  C   UNL A   1      42.619  22.382  28.110  1.00  0.00     0.010 A 
ATOM     39  C   UNL A   1      42.986  23.261  27.080  1.00  0.00    -0.014 A 
BRANCH  39  40
ATOM     40  C   UNL A   1      43.331  24.666  27.409  1.00  0.00     0.031 A 
ATOM     41  C   UNL A   1      44.768  25.101  27.452  1.00  0.00     0.074 A 
ATOM     42  C   UNL A   1      42.354  25.529  27.749  1.00  0.00     0.049 A 
ATOM     43  N   UNL A   1      45.275  26.255  27.807  1.00  0.00    -0.248 NA
ATOM     44  C   UNL A   1      45.772  24.095  27.073  1.00  0.00     0.031 C 
ATOM     45  C   UNL A   1      40.925  25.214  27.795  1.00  0.00     0.029 A 
ATOM     46  N   UNL A   1      42.416  26.846  28.134  1.00  0.00    -0.354 N 
ATOM     47  C   UNL A   1      46.651  26.107  27.714  1.00  0.00     0.074 A 
ATOM     48  C   UNL A   1      46.905  24.740  27.314  1.00  0.00     0.031 C 
ATOM     49  C   UNL A   1      40.245  26.309  28.172  1.00  0.00     0.029 A 
ATOM     50  C   UNL A   1      41.191  27.392  28.427  1.00  0.00     0.049 A 
ATOM     51  H   UNL A   1      43.260  27.349  28.195  1.00  0.00     0.167 HD
ATOM     52  C   UNL A   1      47.616  27.035  27.922  1.00  0.00     0.037 A 
ATOM     53  C   UNL A   1      40.867  28.625  28.859  1.00  0.00     0.037 A 
ATOM     54  C   UNL A   1      47.360  28.403  28.287  1.00  0.00     0.049 A 
ATOM     55  C   UNL A   1      41.958  29.641  29.070  1.00  0.00     0.074 A 
ATOM     56  C   UNL A   1      48.267  29.436  28.453  1.00  0.00     0.029 A 
ATOM     57  N   UNL A   1      46.103  28.929  28.543  1.00  0.00    -0.354 N 
ATOM     58  N   UNL A   1      43.253  29.510  28.913  1.00  0.00    -0.248 NA
ATOM     59  C   UNL A   1      41.540  30.978  29.514  1.00  0.00     0.031 C 
ATOM     60  C   UNL A   1      47.561  30.578  28.845  1.00  0.00     0.029 A 
ATOM     61  C   UNL A   1      46.211  30.268  28.883  1.00  0.00     0.049 A 
ATOM     62  H   UNL A   1      45.259  28.426  28.491  1.00  0.00     0.167 HD
ATOM     63  C   UNL A   1      43.800  30.749  29.211  1.00  0.00     0.074 A 
ATOM     64  C   UNL A   1      42.697  31.625  29.548  1.00  0.00     0.031 C 
ATOM     65  C   UNL A   1      45.102  31.127  29.207  1.00  0.00     0.037 A 
BRANCH  52  66
ATOM     66  C   UNL A   1      49.042  26.599  27.756  1.00  0.00     0.064 A 
ATOM     67  C   UNL A   1      49.629  26.472  26.488  1.00  0.00     0.173 A 
ATOM     68  C   UNL A   1      49.843  26.338  28.879  1.00  0.00     0.173 A 
ATOM     69  F   UNL A   1      48.902  26.698  25.383  1.00  0.00    -0.203 F 
ATOM     70  C   UNL A   1      50.955  26.073  26.348  1.00  0.00     0.198 A 
ATOM     71  C   UNL A   1      51.177  25.967  28.736  1.00  0.00     0.198 A 
ATOM     72  F   UNL A   1      49.332  26.450  30.114  1.00  0.00    -0.203 F 
ATOM     73  F   UNL A   1      51.480  25.912  25.126  1.00  0.00    -0.200 F 
ATOM     74  C   UNL A   1      51.729  25.827  27.473  1.00  0.00     0.200 A 
ATOM     75  F   UNL A   1      51.927  25.740  29.823  1.00  0.00    -0.200 F 
ATOM     76  F   UNL A   1      53.008  25.447  27.336  1.00  0.00    -0.200 F 
ENDBRANCH  52  66
BRANCH  53  77
ATOM     77  C   UNL A   1      39.445  28.978  29.097  1.00  0.00     0.064 A 
ATOM     78  C   UNL A   1      38.884  28.869  30.376  1.00  0.00     0.173 A 
ATOM     79  C   UNL A   1      38.620  29.430  28.057  1.00  0.00     0.173 A 
ATOM     80  F   UNL A   1      39.628  28.421  31.397  1.00  0.00    -0.203 F 
ATOM     81  C   UNL A   1      37.545  29.182  30.603  1.00  0.00     0.198 A 
ATOM     82  C   UNL A   1      37.288  29.767  28.290  1.00  0.00     0.198 A 
ATOM     83  F   UNL A   1      39.112  29.556  26.816  1.00  0.00    -0.203 F 
ATOM     84  F   UNL A   1      37.022  29.029  31.828  1.00  0.00    -0.200 F 
ATOM     85  C   UNL A   1      36.750  29.636  29.562  1.00  0.00     0.200 A 
ATOM     86  F   UNL A   1      36.527  30.216  27.284  1.00  0.00    -0.200 F 
ATOM     87  F   UNL A   1      35.464  29.939  29.781  1.00  0.00    -0.200 F 
ENDBRANCH  53  77
BRANCH  65  88
ATOM     88  C   UNL A   1      45.402  32.557  29.547  1.00  0.00     0.064 A 
ATOM     89  C   UNL A   1      45.405  33.559  28.567  1.00  0.00     0.173 A 
ATOM     90  C   UNL A   1      45.650  32.934  30.875  1.00  0.00     0.173 A 
ATOM     91  F   UNL A   1      45.190  33.247  27.280  1.00  0.00    -0.203 F 
ATOM     92  C   UNL A   1      45.665  34.886  28.902  1.00  0.00     0.198 A 
ATOM     93  C   UNL A   1      45.882  34.265  31.211  1.00  0.00     0.198 A 
ATOM     94  F   UNL A   1      45.653  32.011  31.850  1.00  0.00    -0.203 F 
ATOM     95  F   UNL A   1      45.703  35.822  27.943  1.00  0.00    -0.200 F 
ATOM     96  C   UNL A   1      45.896  35.237  30.224  1.00  0.00     0.200 A 
ATOM     97  F   UNL A   1      46.095  34.604  32.490  1.00  0.00    -0.200 F 
ATOM     98  F   UNL A   1      46.139  36.516  30.545  1.00  0.00    -0.200 F 
ENDBRANCH  65  88
ENDBRANCH  39  40
ENDBRANCH  31  34
ENDBRANCH  29  30
ENDBRANCH  28  29
ENDBRANCH   1  28
TORSDOF 16
ENDMDL
