MODEL 1
REMARK VINA RESULT:     -12.9      0.000      0.000
REMARK SMILES Cc1c(F)cc(C(=O)NCCCCNC(=O)c2ccc(-c3c4nc(c(-c5c(F)c(F)c(F)c(F)c5F)c5ccc([nH]5)c(-c5c(F)c(F)c(F)c(F)c5F)c5nc(c(-c6c(F)c(F)c(F)c(F)c6F)c6ccc3[nH]6)C=C5)C=C4)cc2)cc1S(=O)(=O)NC#N
REMARK SMILES IDX 11 1 10 2 9 3 7 4 8 5 6 7 1 8 2 9 3 10 81 11 4 12 5 13 80 14
REMARK SMILES IDX 82 15 83 16 84 17 85 18 86 20 87 21 12 22 13 23 14 24 15 25
REMARK SMILES IDX 16 27 17 28 18 29 79 30 19 31 78 32 20 33 21 34 22 35 72 36
REMARK SMILES IDX 23 37 77 38 71 39 73 40 24 41 76 42 70 43 69 44 25 46 57 47
REMARK SMILES IDX 37 48 56 49 38 50 41 51 55 52 74 53 39 54 40 55 54 57 75 58
REMARK SMILES IDX 42 59 26 60 27 61 35 62 28 63 29 64 33 65 36 66 30 67 31 68
REMARK SMILES IDX 34 69 32 70 58 71 59 72 67 73 60 74 61 75 65 76 68 77 62 78
REMARK SMILES IDX 63 79 66 80 64 81 43 82 44 83 52 84 45 85 46 86 50 87 53 88
REMARK SMILES IDX 47 89 48 90 51 91 49 92
REMARK H PARENT 9 6 85 19 14 26 73 45 41 56
REMARK Flexibility Score: inf
ROOT
ATOM      1  C   UNL A   1      33.771  26.667  25.472  1.00  0.00     0.023 C 
ENDROOT
BRANCH   1   2
ATOM      2  C   UNL A   1      32.491  26.078  24.866  1.00  0.00     0.116 C 
BRANCH   2   3
ATOM      3  N   UNL A   1      32.689  25.825  23.455  1.00  0.00    -0.352 N 
ATOM      4  C   UNL A   1      33.392  24.868  22.772  1.00  0.00     0.251 C 
ATOM      5  O   UNL A   1      33.506  25.031  21.556  1.00  0.00    -0.269 OA
ATOM      6  H   UNL A   1      32.228  26.468  22.870  1.00  0.00     0.163 HD
BRANCH   4   7
ATOM      7  C   UNL A   1      33.970  23.637  23.390  1.00  0.00     0.044 A 
ATOM      8  C   UNL A   1      36.086  20.238  25.067  1.00  0.00     0.049 C 
ATOM      9  C   UNL A   1      35.261  21.314  24.452  1.00  0.00     0.005 A 
ATOM     10  C   UNL A   1      35.963  22.488  24.098  1.00  0.00     0.128 A 
ATOM     11  C   UNL A   1      33.891  21.289  24.204  1.00  0.00     0.095 A 
ATOM     12  F   UNL A   1      37.293  22.536  24.265  1.00  0.00    -0.207 F 
ATOM     13  C   UNL A   1      35.348  23.614  23.564  1.00  0.00     0.053 A 
ATOM     14  C   UNL A   1      33.269  22.492  23.766  1.00  0.00     0.036 A 
BRANCH  11  15
ATOM     15  S   UNL A   1      32.699  19.951  24.179  1.00  0.00     0.270 S 
ATOM     16  O   UNL A   1      31.832  20.248  25.305  1.00  0.00    -0.201 OA
ATOM     17  O   UNL A   1      32.141  19.981  22.841  1.00  0.00    -0.201 OA
BRANCH  15  18
ATOM     18  N   UNL A   1      33.122  18.396  24.478  1.00  0.00    -0.215 NA
ATOM     19  H   UNL A   1      32.988  18.068  25.395  1.00  0.00     0.193 HD
BRANCH  18  20
ATOM     20  C   UNL A   1      33.622  17.548  23.609  1.00  0.00     0.191 C 
ATOM     21  N   UNL A   1      33.957  16.883  22.729  1.00  0.00    -0.172 NA
ENDBRANCH  18  20
ENDBRANCH  15  18
ENDBRANCH  11  15
ENDBRANCH   4   7
ENDBRANCH   2   3
ENDBRANCH   1   2
BRANCH   1  22
ATOM     22  C   UNL A   1      33.752  28.198  25.598  1.00  0.00     0.023 C 
BRANCH  22  23
ATOM     23  C   UNL A   1      34.271  28.670  26.938  1.00  0.00     0.116 C 
BRANCH  23  24
ATOM     24  N   UNL A   1      34.487  30.120  26.942  1.00  0.00    -0.352 N 
ATOM     25  C   UNL A   1      35.341  30.822  27.764  1.00  0.00     0.251 C 
ATOM     26  H   UNL A   1      33.970  30.645  26.291  1.00  0.00     0.163 HD
ATOM     27  O   UNL A   1      35.161  31.999  28.042  1.00  0.00    -0.269 OA
BRANCH  25  28
ATOM     28  C   UNL A   1      36.538  30.116  28.216  1.00  0.00     0.039 A 
ATOM     29  C   UNL A   1      36.637  29.488  29.462  1.00  0.00     0.014 A 
ATOM     30  C   UNL A   1      37.613  30.169  27.335  1.00  0.00     0.014 A 
ATOM     31  C   UNL A   1      37.857  28.931  29.820  1.00  0.00     0.010 A 
ATOM     32  C   UNL A   1      38.689  29.394  27.563  1.00  0.00     0.010 A 
ATOM     33  C   UNL A   1      38.864  28.919  28.857  1.00  0.00    -0.014 A 
BRANCH  33  34
ATOM     34  C   UNL A   1      40.209  28.439  29.040  1.00  0.00     0.031 A 
ATOM     35  C   UNL A   1      40.424  27.035  28.705  1.00  0.00     0.074 A 
ATOM     36  C   UNL A   1      41.108  29.438  29.224  1.00  0.00     0.049 A 
ATOM     37  N   UNL A   1      41.339  26.295  29.203  1.00  0.00    -0.248 NA
ATOM     38  C   UNL A   1      39.529  26.292  27.810  1.00  0.00     0.031 C 
ATOM     39  C   UNL A   1      42.548  29.509  29.078  1.00  0.00     0.029 A 
ATOM     40  N   UNL A   1      40.780  30.730  29.697  1.00  0.00    -0.354 N 
ATOM     41  C   UNL A   1      41.447  25.212  28.356  1.00  0.00     0.074 A 
ATOM     42  C   UNL A   1      40.168  25.122  27.706  1.00  0.00     0.031 C 
ATOM     43  C   UNL A   1      43.002  30.558  29.798  1.00  0.00     0.029 A 
ATOM     44  C   UNL A   1      41.861  31.144  30.488  1.00  0.00     0.049 A 
ATOM     45  H   UNL A   1      39.959  31.238  29.507  1.00  0.00     0.167 HD
ATOM     46  C   UNL A   1      42.699  24.716  28.127  1.00  0.00     0.037 A 
ATOM     47  C   UNL A   1      41.655  31.177  31.840  1.00  0.00     0.037 A 
ATOM     48  C   UNL A   1      43.661  25.525  28.889  1.00  0.00     0.049 A 
ATOM     49  C   UNL A   1      42.386  30.026  32.481  1.00  0.00     0.074 A 
ATOM     50  C   UNL A   1      44.501  26.567  28.524  1.00  0.00     0.029 A 
ATOM     51  N   UNL A   1      43.524  25.601  30.271  1.00  0.00    -0.354 N 
ATOM     52  N   UNL A   1      42.615  28.880  31.889  1.00  0.00    -0.248 NA
ATOM     53  C   UNL A   1      43.071  30.156  33.759  1.00  0.00     0.031 C 
ATOM     54  C   UNL A   1      44.806  27.310  29.704  1.00  0.00     0.029 A 
ATOM     55  C   UNL A   1      44.134  26.735  30.773  1.00  0.00     0.049 A 
ATOM     56  H   UNL A   1      43.053  24.934  30.820  1.00  0.00     0.167 HD
ATOM     57  C   UNL A   1      43.542  28.180  32.615  1.00  0.00     0.074 A 
ATOM     58  C   UNL A   1      43.779  29.015  33.783  1.00  0.00     0.031 C 
ATOM     59  C   UNL A   1      44.103  27.001  32.206  1.00  0.00     0.037 A 
BRANCH  46  60
ATOM     60  C   UNL A   1      43.127  23.742  27.047  1.00  0.00     0.064 A 
ATOM     61  C   UNL A   1      42.829  22.367  27.190  1.00  0.00     0.173 A 
ATOM     62  C   UNL A   1      43.815  24.061  25.859  1.00  0.00     0.173 A 
ATOM     63  F   UNL A   1      42.136  21.908  28.241  1.00  0.00    -0.203 F 
ATOM     64  C   UNL A   1      43.216  21.402  26.255  1.00  0.00     0.198 A 
ATOM     65  C   UNL A   1      44.210  23.094  24.924  1.00  0.00     0.198 A 
ATOM     66  F   UNL A   1      44.113  25.316  25.520  1.00  0.00    -0.203 F 
ATOM     67  F   UNL A   1      42.904  20.115  26.461  1.00  0.00    -0.200 F 
ATOM     68  C   UNL A   1      43.912  21.764  25.123  1.00  0.00     0.200 A 
ATOM     69  F   UNL A   1      44.874  23.472  23.822  1.00  0.00    -0.200 F 
ATOM     70  F   UNL A   1      44.275  20.845  24.221  1.00  0.00    -0.200 F 
ENDBRANCH  46  60
BRANCH  47  71
ATOM     71  C   UNL A   1      40.291  31.732  32.150  1.00  0.00     0.064 A 
ATOM     72  C   UNL A   1      39.426  30.832  32.817  1.00  0.00     0.173 A 
ATOM     73  C   UNL A   1      40.061  33.100  32.356  1.00  0.00     0.173 A 
ATOM     74  F   UNL A   1      39.551  29.511  32.610  1.00  0.00    -0.203 F 
ATOM     75  C   UNL A   1      38.587  31.260  33.844  1.00  0.00     0.198 A 
ATOM     76  C   UNL A   1      39.154  33.528  33.335  1.00  0.00     0.198 A 
ATOM     77  F   UNL A   1      40.801  34.018  31.718  1.00  0.00    -0.203 F 
ATOM     78  F   UNL A   1      37.969  30.358  34.621  1.00  0.00    -0.200 F 
ATOM     79  C   UNL A   1      38.489  32.607  34.135  1.00  0.00     0.200 A 
ATOM     80  F   UNL A   1      38.992  34.838  33.569  1.00  0.00    -0.200 F 
ATOM     81  F   UNL A   1      37.794  33.005  35.210  1.00  0.00    -0.200 F 
ENDBRANCH  47  71
BRANCH  59  82
ATOM     82  C   UNL A   1      44.747  25.988  33.128  1.00  0.00     0.064 A 
ATOM     83  C   UNL A   1      46.115  25.675  33.108  1.00  0.00     0.173 A 
ATOM     84  C   UNL A   1      44.019  25.424  34.209  1.00  0.00     0.173 A 
ATOM     85  F   UNL A   1      46.961  26.255  32.249  1.00  0.00    -0.203 F 
ATOM     86  C   UNL A   1      46.687  24.796  34.027  1.00  0.00     0.198 A 
ATOM     87  C   UNL A   1      44.618  24.639  35.188  1.00  0.00     0.198 A 
ATOM     88  F   UNL A   1      42.707  25.641  34.381  1.00  0.00    -0.203 F 
ATOM     89  F   UNL A   1      47.980  24.467  33.905  1.00  0.00    -0.200 F 
ATOM     90  C   UNL A   1      45.946  24.296  35.079  1.00  0.00     0.200 A 
ATOM     91  F   UNL A   1      43.900  24.238  36.247  1.00  0.00    -0.200 F 
ATOM     92  F   UNL A   1      46.516  23.506  35.996  1.00  0.00    -0.200 F 
ENDBRANCH  59  82
ENDBRANCH  33  34
ENDBRANCH  25  28
ENDBRANCH  23  24
ENDBRANCH  22  23
ENDBRANCH   1  22
TORSDOF 14
ENDMDL
MODEL 2
REMARK VINA RESULT:     -12.9      3.595      9.587
REMARK SMILES Cc1c(F)cc(C(=O)NCCCCNC(=O)c2ccc(-c3c4nc(c(-c5c(F)c(F)c(F)c(F)c5F)c5ccc([nH]5)c(-c5c(F)c(F)c(F)c(F)c5F)c5nc(c(-c6c(F)c(F)c(F)c(F)c6F)c6ccc3[nH]6)C=C5)C=C4)cc2)cc1S(=O)(=O)NC#N
REMARK SMILES IDX 11 1 10 2 9 3 7 4 8 5 6 7 1 8 2 9 3 10 81 11 4 12 5 13 80 14
REMARK SMILES IDX 82 15 83 16 84 17 85 18 86 20 87 21 12 22 13 23 14 24 15 25
REMARK SMILES IDX 16 27 17 28 18 29 79 30 19 31 78 32 20 33 21 34 22 35 72 36
REMARK SMILES IDX 23 37 77 38 71 39 73 40 24 41 76 42 70 43 69 44 25 46 57 47
REMARK SMILES IDX 37 48 56 49 38 50 41 51 55 52 74 53 39 54 40 55 54 57 75 58
REMARK SMILES IDX 42 59 26 60 27 61 35 62 28 63 29 64 33 65 36 66 30 67 31 68
REMARK SMILES IDX 34 69 32 70 58 71 59 72 67 73 60 74 61 75 65 76 68 77 62 78
REMARK SMILES IDX 63 79 66 80 64 81 43 82 44 83 52 84 45 85 46 86 50 87 53 88
REMARK SMILES IDX 47 89 48 90 51 91 49 92
REMARK H PARENT 9 6 85 19 14 26 73 45 41 56
REMARK Flexibility Score: inf
ROOT
ATOM      1  C   UNL A   1      34.700  23.961  24.993  1.00  0.00     0.023 C 
ENDROOT
BRANCH   1   2
ATOM      2  C   UNL A   1      33.462  23.096  24.725  1.00  0.00     0.116 C 
BRANCH   2   3
ATOM      3  N   UNL A   1      32.607  23.091  25.893  1.00  0.00    -0.352 N 
ATOM      4  C   UNL A   1      31.760  24.024  26.429  1.00  0.00     0.251 C 
ATOM      5  O   UNL A   1      31.300  23.773  27.544  1.00  0.00    -0.269 OA
ATOM      6  H   UNL A   1      32.641  22.250  26.403  1.00  0.00     0.163 HD
BRANCH   4   7
ATOM      7  C   UNL A   1      31.327  25.274  25.737  1.00  0.00     0.044 A 
ATOM      8  C   UNL A   1      29.756  28.632  23.479  1.00  0.00     0.049 C 
ATOM      9  C   UNL A   1      30.419  27.543  24.246  1.00  0.00     0.005 A 
ATOM     10  C   UNL A   1      29.748  26.300  24.237  1.00  0.00     0.128 A 
ATOM     11  C   UNL A   1      31.608  27.623  24.968  1.00  0.00     0.095 A 
ATOM     12  F   UNL A   1      28.631  26.160  23.507  1.00  0.00    -0.207 F 
ATOM     13  C   UNL A   1      30.191  25.187  24.943  1.00  0.00     0.053 A 
ATOM     14  C   UNL A   1      31.977  26.508  25.773  1.00  0.00     0.036 A 
BRANCH  11  15
ATOM     15  S   UNL A   1      32.919  28.843  24.992  1.00  0.00     0.270 S 
ATOM     16  O   UNL A   1      32.254  30.048  25.454  1.00  0.00    -0.201 OA
ATOM     17  O   UNL A   1      33.954  28.255  25.820  1.00  0.00    -0.201 OA
BRANCH  15  18
ATOM     18  N   UNL A   1      33.653  29.366  23.623  1.00  0.00    -0.215 NA
ATOM     19  H   UNL A   1      33.832  30.331  23.555  1.00  0.00     0.193 HD
BRANCH  18  20
ATOM     20  C   UNL A   1      34.026  28.619  22.608  1.00  0.00     0.191 C 
ATOM     21  N   UNL A   1      34.393  28.116  21.639  1.00  0.00    -0.172 NA
ENDBRANCH  18  20
ENDBRANCH  15  18
ENDBRANCH  11  15
ENDBRANCH   4   7
ENDBRANCH   2   3
ENDBRANCH   1   2
BRANCH   1  22
ATOM     22  C   UNL A   1      35.686  23.339  25.994  1.00  0.00     0.023 C 
BRANCH  22  23
ATOM     23  C   UNL A   1      37.109  23.795  25.755  1.00  0.00     0.116 C 
BRANCH  23  24
ATOM     24  N   UNL A   1      38.070  22.874  26.368  1.00  0.00    -0.352 N 
ATOM     25  C   UNL A   1      39.362  23.165  26.748  1.00  0.00     0.251 C 
ATOM     26  H   UNL A   1      37.762  21.953  26.524  1.00  0.00     0.163 HD
ATOM     27  O   UNL A   1      40.232  22.310  26.819  1.00  0.00    -0.269 OA
BRANCH  25  28
ATOM     28  C   UNL A   1      39.623  24.543  27.162  1.00  0.00     0.039 A 
ATOM     29  C   UNL A   1      40.234  25.492  26.335  1.00  0.00     0.014 A 
ATOM     30  C   UNL A   1      39.279  24.832  28.478  1.00  0.00     0.014 A 
ATOM     31  C   UNL A   1      40.519  26.741  26.869  1.00  0.00     0.010 A 
ATOM     32  C   UNL A   1      39.297  26.110  28.897  1.00  0.00     0.010 A 
ATOM     33  C   UNL A   1      40.055  27.008  28.156  1.00  0.00    -0.014 A 
BRANCH  33  34
ATOM     34  C   UNL A   1      40.284  28.214  28.908  1.00  0.00     0.031 A 
ATOM     35  C   UNL A   1      39.259  29.244  28.771  1.00  0.00     0.074 A 
ATOM     36  C   UNL A   1      41.268  28.082  29.833  1.00  0.00     0.049 A 
ATOM     37  N   UNL A   1      39.452  30.496  28.933  1.00  0.00    -0.248 NA
ATOM     38  C   UNL A   1      37.892  28.940  28.331  1.00  0.00     0.031 C 
ATOM     39  C   UNL A   1      41.602  28.828  31.030  1.00  0.00     0.029 A 
ATOM     40  N   UNL A   1      42.299  27.118  29.770  1.00  0.00    -0.354 N 
ATOM     41  C   UNL A   1      38.200  31.048  29.108  1.00  0.00     0.074 A 
ATOM     42  C   UNL A   1      37.298  30.130  28.468  1.00  0.00     0.031 C 
ATOM     43  C   UNL A   1      42.895  28.587  31.338  1.00  0.00     0.029 A 
ATOM     44  C   UNL A   1      43.444  27.733  30.295  1.00  0.00     0.049 A 
ATOM     45  H   UNL A   1      42.228  26.197  29.428  1.00  0.00     0.167 HD
ATOM     46  C   UNL A   1      38.083  32.065  30.013  1.00  0.00     0.037 A 
ATOM     47  C   UNL A   1      44.427  28.064  29.403  1.00  0.00     0.037 A 
ATOM     48  C   UNL A   1      39.408  32.313  30.601  1.00  0.00     0.049 A 
ATOM     49  C   UNL A   1      44.432  29.558  29.204  1.00  0.00     0.074 A 
ATOM     50  C   UNL A   1      39.986  31.921  31.799  1.00  0.00     0.029 A 
ATOM     51  N   UNL A   1      40.457  32.665  29.759  1.00  0.00    -0.354 N 
ATOM     52  N   UNL A   1      43.370  30.317  29.309  1.00  0.00    -0.248 NA
ATOM     53  C   UNL A   1      45.665  30.318  29.061  1.00  0.00     0.031 C 
ATOM     54  C   UNL A   1      41.402  31.978  31.635  1.00  0.00     0.029 A 
ATOM     55  C   UNL A   1      41.680  32.377  30.336  1.00  0.00     0.049 A 
ATOM     56  H   UNL A   1      40.344  33.066  28.868  1.00  0.00     0.167 HD
ATOM     57  C   UNL A   1      43.762  31.628  29.368  1.00  0.00     0.074 A 
ATOM     58  C   UNL A   1      45.205  31.573  29.191  1.00  0.00     0.031 C 
ATOM     59  C   UNL A   1      42.910  32.671  29.612  1.00  0.00     0.037 A 
BRANCH  46  60
ATOM     60  C   UNL A   1      36.810  32.644  30.599  1.00  0.00     0.064 A 
ATOM     61  C   UNL A   1      36.025  33.529  29.822  1.00  0.00     0.173 A 
ATOM     62  C   UNL A   1      36.289  32.388  31.883  1.00  0.00     0.173 A 
ATOM     63  F   UNL A   1      36.358  33.835  28.561  1.00  0.00    -0.203 F 
ATOM     64  C   UNL A   1      34.856  34.129  30.300  1.00  0.00     0.198 A 
ATOM     65  C   UNL A   1      35.121  32.995  32.365  1.00  0.00     0.198 A 
ATOM     66  F   UNL A   1      36.854  31.522  32.724  1.00  0.00    -0.203 F 
ATOM     67  F   UNL A   1      34.167  34.963  29.509  1.00  0.00    -0.200 F 
ATOM     68  C   UNL A   1      34.405  33.866  31.574  1.00  0.00     0.200 A 
ATOM     69  F   UNL A   1      34.692  32.713  33.604  1.00  0.00    -0.200 F 
ATOM     70  F   UNL A   1      33.281  34.431  32.032  1.00  0.00    -0.200 F 
ENDBRANCH  46  60
BRANCH  47  71
ATOM     71  C   UNL A   1      44.608  26.967  28.389  1.00  0.00     0.064 A 
ATOM     72  C   UNL A   1      44.326  27.344  27.054  1.00  0.00     0.173 A 
ATOM     73  C   UNL A   1      45.517  25.914  28.570  1.00  0.00     0.173 A 
ATOM     74  F   UNL A   1      43.415  28.301  26.811  1.00  0.00    -0.203 F 
ATOM     75  C   UNL A   1      45.117  26.905  25.995  1.00  0.00     0.198 A 
ATOM     76  C   UNL A   1      46.253  25.417  27.485  1.00  0.00     0.198 A 
ATOM     77  F   UNL A   1      45.796  25.461  29.800  1.00  0.00    -0.203 F 
ATOM     78  F   UNL A   1      44.986  27.468  24.784  1.00  0.00    -0.200 F 
ATOM     79  C   UNL A   1      46.114  25.975  26.221  1.00  0.00     0.200 A 
ATOM     80  F   UNL A   1      47.167  24.456  27.682  1.00  0.00    -0.200 F 
ATOM     81  F   UNL A   1      46.963  25.659  25.233  1.00  0.00    -0.200 F 
ENDBRANCH  47  71
BRANCH  59  82
ATOM     82  C   UNL A   1      43.185  34.112  29.240  1.00  0.00     0.064 A 
ATOM     83  C   UNL A   1      43.282  35.154  30.175  1.00  0.00     0.173 A 
ATOM     84  C   UNL A   1      43.551  34.463  27.913  1.00  0.00     0.173 A 
ATOM     85  F   UNL A   1      43.125  34.944  31.487  1.00  0.00    -0.203 F 
ATOM     86  C   UNL A   1      43.617  36.455  29.803  1.00  0.00     0.198 A 
ATOM     87  C   UNL A   1      43.994  35.735  27.568  1.00  0.00     0.198 A 
ATOM     88  F   UNL A   1      43.531  33.578  26.906  1.00  0.00    -0.203 F 
ATOM     89  F   UNL A   1      43.607  37.426  30.726  1.00  0.00    -0.200 F 
ATOM     90  C   UNL A   1      43.994  36.742  28.506  1.00  0.00     0.200 A 
ATOM     91  F   UNL A   1      44.439  35.968  26.325  1.00  0.00    -0.200 F 
ATOM     92  F   UNL A   1      44.378  37.978  28.169  1.00  0.00    -0.200 F 
ENDBRANCH  59  82
ENDBRANCH  33  34
ENDBRANCH  25  28
ENDBRANCH  23  24
ENDBRANCH  22  23
ENDBRANCH   1  22
TORSDOF 14
ENDMDL
MODEL 3
REMARK VINA RESULT:     -12.9      3.726      9.646
REMARK SMILES Cc1c(F)cc(C(=O)NCCCCNC(=O)c2ccc(-c3c4nc(c(-c5c(F)c(F)c(F)c(F)c5F)c5ccc([nH]5)c(-c5c(F)c(F)c(F)c(F)c5F)c5nc(c(-c6c(F)c(F)c(F)c(F)c6F)c6ccc3[nH]6)C=C5)C=C4)cc2)cc1S(=O)(=O)NC#N
REMARK SMILES IDX 11 1 10 2 9 3 7 4 8 5 6 7 1 8 2 9 3 10 81 11 4 12 5 13 80 14
REMARK SMILES IDX 82 15 83 16 84 17 85 18 86 20 87 21 12 22 13 23 14 24 15 25
REMARK SMILES IDX 16 27 17 28 18 29 79 30 19 31 78 32 20 33 21 34 22 35 72 36
REMARK SMILES IDX 23 37 77 38 71 39 73 40 24 41 76 42 70 43 69 44 25 46 57 47
REMARK SMILES IDX 37 48 56 49 38 50 41 51 55 52 74 53 39 54 40 55 54 57 75 58
REMARK SMILES IDX 42 59 26 60 27 61 35 62 28 63 29 64 33 65 36 66 30 67 31 68
REMARK SMILES IDX 34 69 32 70 58 71 59 72 67 73 60 74 61 75 65 76 68 77 62 78
REMARK SMILES IDX 63 79 66 80 64 81 43 82 44 83 52 84 45 85 46 86 50 87 53 88
REMARK SMILES IDX 47 89 48 90 51 91 49 92
REMARK H PARENT 9 6 85 19 14 26 73 45 41 56
REMARK Flexibility Score: inf
ROOT
ATOM      1  C   UNL A   1      35.075  23.724  24.352  1.00  0.00     0.023 C 
ENDROOT
BRANCH   1   2
ATOM      2  C   UNL A   1      34.638  24.721  25.433  1.00  0.00     0.116 C 
BRANCH   2   3
ATOM      3  N   UNL A   1      33.369  24.309  25.994  1.00  0.00    -0.352 N 
ATOM      4  C   UNL A   1      32.225  24.994  26.309  1.00  0.00     0.251 C 
ATOM      5  O   UNL A   1      31.370  24.374  26.943  1.00  0.00    -0.269 OA
ATOM      6  H   UNL A   1      33.318  23.346  26.189  1.00  0.00     0.163 HD
BRANCH   4   7
ATOM      7  C   UNL A   1      31.935  26.398  25.893  1.00  0.00     0.044 A 
ATOM      8  C   UNL A   1      31.116  30.596  25.152  1.00  0.00     0.049 C 
ATOM      9  C   UNL A   1      31.309  29.128  25.302  1.00  0.00     0.005 A 
ATOM     10  C   UNL A   1      31.778  28.704  26.565  1.00  0.00     0.128 A 
ATOM     11  C   UNL A   1      31.089  28.146  24.339  1.00  0.00     0.095 A 
ATOM     12  F   UNL A   1      31.947  29.607  27.542  1.00  0.00    -0.207 F 
ATOM     13  C   UNL A   1      32.067  27.378  26.868  1.00  0.00     0.053 A 
ATOM     14  C   UNL A   1      31.502  26.816  24.635  1.00  0.00     0.036 A 
BRANCH  11  15
ATOM     15  S   UNL A   1      30.219  28.172  22.773  1.00  0.00     0.270 S 
ATOM     16  O   UNL A   1      30.867  27.122  22.006  1.00  0.00    -0.201 OA
ATOM     17  O   UNL A   1      28.821  28.018  23.126  1.00  0.00    -0.201 OA
BRANCH  15  18
ATOM     18  N   UNL A   1      30.307  29.445  21.744  1.00  0.00    -0.215 NA
ATOM     19  H   UNL A   1      31.097  29.489  21.159  1.00  0.00     0.193 HD
BRANCH  18  20
ATOM     20  C   UNL A   1      29.424  30.410  21.626  1.00  0.00     0.191 C 
ATOM     21  N   UNL A   1      28.630  31.241  21.697  1.00  0.00    -0.172 NA
ENDBRANCH  18  20
ENDBRANCH  15  18
ENDBRANCH  11  15
ENDBRANCH   4   7
ENDBRANCH   2   3
ENDBRANCH   1   2
BRANCH   1  22
ATOM     22  C   UNL A   1      36.532  23.256  24.492  1.00  0.00     0.023 C 
BRANCH  22  23
ATOM     23  C   UNL A   1      37.182  23.775  25.756  1.00  0.00     0.116 C 
BRANCH  23  24
ATOM     24  N   UNL A   1      38.224  22.861  26.230  1.00  0.00    -0.352 N 
ATOM     25  C   UNL A   1      39.536  23.180  26.504  1.00  0.00     0.251 C 
ATOM     26  H   UNL A   1      37.960  21.924  26.368  1.00  0.00     0.163 HD
ATOM     27  O   UNL A   1      40.435  22.353  26.451  1.00  0.00    -0.269 OA
BRANCH  25  28
ATOM     28  C   UNL A   1      39.793  24.545  26.960  1.00  0.00     0.039 A 
ATOM     29  C   UNL A   1      40.365  25.531  26.151  1.00  0.00     0.014 A 
ATOM     30  C   UNL A   1      39.486  24.780  28.296  1.00  0.00     0.014 A 
ATOM     31  C   UNL A   1      40.651  26.764  26.722  1.00  0.00     0.010 A 
ATOM     32  C   UNL A   1      39.501  26.042  28.762  1.00  0.00     0.010 A 
ATOM     33  C   UNL A   1      40.224  26.977  28.032  1.00  0.00    -0.014 A 
BRANCH  33  34
ATOM     34  C   UNL A   1      40.462  28.158  28.821  1.00  0.00     0.031 A 
ATOM     35  C   UNL A   1      39.452  29.205  28.702  1.00  0.00     0.074 A 
ATOM     36  C   UNL A   1      41.432  27.985  29.752  1.00  0.00     0.049 A 
ATOM     37  N   UNL A   1      39.661  30.450  28.903  1.00  0.00    -0.248 NA
ATOM     38  C   UNL A   1      38.086  28.934  28.238  1.00  0.00     0.031 C 
ATOM     39  C   UNL A   1      41.763  28.691  30.974  1.00  0.00     0.029 A 
ATOM     40  N   UNL A   1      42.451  27.008  29.673  1.00  0.00    -0.354 N 
ATOM     41  C   UNL A   1      38.415  31.014  29.080  1.00  0.00     0.074 A 
ATOM     42  C   UNL A   1      37.508  30.128  28.403  1.00  0.00     0.031 C 
ATOM     43  C   UNL A   1      43.049  28.423  31.290  1.00  0.00     0.029 A 
ATOM     44  C   UNL A   1      43.598  27.591  30.228  1.00  0.00     0.049 A 
ATOM     45  H   UNL A   1      42.370  26.099  29.304  1.00  0.00     0.167 HD
ATOM     46  C   UNL A   1      38.302  32.006  30.013  1.00  0.00     0.037 A 
ATOM     47  C   UNL A   1      44.596  27.934  29.357  1.00  0.00     0.037 A 
ATOM     48  C   UNL A   1      39.623  32.218  30.622  1.00  0.00     0.049 A 
ATOM     49  C   UNL A   1      44.624  29.433  29.202  1.00  0.00     0.074 A 
ATOM     50  C   UNL A   1      40.181  31.784  31.815  1.00  0.00     0.029 A 
ATOM     51  N   UNL A   1      40.687  32.579  29.802  1.00  0.00    -0.354 N 
ATOM     52  N   UNL A   1      43.572  30.204  29.317  1.00  0.00    -0.248 NA
ATOM     53  C   UNL A   1      45.869  30.179  29.095  1.00  0.00     0.031 C 
ATOM     54  C   UNL A   1      41.601  31.825  31.668  1.00  0.00     0.029 A 
ATOM     55  C   UNL A   1      41.899  32.257  30.384  1.00  0.00     0.049 A 
ATOM     56  H   UNL A   1      40.589  33.007  28.921  1.00  0.00     0.167 HD
ATOM     57  C   UNL A   1      43.981  31.506  29.418  1.00  0.00     0.074 A 
ATOM     58  C   UNL A   1      45.425  31.436  29.255  1.00  0.00     0.031 C 
ATOM     59  C   UNL A   1      43.141  32.554  29.682  1.00  0.00     0.037 A 
BRANCH  46  60
ATOM     60  C   UNL A   1      37.030  32.586  30.600  1.00  0.00     0.064 A 
ATOM     61  C   UNL A   1      36.227  33.446  29.813  1.00  0.00     0.173 A 
ATOM     62  C   UNL A   1      36.527  32.355  31.896  1.00  0.00     0.173 A 
ATOM     63  F   UNL A   1      36.542  33.726  28.542  1.00  0.00    -0.203 F 
ATOM     64  C   UNL A   1      35.058  34.045  30.292  1.00  0.00     0.198 A 
ATOM     65  C   UNL A   1      35.359  32.961  32.379  1.00  0.00     0.198 A 
ATOM     66  F   UNL A   1      37.111  31.514  32.750  1.00  0.00    -0.203 F 
ATOM     67  F   UNL A   1      34.352  34.855  29.491  1.00  0.00    -0.200 F 
ATOM     68  C   UNL A   1      34.626  33.807  31.577  1.00  0.00     0.200 A 
ATOM     69  F   UNL A   1      34.948  32.703  33.629  1.00  0.00    -0.200 F 
ATOM     70  F   UNL A   1      33.501  34.372  32.035  1.00  0.00    -0.200 F 
ENDBRANCH  46  60
BRANCH  47  71
ATOM     71  C   UNL A   1      44.773  26.864  28.314  1.00  0.00     0.064 A 
ATOM     72  C   UNL A   1      44.489  27.277  26.990  1.00  0.00     0.173 A 
ATOM     73  C   UNL A   1      45.681  25.806  28.465  1.00  0.00     0.173 A 
ATOM     74  F   UNL A   1      43.578  28.241  26.775  1.00  0.00    -0.203 F 
ATOM     75  C   UNL A   1      45.277  26.865  25.918  1.00  0.00     0.198 A 
ATOM     76  C   UNL A   1      46.414  25.337  27.366  1.00  0.00     0.198 A 
ATOM     77  F   UNL A   1      45.963  25.319  29.682  1.00  0.00    -0.203 F 
ATOM     78  F   UNL A   1      45.143  27.461  24.723  1.00  0.00    -0.200 F 
ATOM     79  C   UNL A   1      46.273  25.929  26.117  1.00  0.00     0.200 A 
ATOM     80  F   UNL A   1      47.327  24.370  27.535  1.00  0.00    -0.200 F 
ATOM     81  F   UNL A   1      47.120  25.638  25.119  1.00  0.00    -0.200 F 
ENDBRANCH  47  71
BRANCH  59  82
ATOM     82  C   UNL A   1      43.441  34.001  29.355  1.00  0.00     0.064 A 
ATOM     83  C   UNL A   1      43.548  34.499  28.048  1.00  0.00     0.173 A 
ATOM     84  C   UNL A   1      43.447  34.991  30.375  1.00  0.00     0.173 A 
ATOM     85  F   UNL A   1      43.400  33.711  26.976  1.00  0.00    -0.203 F 
ATOM     86  C   UNL A   1      43.745  35.854  27.784  1.00  0.00     0.198 A 
ATOM     87  C   UNL A   1      43.529  36.351  30.100  1.00  0.00     0.198 A 
ATOM     88  F   UNL A   1      43.334  34.681  31.675  1.00  0.00    -0.203 F 
ATOM     89  F   UNL A   1      43.929  36.258  26.520  1.00  0.00    -0.200 F 
ATOM     90  C   UNL A   1      43.714  36.782  28.806  1.00  0.00     0.200 A 
ATOM     91  F   UNL A   1      43.407  37.238  31.098  1.00  0.00    -0.200 F 
ATOM     92  F   UNL A   1      43.837  38.087  28.541  1.00  0.00    -0.200 F 
ENDBRANCH  59  82
ENDBRANCH  33  34
ENDBRANCH  25  28
ENDBRANCH  23  24
ENDBRANCH  22  23
ENDBRANCH   1  22
TORSDOF 14
ENDMDL
