MODEL 1
REMARK VINA RESULT:     -13.1      0.000      0.000
REMARK SMILES Cc1ccc(C(=O)N2CCC(CC(=O)NCCCCNC(=O)c3ccc(-c4c5nc(c(-c6c(F)c(F)c(F)c(F)c6F)c6ccc([nH]6)c(-c6c(F)c(F)c(F)c(F)c6F)c6nc(c(-c7c(F)c(F)c(F)c(F)c7F)c7ccc4[nH]7)C=C6)C=C5)cc3)CC2)cn1
REMARK SMILES IDX 17 1 16 2 15 3 13 4 14 5 12 7 11 8 6 9 7 10 8 11 9 12 87 13
REMARK SMILES IDX 10 14 86 15 5 16 1 17 2 18 3 19 89 20 4 21 88 22 18 23 19 24
REMARK SMILES IDX 20 25 21 26 22 28 23 29 24 30 85 31 25 32 84 33 26 34 27 35
REMARK SMILES IDX 28 36 78 37 29 38 83 39 77 40 79 41 30 42 82 43 76 44 75 45
REMARK SMILES IDX 31 47 63 48 43 49 62 50 44 51 47 52 61 53 80 54 45 55 46 56
REMARK SMILES IDX 60 58 81 59 48 60 32 61 33 62 41 63 34 64 35 65 39 66 42 67
REMARK SMILES IDX 36 68 37 69 40 70 38 71 64 72 65 73 73 74 66 75 67 76 71 77
REMARK SMILES IDX 74 78 68 79 69 80 72 81 70 82 49 83 50 84 58 85 51 86 52 87
REMARK SMILES IDX 56 88 59 89 53 90 54 91 57 92 55 93
REMARK H PARENT 15 6 20 27 79 46 47 57
REMARK Flexibility Score: inf
ROOT
ATOM      1  C   UNL A   1      31.869  30.483  26.745  1.00  0.00     0.023 C 
ENDROOT
BRANCH   1   2
ATOM      2  C   UNL A   1      33.316  30.007  26.581  1.00  0.00     0.116 C 
BRANCH   2   3
ATOM      3  N   UNL A   1      33.627  29.686  25.197  1.00  0.00    -0.356 N 
ATOM      4  C   UNL A   1      33.753  28.475  24.578  1.00  0.00     0.220 C 
ATOM      5  O   UNL A   1      34.089  28.458  23.392  1.00  0.00    -0.275 OA
ATOM      6  H   UNL A   1      33.770  30.466  24.613  1.00  0.00     0.163 HD
BRANCH   4   7
ATOM      7  C   UNL A   1      33.500  27.180  25.335  1.00  0.00     0.103 C 
BRANCH   7   8
ATOM      8  C   UNL A   1      33.812  25.906  24.522  1.00  0.00     0.002 C 
ATOM      9  C   UNL A   1      32.882  22.032  24.992  1.00  0.00     0.255 C 
ATOM     10  O   UNL A   1      32.176  22.262  25.966  1.00  0.00    -0.269 OA
ATOM     11  N   UNL A   1      33.510  23.023  24.257  1.00  0.00    -0.339 N 
ATOM     12  C   UNL A   1      34.782  23.532  24.715  1.00  0.00     0.120 C 
ATOM     13  C   UNL A   1      32.739  23.894  23.391  1.00  0.00     0.120 C 
ATOM     14  C   UNL A   1      34.611  24.898  25.350  1.00  0.00     0.026 C 
ATOM     15  C   UNL A   1      32.506  25.266  24.020  1.00  0.00     0.026 C 
BRANCH   9  16
ATOM     16  C   UNL A   1      33.134  20.650  24.510  1.00  0.00     0.058 A 
ATOM     17  C   UNL A   1      34.007  16.674  23.281  1.00  0.00     0.066 C 
ATOM     18  C   UNL A   1      33.678  18.075  23.702  1.00  0.00     0.037 A 
ATOM     19  C   UNL A   1      32.528  18.697  23.233  1.00  0.00     0.024 A 
ATOM     20  N   UNL A   1      34.548  18.687  24.542  1.00  0.00    -0.261 NA
ATOM     21  C   UNL A   1      32.255  19.997  23.643  1.00  0.00     0.017 A 
ATOM     22  C   UNL A   1      34.259  19.958  24.930  1.00  0.00     0.125 A 
ENDBRANCH   9  16
ENDBRANCH   7   8
ENDBRANCH   4   7
ENDBRANCH   2   3
ENDBRANCH   1   2
BRANCH   1  23
ATOM     23  C   UNL A   1      31.672  31.988  26.736  1.00  0.00     0.023 C 
BRANCH  23  24
ATOM     24  C   UNL A   1      32.824  32.759  27.344  1.00  0.00     0.116 C 
BRANCH  24  25
ATOM     25  N   UNL A   1      32.489  34.138  27.682  1.00  0.00    -0.352 N 
ATOM     26  C   UNL A   1      33.055  34.949  28.640  1.00  0.00     0.251 C 
ATOM     27  H   UNL A   1      31.762  34.542  27.156  1.00  0.00     0.163 HD
ATOM     28  O   UNL A   1      32.606  36.060  28.874  1.00  0.00    -0.269 OA
BRANCH  26  29
ATOM     29  C   UNL A   1      34.195  34.424  29.415  1.00  0.00     0.039 A 
ATOM     30  C   UNL A   1      33.945  33.682  30.572  1.00  0.00     0.014 A 
ATOM     31  C   UNL A   1      35.495  34.575  28.932  1.00  0.00     0.014 A 
ATOM     32  C   UNL A   1      34.998  33.013  31.193  1.00  0.00     0.010 A 
ATOM     33  C   UNL A   1      36.516  33.817  29.481  1.00  0.00     0.010 A 
ATOM     34  C   UNL A   1      36.281  33.035  30.621  1.00  0.00    -0.014 A 
BRANCH  34  35
ATOM     35  C   UNL A   1      37.412  32.278  31.209  1.00  0.00     0.031 A 
ATOM     36  C   UNL A   1      37.899  32.641  32.585  1.00  0.00     0.074 A 
ATOM     37  C   UNL A   1      38.051  31.344  30.482  1.00  0.00     0.049 A 
ATOM     38  N   UNL A   1      38.946  32.204  33.236  1.00  0.00    -0.248 NA
ATOM     39  C   UNL A   1      37.130  33.669  33.307  1.00  0.00     0.031 C 
ATOM     40  C   UNL A   1      37.708  30.950  29.114  1.00  0.00     0.029 A 
ATOM     41  N   UNL A   1      39.135  30.562  30.789  1.00  0.00    -0.354 N 
ATOM     42  C   UNL A   1      38.976  32.926  34.421  1.00  0.00     0.074 A 
ATOM     43  C   UNL A   1      37.886  33.874  34.373  1.00  0.00     0.031 C 
ATOM     44  C   UNL A   1      38.544  29.978  28.713  1.00  0.00     0.029 A 
ATOM     45  C   UNL A   1      39.504  29.708  29.779  1.00  0.00     0.049 A 
ATOM     46  H   UNL A   1      39.604  30.608  31.653  1.00  0.00     0.167 HD
ATOM     47  C   UNL A   1      39.817  32.788  35.472  1.00  0.00     0.037 A 
ATOM     48  C   UNL A   1      40.507  28.811  29.724  1.00  0.00     0.037 A 
ATOM     49  C   UNL A   1      40.863  31.805  35.536  1.00  0.00     0.049 A 
ATOM     50  C   UNL A   1      41.411  28.655  30.917  1.00  0.00     0.074 A 
ATOM     51  C   UNL A   1      41.727  31.529  36.580  1.00  0.00     0.029 A 
ATOM     52  N   UNL A   1      41.180  30.928  34.508  1.00  0.00    -0.354 N 
ATOM     53  N   UNL A   1      41.393  29.298  32.058  1.00  0.00    -0.248 NA
ATOM     54  C   UNL A   1      42.474  27.645  30.814  1.00  0.00     0.031 C 
ATOM     55  C   UNL A   1      42.588  30.505  36.173  1.00  0.00     0.029 A 
ATOM     56  C   UNL A   1      42.234  30.115  34.890  1.00  0.00     0.049 A 
ATOM     57  H   UNL A   1      40.722  30.888  33.637  1.00  0.00     0.167 HD
ATOM     58  C   UNL A   1      42.417  28.754  32.820  1.00  0.00     0.074 A 
ATOM     59  C   UNL A   1      43.031  27.719  32.014  1.00  0.00     0.031 C 
ATOM     60  C   UNL A   1      42.816  29.081  34.074  1.00  0.00     0.037 A 
BRANCH  47  61
ATOM     61  C   UNL A   1      39.620  33.709  36.640  1.00  0.00     0.064 A 
ATOM     62  C   UNL A   1      40.228  34.973  36.689  1.00  0.00     0.173 A 
ATOM     63  C   UNL A   1      38.808  33.329  37.718  1.00  0.00     0.173 A 
ATOM     64  F   UNL A   1      41.028  35.376  35.691  1.00  0.00    -0.203 F 
ATOM     65  C   UNL A   1      40.061  35.807  37.791  1.00  0.00     0.198 A 
ATOM     66  C   UNL A   1      38.616  34.180  38.805  1.00  0.00     0.198 A 
ATOM     67  F   UNL A   1      38.201  32.133  37.721  1.00  0.00    -0.203 F 
ATOM     68  F   UNL A   1      40.701  36.984  37.843  1.00  0.00    -0.200 F 
ATOM     69  C   UNL A   1      39.250  35.412  38.844  1.00  0.00     0.200 A 
ATOM     70  F   UNL A   1      37.825  33.801  39.817  1.00  0.00    -0.200 F 
ATOM     71  F   UNL A   1      39.088  36.217  39.904  1.00  0.00    -0.200 F 
ENDBRANCH  47  61
BRANCH  48  72
ATOM     72  C   UNL A   1      40.682  27.962  28.517  1.00  0.00     0.064 A 
ATOM     73  C   UNL A   1      41.464  28.402  27.441  1.00  0.00     0.173 A 
ATOM     74  C   UNL A   1      40.074  26.703  28.410  1.00  0.00     0.173 A 
ATOM     75  F   UNL A   1      42.050  29.607  27.488  1.00  0.00    -0.203 F 
ATOM     76  C   UNL A   1      41.618  27.624  26.295  1.00  0.00     0.198 A 
ATOM     77  C   UNL A   1      40.248  25.915  27.274  1.00  0.00     0.198 A 
ATOM     78  F   UNL A   1      39.319  26.234  29.414  1.00  0.00    -0.203 F 
ATOM     79  F   UNL A   1      42.338  28.088  25.264  1.00  0.00    -0.200 F 
ATOM     80  C   UNL A   1      41.013  26.378  26.215  1.00  0.00     0.200 A 
ATOM     81  F   UNL A   1      39.673  24.706  27.205  1.00  0.00    -0.200 F 
ATOM     82  F   UNL A   1      41.163  25.629  25.113  1.00  0.00    -0.200 F 
ENDBRANCH  48  72
BRANCH  60  83
ATOM     83  C   UNL A   1      43.941  28.288  34.666  1.00  0.00     0.064 A 
ATOM     84  C   UNL A   1      45.273  28.713  34.561  1.00  0.00     0.173 A 
ATOM     85  C   UNL A   1      43.676  27.116  35.391  1.00  0.00     0.173 A 
ATOM     86  F   UNL A   1      45.576  29.818  33.864  1.00  0.00    -0.203 F 
ATOM     87  C   UNL A   1      46.303  27.982  35.147  1.00  0.00     0.198 A 
ATOM     88  C   UNL A   1      44.706  26.404  35.999  1.00  0.00     0.198 A 
ATOM     89  F   UNL A   1      42.416  26.674  35.524  1.00  0.00    -0.203 F 
ATOM     90  F   UNL A   1      47.572  28.385  35.003  1.00  0.00    -0.200 F 
ATOM     91  C   UNL A   1      46.017  26.834  35.872  1.00  0.00     0.200 A 
ATOM     92  F   UNL A   1      44.427  25.302  36.709  1.00  0.00    -0.200 F 
ATOM     93  F   UNL A   1      47.010  26.138  36.444  1.00  0.00    -0.200 F 
ENDBRANCH  60  83
ENDBRANCH  34  35
ENDBRANCH  26  29
ENDBRANCH  24  25
ENDBRANCH  23  24
ENDBRANCH   1  23
TORSDOF 13
ENDMDL
MODEL 2
REMARK VINA RESULT:     -13.0      4.601     10.531
REMARK SMILES Cc1ccc(C(=O)N2CCC(CC(=O)NCCCCNC(=O)c3ccc(-c4c5nc(c(-c6c(F)c(F)c(F)c(F)c6F)c6ccc([nH]6)c(-c6c(F)c(F)c(F)c(F)c6F)c6nc(c(-c7c(F)c(F)c(F)c(F)c7F)c7ccc4[nH]7)C=C6)C=C5)cc3)CC2)cn1
REMARK SMILES IDX 17 1 16 2 15 3 13 4 14 5 12 7 11 8 6 9 7 10 8 11 9 12 87 13
REMARK SMILES IDX 10 14 86 15 5 16 1 17 2 18 3 19 89 20 4 21 88 22 18 23 19 24
REMARK SMILES IDX 20 25 21 26 22 28 23 29 24 30 85 31 25 32 84 33 26 34 27 35
REMARK SMILES IDX 28 36 78 37 29 38 83 39 77 40 79 41 30 42 82 43 76 44 75 45
REMARK SMILES IDX 31 47 63 48 43 49 62 50 44 51 47 52 61 53 80 54 45 55 46 56
REMARK SMILES IDX 60 58 81 59 48 60 32 61 33 62 41 63 34 64 35 65 39 66 42 67
REMARK SMILES IDX 36 68 37 69 40 70 38 71 64 72 65 73 73 74 66 75 67 76 71 77
REMARK SMILES IDX 74 78 68 79 69 80 72 81 70 82 49 83 50 84 58 85 51 86 52 87
REMARK SMILES IDX 56 88 59 89 53 90 54 91 57 92 55 93
REMARK H PARENT 15 6 20 27 79 46 47 57
REMARK Flexibility Score: inf
ROOT
ATOM      1  C   UNL A   1      42.297  19.906  26.652  1.00  0.00     0.023 C 
ENDROOT
BRANCH   1   2
ATOM      2  C   UNL A   1      42.946  19.215  25.448  1.00  0.00     0.116 C 
BRANCH   2   3
ATOM      3  N   UNL A   1      44.339  18.880  25.703  1.00  0.00    -0.356 N 
ATOM      4  C   UNL A   1      45.485  19.518  25.323  1.00  0.00     0.220 C 
ATOM      5  O   UNL A   1      46.565  18.999  25.610  1.00  0.00    -0.275 OA
ATOM      6  H   UNL A   1      44.477  18.062  26.233  1.00  0.00     0.163 HD
BRANCH   4   7
ATOM      7  C   UNL A   1      45.431  20.829  24.552  1.00  0.00     0.103 C 
BRANCH   7   8
ATOM      8  C   UNL A   1      44.731  21.976  25.312  1.00  0.00     0.002 C 
ATOM      9  C   UNL A   1      45.248  25.953  25.394  1.00  0.00     0.255 C 
ATOM     10  O   UNL A   1      46.101  25.917  24.516  1.00  0.00    -0.269 OA
ATOM     11  N   UNL A   1      44.563  24.835  25.835  1.00  0.00    -0.339 N 
ATOM     12  C   UNL A   1      45.170  23.995  26.842  1.00  0.00     0.120 C 
ATOM     13  C   UNL A   1      43.556  24.213  24.996  1.00  0.00     0.120 C 
ATOM     14  C   UNL A   1      45.710  22.722  26.219  1.00  0.00     0.026 C 
ATOM     15  C   UNL A   1      44.081  22.951  24.314  1.00  0.00     0.026 C 
BRANCH   9  16
ATOM     16  C   UNL A   1      44.872  27.218  26.076  1.00  0.00     0.058 A 
ATOM     17  C   UNL A   1      44.001  30.864  28.085  1.00  0.00     0.066 C 
ATOM     18  C   UNL A   1      44.287  29.580  27.365  1.00  0.00     0.037 A 
ATOM     19  C   UNL A   1      43.338  29.025  26.515  1.00  0.00     0.024 A 
ATOM     20  N   UNL A   1      45.493  29.002  27.589  1.00  0.00    -0.261 NA
ATOM     21  C   UNL A   1      43.636  27.833  25.864  1.00  0.00     0.017 A 
ATOM     22  C   UNL A   1      45.761  27.837  26.940  1.00  0.00     0.125 A 
ENDBRANCH   9  16
ENDBRANCH   7   8
ENDBRANCH   4   7
ENDBRANCH   2   3
ENDBRANCH   1   2
BRANCH   1  23
ATOM     23  C   UNL A   1      40.861  20.352  26.451  1.00  0.00     0.023 C 
BRANCH  23  24
ATOM     24  C   UNL A   1      40.698  21.852  26.322  1.00  0.00     0.116 C 
BRANCH  24  25
ATOM     25  N   UNL A   1      39.396  22.254  25.802  1.00  0.00    -0.352 N 
ATOM     26  C   UNL A   1      38.706  23.425  26.028  1.00  0.00     0.251 C 
ATOM     27  H   UNL A   1      38.952  21.604  25.212  1.00  0.00     0.163 HD
ATOM     28  O   UNL A   1      37.575  23.586  25.596  1.00  0.00    -0.269 OA
BRANCH  26  29
ATOM     29  C   UNL A   1      39.349  24.468  26.850  1.00  0.00     0.039 A 
ATOM     30  C   UNL A   1      40.107  25.458  26.220  1.00  0.00     0.014 A 
ATOM     31  C   UNL A   1      39.106  24.519  28.223  1.00  0.00     0.014 A 
ATOM     32  C   UNL A   1      40.544  26.555  26.960  1.00  0.00     0.010 A 
ATOM     33  C   UNL A   1      39.440  25.664  28.928  1.00  0.00     0.010 A 
ATOM     34  C   UNL A   1      40.169  26.689  28.307  1.00  0.00    -0.014 A 
BRANCH  34  35
ATOM     35  C   UNL A   1      40.552  27.875  29.110  1.00  0.00     0.031 A 
ATOM     36  C   UNL A   1      41.922  27.931  29.728  1.00  0.00     0.074 A 
ATOM     37  C   UNL A   1      39.650  28.843  29.358  1.00  0.00     0.049 A 
ATOM     38  N   UNL A   1      42.419  28.802  30.567  1.00  0.00    -0.248 NA
ATOM     39  C   UNL A   1      42.841  26.830  29.392  1.00  0.00     0.031 C 
ATOM     40  C   UNL A   1      38.272  28.868  28.865  1.00  0.00     0.029 A 
ATOM     41  N   UNL A   1      39.756  29.991  30.101  1.00  0.00    -0.354 N 
ATOM     42  C   UNL A   1      43.687  28.336  30.880  1.00  0.00     0.074 A 
ATOM     43  C   UNL A   1      43.862  27.075  30.196  1.00  0.00     0.031 C 
ATOM     44  C   UNL A   1      37.672  29.992  29.291  1.00  0.00     0.029 A 
ATOM     45  C   UNL A   1      38.608  30.746  30.118  1.00  0.00     0.049 A 
ATOM     46  H   UNL A   1      40.578  30.251  30.577  1.00  0.00     0.167 HD
ATOM     47  C   UNL A   1      44.638  28.925  31.643  1.00  0.00     0.037 A 
ATOM     48  C   UNL A   1      38.347  31.913  30.737  1.00  0.00     0.037 A 
ATOM     49  C   UNL A   1      44.478  30.206  32.273  1.00  0.00     0.049 A 
ATOM     50  C   UNL A   1      39.429  32.562  31.555  1.00  0.00     0.074 A 
ATOM     51  C   UNL A   1      45.400  30.928  33.008  1.00  0.00     0.029 A 
ATOM     52  N   UNL A   1      43.314  30.961  32.233  1.00  0.00    -0.354 N 
ATOM     53  N   UNL A   1      40.649  32.146  31.794  1.00  0.00    -0.248 NA
ATOM     54  C   UNL A   1      39.100  33.848  32.188  1.00  0.00     0.031 C 
ATOM     55  C   UNL A   1      44.784  32.108  33.439  1.00  0.00     0.029 A 
ATOM     56  C   UNL A   1      43.491  32.139  32.939  1.00  0.00     0.049 A 
ATOM     57  H   UNL A   1      42.486  30.699  31.770  1.00  0.00     0.167 HD
ATOM     58  C   UNL A   1      41.241  33.127  32.576  1.00  0.00     0.074 A 
ATOM     59  C   UNL A   1      40.250  34.166  32.764  1.00  0.00     0.031 C 
ATOM     60  C   UNL A   1      42.493  33.164  33.096  1.00  0.00     0.037 A 
BRANCH  47  61
ATOM     61  C   UNL A   1      45.937  28.193  31.814  1.00  0.00     0.064 A 
ATOM     62  C   UNL A   1      47.065  28.508  31.041  1.00  0.00     0.173 A 
ATOM     63  C   UNL A   1      46.057  27.170  32.765  1.00  0.00     0.173 A 
ATOM     64  F   UNL A   1      46.996  29.466  30.105  1.00  0.00    -0.203 F 
ATOM     65  C   UNL A   1      48.255  27.801  31.189  1.00  0.00     0.198 A 
ATOM     66  C   UNL A   1      47.260  26.486  32.933  1.00  0.00     0.198 A 
ATOM     67  F   UNL A   1      45.010  26.830  33.532  1.00  0.00    -0.203 F 
ATOM     68  F   UNL A   1      49.301  28.079  30.397  1.00  0.00    -0.200 F 
ATOM     69  C   UNL A   1      48.353  26.796  32.139  1.00  0.00     0.200 A 
ATOM     70  F   UNL A   1      47.356  25.522  33.859  1.00  0.00    -0.200 F 
ATOM     71  F   UNL A   1      49.500  26.117  32.282  1.00  0.00    -0.200 F 
ENDBRANCH  47  61
BRANCH  48  72
ATOM     72  C   UNL A   1      37.021  32.564  30.568  1.00  0.00     0.064 A 
ATOM     73  C   UNL A   1      36.744  33.336  29.432  1.00  0.00     0.173 A 
ATOM     74  C   UNL A   1      36.010  32.433  31.531  1.00  0.00     0.173 A 
ATOM     75  F   UNL A   1      37.685  33.506  28.492  1.00  0.00    -0.203 F 
ATOM     76  C   UNL A   1      35.512  33.968  29.273  1.00  0.00     0.198 A 
ATOM     77  C   UNL A   1      34.771  33.045  31.360  1.00  0.00     0.198 A 
ATOM     78  F   UNL A   1      36.224  31.701  32.634  1.00  0.00    -0.203 F 
ATOM     79  F   UNL A   1      35.289  34.734  28.196  1.00  0.00    -0.200 F 
ATOM     80  C   UNL A   1      34.525  33.819  30.235  1.00  0.00     0.200 A 
ATOM     81  F   UNL A   1      33.814  32.888  32.285  1.00  0.00    -0.200 F 
ATOM     82  F   UNL A   1      33.339  34.425  30.081  1.00  0.00    -0.200 F 
ENDBRANCH  48  72
BRANCH  60  83
ATOM     83  C   UNL A   1      42.874  34.383  33.881  1.00  0.00     0.064 A 
ATOM     84  C   UNL A   1      43.323  35.552  33.250  1.00  0.00     0.173 A 
ATOM     85  C   UNL A   1      42.738  34.396  35.277  1.00  0.00     0.173 A 
ATOM     86  F   UNL A   1      43.483  35.580  31.918  1.00  0.00    -0.203 F 
ATOM     87  C   UNL A   1      43.638  36.687  33.991  1.00  0.00     0.198 A 
ATOM     88  C   UNL A   1      43.028  35.541  36.013  1.00  0.00     0.198 A 
ATOM     89  F   UNL A   1      42.306  33.303  35.925  1.00  0.00    -0.203 F 
ATOM     90  F   UNL A   1      44.101  37.781  33.373  1.00  0.00    -0.200 F 
ATOM     91  C   UNL A   1      43.483  36.682  35.370  1.00  0.00     0.200 A 
ATOM     92  F   UNL A   1      42.866  35.540  37.343  1.00  0.00    -0.200 F 
ATOM     93  F   UNL A   1      43.778  37.780  36.081  1.00  0.00    -0.200 F 
ENDBRANCH  60  83
ENDBRANCH  34  35
ENDBRANCH  26  29
ENDBRANCH  24  25
ENDBRANCH  23  24
ENDBRANCH   1  23
TORSDOF 13
ENDMDL
MODEL 3
REMARK VINA RESULT:     -13.0      0.605      7.344
REMARK SMILES Cc1ccc(C(=O)N2CCC(CC(=O)NCCCCNC(=O)c3ccc(-c4c5nc(c(-c6c(F)c(F)c(F)c(F)c6F)c6ccc([nH]6)c(-c6c(F)c(F)c(F)c(F)c6F)c6nc(c(-c7c(F)c(F)c(F)c(F)c7F)c7ccc4[nH]7)C=C6)C=C5)cc3)CC2)cn1
REMARK SMILES IDX 17 1 16 2 15 3 13 4 14 5 12 7 11 8 6 9 7 10 8 11 9 12 87 13
REMARK SMILES IDX 10 14 86 15 5 16 1 17 2 18 3 19 89 20 4 21 88 22 18 23 19 24
REMARK SMILES IDX 20 25 21 26 22 28 23 29 24 30 85 31 25 32 84 33 26 34 27 35
REMARK SMILES IDX 28 36 78 37 29 38 83 39 77 40 79 41 30 42 82 43 76 44 75 45
REMARK SMILES IDX 31 47 63 48 43 49 62 50 44 51 47 52 61 53 80 54 45 55 46 56
REMARK SMILES IDX 60 58 81 59 48 60 32 61 33 62 41 63 34 64 35 65 39 66 42 67
REMARK SMILES IDX 36 68 37 69 40 70 38 71 64 72 65 73 73 74 66 75 67 76 71 77
REMARK SMILES IDX 74 78 68 79 69 80 72 81 70 82 49 83 50 84 58 85 51 86 52 87
REMARK SMILES IDX 56 88 59 89 53 90 54 91 57 92 55 93
REMARK H PARENT 15 6 20 27 79 46 47 57
REMARK Flexibility Score: inf
ROOT
ATOM      1  C   UNL A   1      32.155  30.099  26.928  1.00  0.00     0.023 C 
ENDROOT
BRANCH   1   2
ATOM      2  C   UNL A   1      33.615  29.717  26.659  1.00  0.00     0.116 C 
BRANCH   2   3
ATOM      3  N   UNL A   1      33.859  29.472  25.246  1.00  0.00    -0.356 N 
ATOM      4  C   UNL A   1      33.702  28.335  24.507  1.00  0.00     0.220 C 
ATOM      5  O   UNL A   1      34.040  28.357  23.322  1.00  0.00    -0.275 OA
ATOM      6  H   UNL A   1      34.191  30.251  24.742  1.00  0.00     0.163 HD
BRANCH   4   7
ATOM      7  C   UNL A   1      33.140  27.067  25.132  1.00  0.00     0.103 C 
BRANCH   7   8
ATOM      8  C   UNL A   1      33.721  25.765  24.544  1.00  0.00     0.002 C 
ATOM      9  C   UNL A   1      32.501  21.943  24.553  1.00  0.00     0.255 C 
ATOM     10  O   UNL A   1      31.448  22.222  25.111  1.00  0.00    -0.269 OA
ATOM     11  N   UNL A   1      33.436  22.891  24.174  1.00  0.00    -0.339 N 
ATOM     12  C   UNL A   1      34.394  23.358  25.149  1.00  0.00     0.120 C 
ATOM     13  C   UNL A   1      33.171  23.775  23.054  1.00  0.00     0.120 C 
ATOM     14  C   UNL A   1      34.021  24.743  25.641  1.00  0.00     0.026 C 
ATOM     15  C   UNL A   1      32.747  25.168  23.513  1.00  0.00     0.026 C 
BRANCH   9  16
ATOM     16  C   UNL A   1      32.878  20.542  24.234  1.00  0.00     0.058 A 
ATOM     17  C   UNL A   1      34.085  16.532  23.493  1.00  0.00     0.066 C 
ATOM     18  C   UNL A   1      33.640  17.943  23.740  1.00  0.00     0.037 A 
ATOM     19  C   UNL A   1      32.537  18.458  23.072  1.00  0.00     0.024 A 
ATOM     20  N   UNL A   1      34.362  18.672  24.626  1.00  0.00    -0.261 NA
ATOM     21  C   UNL A   1      32.153  19.770  23.324  1.00  0.00     0.017 A 
ATOM     22  C   UNL A   1      33.967  19.952  24.857  1.00  0.00     0.125 A 
ENDBRANCH   9  16
ENDBRANCH   7   8
ENDBRANCH   4   7
ENDBRANCH   2   3
ENDBRANCH   1   2
BRANCH   1  23
ATOM     23  C   UNL A   1      31.847  31.583  26.864  1.00  0.00     0.023 C 
BRANCH  23  24
ATOM     24  C   UNL A   1      32.928  32.459  27.461  1.00  0.00     0.116 C 
BRANCH  24  25
ATOM     25  N   UNL A   1      32.525  33.851  27.626  1.00  0.00    -0.352 N 
ATOM     26  C   UNL A   1      33.030  34.794  28.494  1.00  0.00     0.251 C 
ATOM     27  H   UNL A   1      31.797  34.157  27.039  1.00  0.00     0.163 HD
ATOM     28  O   UNL A   1      32.528  35.903  28.585  1.00  0.00    -0.269 OA
BRANCH  26  29
ATOM     29  C   UNL A   1      34.168  34.414  29.352  1.00  0.00     0.039 A 
ATOM     30  C   UNL A   1      33.918  33.794  30.578  1.00  0.00     0.014 A 
ATOM     31  C   UNL A   1      35.474  34.576  28.887  1.00  0.00     0.014 A 
ATOM     32  C   UNL A   1      34.981  33.252  31.297  1.00  0.00     0.010 A 
ATOM     33  C   UNL A   1      36.512  33.934  29.544  1.00  0.00     0.010 A 
ATOM     34  C   UNL A   1      36.278  33.273  30.759  1.00  0.00    -0.014 A 
BRANCH  34  35
ATOM     35  C   UNL A   1      37.425  32.644  31.457  1.00  0.00     0.031 A 
ATOM     36  C   UNL A   1      38.148  31.503  30.795  1.00  0.00     0.074 A 
ATOM     37  C   UNL A   1      37.750  33.027  32.705  1.00  0.00     0.049 A 
ATOM     38  N   UNL A   1      39.086  30.727  31.273  1.00  0.00    -0.248 NA
ATOM     39  C   UNL A   1      37.727  31.162  29.426  1.00  0.00     0.031 C 
ATOM     40  C   UNL A   1      37.080  34.079  33.473  1.00  0.00     0.029 A 
ATOM     41  N   UNL A   1      38.722  32.566  33.556  1.00  0.00    -0.354 N 
ATOM     42  C   UNL A   1      39.337  29.792  30.280  1.00  0.00     0.074 A 
ATOM     43  C   UNL A   1      38.413  30.053  29.200  1.00  0.00     0.031 C 
ATOM     44  C   UNL A   1      37.683  34.204  34.667  1.00  0.00     0.029 A 
ATOM     45  C   UNL A   1      38.754  33.217  34.764  1.00  0.00     0.049 A 
ATOM     46  H   UNL A   1      39.340  31.836  33.321  1.00  0.00     0.167 HD
ATOM     47  C   UNL A   1      40.281  28.821  30.254  1.00  0.00     0.037 A 
ATOM     48  C   UNL A   1      39.558  33.033  35.828  1.00  0.00     0.037 A 
ATOM     49  C   UNL A   1      41.234  28.603  31.307  1.00  0.00     0.049 A 
ATOM     50  C   UNL A   1      40.618  31.967  35.764  1.00  0.00     0.074 A 
ATOM     51  C   UNL A   1      42.277  27.697  31.354  1.00  0.00     0.029 A 
ATOM     52  N   UNL A   1      41.262  29.312  32.499  1.00  0.00    -0.354 N 
ATOM     53  N   UNL A   1      40.891  31.128  34.794  1.00  0.00    -0.248 NA
ATOM     54  C   UNL A   1      41.485  31.824  36.943  1.00  0.00     0.031 C 
ATOM     55  C   UNL A   1      42.918  27.836  32.589  1.00  0.00     0.029 A 
ATOM     56  C   UNL A   1      42.299  28.857  33.295  1.00  0.00     0.049 A 
ATOM     57  H   UNL A   1      40.637  30.034  32.743  1.00  0.00     0.167 HD
ATOM     58  C   UNL A   1      41.976  30.380  35.230  1.00  0.00     0.074 A 
ATOM     59  C   UNL A   1      42.319  30.872  36.548  1.00  0.00     0.031 C 
ATOM     60  C   UNL A   1      42.629  29.375  34.597  1.00  0.00     0.037 A 
BRANCH  47  61
ATOM     61  C   UNL A   1      40.333  27.943  29.039  1.00  0.00     0.064 A 
ATOM     62  C   UNL A   1      41.082  28.299  27.906  1.00  0.00     0.173 A 
ATOM     63  C   UNL A   1      39.633  26.728  29.007  1.00  0.00     0.173 A 
ATOM     64  F   UNL A   1      41.755  29.458  27.880  1.00  0.00    -0.203 F 
ATOM     65  C   UNL A   1      41.098  27.489  26.774  1.00  0.00     0.198 A 
ATOM     66  C   UNL A   1      39.678  25.904  27.885  1.00  0.00     0.198 A 
ATOM     67  F   UNL A   1      38.903  26.339  30.064  1.00  0.00    -0.203 F 
ATOM     68  F   UNL A   1      41.772  27.879  25.683  1.00  0.00    -0.200 F 
ATOM     69  C   UNL A   1      40.402  26.289  26.767  1.00  0.00     0.200 A 
ATOM     70  F   UNL A   1      39.013  24.741  27.883  1.00  0.00    -0.200 F 
ATOM     71  F   UNL A   1      40.421  25.510  25.677  1.00  0.00    -0.200 F 
ENDBRANCH  47  61
BRANCH  48  72
ATOM     72  C   UNL A   1      39.422  33.904  37.024  1.00  0.00     0.064 A 
ATOM     73  C   UNL A   1      38.680  33.481  38.136  1.00  0.00     0.173 A 
ATOM     74  C   UNL A   1      40.023  35.170  37.084  1.00  0.00     0.173 A 
ATOM     75  F   UNL A   1      38.072  32.286  38.119  1.00  0.00    -0.203 F 
ATOM     76  C   UNL A   1      38.529  34.298  39.254  1.00  0.00     0.198 A 
ATOM     77  C   UNL A   1      39.891  35.976  38.213  1.00  0.00     0.198 A 
ATOM     78  F   UNL A   1      40.747  35.619  36.049  1.00  0.00    -0.203 F 
ATOM     79  F   UNL A   1      37.779  33.885  40.286  1.00  0.00    -0.200 F 
ATOM     80  C   UNL A   1      39.138  35.543  39.294  1.00  0.00     0.200 A 
ATOM     81  F   UNL A   1      40.492  37.173  38.253  1.00  0.00    -0.200 F 
ATOM     82  F   UNL A   1      38.993  36.328  40.371  1.00  0.00    -0.200 F 
ENDBRANCH  48  72
BRANCH  60  83
ATOM     83  C   UNL A   1      43.804  28.768  35.303  1.00  0.00     0.064 A 
ATOM     84  C   UNL A   1      45.103  29.264  35.127  1.00  0.00     0.173 A 
ATOM     85  C   UNL A   1      43.616  27.711  36.207  1.00  0.00     0.173 A 
ATOM     86  F   UNL A   1      45.332  30.263  34.261  1.00  0.00    -0.203 F 
ATOM     87  C   UNL A   1      46.177  28.711  35.818  1.00  0.00     0.198 A 
ATOM     88  C   UNL A   1      44.689  27.180  36.917  1.00  0.00     0.198 A 
ATOM     89  F   UNL A   1      42.390  27.208  36.414  1.00  0.00    -0.203 F 
ATOM     90  F   UNL A   1      47.416  29.175  35.607  1.00  0.00    -0.200 F 
ATOM     91  C   UNL A   1      45.967  27.676  36.718  1.00  0.00     0.200 A 
ATOM     92  F   UNL A   1      44.483  26.188  37.795  1.00  0.00    -0.200 F 
ATOM     93  F   UNL A   1      47.003  27.153  37.390  1.00  0.00    -0.200 F 
ENDBRANCH  60  83
ENDBRANCH  34  35
ENDBRANCH  26  29
ENDBRANCH  24  25
ENDBRANCH  23  24
ENDBRANCH   1  23
TORSDOF 13
ENDMDL
