MODEL 1
REMARK VINA RESULT:     -13.5      0.000      0.000
REMARK SMILES NS(=O)(=O)c1ccc(-c2coc(=O)n2-c2ccc(C(=O)NCCCCNC(=O)c3ccc(-c4c5nc(c(-c6c(F)c(F)c(F)c(F)c6F)c6ccc([nH]6)c(-c6c(F)c(F)c(F)c(F)c6F)c6nc(c(-c7c(F)c(F)c(F)c(F)c7F)c7ccc4[nH]7)C=C6)C=C5)cc3)cc2)cc1
REMARK SMILES IDX 22 1 21 2 19 3 20 4 18 6 15 7 16 8 93 9 17 10 92 11 14 12
REMARK SMILES IDX 9 13 10 14 11 15 12 16 13 17 8 18 5 19 6 20 95 21 7 22 94 23
REMARK SMILES IDX 2 24 3 25 4 26 1 27 23 30 24 31 25 32 26 33 27 34 28 36
REMARK SMILES IDX 29 37 30 38 91 39 31 40 90 41 32 42 33 43 34 44 84 45 35 46
REMARK SMILES IDX 89 47 83 48 85 49 36 50 88 51 82 52 81 53 37 55 69 56 49 57
REMARK SMILES IDX 68 58 50 59 53 60 67 61 86 62 51 63 52 64 66 66 87 67 54 68
REMARK SMILES IDX 38 69 39 70 47 71 40 72 41 73 45 74 48 75 42 76 43 77 46 78
REMARK SMILES IDX 44 79 70 80 71 81 79 82 72 83 73 84 77 85 80 86 74 87 75 88
REMARK SMILES IDX 78 89 76 90 55 91 56 92 64 93 57 94 58 95 62 96 65 97 59 98
REMARK SMILES IDX 60 99 63 100 61 101
REMARK H PARENT 21 5 1 28 1 29 26 35 85 54 53 65
REMARK Flexibility Score: inf
ROOT
ATOM      1  C   UNL A   1      39.300  21.256  25.847  1.00  0.00     0.116 C 
ENDROOT
BRANCH   1   2
ATOM      2  N   UNL A   1      39.355  22.696  26.015  1.00  0.00    -0.352 N 
ATOM      3  C   UNL A   1      38.430  23.701  25.877  1.00  0.00     0.251 C 
ATOM      4  O   UNL A   1      38.812  24.845  26.128  1.00  0.00    -0.269 OA
ATOM      5  H   UNL A   1      40.244  23.022  26.286  1.00  0.00     0.163 HD
BRANCH   3   6
ATOM      6  C   UNL A   1      36.997  23.481  25.512  1.00  0.00     0.039 A 
ATOM      7  C   UNL A   1      34.332  23.288  24.627  1.00  0.00     0.053 A 
ATOM      8  C   UNL A   1      35.372  23.201  23.704  1.00  0.00     0.028 A 
ATOM      9  C   UNL A   1      34.623  23.380  25.988  1.00  0.00     0.028 A 
ATOM     10  C   UNL A   1      36.695  23.330  24.145  1.00  0.00     0.016 A 
ATOM     11  C   UNL A   1      35.947  23.416  26.426  1.00  0.00     0.016 A 
BRANCH   7  12
ATOM     12  N   UNL A   1      32.992  23.321  24.212  1.00  0.00    -0.242 N 
ATOM     13  C   UNL A   1      32.222  22.279  23.779  1.00  0.00     0.095 A 
ATOM     14  C   UNL A   1      31.107  22.825  23.307  1.00  0.00     0.228 A 
ATOM     15  O   UNL A   1      31.063  24.216  23.400  1.00  0.00    -0.415 OA
ATOM     16  C   UNL A   1      32.290  24.503  24.000  1.00  0.00     0.424 A 
ATOM     17  O   UNL A   1      32.656  25.645  24.241  1.00  0.00    -0.223 OA
BRANCH  13  18
ATOM     18  C   UNL A   1      32.524  20.857  23.953  1.00  0.00     0.002 A 
ATOM     19  C   UNL A   1      33.142  18.134  24.232  1.00  0.00     0.082 A 
ATOM     20  C   UNL A   1      32.633  18.603  23.022  1.00  0.00     0.022 A 
ATOM     21  C   UNL A   1      33.341  19.008  25.304  1.00  0.00     0.022 A 
ATOM     22  C   UNL A   1      32.329  19.960  22.886  1.00  0.00     0.012 A 
ATOM     23  C   UNL A   1      33.038  20.368  25.160  1.00  0.00     0.012 A 
BRANCH  19  24
ATOM     24  S   UNL A   1      33.527  16.419  24.430  1.00  0.00     0.238 S 
ATOM     25  O   UNL A   1      34.058  15.910  23.195  1.00  0.00    -0.207 OA
ATOM     26  O   UNL A   1      32.432  15.787  25.139  1.00  0.00    -0.207 OA
BRANCH  24  27
ATOM     27  N   UNL A   1      34.829  16.425  25.498  1.00  0.00    -0.225 NA
ATOM     28  H   UNL A   1      35.643  16.013  25.042  1.00  0.00     0.137 HD
ATOM     29  H   UNL A   1      34.591  15.882  26.327  1.00  0.00     0.137 HD
ENDBRANCH  24  27
ENDBRANCH  19  24
ENDBRANCH  13  18
ENDBRANCH   7  12
ENDBRANCH   3   6
ENDBRANCH   1   2
BRANCH   1  30
ATOM     30  C   UNL A   1      40.333  20.549  26.732  1.00  0.00     0.023 C 
BRANCH  30  31
ATOM     31  C   UNL A   1      41.336  19.663  25.978  1.00  0.00     0.023 C 
BRANCH  31  32
ATOM     32  C   UNL A   1      42.687  19.498  26.664  1.00  0.00     0.116 C 
BRANCH  32  33
ATOM     33  N   UNL A   1      43.780  19.243  25.727  1.00  0.00    -0.352 N 
ATOM     34  C   UNL A   1      44.414  20.155  24.904  1.00  0.00     0.251 C 
ATOM     35  H   UNL A   1      44.102  18.314  25.676  1.00  0.00     0.163 HD
ATOM     36  O   UNL A   1      45.009  19.797  23.896  1.00  0.00    -0.269 OA
BRANCH  34  37
ATOM     37  C   UNL A   1      44.365  21.581  25.272  1.00  0.00     0.039 A 
ATOM     38  C   UNL A   1      43.426  22.444  24.708  1.00  0.00     0.014 A 
ATOM     39  C   UNL A   1      45.250  22.027  26.250  1.00  0.00     0.014 A 
ATOM     40  C   UNL A   1      43.324  23.737  25.214  1.00  0.00     0.010 A 
ATOM     41  C   UNL A   1      45.049  23.249  26.846  1.00  0.00     0.010 A 
ATOM     42  C   UNL A   1      44.113  24.127  26.314  1.00  0.00    -0.014 A 
BRANCH  42  43
ATOM     43  C   UNL A   1      43.855  25.400  26.989  1.00  0.00     0.031 A 
ATOM     44  C   UNL A   1      44.826  26.475  26.647  1.00  0.00     0.074 A 
ATOM     45  C   UNL A   1      42.768  25.660  27.751  1.00  0.00     0.049 A 
ATOM     46  N   UNL A   1      45.732  26.969  27.423  1.00  0.00    -0.248 NA
ATOM     47  C   UNL A   1      44.910  26.953  25.259  1.00  0.00     0.031 C 
ATOM     48  C   UNL A   1      41.591  24.814  27.980  1.00  0.00     0.029 A 
ATOM     49  N   UNL A   1      42.456  26.795  28.443  1.00  0.00    -0.354 N 
ATOM     50  C   UNL A   1      46.385  27.954  26.688  1.00  0.00     0.074 A 
ATOM     51  C   UNL A   1      45.943  27.798  25.327  1.00  0.00     0.031 C 
ATOM     52  C   UNL A   1      40.610  25.538  28.563  1.00  0.00     0.029 A 
ATOM     53  C   UNL A   1      41.150  26.836  28.921  1.00  0.00     0.049 A 
ATOM     54  H   UNL A   1      43.101  27.524  28.593  1.00  0.00     0.167 HD
ATOM     55  C   UNL A   1      47.042  28.961  27.327  1.00  0.00     0.037 A 
ATOM     56  C   UNL A   1      40.553  27.848  29.593  1.00  0.00     0.037 A 
ATOM     57  C   UNL A   1      47.232  28.636  28.719  1.00  0.00     0.049 A 
ATOM     58  C   UNL A   1      41.629  28.640  30.223  1.00  0.00     0.074 A 
ATOM     59  C   UNL A   1      47.991  27.739  29.438  1.00  0.00     0.029 A 
ATOM     60  N   UNL A   1      46.224  29.062  29.543  1.00  0.00    -0.354 N 
ATOM     61  N   UNL A   1      42.383  28.186  31.185  1.00  0.00    -0.248 NA
ATOM     62  C   UNL A   1      42.132  29.817  29.534  1.00  0.00     0.031 C 
ATOM     63  C   UNL A   1      47.212  27.415  30.592  1.00  0.00     0.029 A 
ATOM     64  C   UNL A   1      46.035  28.166  30.559  1.00  0.00     0.049 A 
ATOM     65  H   UNL A   1      45.711  29.892  29.422  1.00  0.00     0.167 HD
ATOM     66  C   UNL A   1      43.630  28.724  30.923  1.00  0.00     0.074 A 
ATOM     67  C   UNL A   1      43.377  29.841  30.020  1.00  0.00     0.031 C 
ATOM     68  C   UNL A   1      44.761  28.021  31.227  1.00  0.00     0.037 A 
BRANCH  55  69
ATOM     69  C   UNL A   1      47.078  30.404  26.861  1.00  0.00     0.064 A 
ATOM     70  C   UNL A   1      48.291  31.121  26.962  1.00  0.00     0.173 A 
ATOM     71  C   UNL A   1      45.925  31.193  26.661  1.00  0.00     0.173 A 
ATOM     72  F   UNL A   1      49.450  30.478  27.169  1.00  0.00    -0.203 F 
ATOM     73  C   UNL A   1      48.327  32.519  26.959  1.00  0.00     0.198 A 
ATOM     74  C   UNL A   1      45.974  32.586  26.611  1.00  0.00     0.198 A 
ATOM     75  F   UNL A   1      44.697  30.665  26.626  1.00  0.00    -0.203 F 
ATOM     76  F   UNL A   1      49.484  33.156  27.193  1.00  0.00    -0.200 F 
ATOM     77  C   UNL A   1      47.168  33.250  26.794  1.00  0.00     0.200 A 
ATOM     78  F   UNL A   1      44.834  33.277  26.473  1.00  0.00    -0.200 F 
ATOM     79  F   UNL A   1      47.188  34.588  26.859  1.00  0.00    -0.200 F 
ENDBRANCH  55  69
BRANCH  56  80
ATOM     80  C   UNL A   1      39.147  28.307  29.547  1.00  0.00     0.064 A 
ATOM     81  C   UNL A   1      38.390  28.476  30.718  1.00  0.00     0.173 A 
ATOM     82  C   UNL A   1      38.622  28.878  28.373  1.00  0.00     0.173 A 
ATOM     83  F   UNL A   1      38.839  27.998  31.887  1.00  0.00    -0.203 F 
ATOM     84  C   UNL A   1      37.195  29.205  30.721  1.00  0.00     0.198 A 
ATOM     85  C   UNL A   1      37.431  29.605  28.376  1.00  0.00     0.198 A 
ATOM     86  F   UNL A   1      39.308  28.825  27.222  1.00  0.00    -0.203 F 
ATOM     87  F   UNL A   1      36.531  29.401  31.869  1.00  0.00    -0.200 F 
ATOM     88  C   UNL A   1      36.724  29.780  29.551  1.00  0.00     0.200 A 
ATOM     89  F   UNL A   1      37.006  30.190  27.247  1.00  0.00    -0.200 F 
ATOM     90  F   UNL A   1      35.617  30.537  29.566  1.00  0.00    -0.200 F 
ENDBRANCH  56  80
BRANCH  68  91
ATOM     91  C   UNL A   1      44.616  26.894  32.210  1.00  0.00     0.064 A 
ATOM     92  C   UNL A   1      44.518  27.055  33.602  1.00  0.00     0.173 A 
ATOM     93  C   UNL A   1      44.494  25.594  31.702  1.00  0.00     0.173 A 
ATOM     94  F   UNL A   1      44.542  28.271  34.160  1.00  0.00    -0.203 F 
ATOM     95  C   UNL A   1      44.353  25.959  34.447  1.00  0.00     0.198 A 
ATOM     96  C   UNL A   1      44.291  24.505  32.545  1.00  0.00     0.198 A 
ATOM     97  F   UNL A   1      44.535  25.384  30.377  1.00  0.00    -0.203 F 
ATOM     98  F   UNL A   1      44.285  26.137  35.776  1.00  0.00    -0.200 F 
ATOM     99  C   UNL A   1      44.233  24.685  33.916  1.00  0.00     0.200 A 
ATOM    100  F   UNL A   1      44.132  23.282  32.022  1.00  0.00    -0.200 F 
ATOM    101  F   UNL A   1      44.041  23.633  34.725  1.00  0.00    -0.200 F 
ENDBRANCH  68  91
ENDBRANCH  42  43
ENDBRANCH  34  37
ENDBRANCH  32  33
ENDBRANCH  31  32
ENDBRANCH  30  31
ENDBRANCH   1  30
TORSDOF 15
ENDMDL
MODEL 2
REMARK VINA RESULT:     -13.3      5.222     10.530
REMARK SMILES NS(=O)(=O)c1ccc(-c2coc(=O)n2-c2ccc(C(=O)NCCCCNC(=O)c3ccc(-c4c5nc(c(-c6c(F)c(F)c(F)c(F)c6F)c6ccc([nH]6)c(-c6c(F)c(F)c(F)c(F)c6F)c6nc(c(-c7c(F)c(F)c(F)c(F)c7F)c7ccc4[nH]7)C=C6)C=C5)cc3)cc2)cc1
REMARK SMILES IDX 22 1 21 2 19 3 20 4 18 6 15 7 16 8 93 9 17 10 92 11 14 12
REMARK SMILES IDX 9 13 10 14 11 15 12 16 13 17 8 18 5 19 6 20 95 21 7 22 94 23
REMARK SMILES IDX 2 24 3 25 4 26 1 27 23 30 24 31 25 32 26 33 27 34 28 36
REMARK SMILES IDX 29 37 30 38 91 39 31 40 90 41 32 42 33 43 34 44 84 45 35 46
REMARK SMILES IDX 89 47 83 48 85 49 36 50 88 51 82 52 81 53 37 55 69 56 49 57
REMARK SMILES IDX 68 58 50 59 53 60 67 61 86 62 51 63 52 64 66 66 87 67 54 68
REMARK SMILES IDX 38 69 39 70 47 71 40 72 41 73 45 74 48 75 42 76 43 77 46 78
REMARK SMILES IDX 44 79 70 80 71 81 79 82 72 83 73 84 77 85 80 86 74 87 75 88
REMARK SMILES IDX 78 89 76 90 55 91 56 92 64 93 57 94 58 95 62 96 65 97 59 98
REMARK SMILES IDX 60 99 63 100 61 101
REMARK H PARENT 21 5 1 28 1 29 26 35 85 54 53 65
REMARK Flexibility Score: inf
ROOT
ATOM      1  C   UNL A   1      33.457  31.786  27.670  1.00  0.00     0.116 C 
ENDROOT
BRANCH   1   2
ATOM      2  N   UNL A   1      34.494  30.865  28.097  1.00  0.00    -0.352 N 
ATOM      3  C   UNL A   1      34.769  29.551  27.811  1.00  0.00     0.251 C 
ATOM      4  O   UNL A   1      35.770  29.066  28.340  1.00  0.00    -0.269 OA
ATOM      5  H   UNL A   1      35.137  31.268  28.724  1.00  0.00     0.163 HD
BRANCH   3   6
ATOM      6  C   UNL A   1      33.975  28.712  26.862  1.00  0.00     0.039 A 
ATOM      7  C   UNL A   1      32.482  26.923  25.284  1.00  0.00     0.053 A 
ATOM      8  C   UNL A   1      32.030  27.260  26.557  1.00  0.00     0.028 A 
ATOM      9  C   UNL A   1      33.620  27.544  24.768  1.00  0.00     0.028 A 
ATOM     10  C   UNL A   1      32.793  28.125  27.351  1.00  0.00     0.016 A 
ATOM     11  C   UNL A   1      34.324  28.475  25.533  1.00  0.00     0.016 A 
BRANCH   7  12
ATOM     12  N   UNL A   1      31.833  25.942  24.517  1.00  0.00    -0.242 N 
ATOM     13  C   UNL A   1      30.697  26.077  23.770  1.00  0.00     0.095 A 
ATOM     14  C   UNL A   1      30.359  24.846  23.402  1.00  0.00     0.228 A 
ATOM     15  O   UNL A   1      31.223  23.851  23.859  1.00  0.00    -0.415 OA
ATOM     16  C   UNL A   1      32.170  24.594  24.565  1.00  0.00     0.424 A 
ATOM     17  O   UNL A   1      33.110  24.077  25.152  1.00  0.00    -0.223 OA
BRANCH  13  18
ATOM     18  C   UNL A   1      30.090  27.341  23.351  1.00  0.00     0.002 A 
ATOM     19  C   UNL A   1      28.898  29.770  22.608  1.00  0.00     0.082 A 
ATOM     20  C   UNL A   1      28.112  28.759  23.157  1.00  0.00     0.022 A 
ATOM     21  C   UNL A   1      30.270  29.580  22.421  1.00  0.00     0.022 A 
ATOM     22  C   UNL A   1      28.709  27.552  23.528  1.00  0.00     0.012 A 
ATOM     23  C   UNL A   1      30.863  28.370  22.799  1.00  0.00     0.012 A 
BRANCH  19  24
ATOM     24  S   UNL A   1      28.163  31.305  22.124  1.00  0.00     0.238 S 
ATOM     25  O   UNL A   1      27.214  31.709  23.125  1.00  0.00    -0.207 OA
ATOM     26  O   UNL A   1      27.838  31.227  20.713  1.00  0.00    -0.207 OA
BRANCH  24  27
ATOM     27  N   UNL A   1      29.429  32.408  22.247  1.00  0.00    -0.225 NA
ATOM     28  H   UNL A   1      30.265  31.929  22.580  1.00  0.00     0.137 HD
ATOM     29  H   UNL A   1      29.174  33.147  22.902  1.00  0.00     0.137 HD
ENDBRANCH  24  27
ENDBRANCH  19  24
ENDBRANCH  13  18
ENDBRANCH   7  12
ENDBRANCH   3   6
ENDBRANCH   1   2
BRANCH   1  30
ATOM     30  C   UNL A   1      33.936  33.240  27.738  1.00  0.00     0.023 C 
BRANCH  30  31
ATOM     31  C   UNL A   1      32.986  34.204  28.465  1.00  0.00     0.023 C 
BRANCH  31  32
ATOM     32  C   UNL A   1      33.669  35.381  29.150  1.00  0.00     0.116 C 
BRANCH  32  33
ATOM     33  N   UNL A   1      33.001  35.797  30.382  1.00  0.00    -0.352 N 
ATOM     34  C   UNL A   1      33.116  35.227  31.637  1.00  0.00     0.251 C 
ATOM     35  H   UNL A   1      32.397  36.571  30.310  1.00  0.00     0.163 HD
ATOM     36  O   UNL A   1      32.244  35.370  32.484  1.00  0.00    -0.269 OA
BRANCH  34  37
ATOM     37  C   UNL A   1      34.327  34.444  31.939  1.00  0.00     0.039 A 
ATOM     38  C   UNL A   1      34.361  33.062  31.758  1.00  0.00     0.014 A 
ATOM     39  C   UNL A   1      35.458  35.139  32.358  1.00  0.00     0.014 A 
ATOM     40  C   UNL A   1      35.578  32.402  31.905  1.00  0.00     0.010 A 
ATOM     41  C   UNL A   1      36.682  34.513  32.358  1.00  0.00     0.010 A 
ATOM     42  C   UNL A   1      36.750  33.138  32.168  1.00  0.00    -0.014 A 
BRANCH  42  43
ATOM     43  C   UNL A   1      38.059  32.484  32.104  1.00  0.00     0.031 A 
ATOM     44  C   UNL A   1      38.773  32.428  33.408  1.00  0.00     0.074 A 
ATOM     45  C   UNL A   1      38.550  31.852  31.013  1.00  0.00     0.049 A 
ATOM     46  N   UNL A   1      39.826  33.098  33.739  1.00  0.00    -0.248 NA
ATOM     47  C   UNL A   1      38.180  31.669  34.521  1.00  0.00     0.031 C 
ATOM     48  C   UNL A   1      37.880  31.584  29.735  1.00  0.00     0.029 A 
ATOM     49  N   UNL A   1      39.761  31.246  30.846  1.00  0.00    -0.354 N 
ATOM     50  C   UNL A   1      40.147  32.711  35.036  1.00  0.00     0.074 A 
ATOM     51  C   UNL A   1      39.024  31.951  35.519  1.00  0.00     0.031 C 
ATOM     52  C   UNL A   1      38.598  30.692  29.018  1.00  0.00     0.029 A 
ATOM     53  C   UNL A   1      39.862  30.472  29.694  1.00  0.00     0.049 A 
ATOM     54  H   UNL A   1      40.503  31.348  31.485  1.00  0.00     0.167 HD
ATOM     55  C   UNL A   1      41.421  32.853  35.497  1.00  0.00     0.037 A 
ATOM     56  C   UNL A   1      40.918  29.724  29.297  1.00  0.00     0.037 A 
ATOM     57  C   UNL A   1      42.177  33.721  34.629  1.00  0.00     0.049 A 
ATOM     58  C   UNL A   1      42.115  30.287  29.954  1.00  0.00     0.074 A 
ATOM     59  C   UNL A   1      42.181  35.064  34.321  1.00  0.00     0.029 A 
ATOM     60  N   UNL A   1      42.843  33.076  33.621  1.00  0.00    -0.354 N 
ATOM     61  N   UNL A   1      42.597  31.466  29.675  1.00  0.00    -0.248 NA
ATOM     62  C   UNL A   1      42.574  29.700  31.202  1.00  0.00     0.031 C 
ATOM     63  C   UNL A   1      42.588  35.143  32.953  1.00  0.00     0.029 A 
ATOM     64  C   UNL A   1      42.867  33.853  32.496  1.00  0.00     0.049 A 
ATOM     65  H   UNL A   1      43.247  32.182  33.695  1.00  0.00     0.167 HD
ATOM     66  C   UNL A   1      43.041  31.949  30.894  1.00  0.00     0.074 A 
ATOM     67  C   UNL A   1      43.164  30.770  31.744  1.00  0.00     0.031 C 
ATOM     68  C   UNL A   1      42.972  33.283  31.171  1.00  0.00     0.037 A 
BRANCH  55  69
ATOM     69  C   UNL A   1      42.129  31.865  36.404  1.00  0.00     0.064 A 
ATOM     70  C   UNL A   1      42.811  32.355  37.541  1.00  0.00     0.173 A 
ATOM     71  C   UNL A   1      42.457  30.546  36.025  1.00  0.00     0.173 A 
ATOM     72  F   UNL A   1      42.591  33.601  37.985  1.00  0.00    -0.203 F 
ATOM     73  C   UNL A   1      43.809  31.614  38.182  1.00  0.00     0.198 A 
ATOM     74  C   UNL A   1      43.419  29.794  36.697  1.00  0.00     0.198 A 
ATOM     75  F   UNL A   1      41.956  29.976  34.925  1.00  0.00    -0.203 F 
ATOM     76  F   UNL A   1      44.521  32.172  39.171  1.00  0.00    -0.200 F 
ATOM     77  C   UNL A   1      44.119  30.338  37.753  1.00  0.00     0.200 A 
ATOM     78  F   UNL A   1      43.723  28.567  36.251  1.00  0.00    -0.200 F 
ATOM     79  F   UNL A   1      45.121  29.652  38.320  1.00  0.00    -0.200 F 
ENDBRANCH  55  69
BRANCH  56  80
ATOM     80  C   UNL A   1      40.937  28.432  28.574  1.00  0.00     0.064 A 
ATOM     81  C   UNL A   1      40.198  27.326  29.025  1.00  0.00     0.173 A 
ATOM     82  C   UNL A   1      41.440  28.358  27.262  1.00  0.00     0.173 A 
ATOM     83  F   UNL A   1      39.649  27.334  30.249  1.00  0.00    -0.203 F 
ATOM     84  C   UNL A   1      39.946  26.225  28.198  1.00  0.00     0.198 A 
ATOM     85  C   UNL A   1      41.188  27.260  26.437  1.00  0.00     0.198 A 
ATOM     86  F   UNL A   1      42.099  29.394  26.724  1.00  0.00    -0.203 F 
ATOM     87  F   UNL A   1      39.183  25.216  28.640  1.00  0.00    -0.200 F 
ATOM     88  C   UNL A   1      40.431  26.200  26.900  1.00  0.00     0.200 A 
ATOM     89  F   UNL A   1      41.629  27.265  25.171  1.00  0.00    -0.200 F 
ATOM     90  F   UNL A   1      40.132  25.179  26.084  1.00  0.00    -0.200 F 
ENDBRANCH  56  80
BRANCH  68  91
ATOM     91  C   UNL A   1      42.818  34.214  30.001  1.00  0.00     0.064 A 
ATOM     92  C   UNL A   1      41.588  34.603  29.445  1.00  0.00     0.173 A 
ATOM     93  C   UNL A   1      43.977  34.798  29.472  1.00  0.00     0.173 A 
ATOM     94  F   UNL A   1      40.431  34.156  29.947  1.00  0.00    -0.203 F 
ATOM     95  C   UNL A   1      41.528  35.498  28.379  1.00  0.00     0.198 A 
ATOM     96  C   UNL A   1      43.912  35.720  28.433  1.00  0.00     0.198 A 
ATOM     97  F   UNL A   1      45.177  34.498  29.994  1.00  0.00    -0.203 F 
ATOM     98  F   UNL A   1      40.341  35.836  27.850  1.00  0.00    -0.200 F 
ATOM     99  C   UNL A   1      42.689  36.060  27.877  1.00  0.00     0.200 A 
ATOM    100  F   UNL A   1      45.036  36.293  27.982  1.00  0.00    -0.200 F 
ATOM    101  F   UNL A   1      42.631  36.946  26.873  1.00  0.00    -0.200 F 
ENDBRANCH  68  91
ENDBRANCH  42  43
ENDBRANCH  34  37
ENDBRANCH  32  33
ENDBRANCH  31  32
ENDBRANCH  30  31
ENDBRANCH   1  30
TORSDOF 15
ENDMDL
MODEL 3
REMARK VINA RESULT:     -12.9      4.722      9.836
REMARK SMILES NS(=O)(=O)c1ccc(-c2coc(=O)n2-c2ccc(C(=O)NCCCCNC(=O)c3ccc(-c4c5nc(c(-c6c(F)c(F)c(F)c(F)c6F)c6ccc([nH]6)c(-c6c(F)c(F)c(F)c(F)c6F)c6nc(c(-c7c(F)c(F)c(F)c(F)c7F)c7ccc4[nH]7)C=C6)C=C5)cc3)cc2)cc1
REMARK SMILES IDX 22 1 21 2 19 3 20 4 18 6 15 7 16 8 93 9 17 10 92 11 14 12
REMARK SMILES IDX 9 13 10 14 11 15 12 16 13 17 8 18 5 19 6 20 95 21 7 22 94 23
REMARK SMILES IDX 2 24 3 25 4 26 1 27 23 30 24 31 25 32 26 33 27 34 28 36
REMARK SMILES IDX 29 37 30 38 91 39 31 40 90 41 32 42 33 43 34 44 84 45 35 46
REMARK SMILES IDX 89 47 83 48 85 49 36 50 88 51 82 52 81 53 37 55 69 56 49 57
REMARK SMILES IDX 68 58 50 59 53 60 67 61 86 62 51 63 52 64 66 66 87 67 54 68
REMARK SMILES IDX 38 69 39 70 47 71 40 72 41 73 45 74 48 75 42 76 43 77 46 78
REMARK SMILES IDX 44 79 70 80 71 81 79 82 72 83 73 84 77 85 80 86 74 87 75 88
REMARK SMILES IDX 78 89 76 90 55 91 56 92 64 93 57 94 58 95 62 96 65 97 59 98
REMARK SMILES IDX 60 99 63 100 61 101
REMARK H PARENT 21 5 1 28 1 29 26 35 85 54 53 65
REMARK Flexibility Score: inf
ROOT
ATOM      1  C   UNL A   1      33.675  32.072  27.938  1.00  0.00     0.116 C 
ENDROOT
BRANCH   1   2
ATOM      2  N   UNL A   1      34.599  31.063  28.423  1.00  0.00    -0.352 N 
ATOM      3  C   UNL A   1      34.803  29.741  28.114  1.00  0.00     0.251 C 
ATOM      4  O   UNL A   1      35.714  29.166  28.713  1.00  0.00    -0.269 OA
ATOM      5  H   UNL A   1      35.208  31.397  29.120  1.00  0.00     0.163 HD
BRANCH   3   6
ATOM      6  C   UNL A   1      34.043  28.994  27.066  1.00  0.00     0.039 A 
ATOM      7  C   UNL A   1      32.648  27.825  24.919  1.00  0.00     0.053 A 
ATOM      8  C   UNL A   1      33.942  28.300  24.722  1.00  0.00     0.028 A 
ATOM      9  C   UNL A   1      32.090  27.851  26.197  1.00  0.00     0.028 A 
ATOM     10  C   UNL A   1      34.620  28.911  25.785  1.00  0.00     0.016 A 
ATOM     11  C   UNL A   1      32.809  28.378  27.271  1.00  0.00     0.016 A 
BRANCH   7  12
ATOM     12  N   UNL A   1      31.876  27.350  23.847  1.00  0.00    -0.242 N 
ATOM     13  C   UNL A   1      32.002  26.162  23.185  1.00  0.00     0.095 A 
ATOM     14  C   UNL A   1      31.198  26.250  22.131  1.00  0.00     0.228 A 
ATOM     15  O   UNL A   1      30.506  27.457  22.033  1.00  0.00    -0.415 OA
ATOM     16  C   UNL A   1      30.957  28.140  23.164  1.00  0.00     0.424 A 
ATOM     17  O   UNL A   1      30.595  29.275  23.437  1.00  0.00    -0.223 OA
BRANCH  13  18
ATOM     18  C   UNL A   1      32.755  24.996  23.648  1.00  0.00     0.002 A 
ATOM     19  C   UNL A   1      34.147  22.720  24.519  1.00  0.00     0.082 A 
ATOM     20  C   UNL A   1      32.873  22.981  25.021  1.00  0.00     0.022 A 
ATOM     21  C   UNL A   1      34.735  23.585  23.592  1.00  0.00     0.022 A 
ATOM     22  C   UNL A   1      32.183  24.114  24.583  1.00  0.00     0.012 A 
ATOM     23  C   UNL A   1      34.035  24.716  23.153  1.00  0.00     0.012 A 
BRANCH  19  24
ATOM     24  S   UNL A   1      35.044  21.296  25.064  1.00  0.00     0.238 S 
ATOM     25  O   UNL A   1      36.408  21.402  24.624  1.00  0.00    -0.207 OA
ATOM     26  O   UNL A   1      34.225  20.125  24.823  1.00  0.00    -0.207 OA
BRANCH  24  27
ATOM     27  N   UNL A   1      35.106  21.482  26.736  1.00  0.00    -0.225 NA
ATOM     28  H   UNL A   1      34.522  20.773  27.179  1.00  0.00     0.137 HD
ATOM     29  H   UNL A   1      34.767  22.409  26.989  1.00  0.00     0.137 HD
ENDBRANCH  24  27
ENDBRANCH  19  24
ENDBRANCH  13  18
ENDBRANCH   7  12
ENDBRANCH   3   6
ENDBRANCH   1   2
BRANCH   1  30
ATOM     30  C   UNL A   1      34.255  33.482  28.093  1.00  0.00     0.023 C 
BRANCH  30  31
ATOM     31  C   UNL A   1      33.241  34.560  28.506  1.00  0.00     0.023 C 
BRANCH  31  32
ATOM     32  C   UNL A   1      33.822  35.708  29.322  1.00  0.00     0.116 C 
BRANCH  32  33
ATOM     33  N   UNL A   1      33.074  35.978  30.549  1.00  0.00    -0.352 N 
ATOM     34  C   UNL A   1      33.130  35.281  31.741  1.00  0.00     0.251 C 
ATOM     35  H   UNL A   1      32.457  36.745  30.522  1.00  0.00     0.163 HD
ATOM     36  O   UNL A   1      32.207  35.318  32.544  1.00  0.00    -0.269 OA
BRANCH  34  37
ATOM     37  C   UNL A   1      34.339  34.492  32.032  1.00  0.00     0.039 A 
ATOM     38  C   UNL A   1      34.373  33.113  31.824  1.00  0.00     0.014 A 
ATOM     39  C   UNL A   1      35.470  35.178  32.468  1.00  0.00     0.014 A 
ATOM     40  C   UNL A   1      35.590  32.451  31.962  1.00  0.00     0.010 A 
ATOM     41  C   UNL A   1      36.693  34.551  32.460  1.00  0.00     0.010 A 
ATOM     42  C   UNL A   1      36.761  33.181  32.243  1.00  0.00    -0.014 A 
BRANCH  42  43
ATOM     43  C   UNL A   1      38.070  32.527  32.171  1.00  0.00     0.031 A 
ATOM     44  C   UNL A   1      38.789  32.466  33.472  1.00  0.00     0.074 A 
ATOM     45  C   UNL A   1      38.556  31.901  31.076  1.00  0.00     0.049 A 
ATOM     46  N   UNL A   1      39.844  33.134  33.801  1.00  0.00    -0.248 NA
ATOM     47  C   UNL A   1      38.202  31.702  34.583  1.00  0.00     0.031 C 
ATOM     48  C   UNL A   1      37.881  31.638  29.799  1.00  0.00     0.029 A 
ATOM     49  N   UNL A   1      39.767  31.296  30.900  1.00  0.00    -0.354 N 
ATOM     50  C   UNL A   1      40.171  32.742  35.095  1.00  0.00     0.074 A 
ATOM     51  C   UNL A   1      39.049  31.980  35.579  1.00  0.00     0.031 C 
ATOM     52  C   UNL A   1      38.596  30.749  29.075  1.00  0.00     0.029 A 
ATOM     53  C   UNL A   1      39.863  30.527  29.745  1.00  0.00     0.049 A 
ATOM     54  H   UNL A   1      40.512  31.395  31.537  1.00  0.00     0.167 HD
ATOM     55  C   UNL A   1      41.447  32.882  35.551  1.00  0.00     0.037 A 
ATOM     56  C   UNL A   1      40.918  29.781  29.340  1.00  0.00     0.037 A 
ATOM     57  C   UNL A   1      42.198  33.755  34.684  1.00  0.00     0.049 A 
ATOM     58  C   UNL A   1      42.118  30.342  29.994  1.00  0.00     0.074 A 
ATOM     59  C   UNL A   1      42.201  35.099  34.382  1.00  0.00     0.029 A 
ATOM     60  N   UNL A   1      42.861  33.114  33.670  1.00  0.00    -0.354 N 
ATOM     61  N   UNL A   1      42.598  31.522  29.719  1.00  0.00    -0.248 NA
ATOM     62  C   UNL A   1      42.582  29.750  31.237  1.00  0.00     0.031 C 
ATOM     63  C   UNL A   1      42.602  35.184  33.012  1.00  0.00     0.029 A 
ATOM     64  C   UNL A   1      42.879  33.897  32.548  1.00  0.00     0.049 A 
ATOM     65  H   UNL A   1      43.265  32.220  33.738  1.00  0.00     0.167 HD
ATOM     66  C   UNL A   1      43.047  31.999  30.937  1.00  0.00     0.074 A 
ATOM     67  C   UNL A   1      43.174  30.817  31.782  1.00  0.00     0.031 C 
ATOM     68  C   UNL A   1      42.978  33.333  31.221  1.00  0.00     0.037 A 
BRANCH  55  69
ATOM     69  C   UNL A   1      42.159  31.891  36.451  1.00  0.00     0.064 A 
ATOM     70  C   UNL A   1      42.848  32.376  37.585  1.00  0.00     0.173 A 
ATOM     71  C   UNL A   1      42.483  30.573  36.065  1.00  0.00     0.173 A 
ATOM     72  F   UNL A   1      42.632  33.621  38.035  1.00  0.00    -0.203 F 
ATOM     73  C   UNL A   1      43.848  31.632  38.218  1.00  0.00     0.198 A 
ATOM     74  C   UNL A   1      43.448  29.818  36.730  1.00  0.00     0.198 A 
ATOM     75  F   UNL A   1      41.974  30.006  34.967  1.00  0.00    -0.203 F 
ATOM     76  F   UNL A   1      44.567  32.186  39.205  1.00  0.00    -0.200 F 
ATOM     77  C   UNL A   1      44.155  30.357  37.783  1.00  0.00     0.200 A 
ATOM     78  F   UNL A   1      43.748  28.591  36.278  1.00  0.00    -0.200 F 
ATOM     79  F   UNL A   1      45.159  29.668  38.342  1.00  0.00    -0.200 F 
ENDBRANCH  55  69
BRANCH  56  80
ATOM     80  C   UNL A   1      40.935  28.492  28.611  1.00  0.00     0.064 A 
ATOM     81  C   UNL A   1      40.200  27.384  29.061  1.00  0.00     0.173 A 
ATOM     82  C   UNL A   1      41.430  28.425  27.295  1.00  0.00     0.173 A 
ATOM     83  F   UNL A   1      39.658  27.385  30.287  1.00  0.00    -0.203 F 
ATOM     84  C   UNL A   1      39.945  26.286  28.230  1.00  0.00     0.198 A 
ATOM     85  C   UNL A   1      41.176  27.331  26.467  1.00  0.00     0.198 A 
ATOM     86  F   UNL A   1      42.085  29.464  26.758  1.00  0.00    -0.203 F 
ATOM     87  F   UNL A   1      39.184  25.274  28.672  1.00  0.00    -0.200 F 
ATOM     88  C   UNL A   1      40.422  26.267  26.930  1.00  0.00     0.200 A 
ATOM     89  F   UNL A   1      41.609  27.342  25.199  1.00  0.00    -0.200 F 
ATOM     90  F   UNL A   1      40.120  25.249  26.111  1.00  0.00    -0.200 F 
ENDBRANCH  56  80
BRANCH  68  91
ATOM     91  C   UNL A   1      42.819  34.269  30.056  1.00  0.00     0.064 A 
ATOM     92  C   UNL A   1      41.587  34.654  29.503  1.00  0.00     0.173 A 
ATOM     93  C   UNL A   1      43.975  34.861  29.529  1.00  0.00     0.173 A 
ATOM     94  F   UNL A   1      40.432  34.199  30.003  1.00  0.00    -0.203 F 
ATOM     95  C   UNL A   1      41.522  35.554  28.441  1.00  0.00     0.198 A 
ATOM     96  C   UNL A   1      43.905  35.788  28.494  1.00  0.00     0.198 A 
ATOM     97  F   UNL A   1      45.177  34.564  30.048  1.00  0.00    -0.203 F 
ATOM     98  F   UNL A   1      40.333  35.890  27.914  1.00  0.00    -0.200 F 
ATOM     99  C   UNL A   1      42.681  36.125  27.941  1.00  0.00     0.200 A 
ATOM    100  F   UNL A   1      45.026  36.369  28.046  1.00  0.00    -0.200 F 
ATOM    101  F   UNL A   1      42.617  37.016  26.942  1.00  0.00    -0.200 F 
ENDBRANCH  68  91
ENDBRANCH  42  43
ENDBRANCH  34  37
ENDBRANCH  32  33
ENDBRANCH  31  32
ENDBRANCH  30  31
ENDBRANCH   1  30
TORSDOF 15
ENDMDL
