MODEL 1
REMARK VINA RESULT:     -13.3      0.000      0.000
REMARK SMILES Cc1cn2c(=O)cc(CSc3ccccc3C(=O)NCCCCNC(=O)c3ccc(-c4c5nc(c(-c6c(F)c(F)c(F)c(F)c6F)c6ccc([nH]6)c(-c6c(F)c(F)c(F)c(F)c6F)c6nc(c(-c7c(F)c(F)c(F)c(F)c7F)c7ccc4[nH]7)C=C6)C=C5)cc3)nc2s1
REMARK SMILES IDX 21 1 20 2 19 3 17 4 18 5 16 7 11 8 12 9 13 10 15 11 14 12
REMARK SMILES IDX 10 13 9 14 8 15 1 16 2 17 3 18 92 19 4 20 91 21 5 22 90 23
REMARK SMILES IDX 6 24 7 25 22 26 23 27 24 28 25 29 26 31 27 32 28 33 89 34
REMARK SMILES IDX 29 35 88 36 30 37 31 38 32 39 82 40 33 41 87 42 81 43 83 44
REMARK SMILES IDX 34 45 86 46 80 47 79 48 35 50 67 51 47 52 66 53 48 54 51 55
REMARK SMILES IDX 65 56 84 57 49 58 50 59 64 61 85 62 52 63 36 64 37 65 45 66
REMARK SMILES IDX 38 67 39 68 43 69 46 70 40 71 41 72 44 73 42 74 68 75 69 76
REMARK SMILES IDX 77 77 70 78 71 79 75 80 78 81 72 82 73 83 76 84 74 85 53 86
REMARK SMILES IDX 54 87 62 88 55 89 56 90 60 91 63 92 57 93 58 94 61 95 59 96
REMARK H PARENT 19 6 24 30 83 49 51 60
REMARK Flexibility Score: inf
ROOT
ATOM      1  C   UNL A   1      38.404  20.936  25.225  1.00  0.00     0.023 C 
ENDROOT
BRANCH   1   2
ATOM      2  C   UNL A   1      36.887  20.927  25.098  1.00  0.00     0.116 C 
BRANCH   2   3
ATOM      3  N   UNL A   1      36.076  21.548  26.102  1.00  0.00    -0.352 N 
ATOM      4  C   UNL A   1      34.712  21.788  26.082  1.00  0.00     0.252 C 
ATOM      5  O   UNL A   1      34.233  22.228  27.133  1.00  0.00    -0.269 OA
ATOM      6  H   UNL A   1      36.550  21.842  26.913  1.00  0.00     0.163 HD
BRANCH   4   7
ATOM      7  C   UNL A   1      33.792  21.669  24.883  1.00  0.00     0.053 A 
ATOM      8  C   UNL A   1      33.521  22.584  23.839  1.00  0.00     0.020 A 
ATOM      9  C   UNL A   1      32.673  22.191  22.773  1.00  0.00     0.016 A 
ATOM     10  C   UNL A   1      32.094  20.927  22.715  1.00  0.00     0.001 A 
ATOM     11  C   UNL A   1      33.196  20.384  24.782  1.00  0.00     0.015 A 
ATOM     12  C   UNL A   1      32.364  20.015  23.719  1.00  0.00     0.001 A 
BRANCH   8  13
ATOM     13  S   UNL A   1      34.249  24.201  23.584  1.00  0.00    -0.119 SA
BRANCH  13  14
ATOM     14  C   UNL A   1      33.086  24.891  22.307  1.00  0.00     0.131 C 
BRANCH  14  15
ATOM     15  C   UNL A   1      32.284  26.025  22.874  1.00  0.00     0.059 A 
ATOM     16  C   UNL A   1      31.783  30.867  26.533  1.00  0.00     0.058 C 
ATOM     17  C   UNL A   1      31.718  29.666  25.665  1.00  0.00     0.022 A 
ATOM     18  C   UNL A   1      31.095  29.538  24.485  1.00  0.00     0.111 A 
ATOM     19  S   UNL A   1      32.554  28.199  26.113  1.00  0.00    -0.102 S 
ATOM     20  N   UNL A   1      31.319  28.326  23.871  1.00  0.00    -0.258 N 
ATOM     21  C   UNL A   1      32.136  27.479  24.578  1.00  0.00     0.197 A 
ATOM     22  C   UNL A   1      30.830  27.958  22.642  1.00  0.00     0.258 A 
ATOM     23  N   UNL A   1      32.582  26.346  24.175  1.00  0.00    -0.224 NA
ATOM     24  O   UNL A   1      30.035  28.597  21.959  1.00  0.00    -0.269 OA
ATOM     25  C   UNL A   1      31.408  26.704  22.115  1.00  0.00     0.097 A 
ENDBRANCH  14  15
ENDBRANCH  13  14
ENDBRANCH   8  13
ENDBRANCH   4   7
ENDBRANCH   2   3
ENDBRANCH   1   2
BRANCH   1  26
ATOM     26  C   UNL A   1      39.034  21.889  26.236  1.00  0.00     0.023 C 
BRANCH  26  27
ATOM     27  C   UNL A   1      40.308  21.394  26.910  1.00  0.00     0.116 C 
BRANCH  27  28
ATOM     28  N   UNL A   1      41.507  21.477  26.080  1.00  0.00    -0.352 N 
ATOM     29  C   UNL A   1      42.247  22.618  25.801  1.00  0.00     0.251 C 
ATOM     30  H   UNL A   1      41.822  20.637  25.676  1.00  0.00     0.163 HD
ATOM     31  O   UNL A   1      43.043  22.656  24.886  1.00  0.00    -0.269 OA
BRANCH  29  32
ATOM     32  C   UNL A   1      42.031  23.803  26.657  1.00  0.00     0.039 A 
ATOM     33  C   UNL A   1      42.642  23.905  27.910  1.00  0.00     0.014 A 
ATOM     34  C   UNL A   1      41.236  24.833  26.157  1.00  0.00     0.014 A 
ATOM     35  C   UNL A   1      42.516  25.092  28.628  1.00  0.00     0.010 A 
ATOM     36  C   UNL A   1      41.195  26.038  26.816  1.00  0.00     0.010 A 
ATOM     37  C   UNL A   1      41.804  26.159  28.066  1.00  0.00    -0.014 A 
BRANCH  37  38
ATOM     38  C   UNL A   1      41.756  27.456  28.733  1.00  0.00     0.031 A 
ATOM     39  C   UNL A   1      42.847  28.410  28.379  1.00  0.00     0.074 A 
ATOM     40  C   UNL A   1      40.654  27.863  29.398  1.00  0.00     0.049 A 
ATOM     41  N   UNL A   1      43.689  29.001  29.165  1.00  0.00    -0.248 NA
ATOM     42  C   UNL A   1      43.069  28.695  26.950  1.00  0.00     0.031 C 
ATOM     43  C   UNL A   1      39.370  27.161  29.520  1.00  0.00     0.029 A 
ATOM     44  N   UNL A   1      40.403  29.057  29.999  1.00  0.00    -0.354 N 
ATOM     45  C   UNL A   1      44.434  29.858  28.357  1.00  0.00     0.074 A 
ATOM     46  C   UNL A   1      44.113  29.524  26.994  1.00  0.00     0.031 C 
ATOM     47  C   UNL A   1      38.424  28.024  29.948  1.00  0.00     0.029 A 
ATOM     48  C   UNL A   1      39.062  29.282  30.281  1.00  0.00     0.049 A 
ATOM     49  H   UNL A   1      41.111  29.706  30.214  1.00  0.00     0.167 HD
ATOM     50  C   UNL A   1      45.091  30.938  28.867  1.00  0.00     0.037 A 
ATOM     51  C   UNL A   1      38.512  30.441  30.716  1.00  0.00     0.037 A 
ATOM     52  C   UNL A   1      45.261  30.836  30.290  1.00  0.00     0.049 A 
ATOM     53  C   UNL A   1      39.611  31.265  31.275  1.00  0.00     0.074 A 
ATOM     54  C   UNL A   1      45.904  29.950  31.131  1.00  0.00     0.029 A 
ATOM     55  N   UNL A   1      44.402  31.548  31.087  1.00  0.00    -0.354 N 
ATOM     56  N   UNL A   1      40.283  30.962  32.350  1.00  0.00    -0.248 NA
ATOM     57  C   UNL A   1      40.238  32.243  30.401  1.00  0.00     0.031 C 
ATOM     58  C   UNL A   1      45.057  29.845  32.274  1.00  0.00     0.029 A 
ATOM     59  C   UNL A   1      43.978  30.711  32.087  1.00  0.00     0.049 A 
ATOM     60  H   UNL A   1      44.138  32.488  30.965  1.00  0.00     0.167 HD
ATOM     61  C   UNL A   1      41.579  31.373  32.081  1.00  0.00     0.074 A 
ATOM     62  C   UNL A   1      41.464  32.257  30.927  1.00  0.00     0.031 C 
ATOM     63  C   UNL A   1      42.645  30.733  32.643  1.00  0.00     0.037 A 
BRANCH  50  64
ATOM     64  C   UNL A   1      45.268  32.239  28.126  1.00  0.00     0.064 A 
ATOM     65  C   UNL A   1      44.158  33.070  27.882  1.00  0.00     0.173 A 
ATOM     66  C   UNL A   1      46.440  32.560  27.407  1.00  0.00     0.173 A 
ATOM     67  F   UNL A   1      42.978  32.822  28.471  1.00  0.00    -0.203 F 
ATOM     68  C   UNL A   1      44.212  34.123  26.963  1.00  0.00     0.198 A 
ATOM     69  C   UNL A   1      46.509  33.645  26.535  1.00  0.00     0.198 A 
ATOM     70  F   UNL A   1      47.522  31.772  27.433  1.00  0.00    -0.203 F 
ATOM     71  F   UNL A   1      43.104  34.820  26.680  1.00  0.00    -0.200 F 
ATOM     72  C   UNL A   1      45.389  34.412  26.293  1.00  0.00     0.200 A 
ATOM     73  F   UNL A   1      47.649  33.889  25.875  1.00  0.00    -0.200 F 
ATOM     74  F   UNL A   1      45.431  35.391  25.381  1.00  0.00    -0.200 F 
ENDBRANCH  50  64
BRANCH  51  75
ATOM     75  C   UNL A   1      37.177  31.006  30.410  1.00  0.00     0.064 A 
ATOM     76  C   UNL A   1      36.291  31.350  31.445  1.00  0.00     0.173 A 
ATOM     77  C   UNL A   1      36.861  31.491  29.127  1.00  0.00     0.173 A 
ATOM     78  F   UNL A   1      36.539  30.958  32.702  1.00  0.00    -0.203 F 
ATOM     79  C   UNL A   1      35.180  32.169  31.216  1.00  0.00     0.198 A 
ATOM     80  C   UNL A   1      35.747  32.300  28.899  1.00  0.00     0.198 A 
ATOM     81  F   UNL A   1      37.680  31.275  28.087  1.00  0.00    -0.203 F 
ATOM     82  F   UNL A   1      34.402  32.539  32.243  1.00  0.00    -0.200 F 
ATOM     83  C   UNL A   1      34.917  32.655  29.946  1.00  0.00     0.200 A 
ATOM     84  F   UNL A   1      35.522  32.791  27.671  1.00  0.00    -0.200 F 
ATOM     85  F   UNL A   1      33.896  33.497  29.740  1.00  0.00    -0.200 F 
ENDBRANCH  51  75
BRANCH  63  86
ATOM     86  C   UNL A   1      42.372  29.785  33.780  1.00  0.00     0.064 A 
ATOM     87  C   UNL A   1      42.050  28.426  33.615  1.00  0.00     0.173 A 
ATOM     88  C   UNL A   1      42.591  30.237  35.087  1.00  0.00     0.173 A 
ATOM     89  F   UNL A   1      41.919  27.890  32.396  1.00  0.00    -0.203 F 
ATOM     90  C   UNL A   1      41.916  27.573  34.710  1.00  0.00     0.198 A 
ATOM     91  C   UNL A   1      42.493  29.375  36.177  1.00  0.00     0.198 A 
ATOM     92  F   UNL A   1      42.953  31.511  35.305  1.00  0.00    -0.203 F 
ATOM     93  F   UNL A   1      41.598  26.283  34.524  1.00  0.00    -0.200 F 
ATOM     94  C   UNL A   1      42.146  28.047  35.989  1.00  0.00     0.200 A 
ATOM     95  F   UNL A   1      42.766  29.827  37.409  1.00  0.00    -0.200 F 
ATOM     96  F   UNL A   1      42.065  27.218  37.040  1.00  0.00    -0.200 F 
ENDBRANCH  63  86
ENDBRANCH  37  38
ENDBRANCH  29  32
ENDBRANCH  27  28
ENDBRANCH  26  27
ENDBRANCH   1  26
TORSDOF 14
ENDMDL
MODEL 2
REMARK VINA RESULT:     -13.1      3.076      8.985
REMARK SMILES Cc1cn2c(=O)cc(CSc3ccccc3C(=O)NCCCCNC(=O)c3ccc(-c4c5nc(c(-c6c(F)c(F)c(F)c(F)c6F)c6ccc([nH]6)c(-c6c(F)c(F)c(F)c(F)c6F)c6nc(c(-c7c(F)c(F)c(F)c(F)c7F)c7ccc4[nH]7)C=C6)C=C5)cc3)nc2s1
REMARK SMILES IDX 21 1 20 2 19 3 17 4 18 5 16 7 11 8 12 9 13 10 15 11 14 12
REMARK SMILES IDX 10 13 9 14 8 15 1 16 2 17 3 18 92 19 4 20 91 21 5 22 90 23
REMARK SMILES IDX 6 24 7 25 22 26 23 27 24 28 25 29 26 31 27 32 28 33 89 34
REMARK SMILES IDX 29 35 88 36 30 37 31 38 32 39 82 40 33 41 87 42 81 43 83 44
REMARK SMILES IDX 34 45 86 46 80 47 79 48 35 50 67 51 47 52 66 53 48 54 51 55
REMARK SMILES IDX 65 56 84 57 49 58 50 59 64 61 85 62 52 63 36 64 37 65 45 66
REMARK SMILES IDX 38 67 39 68 43 69 46 70 40 71 41 72 44 73 42 74 68 75 69 76
REMARK SMILES IDX 77 77 70 78 71 79 75 80 78 81 72 82 73 83 76 84 74 85 53 86
REMARK SMILES IDX 54 87 62 88 55 89 56 90 60 91 63 92 57 93 58 94 61 95 59 96
REMARK H PARENT 19 6 24 30 83 49 51 60
REMARK Flexibility Score: inf
ROOT
ATOM      1  C   UNL A   1      32.344  30.085  27.245  1.00  0.00     0.023 C 
ENDROOT
BRANCH   1   2
ATOM      2  C   UNL A   1      31.815  30.403  25.854  1.00  0.00     0.116 C 
BRANCH   2   3
ATOM      3  N   UNL A   1      32.521  29.951  24.693  1.00  0.00    -0.352 N 
ATOM      4  C   UNL A   1      32.195  28.915  23.834  1.00  0.00     0.252 C 
ATOM      5  O   UNL A   1      32.910  28.809  22.831  1.00  0.00    -0.269 OA
ATOM      6  H   UNL A   1      33.347  30.440  24.477  1.00  0.00     0.163 HD
BRANCH   4   7
ATOM      7  C   UNL A   1      31.137  27.854  24.060  1.00  0.00     0.053 A 
ATOM      8  C   UNL A   1      31.127  26.736  24.927  1.00  0.00     0.020 A 
ATOM      9  C   UNL A   1      29.961  25.933  25.015  1.00  0.00     0.016 A 
ATOM     10  C   UNL A   1      28.815  26.210  24.275  1.00  0.00     0.001 A 
ATOM     11  C   UNL A   1      29.944  28.113  23.333  1.00  0.00     0.015 A 
ATOM     12  C   UNL A   1      28.803  27.310  23.437  1.00  0.00     0.001 A 
BRANCH   8  13
ATOM     13  S   UNL A   1      32.392  26.247  26.097  1.00  0.00    -0.119 SA
BRANCH  13  14
ATOM     14  C   UNL A   1      33.748  25.738  24.929  1.00  0.00     0.131 C 
BRANCH  14  15
ATOM     15  C   UNL A   1      34.220  24.347  25.235  1.00  0.00     0.059 A 
ATOM     16  C   UNL A   1      33.945  18.329  24.347  1.00  0.00     0.058 C 
ATOM     17  C   UNL A   1      34.071  19.754  24.739  1.00  0.00     0.022 A 
ATOM     18  C   UNL A   1      35.192  20.428  25.039  1.00  0.00     0.111 A 
ATOM     19  S   UNL A   1      32.664  20.787  24.807  1.00  0.00    -0.102 S 
ATOM     20  N   UNL A   1      34.987  21.772  25.251  1.00  0.00    -0.258 N 
ATOM     21  C   UNL A   1      33.681  22.171  25.116  1.00  0.00     0.197 A 
ATOM     22  C   UNL A   1      35.970  22.688  25.535  1.00  0.00     0.258 A 
ATOM     23  N   UNL A   1      33.250  23.380  25.154  1.00  0.00    -0.224 NA
ATOM     24  O   UNL A   1      37.152  22.437  25.752  1.00  0.00    -0.269 OA
ATOM     25  C   UNL A   1      35.516  24.094  25.485  1.00  0.00     0.097 A 
ENDBRANCH  14  15
ENDBRANCH  13  14
ENDBRANCH   8  13
ENDBRANCH   4   7
ENDBRANCH   2   3
ENDBRANCH   1   2
BRANCH   1  26
ATOM     26  C   UNL A   1      33.856  30.046  27.446  1.00  0.00     0.023 C 
BRANCH  26  27
ATOM     27  C   UNL A   1      34.539  31.398  27.611  1.00  0.00     0.116 C 
BRANCH  27  28
ATOM     28  N   UNL A   1      34.374  32.006  28.927  1.00  0.00    -0.352 N 
ATOM     29  C   UNL A   1      35.148  31.770  30.055  1.00  0.00     0.251 C 
ATOM     30  H   UNL A   1      33.637  32.651  29.026  1.00  0.00     0.163 HD
ATOM     31  O   UNL A   1      34.775  32.087  31.165  1.00  0.00    -0.269 OA
BRANCH  29  32
ATOM     32  C   UNL A   1      36.455  31.107  29.864  1.00  0.00     0.039 A 
ATOM     33  C   UNL A   1      37.610  31.855  29.614  1.00  0.00     0.014 A 
ATOM     34  C   UNL A   1      36.507  29.720  29.987  1.00  0.00     0.014 A 
ATOM     35  C   UNL A   1      38.840  31.202  29.569  1.00  0.00     0.010 A 
ATOM     36  C   UNL A   1      37.727  29.090  30.044  1.00  0.00     0.010 A 
ATOM     37  C   UNL A   1      38.890  29.821  29.800  1.00  0.00    -0.014 A 
BRANCH  37  38
ATOM     38  C   UNL A   1      40.171  29.127  29.883  1.00  0.00     0.031 A 
ATOM     39  C   UNL A   1      40.711  28.921  31.258  1.00  0.00     0.074 A 
ATOM     40  C   UNL A   1      40.683  28.471  28.819  1.00  0.00     0.049 A 
ATOM     41  N   UNL A   1      41.856  29.288  31.739  1.00  0.00    -0.248 NA
ATOM     42  C   UNL A   1      39.832  28.274  32.248  1.00  0.00     0.031 C 
ATOM     43  C   UNL A   1      40.072  28.293  27.496  1.00  0.00     0.029 A 
ATOM     44  N   UNL A   1      41.806  27.708  28.739  1.00  0.00    -0.354 N 
ATOM     45  C   UNL A   1      41.913  28.774  33.033  1.00  0.00     0.074 A 
ATOM     46  C   UNL A   1      40.593  28.289  33.343  1.00  0.00     0.031 C 
ATOM     47  C   UNL A   1      40.711  27.304  26.835  1.00  0.00     0.029 A 
ATOM     48  C   UNL A   1      41.863  26.895  27.614  1.00  0.00     0.049 A 
ATOM     49  H   UNL A   1      42.518  27.730  29.419  1.00  0.00     0.167 HD
ATOM     50  C   UNL A   1      43.098  28.574  33.676  1.00  0.00     0.037 A 
ATOM     51  C   UNL A   1      42.771  25.921  27.367  1.00  0.00     0.037 A 
ATOM     52  C   UNL A   1      44.168  29.310  33.063  1.00  0.00     0.049 A 
ATOM     53  C   UNL A   1      43.937  26.177  28.246  1.00  0.00     0.074 A 
ATOM     54  C   UNL A   1      44.426  30.648  32.842  1.00  0.00     0.029 A 
ATOM     55  N   UNL A   1      45.020  28.626  32.233  1.00  0.00    -0.354 N 
ATOM     56  N   UNL A   1      44.731  27.206  28.134  1.00  0.00    -0.248 NA
ATOM     57  C   UNL A   1      43.991  25.482  29.522  1.00  0.00     0.031 C 
ATOM     58  C   UNL A   1      45.055  30.697  31.562  1.00  0.00     0.029 A 
ATOM     59  C   UNL A   1      45.193  29.385  31.104  1.00  0.00     0.049 A 
ATOM     60  H   UNL A   1      45.431  27.751  32.415  1.00  0.00     0.167 HD
ATOM     61  C   UNL A   1      45.056  27.541  29.439  1.00  0.00     0.074 A 
ATOM     62  C   UNL A   1      44.674  26.380  30.235  1.00  0.00     0.031 C 
ATOM     63  C   UNL A   1      45.340  28.832  29.778  1.00  0.00     0.037 A 
BRANCH  50  64
ATOM     64  C   UNL A   1      43.348  27.444  34.642  1.00  0.00     0.064 A 
ATOM     65  C   UNL A   1      43.608  27.719  35.999  1.00  0.00     0.173 A 
ATOM     66  C   UNL A   1      43.617  26.122  34.226  1.00  0.00     0.173 A 
ATOM     67  F   UNL A   1      43.440  28.957  36.488  1.00  0.00    -0.203 F 
ATOM     68  C   UNL A   1      44.127  26.749  36.863  1.00  0.00     0.198 A 
ATOM     69  C   UNL A   1      44.079  25.142  35.102  1.00  0.00     0.198 A 
ATOM     70  F   UNL A   1      43.553  25.761  32.938  1.00  0.00    -0.203 F 
ATOM     71  F   UNL A   1      44.462  27.082  38.116  1.00  0.00    -0.200 F 
ATOM     72  C   UNL A   1      44.358  25.460  36.415  1.00  0.00     0.200 A 
ATOM     73  F   UNL A   1      44.324  23.908  34.640  1.00  0.00    -0.200 F 
ATOM     74  F   UNL A   1      44.896  24.541  37.227  1.00  0.00    -0.200 F 
ENDBRANCH  50  64
BRANCH  51  75
ATOM     75  C   UNL A   1      42.581  24.633  26.660  1.00  0.00     0.064 A 
ATOM     76  C   UNL A   1      43.304  24.343  25.491  1.00  0.00     0.173 A 
ATOM     77  C   UNL A   1      41.916  23.552  27.271  1.00  0.00     0.173 A 
ATOM     78  F   UNL A   1      43.993  25.310  24.869  1.00  0.00    -0.203 F 
ATOM     79  C   UNL A   1      43.394  23.042  24.989  1.00  0.00     0.198 A 
ATOM     80  C   UNL A   1      42.000  22.254  26.762  1.00  0.00     0.198 A 
ATOM     81  F   UNL A   1      41.257  23.712  28.427  1.00  0.00    -0.203 F 
ATOM     82  F   UNL A   1      44.157  22.792  23.915  1.00  0.00    -0.200 F 
ATOM     83  C   UNL A   1      42.754  21.996  25.633  1.00  0.00     0.200 A 
ATOM     84  F   UNL A   1      41.402  21.246  27.414  1.00  0.00    -0.200 F 
ATOM     85  F   UNL A   1      42.898  20.739  25.194  1.00  0.00    -0.200 F 
ENDBRANCH  51  75
BRANCH  63  86
ATOM     86  C   UNL A   1      45.585  29.810  28.661  1.00  0.00     0.064 A 
ATOM     87  C   UNL A   1      44.577  30.574  28.045  1.00  0.00     0.173 A 
ATOM     88  C   UNL A   1      46.910  30.092  28.306  1.00  0.00     0.173 A 
ATOM     89  F   UNL A   1      43.294  30.436  28.396  1.00  0.00    -0.203 F 
ATOM     90  C   UNL A   1      44.883  31.544  27.091  1.00  0.00     0.198 A 
ATOM     91  C   UNL A   1      47.215  31.087  27.381  1.00  0.00     0.198 A 
ATOM     92  F   UNL A   1      47.919  29.434  28.899  1.00  0.00    -0.203 F 
ATOM     93  F   UNL A   1      43.900  32.251  26.511  1.00  0.00    -0.200 F 
ATOM     94  C   UNL A   1      46.202  31.805  26.766  1.00  0.00     0.200 A 
ATOM     95  F   UNL A   1      48.496  31.371  27.107  1.00  0.00    -0.200 F 
ATOM     96  F   UNL A   1      46.500  32.770  25.885  1.00  0.00    -0.200 F 
ENDBRANCH  63  86
ENDBRANCH  37  38
ENDBRANCH  29  32
ENDBRANCH  27  28
ENDBRANCH  26  27
ENDBRANCH   1  26
TORSDOF 14
ENDMDL
MODEL 3
REMARK VINA RESULT:     -13.1      3.018      8.896
REMARK SMILES Cc1cn2c(=O)cc(CSc3ccccc3C(=O)NCCCCNC(=O)c3ccc(-c4c5nc(c(-c6c(F)c(F)c(F)c(F)c6F)c6ccc([nH]6)c(-c6c(F)c(F)c(F)c(F)c6F)c6nc(c(-c7c(F)c(F)c(F)c(F)c7F)c7ccc4[nH]7)C=C6)C=C5)cc3)nc2s1
REMARK SMILES IDX 21 1 20 2 19 3 17 4 18 5 16 7 11 8 12 9 13 10 15 11 14 12
REMARK SMILES IDX 10 13 9 14 8 15 1 16 2 17 3 18 92 19 4 20 91 21 5 22 90 23
REMARK SMILES IDX 6 24 7 25 22 26 23 27 24 28 25 29 26 31 27 32 28 33 89 34
REMARK SMILES IDX 29 35 88 36 30 37 31 38 32 39 82 40 33 41 87 42 81 43 83 44
REMARK SMILES IDX 34 45 86 46 80 47 79 48 35 50 67 51 47 52 66 53 48 54 51 55
REMARK SMILES IDX 65 56 84 57 49 58 50 59 64 61 85 62 52 63 36 64 37 65 45 66
REMARK SMILES IDX 38 67 39 68 43 69 46 70 40 71 41 72 44 73 42 74 68 75 69 76
REMARK SMILES IDX 77 77 70 78 71 79 75 80 78 81 72 82 73 83 76 84 74 85 53 86
REMARK SMILES IDX 54 87 62 88 55 89 56 90 60 91 63 92 57 93 58 94 61 95 59 96
REMARK H PARENT 19 6 24 30 83 49 51 60
REMARK Flexibility Score: inf
ROOT
ATOM      1  C   UNL A   1      34.832  30.267  27.014  1.00  0.00     0.023 C 
ENDROOT
BRANCH   1   2
ATOM      2  C   UNL A   1      34.302  28.843  27.099  1.00  0.00     0.116 C 
BRANCH   2   3
ATOM      3  N   UNL A   1      33.053  28.576  27.746  1.00  0.00    -0.352 N 
ATOM      4  C   UNL A   1      31.882  28.086  27.192  1.00  0.00     0.252 C 
ATOM      5  O   UNL A   1      30.980  27.827  27.996  1.00  0.00    -0.269 OA
ATOM      6  H   UNL A   1      33.022  28.766  28.711  1.00  0.00     0.163 HD
BRANCH   4   7
ATOM      7  C   UNL A   1      31.572  27.945  25.715  1.00  0.00     0.053 A 
ATOM      8  C   UNL A   1      31.348  26.790  24.929  1.00  0.00     0.020 A 
ATOM      9  C   UNL A   1      30.985  26.935  23.566  1.00  0.00     0.016 A 
ATOM     10  C   UNL A   1      30.838  28.184  22.968  1.00  0.00     0.001 A 
ATOM     11  C   UNL A   1      31.398  29.200  25.074  1.00  0.00     0.015 A 
ATOM     12  C   UNL A   1      31.037  29.322  23.728  1.00  0.00     0.001 A 
BRANCH   8  13
ATOM     13  S   UNL A   1      31.313  25.084  25.476  1.00  0.00    -0.119 SA
BRANCH  13  14
ATOM     14  C   UNL A   1      31.523  24.209  23.848  1.00  0.00     0.131 C 
BRANCH  14  15
ATOM     15  C   UNL A   1      32.521  23.095  23.967  1.00  0.00     0.059 A 
ATOM     16  C   UNL A   1      38.150  21.113  25.179  1.00  0.00     0.058 C 
ATOM     17  C   UNL A   1      36.764  21.445  24.769  1.00  0.00     0.022 A 
ATOM     18  C   UNL A   1      35.644  20.752  25.020  1.00  0.00     0.111 A 
ATOM     19  S   UNL A   1      36.426  22.915  23.887  1.00  0.00    -0.102 S 
ATOM     20  N   UNL A   1      34.496  21.387  24.602  1.00  0.00    -0.258 N 
ATOM     21  C   UNL A   1      34.712  22.606  24.007  1.00  0.00     0.197 A 
ATOM     22  C   UNL A   1      33.220  20.911  24.773  1.00  0.00     0.258 A 
ATOM     23  N   UNL A   1      33.808  23.437  23.634  1.00  0.00    -0.224 NA
ATOM     24  O   UNL A   1      32.912  19.809  25.218  1.00  0.00    -0.269 OA
ATOM     25  C   UNL A   1      32.162  21.891  24.443  1.00  0.00     0.097 A 
ENDBRANCH  14  15
ENDBRANCH  13  14
ENDBRANCH   8  13
ENDBRANCH   4   7
ENDBRANCH   2   3
ENDBRANCH   1   2
BRANCH   1  26
ATOM     26  C   UNL A   1      33.975  31.388  27.593  1.00  0.00     0.023 C 
BRANCH  26  27
ATOM     27  C   UNL A   1      34.734  32.584  28.154  1.00  0.00     0.116 C 
BRANCH  27  28
ATOM     28  N   UNL A   1      34.499  32.843  29.571  1.00  0.00    -0.352 N 
ATOM     29  C   UNL A   1      35.173  32.275  30.644  1.00  0.00     0.251 C 
ATOM     30  H   UNL A   1      33.788  33.488  29.789  1.00  0.00     0.163 HD
ATOM     31  O   UNL A   1      34.731  32.320  31.773  1.00  0.00    -0.269 OA
BRANCH  29  32
ATOM     32  C   UNL A   1      36.457  31.599  30.367  1.00  0.00     0.039 A 
ATOM     33  C   UNL A   1      37.616  32.336  30.108  1.00  0.00     0.014 A 
ATOM     34  C   UNL A   1      36.485  30.206  30.416  1.00  0.00     0.014 A 
ATOM     35  C   UNL A   1      38.829  31.663  29.980  1.00  0.00     0.010 A 
ATOM     36  C   UNL A   1      37.692  29.551  30.392  1.00  0.00     0.010 A 
ATOM     37  C   UNL A   1      38.860  30.272  30.139  1.00  0.00    -0.014 A 
BRANCH  37  38
ATOM     38  C   UNL A   1      40.128  29.550  30.134  1.00  0.00     0.031 A 
ATOM     39  C   UNL A   1      40.752  29.324  31.470  1.00  0.00     0.074 A 
ATOM     40  C   UNL A   1      40.557  28.891  29.036  1.00  0.00     0.049 A 
ATOM     41  N   UNL A   1      41.933  29.663  31.878  1.00  0.00    -0.248 NA
ATOM     42  C   UNL A   1      39.926  28.689  32.512  1.00  0.00     0.031 C 
ATOM     43  C   UNL A   1      39.858  28.736  27.754  1.00  0.00     0.029 A 
ATOM     44  N   UNL A   1      41.656  28.106  28.879  1.00  0.00    -0.354 N 
ATOM     45  C   UNL A   1      42.063  29.139  33.163  1.00  0.00     0.074 A 
ATOM     46  C   UNL A   1      40.756  28.680  33.555  1.00  0.00     0.031 C 
ATOM     47  C   UNL A   1      40.431  27.738  27.048  1.00  0.00     0.029 A 
ATOM     48  C   UNL A   1      41.622  27.299  27.748  1.00  0.00     0.049 A 
ATOM     49  H   UNL A   1      42.410  28.108  29.511  1.00  0.00     0.167 HD
ATOM     50  C   UNL A   1      43.283  28.911  33.726  1.00  0.00     0.037 A 
ATOM     51  C   UNL A   1      42.492  26.309  27.437  1.00  0.00     0.037 A 
ATOM     52  C   UNL A   1      44.326  29.628  33.050  1.00  0.00     0.049 A 
ATOM     53  C   UNL A   1      43.717  26.534  28.240  1.00  0.00     0.074 A 
ATOM     54  C   UNL A   1      44.598  30.962  32.819  1.00  0.00     0.029 A 
ATOM     55  N   UNL A   1      45.108  28.932  32.163  1.00  0.00    -0.354 N 
ATOM     56  N   UNL A   1      44.524  27.546  28.083  1.00  0.00    -0.248 NA
ATOM     57  C   UNL A   1      43.839  25.830  29.506  1.00  0.00     0.031 C 
ATOM     58  C   UNL A   1      45.143  31.006  31.502  1.00  0.00     0.029 A 
ATOM     59  C   UNL A   1      45.223  29.695  31.029  1.00  0.00     0.049 A 
ATOM     60  H   UNL A   1      45.511  28.047  32.312  1.00  0.00     0.167 HD
ATOM     61  C   UNL A   1      44.940  27.866  29.366  1.00  0.00     0.074 A 
ATOM     62  C   UNL A   1      44.585  26.708  30.178  1.00  0.00     0.031 C 
ATOM     63  C   UNL A   1      45.272  29.148  29.693  1.00  0.00     0.037 A 
BRANCH  50  64
ATOM     64  C   UNL A   1      43.570  27.769  34.669  1.00  0.00     0.064 A 
ATOM     65  C   UNL A   1      43.431  26.438  34.230  1.00  0.00     0.173 A 
ATOM     66  C   UNL A   1      43.706  27.939  36.064  1.00  0.00     0.173 A 
ATOM     67  F   UNL A   1      43.241  26.165  32.929  1.00  0.00    -0.203 F 
ATOM     68  C   UNL A   1      43.400  25.364  35.126  1.00  0.00     0.198 A 
ATOM     69  C   UNL A   1      43.733  26.864  36.949  1.00  0.00     0.198 A 
ATOM     70  F   UNL A   1      43.702  29.153  36.630  1.00  0.00    -0.203 F 
ATOM     71  F   UNL A   1      43.157  24.126  34.676  1.00  0.00    -0.200 F 
ATOM     72  C   UNL A   1      43.555  25.578  36.484  1.00  0.00     0.200 A 
ATOM     73  F   UNL A   1      43.855  27.096  38.264  1.00  0.00    -0.200 F 
ATOM     74  F   UNL A   1      43.482  24.558  37.348  1.00  0.00    -0.200 F 
ENDBRANCH  50  64
BRANCH  51  75
ATOM     75  C   UNL A   1      42.229  25.030  26.737  1.00  0.00     0.064 A 
ATOM     76  C   UNL A   1      43.019  24.635  25.646  1.00  0.00     0.173 A 
ATOM     77  C   UNL A   1      41.399  24.041  27.301  1.00  0.00     0.173 A 
ATOM     78  F   UNL A   1      43.863  25.506  25.075  1.00  0.00    -0.203 F 
ATOM     79  C   UNL A   1      43.014  23.318  25.175  1.00  0.00     0.198 A 
ATOM     80  C   UNL A   1      41.387  22.730  26.824  1.00  0.00     0.198 A 
ATOM     81  F   UNL A   1      40.658  24.301  28.388  1.00  0.00    -0.203 F 
ATOM     82  F   UNL A   1      43.840  22.960  24.182  1.00  0.00    -0.200 F 
ATOM     83  C   UNL A   1      42.209  22.363  25.774  1.00  0.00     0.200 A 
ATOM     84  F   UNL A   1      40.628  21.808  27.433  1.00  0.00    -0.200 F 
ATOM     85  F   UNL A   1      42.256  21.086  25.371  1.00  0.00    -0.200 F 
ENDBRANCH  51  75
BRANCH  63  86
ATOM     86  C   UNL A   1      45.465  30.129  28.568  1.00  0.00     0.064 A 
ATOM     87  C   UNL A   1      44.438  30.923  28.028  1.00  0.00     0.173 A 
ATOM     88  C   UNL A   1      46.770  30.380  28.123  1.00  0.00     0.173 A 
ATOM     89  F   UNL A   1      43.179  30.816  28.466  1.00  0.00    -0.203 F 
ATOM     90  C   UNL A   1      44.702  31.893  27.061  1.00  0.00     0.198 A 
ATOM     91  C   UNL A   1      47.036  31.374  27.186  1.00  0.00     0.198 A 
ATOM     92  F   UNL A   1      47.799  29.691  28.641  1.00  0.00    -0.203 F 
ATOM     93  F   UNL A   1      43.701  32.629  26.555  1.00  0.00    -0.200 F 
ATOM     94  C   UNL A   1      46.002  32.123  26.648  1.00  0.00     0.200 A 
ATOM     95  F   UNL A   1      48.303  31.627  26.826  1.00  0.00    -0.200 F 
ATOM     96  F   UNL A   1      46.264  33.087  25.754  1.00  0.00    -0.200 F 
ENDBRANCH  63  86
ENDBRANCH  37  38
ENDBRANCH  29  32
ENDBRANCH  27  28
ENDBRANCH  26  27
ENDBRANCH   1  26
TORSDOF 14
ENDMDL
