MODEL 1
REMARK VINA RESULT:     -14.0      0.000      0.000
REMARK SMILES CCN1C(=O)N/C(=C/c2cc(Cl)c(OCc3cccc(C(=O)NCCCCNC(=O)c4ccc(-c5c6nc(c(-c7c(F)c(F)c(F)c(F)c7F)c7ccc([nH]7)c(-c7c(F)c(F)c(F)c(F)c7F)c7nc(c(-c8c(F)c(F)c(F)c(F)c8F)c8ccc5[nH]8)C=C7)C=C6)cc4)c3)c(OC)c2)C1=O
REMARK SMILES IDX 24 1 23 2 21 3 22 4 20 6 16 7 17 8 94 9 18 10 19 11 15 12
REMARK SMILES IDX 14 13 13 14 9 15 10 16 98 17 11 18 95 19 12 20 8 21 3 22
REMARK SMILES IDX 4 23 99 24 5 25 6 26 7 27 100 28 2 30 1 31 96 32 97 33 25 34
REMARK SMILES IDX 26 35 27 36 28 37 29 38 30 40 31 41 32 42 93 43 33 44 92 45
REMARK SMILES IDX 34 46 35 47 36 48 86 49 37 50 91 51 85 52 87 53 38 54 90 55
REMARK SMILES IDX 84 56 83 57 39 59 71 60 51 61 70 62 52 63 55 64 69 65 88 66
REMARK SMILES IDX 53 67 54 68 68 70 89 71 56 72 40 73 41 74 49 75 42 76 43 77
REMARK SMILES IDX 47 78 50 79 44 80 45 81 48 82 46 83 72 84 73 85 81 86 74 87
REMARK SMILES IDX 75 88 79 89 82 90 76 91 77 92 80 93 78 94 57 95 58 96 66 97
REMARK SMILES IDX 59 98 60 99 64 100 67 101 61 102 62 103 65 104 63 105
REMARK H PARENT 23 5 6 29 28 39 87 58 55 69
REMARK Flexibility Score: inf
ROOT
ATOM      1  C   UNL A   1      33.129  29.753  26.685  1.00  0.00     0.116 C 
ENDROOT
BRANCH   1   2
ATOM      2  N   UNL A   1      33.480  29.701  25.277  1.00  0.00    -0.352 N 
ATOM      3  C   UNL A   1      32.894  29.052  24.212  1.00  0.00     0.251 C 
ATOM      4  O   UNL A   1      33.412  29.196  23.103  1.00  0.00    -0.269 OA
ATOM      5  H   UNL A   1      34.279  30.224  25.041  1.00  0.00     0.163 HD
BRANCH   3   6
ATOM      6  C   UNL A   1      31.714  28.147  24.353  1.00  0.00     0.040 A 
ATOM      7  C   UNL A   1      30.634  26.143  25.236  1.00  0.00    -0.010 A 
ATOM      8  C   UNL A   1      29.570  26.348  24.353  1.00  0.00     0.007 A 
ATOM      9  C   UNL A   1      31.620  27.134  25.311  1.00  0.00     0.021 A 
ATOM     10  C   UNL A   1      29.567  27.437  23.482  1.00  0.00     0.001 A 
ATOM     11  C   UNL A   1      30.657  28.307  23.450  1.00  0.00     0.014 A 
BRANCH   7  12
ATOM     12  C   UNL A   1      30.787  24.879  26.061  1.00  0.00     0.265 C 
BRANCH  12  13
ATOM     13  O   UNL A   1      30.683  23.641  25.327  1.00  0.00    -0.483 OA
BRANCH  13  14
ATOM     14  C   UNL A   1      31.723  22.744  25.272  1.00  0.00     0.180 A 
ATOM     15  C   UNL A   1      33.727  20.771  24.888  1.00  0.00    -0.018 A 
ATOM     16  C   UNL A   1      33.336  21.155  26.170  1.00  0.00     0.033 A 
ATOM     17  C   UNL A   1      33.196  21.445  23.791  1.00  0.00     0.058 A 
ATOM     18  C   UNL A   1      32.389  22.169  26.363  1.00  0.00     0.087 A 
ATOM     19  C   UNL A   1      32.213  22.438  23.974  1.00  0.00     0.162 A 
ATOM     20  Cl  UNL A   1      32.305  22.764  27.987  1.00  0.00    -0.080 Cl
BRANCH  15  21
ATOM     21  C   UNL A   1      34.743  19.728  24.734  1.00  0.00     0.040 C 
ATOM     22  N   UNL A   1      33.490  16.373  25.021  1.00  0.00    -0.259 N 
ATOM     23  C   UNL A   1      34.856  16.196  24.969  1.00  0.00     0.328 C 
ATOM     24  C   UNL A   1      33.171  17.711  24.944  1.00  0.00     0.278 C 
ATOM     25  O   UNL A   1      35.499  15.163  25.049  1.00  0.00    -0.248 OA
ATOM     26  N   UNL A   1      35.440  17.445  24.816  1.00  0.00    -0.303 N 
ATOM     27  C   UNL A   1      34.486  18.418  24.811  1.00  0.00     0.109 C 
ATOM     28  O   UNL A   1      32.063  18.221  24.968  1.00  0.00    -0.267 OA
ATOM     29  H   UNL A   1      36.407  17.605  24.724  1.00  0.00     0.172 HD
BRANCH  22  30
ATOM     30  C   UNL A   1      32.457  15.361  25.152  1.00  0.00     0.127 C 
ATOM     31  C   UNL A   1      32.120  14.902  26.558  1.00  0.00     0.028 C 
ENDBRANCH  22  30
ENDBRANCH  15  21
BRANCH  19  32
ATOM     32  O   UNL A   1      31.691  23.150  22.913  1.00  0.00    -0.493 OA
ATOM     33  C   UNL A   1      32.448  24.291  22.496  1.00  0.00     0.278 C 
ENDBRANCH  19  32
ENDBRANCH  13  14
ENDBRANCH  12  13
ENDBRANCH   7  12
ENDBRANCH   3   6
ENDBRANCH   1   2
BRANCH   1  34
ATOM     34  C   UNL A   1      31.819  30.456  26.993  1.00  0.00     0.023 C 
BRANCH  34  35
ATOM     35  C   UNL A   1      31.774  31.944  26.699  1.00  0.00     0.023 C 
BRANCH  35  36
ATOM     36  C   UNL A   1      32.854  32.778  27.370  1.00  0.00     0.116 C 
BRANCH  36  37
ATOM     37  N   UNL A   1      32.444  34.144  27.674  1.00  0.00    -0.352 N 
ATOM     38  C   UNL A   1      32.961  35.020  28.602  1.00  0.00     0.251 C 
ATOM     39  H   UNL A   1      31.690  34.488  27.142  1.00  0.00     0.163 HD
ATOM     40  O   UNL A   1      32.436  36.111  28.796  1.00  0.00    -0.269 OA
BRANCH  38  41
ATOM     41  C   UNL A   1      34.134  34.610  29.397  1.00  0.00     0.039 A 
ATOM     42  C   UNL A   1      33.939  34.134  30.695  1.00  0.00     0.014 A 
ATOM     43  C   UNL A   1      35.412  34.625  28.832  1.00  0.00     0.014 A 
ATOM     44  C   UNL A   1      35.015  33.583  31.392  1.00  0.00     0.010 A 
ATOM     45  C   UNL A   1      36.457  33.985  29.487  1.00  0.00     0.010 A 
ATOM     46  C   UNL A   1      36.270  33.456  30.774  1.00  0.00    -0.014 A 
BRANCH  46  47
ATOM     47  C   UNL A   1      37.400  32.773  31.453  1.00  0.00     0.031 A 
ATOM     48  C   UNL A   1      38.082  31.610  30.786  1.00  0.00     0.074 A 
ATOM     49  C   UNL A   1      37.768  33.155  32.692  1.00  0.00     0.049 A 
ATOM     50  N   UNL A   1      39.040  30.841  31.239  1.00  0.00    -0.248 NA
ATOM     51  C   UNL A   1      37.602  31.240  29.445  1.00  0.00     0.031 C 
ATOM     52  C   UNL A   1      37.150  34.234  33.464  1.00  0.00     0.029 A 
ATOM     53  N   UNL A   1      38.747  32.672  33.525  1.00  0.00    -0.354 N 
ATOM     54  C   UNL A   1      39.265  29.896  30.248  1.00  0.00     0.074 A 
ATOM     55  C   UNL A   1      38.303  30.144  29.198  1.00  0.00     0.031 C 
ATOM     56  C   UNL A   1      37.783  34.352  34.643  1.00  0.00     0.029 A 
ATOM     57  C   UNL A   1      38.821  33.329  34.730  1.00  0.00     0.049 A 
ATOM     58  H   UNL A   1      39.339  31.924  33.283  1.00  0.00     0.167 HD
ATOM     59  C   UNL A   1      40.206  28.923  30.205  1.00  0.00     0.037 A 
ATOM     60  C   UNL A   1      39.628  33.123  35.788  1.00  0.00     0.037 A 
ATOM     61  C   UNL A   1      41.177  28.696  31.243  1.00  0.00     0.049 A 
ATOM     62  C   UNL A   1      40.654  32.022  35.720  1.00  0.00     0.074 A 
ATOM     63  C   UNL A   1      42.214  27.780  31.266  1.00  0.00     0.029 A 
ATOM     64  N   UNL A   1      41.227  29.389  32.444  1.00  0.00    -0.354 N 
ATOM     65  N   UNL A   1      40.911  31.187  34.743  1.00  0.00    -0.248 NA
ATOM     66  C   UNL A   1      41.508  31.839  36.903  1.00  0.00     0.031 C 
ATOM     67  C   UNL A   1      42.851  27.875  32.508  1.00  0.00     0.029 A 
ATOM     68  C   UNL A   1      42.258  28.898  33.229  1.00  0.00     0.049 A 
ATOM     69  H   UNL A   1      40.619  30.120  32.700  1.00  0.00     0.167 HD
ATOM     70  C   UNL A   1      41.975  30.406  35.177  1.00  0.00     0.074 A 
ATOM     71  C   UNL A   1      42.326  30.879  36.499  1.00  0.00     0.031 C 
ATOM     72  C   UNL A   1      42.604  29.390  34.538  1.00  0.00     0.037 A 
BRANCH  59  73
ATOM     73  C   UNL A   1      40.235  28.031  28.998  1.00  0.00     0.064 A 
ATOM     74  C   UNL A   1      40.981  28.357  27.855  1.00  0.00     0.173 A 
ATOM     75  C   UNL A   1      39.544  26.809  29.002  1.00  0.00     0.173 A 
ATOM     76  F   UNL A   1      41.651  29.518  27.794  1.00  0.00    -0.203 F 
ATOM     77  C   UNL A   1      41.013  27.508  26.753  1.00  0.00     0.198 A 
ATOM     78  C   UNL A   1      39.607  25.947  27.911  1.00  0.00     0.198 A 
ATOM     79  F   UNL A   1      38.819  26.445  30.070  1.00  0.00    -0.203 F 
ATOM     80  F   UNL A   1      41.692  27.865  25.653  1.00  0.00    -0.200 F 
ATOM     81  C   UNL A   1      40.334  26.300  26.784  1.00  0.00     0.200 A 
ATOM     82  F   UNL A   1      38.964  24.771  27.951  1.00  0.00    -0.200 F 
ATOM     83  F   UNL A   1      40.377  25.477  25.728  1.00  0.00    -0.200 F 
ENDBRANCH  59  73
BRANCH  60  84
ATOM     84  C   UNL A   1      39.518  33.984  36.997  1.00  0.00     0.064 A 
ATOM     85  C   UNL A   1      38.830  33.541  38.137  1.00  0.00     0.173 A 
ATOM     86  C   UNL A   1      40.068  35.273  37.032  1.00  0.00     0.173 A 
ATOM     87  F   UNL A   1      38.267  32.323  38.147  1.00  0.00    -0.203 F 
ATOM     88  C   UNL A   1      38.670  34.365  39.249  1.00  0.00     0.198 A 
ATOM     89  C   UNL A   1      39.938  36.084  38.159  1.00  0.00     0.198 A 
ATOM     90  F   UNL A   1      40.741  35.746  35.972  1.00  0.00    -0.203 F 
ATOM     91  F   UNL A   1      37.954  33.937  40.299  1.00  0.00    -0.200 F 
ATOM     92  C   UNL A   1      39.227  35.634  39.261  1.00  0.00     0.200 A 
ATOM     93  F   UNL A   1      40.492  37.303  38.172  1.00  0.00    -0.200 F 
ATOM     94  F   UNL A   1      39.071  36.426  40.329  1.00  0.00    -0.200 F 
ENDBRANCH  60  84
BRANCH  72  95
ATOM     95  C   UNL A   1      43.770  28.750  35.237  1.00  0.00     0.064 A 
ATOM     96  C   UNL A   1      45.081  29.225  35.081  1.00  0.00     0.173 A 
ATOM     97  C   UNL A   1      43.565  27.668  36.108  1.00  0.00     0.173 A 
ATOM     98  F   UNL A   1      45.334  30.247  34.249  1.00  0.00    -0.203 F 
ATOM     99  C   UNL A   1      46.144  28.623  35.747  1.00  0.00     0.198 A 
ATOM    100  C   UNL A   1      44.626  27.093  36.801  1.00  0.00     0.198 A 
ATOM    101  F   UNL A   1      42.331  27.180  36.302  1.00  0.00    -0.203 F 
ATOM    102  F   UNL A   1      47.395  29.058  35.539  1.00  0.00    -0.200 F 
ATOM    103  C   UNL A   1      45.915  27.564  36.613  1.00  0.00     0.200 A 
ATOM    104  F   UNL A   1      44.399  26.082  37.652  1.00  0.00    -0.200 F 
ATOM    105  F   UNL A   1      46.940  26.993  37.262  1.00  0.00    -0.200 F 
ENDBRANCH  72  95
ENDBRANCH  46  47
ENDBRANCH  38  41
ENDBRANCH  36  37
ENDBRANCH  35  36
ENDBRANCH  34  35
ENDBRANCH   1  34
TORSDOF 17
ENDMDL
MODEL 2
REMARK VINA RESULT:     -14.0      0.557      6.840
REMARK SMILES CCN1C(=O)N/C(=C/c2cc(Cl)c(OCc3cccc(C(=O)NCCCCNC(=O)c4ccc(-c5c6nc(c(-c7c(F)c(F)c(F)c(F)c7F)c7ccc([nH]7)c(-c7c(F)c(F)c(F)c(F)c7F)c7nc(c(-c8c(F)c(F)c(F)c(F)c8F)c8ccc5[nH]8)C=C7)C=C6)cc4)c3)c(OC)c2)C1=O
REMARK SMILES IDX 24 1 23 2 21 3 22 4 20 6 16 7 17 8 94 9 18 10 19 11 15 12
REMARK SMILES IDX 14 13 13 14 9 15 10 16 98 17 11 18 95 19 12 20 8 21 3 22
REMARK SMILES IDX 4 23 99 24 5 25 6 26 7 27 100 28 2 30 1 31 96 32 97 33 25 34
REMARK SMILES IDX 26 35 27 36 28 37 29 38 30 40 31 41 32 42 93 43 33 44 92 45
REMARK SMILES IDX 34 46 35 47 36 48 86 49 37 50 91 51 85 52 87 53 38 54 90 55
REMARK SMILES IDX 84 56 83 57 39 59 71 60 51 61 70 62 52 63 55 64 69 65 88 66
REMARK SMILES IDX 53 67 54 68 68 70 89 71 56 72 40 73 41 74 49 75 42 76 43 77
REMARK SMILES IDX 47 78 50 79 44 80 45 81 48 82 46 83 72 84 73 85 81 86 74 87
REMARK SMILES IDX 75 88 79 89 82 90 76 91 77 92 80 93 78 94 57 95 58 96 66 97
REMARK SMILES IDX 59 98 60 99 64 100 67 101 61 102 62 103 65 104 63 105
REMARK H PARENT 23 5 6 29 28 39 87 58 55 69
REMARK Flexibility Score: inf
ROOT
ATOM      1  C   UNL A   1      32.998  29.918  26.568  1.00  0.00     0.116 C 
ENDROOT
BRANCH   1   2
ATOM      2  N   UNL A   1      33.413  29.751  25.187  1.00  0.00    -0.352 N 
ATOM      3  C   UNL A   1      32.865  29.029  24.150  1.00  0.00     0.251 C 
ATOM      4  O   UNL A   1      33.436  29.077  23.059  1.00  0.00    -0.269 OA
ATOM      5  H   UNL A   1      34.232  30.242  24.950  1.00  0.00     0.163 HD
BRANCH   3   6
ATOM      6  C   UNL A   1      31.663  28.155  24.304  1.00  0.00     0.040 A 
ATOM      7  C   UNL A   1      30.554  26.155  25.159  1.00  0.00    -0.010 A 
ATOM      8  C   UNL A   1      29.465  26.423  24.324  1.00  0.00     0.007 A 
ATOM      9  C   UNL A   1      31.573  27.113  25.230  1.00  0.00     0.021 A 
ATOM     10  C   UNL A   1      29.465  27.541  23.491  1.00  0.00     0.001 A 
ATOM     11  C   UNL A   1      30.579  28.378  23.448  1.00  0.00     0.014 A 
BRANCH   7  12
ATOM     12  C   UNL A   1      30.697  24.859  25.934  1.00  0.00     0.265 C 
BRANCH  12  13
ATOM     13  O   UNL A   1      30.659  23.653  25.143  1.00  0.00    -0.483 OA
BRANCH  13  14
ATOM     14  C   UNL A   1      31.706  22.761  25.136  1.00  0.00     0.180 A 
ATOM     15  C   UNL A   1      33.732  20.795  24.846  1.00  0.00    -0.018 A 
ATOM     16  C   UNL A   1      33.287  21.184  26.108  1.00  0.00     0.033 A 
ATOM     17  C   UNL A   1      33.243  21.460  23.725  1.00  0.00     0.058 A 
ATOM     18  C   UNL A   1      32.329  22.196  26.256  1.00  0.00     0.087 A 
ATOM     19  C   UNL A   1      32.249  22.450  23.861  1.00  0.00     0.162 A 
ATOM     20  Cl  UNL A   1      32.176  22.800  27.872  1.00  0.00    -0.080 Cl
BRANCH  15  21
ATOM     21  C   UNL A   1      34.758  19.756  24.740  1.00  0.00     0.040 C 
ATOM     22  N   UNL A   1      33.512  16.397  25.020  1.00  0.00    -0.259 N 
ATOM     23  C   UNL A   1      34.880  16.228  25.019  1.00  0.00     0.328 C 
ATOM     24  C   UNL A   1      33.190  17.733  24.917  1.00  0.00     0.278 C 
ATOM     25  O   UNL A   1      35.526  15.199  25.133  1.00  0.00    -0.248 OA
ATOM     26  N   UNL A   1      35.463  17.477  24.873  1.00  0.00    -0.303 N 
ATOM     27  C   UNL A   1      34.505  18.445  24.823  1.00  0.00     0.109 C 
ATOM     28  O   UNL A   1      32.079  18.237  24.895  1.00  0.00    -0.267 OA
ATOM     29  H   UNL A   1      36.432  17.642  24.813  1.00  0.00     0.172 HD
BRANCH  22  30
ATOM     30  C   UNL A   1      32.480  15.381  25.126  1.00  0.00     0.127 C 
ATOM     31  C   UNL A   1      32.162  14.868  26.517  1.00  0.00     0.028 C 
ENDBRANCH  22  30
ENDBRANCH  15  21
BRANCH  19  32
ATOM     32  O   UNL A   1      31.768  23.153  22.774  1.00  0.00    -0.493 OA
ATOM     33  C   UNL A   1      32.544  24.285  22.373  1.00  0.00     0.278 C 
ENDBRANCH  19  32
ENDBRANCH  13  14
ENDBRANCH  12  13
ENDBRANCH   7  12
ENDBRANCH   3   6
ENDBRANCH   1   2
BRANCH   1  34
ATOM     34  C   UNL A   1      31.641  30.575  26.755  1.00  0.00     0.023 C 
BRANCH  34  35
ATOM     35  C   UNL A   1      31.605  32.086  26.615  1.00  0.00     0.023 C 
BRANCH  35  36
ATOM     36  C   UNL A   1      32.745  32.834  27.288  1.00  0.00     0.116 C 
BRANCH  36  37
ATOM     37  N   UNL A   1      32.412  34.200  27.672  1.00  0.00    -0.352 N 
ATOM     38  C   UNL A   1      32.992  34.999  28.631  1.00  0.00     0.251 C 
ATOM     39  H   UNL A   1      31.666  34.608  27.176  1.00  0.00     0.163 HD
ATOM     40  O   UNL A   1      32.527  36.103  28.894  1.00  0.00    -0.269 OA
BRANCH  38  41
ATOM     41  C   UNL A   1      34.159  34.490  29.377  1.00  0.00     0.039 A 
ATOM     42  C   UNL A   1      33.949  33.800  30.573  1.00  0.00     0.014 A 
ATOM     43  C   UNL A   1      35.447  34.627  28.854  1.00  0.00     0.014 A 
ATOM     44  C   UNL A   1      35.025  33.166  31.195  1.00  0.00     0.010 A 
ATOM     45  C   UNL A   1      36.494  33.912  29.420  1.00  0.00     0.010 A 
ATOM     46  C   UNL A   1      36.296  33.173  30.597  1.00  0.00    -0.014 A 
BRANCH  46  47
ATOM     47  C   UNL A   1      37.429  32.412  31.181  1.00  0.00     0.031 A 
ATOM     48  C   UNL A   1      37.944  32.766  32.548  1.00  0.00     0.074 A 
ATOM     49  C   UNL A   1      38.034  31.449  30.457  1.00  0.00     0.049 A 
ATOM     50  N   UNL A   1      38.961  32.267  33.205  1.00  0.00    -0.248 NA
ATOM     51  C   UNL A   1      37.244  33.846  33.262  1.00  0.00     0.031 C 
ATOM     52  C   UNL A   1      37.660  31.049  29.099  1.00  0.00     0.029 A 
ATOM     53  N   UNL A   1      39.099  30.636  30.758  1.00  0.00    -0.354 N 
ATOM     54  C   UNL A   1      39.027  32.980  34.394  1.00  0.00     0.074 A 
ATOM     55  C   UNL A   1      37.992  33.987  34.344  1.00  0.00     0.031 C 
ATOM     56  C   UNL A   1      38.461  30.048  28.697  1.00  0.00     0.029 A 
ATOM     57  C   UNL A   1      39.433  29.766  29.749  1.00  0.00     0.049 A 
ATOM     58  H   UNL A   1      39.579  30.675  31.616  1.00  0.00     0.167 HD
ATOM     59  C   UNL A   1      39.861  32.794  35.445  1.00  0.00     0.037 A 
ATOM     60  C   UNL A   1      40.418  28.850  29.677  1.00  0.00     0.037 A 
ATOM     61  C   UNL A   1      40.875  31.774  35.499  1.00  0.00     0.049 A 
ATOM     62  C   UNL A   1      41.343  28.678  30.854  1.00  0.00     0.074 A 
ATOM     63  C   UNL A   1      41.726  31.460  36.544  1.00  0.00     0.029 A 
ATOM     64  N   UNL A   1      41.176  30.904  34.461  1.00  0.00    -0.354 N 
ATOM     65  N   UNL A   1      41.343  29.303  32.006  1.00  0.00    -0.248 NA
ATOM     66  C   UNL A   1      42.401  27.666  30.721  1.00  0.00     0.031 C 
ATOM     67  C   UNL A   1      42.585  30.444  36.115  1.00  0.00     0.029 A 
ATOM     68  C   UNL A   1      42.223  30.075  34.830  1.00  0.00     0.049 A 
ATOM     69  H   UNL A   1      40.715  30.880  33.591  1.00  0.00     0.167 HD
ATOM     70  C   UNL A   1      42.374  28.737  32.747  1.00  0.00     0.074 A 
ATOM     71  C   UNL A   1      42.965  27.708  31.920  1.00  0.00     0.031 C 
ATOM     72  C   UNL A   1      42.792  29.044  33.999  1.00  0.00     0.037 A 
BRANCH  59  73
ATOM     73  C   UNL A   1      39.713  33.712  36.625  1.00  0.00     0.064 A 
ATOM     74  C   UNL A   1      40.366  34.953  36.683  1.00  0.00     0.173 A 
ATOM     75  C   UNL A   1      38.868  33.366  37.690  1.00  0.00     0.173 A 
ATOM     76  F   UNL A   1      41.195  35.326  35.696  1.00  0.00    -0.203 F 
ATOM     77  C   UNL A   1      40.201  35.800  37.774  1.00  0.00     0.198 A 
ATOM     78  C   UNL A   1      38.678  34.232  38.764  1.00  0.00     0.198 A 
ATOM     79  F   UNL A   1      38.214  32.195  37.685  1.00  0.00    -0.203 F 
ATOM     80  F   UNL A   1      40.875  36.957  37.830  1.00  0.00    -0.200 F 
ATOM     81  C   UNL A   1      39.351  35.444  38.810  1.00  0.00     0.200 A 
ATOM     82  F   UNL A   1      37.842  33.894  39.756  1.00  0.00    -0.200 F 
ATOM     83  F   UNL A   1      39.182  36.267  39.854  1.00  0.00    -0.200 F 
ENDBRANCH  59  73
BRANCH  60  84
ATOM     84  C   UNL A   1      40.577  28.010  28.459  1.00  0.00     0.064 A 
ATOM     85  C   UNL A   1      39.980  26.744  28.373  1.00  0.00     0.173 A 
ATOM     86  C   UNL A   1      41.351  28.437  27.369  1.00  0.00     0.173 A 
ATOM     87  F   UNL A   1      39.247  26.280  29.397  1.00  0.00    -0.203 F 
ATOM     88  C   UNL A   1      40.175  25.926  27.262  1.00  0.00     0.198 A 
ATOM     89  C   UNL A   1      41.518  27.632  26.243  1.00  0.00     0.198 A 
ATOM     90  F   UNL A   1      41.941  29.641  27.395  1.00  0.00    -0.203 F 
ATOM     91  F   UNL A   1      39.642  24.696  27.236  1.00  0.00    -0.200 F 
ATOM     92  C   UNL A   1      40.941  26.373  26.196  1.00  0.00     0.200 A 
ATOM     93  F   UNL A   1      42.244  28.075  25.208  1.00  0.00    -0.200 F 
ATOM     94  F   UNL A   1      41.130  25.586  25.129  1.00  0.00    -0.200 F 
ENDBRANCH  60  84
BRANCH  72  95
ATOM     95  C   UNL A   1      43.912  28.225  34.574  1.00  0.00     0.064 A 
ATOM     96  C   UNL A   1      45.251  28.632  34.485  1.00  0.00     0.173 A 
ATOM     97  C   UNL A   1      43.635  27.032  35.262  1.00  0.00     0.173 A 
ATOM     98  F   UNL A   1      45.573  29.757  33.828  1.00  0.00    -0.203 F 
ATOM     99  C   UNL A   1      46.272  27.862  35.036  1.00  0.00     0.198 A 
ATOM    100  C   UNL A   1      44.654  26.284  35.843  1.00  0.00     0.198 A 
ATOM    101  F   UNL A   1      42.371  26.600  35.385  1.00  0.00    -0.203 F 
ATOM    102  F   UNL A   1      47.549  28.243  34.890  1.00  0.00    -0.200 F 
ATOM    103  C   UNL A   1      45.972  26.694  35.721  1.00  0.00     0.200 A 
ATOM    104  F   UNL A   1      44.359  25.166  36.521  1.00  0.00    -0.200 F 
ATOM    105  F   UNL A   1      46.956  25.960  36.260  1.00  0.00    -0.200 F 
ENDBRANCH  72  95
ENDBRANCH  46  47
ENDBRANCH  38  41
ENDBRANCH  36  37
ENDBRANCH  35  36
ENDBRANCH  34  35
ENDBRANCH   1  34
TORSDOF 17
ENDMDL
MODEL 3
REMARK VINA RESULT:     -13.6      1.452      7.254
REMARK SMILES CCN1C(=O)N/C(=C/c2cc(Cl)c(OCc3cccc(C(=O)NCCCCNC(=O)c4ccc(-c5c6nc(c(-c7c(F)c(F)c(F)c(F)c7F)c7ccc([nH]7)c(-c7c(F)c(F)c(F)c(F)c7F)c7nc(c(-c8c(F)c(F)c(F)c(F)c8F)c8ccc5[nH]8)C=C7)C=C6)cc4)c3)c(OC)c2)C1=O
REMARK SMILES IDX 24 1 23 2 21 3 22 4 20 6 16 7 17 8 94 9 18 10 19 11 15 12
REMARK SMILES IDX 14 13 13 14 9 15 10 16 98 17 11 18 95 19 12 20 8 21 3 22
REMARK SMILES IDX 4 23 99 24 5 25 6 26 7 27 100 28 2 30 1 31 96 32 97 33 25 34
REMARK SMILES IDX 26 35 27 36 28 37 29 38 30 40 31 41 32 42 93 43 33 44 92 45
REMARK SMILES IDX 34 46 35 47 36 48 86 49 37 50 91 51 85 52 87 53 38 54 90 55
REMARK SMILES IDX 84 56 83 57 39 59 71 60 51 61 70 62 52 63 55 64 69 65 88 66
REMARK SMILES IDX 53 67 54 68 68 70 89 71 56 72 40 73 41 74 49 75 42 76 43 77
REMARK SMILES IDX 47 78 50 79 44 80 45 81 48 82 46 83 72 84 73 85 81 86 74 87
REMARK SMILES IDX 75 88 79 89 82 90 76 91 77 92 80 93 78 94 57 95 58 96 66 97
REMARK SMILES IDX 59 98 60 99 64 100 67 101 61 102 62 103 65 104 63 105
REMARK H PARENT 23 5 6 29 28 39 87 58 55 69
REMARK Flexibility Score: inf
ROOT
ATOM      1  C   UNL A   1      32.949  29.839  26.701  1.00  0.00     0.116 C 
ENDROOT
BRANCH   1   2
ATOM      2  N   UNL A   1      33.516  29.764  25.367  1.00  0.00    -0.352 N 
ATOM      3  C   UNL A   1      33.010  29.266  24.186  1.00  0.00     0.251 C 
ATOM      4  O   UNL A   1      33.723  29.343  23.184  1.00  0.00    -0.269 OA
ATOM      5  H   UNL A   1      34.424  30.135  25.292  1.00  0.00     0.163 HD
BRANCH   3   6
ATOM      6  C   UNL A   1      31.680  28.593  24.083  1.00  0.00     0.040 A 
ATOM      7  C   UNL A   1      30.199  26.688  24.457  1.00  0.00    -0.010 A 
ATOM      8  C   UNL A   1      29.255  27.278  23.612  1.00  0.00     0.007 A 
ATOM      9  C   UNL A   1      31.339  27.434  24.783  1.00  0.00     0.021 A 
ATOM     10  C   UNL A   1      29.509  28.510  23.010  1.00  0.00     0.001 A 
ATOM     11  C   UNL A   1      30.736  29.142  23.208  1.00  0.00     0.014 A 
BRANCH   7  12
ATOM     12  C   UNL A   1      30.065  25.270  24.979  1.00  0.00     0.265 C 
BRANCH  12  13
ATOM     13  O   UNL A   1      30.366  24.226  24.029  1.00  0.00    -0.483 OA
BRANCH  13  14
ATOM     14  C   UNL A   1      31.311  23.263  24.290  1.00  0.00     0.180 A 
ATOM     15  C   UNL A   1      33.254  21.205  24.507  1.00  0.00    -0.018 A 
ATOM     16  C   UNL A   1      32.329  21.426  25.525  1.00  0.00     0.033 A 
ATOM     17  C   UNL A   1      33.282  22.077  23.421  1.00  0.00     0.058 A 
ATOM     18  C   UNL A   1      31.406  22.478  25.447  1.00  0.00     0.087 A 
ATOM     19  C   UNL A   1      32.332  23.112  23.314  1.00  0.00     0.162 A 
ATOM     20  Cl  UNL A   1      30.602  22.831  26.940  1.00  0.00    -0.080 Cl
BRANCH  15  21
ATOM     21  C   UNL A   1      34.221  20.114  24.645  1.00  0.00     0.040 C 
ATOM     22  N   UNL A   1      37.574  21.180  25.375  1.00  0.00    -0.259 N 
ATOM     23  C   UNL A   1      37.714  19.827  25.151  1.00  0.00     0.328 C 
ATOM     24  C   UNL A   1      36.257  21.560  25.235  1.00  0.00     0.278 C 
ATOM     25  O   UNL A   1      38.729  19.151  25.150  1.00  0.00    -0.248 OA
ATOM     26  N   UNL A   1      36.455  19.306  24.897  1.00  0.00    -0.303 N 
ATOM     27  C   UNL A   1      35.519  20.296  24.910  1.00  0.00     0.109 C 
ATOM     28  O   UNL A   1      35.782  22.677  25.356  1.00  0.00    -0.267 OA
ATOM     29  H   UNL A   1      36.263  18.354  24.729  1.00  0.00     0.172 HD
BRANCH  22  30
ATOM     30  C   UNL A   1      38.605  22.148  25.702  1.00  0.00     0.127 C 
ATOM     31  C   UNL A   1      39.720  21.682  26.619  1.00  0.00     0.028 C 
ENDBRANCH  22  30
ENDBRANCH  15  21
BRANCH  19  32
ATOM     32  O   UNL A   1      32.353  24.014  22.270  1.00  0.00    -0.493 OA
ATOM     33  C   UNL A   1      33.210  25.147  22.443  1.00  0.00     0.278 C 
ENDBRANCH  19  32
ENDBRANCH  13  14
ENDBRANCH  12  13
ENDBRANCH   7  12
ENDBRANCH   3   6
ENDBRANCH   1   2
BRANCH   1  34
ATOM     34  C   UNL A   1      31.642  30.608  26.800  1.00  0.00     0.023 C 
BRANCH  34  35
ATOM     35  C   UNL A   1      31.723  32.100  26.540  1.00  0.00     0.023 C 
BRANCH  35  36
ATOM     36  C   UNL A   1      32.815  32.840  27.299  1.00  0.00     0.116 C 
BRANCH  36  37
ATOM     37  N   UNL A   1      32.446  34.193  27.697  1.00  0.00    -0.352 N 
ATOM     38  C   UNL A   1      32.999  34.993  28.671  1.00  0.00     0.251 C 
ATOM     39  H   UNL A   1      31.695  34.590  27.199  1.00  0.00     0.163 HD
ATOM     40  O   UNL A   1      32.506  36.082  28.944  1.00  0.00    -0.269 OA
BRANCH  38  41
ATOM     41  C   UNL A   1      34.170  34.501  29.421  1.00  0.00     0.039 A 
ATOM     42  C   UNL A   1      33.970  33.859  30.645  1.00  0.00     0.014 A 
ATOM     43  C   UNL A   1      35.453  34.607  28.878  1.00  0.00     0.014 A 
ATOM     44  C   UNL A   1      35.047  33.239  31.277  1.00  0.00     0.010 A 
ATOM     45  C   UNL A   1      36.501  33.903  29.458  1.00  0.00     0.010 A 
ATOM     46  C   UNL A   1      36.311  33.211  30.664  1.00  0.00    -0.014 A 
BRANCH  46  47
ATOM     47  C   UNL A   1      37.444  32.462  31.262  1.00  0.00     0.031 A 
ATOM     48  C   UNL A   1      37.946  32.829  32.631  1.00  0.00     0.074 A 
ATOM     49  C   UNL A   1      38.062  31.499  30.550  1.00  0.00     0.049 A 
ATOM     50  N   UNL A   1      38.961  32.342  33.300  1.00  0.00    -0.248 NA
ATOM     51  C   UNL A   1      37.232  33.909  33.332  1.00  0.00     0.031 C 
ATOM     52  C   UNL A   1      37.703  31.087  29.192  1.00  0.00     0.029 A 
ATOM     53  N   UNL A   1      39.131  30.696  30.865  1.00  0.00    -0.354 N 
ATOM     54  C   UNL A   1      39.012  33.063  34.485  1.00  0.00     0.074 A 
ATOM     55  C   UNL A   1      37.970  34.063  34.420  1.00  0.00     0.031 C 
ATOM     56  C   UNL A   1      38.514  30.089  28.804  1.00  0.00     0.029 A 
ATOM     57  C   UNL A   1      39.479  29.821  29.865  1.00  0.00     0.049 A 
ATOM     58  H   UNL A   1      39.603  30.744  31.728  1.00  0.00     0.167 HD
ATOM     59  C   UNL A   1      39.839  32.890  35.544  1.00  0.00     0.037 A 
ATOM     60  C   UNL A   1      40.471  28.912  29.807  1.00  0.00     0.037 A 
ATOM     61  C   UNL A   1      40.859  31.878  35.613  1.00  0.00     0.049 A 
ATOM     62  C   UNL A   1      41.387  28.754  30.993  1.00  0.00     0.074 A 
ATOM     63  C   UNL A   1      41.704  31.578  36.667  1.00  0.00     0.029 A 
ATOM     64  N   UNL A   1      41.175  31.003  34.584  1.00  0.00    -0.354 N 
ATOM     65  N   UNL A   1      41.374  29.387  32.141  1.00  0.00    -0.248 NA
ATOM     66  C   UNL A   1      42.453  27.749  30.876  1.00  0.00     0.031 C 
ATOM     67  C   UNL A   1      42.574  30.564  36.252  1.00  0.00     0.029 A 
ATOM     68  C   UNL A   1      42.225  30.184  34.966  1.00  0.00     0.049 A 
ATOM     69  H   UNL A   1      40.721  30.970  33.710  1.00  0.00     0.167 HD
ATOM     70  C   UNL A   1      42.402  28.834  32.894  1.00  0.00     0.074 A 
ATOM     71  C   UNL A   1      43.007  27.803  32.079  1.00  0.00     0.031 C 
ATOM     72  C   UNL A   1      42.808  29.152  34.148  1.00  0.00     0.037 A 
BRANCH  59  73
ATOM     73  C   UNL A   1      39.674  33.815  36.716  1.00  0.00     0.064 A 
ATOM     74  C   UNL A   1      40.279  35.081  36.749  1.00  0.00     0.173 A 
ATOM     75  C   UNL A   1      38.862  33.449  37.799  1.00  0.00     0.173 A 
ATOM     76  F   UNL A   1      41.075  35.476  35.744  1.00  0.00    -0.203 F 
ATOM     77  C   UNL A   1      40.099  35.933  37.834  1.00  0.00     0.198 A 
ATOM     78  C   UNL A   1      38.656  34.319  38.867  1.00  0.00     0.198 A 
ATOM     79  F   UNL A   1      38.255  32.253  37.818  1.00  0.00    -0.203 F 
ATOM     80  F   UNL A   1      40.728  37.117  37.866  1.00  0.00    -0.200 F 
ATOM     81  C   UNL A   1      39.281  35.557  38.888  1.00  0.00     0.200 A 
ATOM     82  F   UNL A   1      37.850  33.959  39.877  1.00  0.00    -0.200 F 
ATOM     83  F   UNL A   1      39.097  36.384  39.926  1.00  0.00    -0.200 F 
ENDBRANCH  59  73
BRANCH  60  84
ATOM     84  C   UNL A   1      40.646  28.065  28.596  1.00  0.00     0.064 A 
ATOM     85  C   UNL A   1      41.429  28.502  27.518  1.00  0.00     0.173 A 
ATOM     86  C   UNL A   1      40.014  26.818  28.476  1.00  0.00     0.173 A 
ATOM     87  F   UNL A   1      42.038  29.697  27.574  1.00  0.00    -0.203 F 
ATOM     88  C   UNL A   1      41.547  27.742  26.355  1.00  0.00     0.198 A 
ATOM     89  C   UNL A   1      40.161  26.043  27.326  1.00  0.00     0.198 A 
ATOM     90  F   UNL A   1      39.258  26.348  29.479  1.00  0.00    -0.203 F 
ATOM     91  F   UNL A   1      42.251  28.215  25.317  1.00  0.00    -0.200 F 
ATOM     92  C   UNL A   1      40.916  26.511  26.263  1.00  0.00     0.200 A 
ATOM     93  F   UNL A   1      39.564  24.847  27.248  1.00  0.00    -0.200 F 
ATOM     94  F   UNL A   1      41.028  25.782  25.145  1.00  0.00    -0.200 F 
ENDBRANCH  60  84
BRANCH  72  95
ATOM     95  C   UNL A   1      43.929  28.344  34.738  1.00  0.00     0.064 A 
ATOM     96  C   UNL A   1      43.695  27.163  35.457  1.00  0.00     0.173 A 
ATOM     97  C   UNL A   1      45.263  28.740  34.543  1.00  0.00     0.173 A 
ATOM     98  F   UNL A   1      42.439  26.748  35.683  1.00  0.00    -0.203 F 
ATOM     99  C   UNL A   1      44.750  26.426  35.985  1.00  0.00     0.198 A 
ATOM    100  C   UNL A   1      46.316  27.980  35.041  1.00  0.00     0.198 A 
ATOM    101  F   UNL A   1      45.544  29.856  33.855  1.00  0.00    -0.203 F 
ATOM    102  F   UNL A   1      44.500  25.331  36.717  1.00  0.00    -0.200 F 
ATOM    103  C   UNL A   1      46.060  26.829  35.769  1.00  0.00     0.200 A 
ATOM    104  F   UNL A   1      47.581  28.361  34.814  1.00  0.00    -0.200 F 
ATOM    105  F   UNL A   1      47.075  26.111  36.270  1.00  0.00    -0.200 F 
ENDBRANCH  72  95
ENDBRANCH  46  47
ENDBRANCH  38  41
ENDBRANCH  36  37
ENDBRANCH  35  36
ENDBRANCH  34  35
ENDBRANCH   1  34
TORSDOF 17
ENDMDL
