MODEL 1
REMARK VINA RESULT:     -12.4      0.000      0.000
REMARK SMILES CCC(CC)COc1cc2c(cc1Cl)C=C(C(=O)NCCCCNC(=O)c1ccc(-c3c4nc(c(-c5c(F)c(F)c(F)c(F)c5F)c5ccc([nH]5)c(-c5c(F)c(F)c(F)c(F)c5F)c5nc(c(-c6c(F)c(F)c(F)c(F)c6F)c6ccc3[nH]6)C=C5)C=C4)cc1)[C@@H](C(F)(F)F)O2
REMARK SMILES IDX 20 1 19 2 17 3 18 4 16 6 8 7 9 8 13 9 10 10 12 11 14 12
REMARK SMILES IDX 11 13 95 14 15 15 90 16 7 17 6 18 3 19 2 20 1 21 4 22 5 23
REMARK SMILES IDX 91 24 92 25 93 26 94 27 21 28 22 29 23 30 24 31 25 32 26 34
REMARK SMILES IDX 27 35 28 36 89 37 29 38 88 39 30 40 31 41 32 42 82 43 33 44
REMARK SMILES IDX 87 45 81 46 83 47 34 48 86 49 80 50 79 51 35 53 67 54 47 55
REMARK SMILES IDX 66 56 48 57 51 58 65 59 84 60 49 61 50 62 64 64 85 65 52 66
REMARK SMILES IDX 36 67 37 68 45 69 38 70 39 71 43 72 46 73 40 74 41 75 44 76
REMARK SMILES IDX 42 77 68 78 69 79 77 80 70 81 71 82 75 83 78 84 72 85 73 86
REMARK SMILES IDX 76 87 74 88 53 89 54 90 62 91 55 92 56 93 60 94 63 95 57 96
REMARK SMILES IDX 58 97 61 98 59 99
REMARK H PARENT 19 5 24 33 83 52 51 63
REMARK Flexibility Score: inf
ROOT
ATOM      1  C   UNL A   1      36.090  21.505  24.865  1.00  0.00     0.116 C 
ENDROOT
BRANCH   1   2
ATOM      2  N   UNL A   1      35.389  21.654  26.125  1.00  0.00    -0.352 N 
ATOM      3  C   UNL A   1      34.391  22.439  26.594  1.00  0.00     0.251 C 
ATOM      4  O   UNL A   1      34.041  22.213  27.756  1.00  0.00    -0.270 OA
ATOM      5  H   UNL A   1      35.720  21.029  26.809  1.00  0.00     0.163 HD
BRANCH   3   6
ATOM      6  C   UNL A   1      33.729  23.525  25.824  1.00  0.00     0.067 C 
ATOM      7  C   UNL A   1      32.570  27.944  23.781  1.00  0.00     0.141 A 
ATOM      8  C   UNL A   1      32.650  26.650  23.266  1.00  0.00     0.095 A 
ATOM      9  C   UNL A   1      32.791  28.174  25.148  1.00  0.00     0.083 A 
ATOM     10  C   UNL A   1      33.044  25.618  24.109  1.00  0.00     0.131 A 
ATOM     11  C   UNL A   1      33.287  27.151  25.958  1.00  0.00     0.036 A 
ATOM     12  Cl  UNL A   1      32.498  29.711  25.876  1.00  0.00    -0.080 Cl
ATOM     13  C   UNL A   1      33.439  25.873  25.429  1.00  0.00     0.019 A 
ATOM     14  O   UNL A   1      33.021  24.340  23.610  1.00  0.00    -0.475 OA
ATOM     15  C   UNL A   1      34.013  24.782  26.209  1.00  0.00     0.025 C 
ATOM     16  C   UNL A   1      32.816  23.328  24.645  1.00  0.00     0.314 C 
BRANCH   7  17
ATOM     17  O   UNL A   1      32.246  28.980  22.947  1.00  0.00    -0.492 OA
BRANCH  17  18
ATOM     18  C   UNL A   1      30.947  28.811  22.331  1.00  0.00     0.233 C 
BRANCH  18  19
ATOM     19  C   UNL A   1      29.806  28.915  23.371  1.00  0.00     0.026 C 
BRANCH  19  20
ATOM     20  C   UNL A   1      29.075  30.274  23.271  1.00  0.00     0.003 C 
ATOM     21  C   UNL A   1      27.875  30.231  22.336  1.00  0.00     0.004 C 
ENDBRANCH  19  20
BRANCH  19  22
ATOM     22  C   UNL A   1      28.836  27.717  23.285  1.00  0.00     0.003 C 
ATOM     23  C   UNL A   1      29.200  26.512  24.138  1.00  0.00     0.004 C 
ENDBRANCH  19  22
ENDBRANCH  18  19
ENDBRANCH  17  18
ENDBRANCH   7  17
BRANCH  16  24
ATOM     24  C   UNL A   1      31.326  23.258  25.067  1.00  0.00     0.429 C 
ATOM     25  F   UNL A   1      30.520  23.538  24.014  1.00  0.00    -0.167 F 
ATOM     26  F   UNL A   1      30.977  22.021  25.501  1.00  0.00    -0.167 F 
ATOM     27  F   UNL A   1      31.004  24.114  26.061  1.00  0.00    -0.167 F 
ENDBRANCH  16  24
ENDBRANCH   3   6
ENDBRANCH   1   2
BRANCH   1  28
ATOM     28  C   UNL A   1      37.594  21.686  25.035  1.00  0.00     0.023 C 
BRANCH  28  29
ATOM     29  C   UNL A   1      38.378  20.376  25.088  1.00  0.00     0.023 C 
BRANCH  29  30
ATOM     30  C   UNL A   1      39.601  20.396  25.997  1.00  0.00     0.116 C 
BRANCH  30  31
ATOM     31  N   UNL A   1      40.432  19.200  25.911  1.00  0.00    -0.352 N 
ATOM     32  C   UNL A   1      41.792  19.117  26.107  1.00  0.00     0.251 C 
ATOM     33  H   UNL A   1      39.968  18.361  25.689  1.00  0.00     0.163 HD
ATOM     34  O   UNL A   1      42.401  18.066  25.955  1.00  0.00    -0.269 OA
BRANCH  32  35
ATOM     35  C   UNL A   1      42.505  20.360  26.451  1.00  0.00     0.039 A 
ATOM     36  C   UNL A   1      42.434  20.850  27.757  1.00  0.00     0.014 A 
ATOM     37  C   UNL A   1      43.091  21.107  25.428  1.00  0.00     0.014 A 
ATOM     38  C   UNL A   1      42.800  22.165  28.004  1.00  0.00     0.010 A 
ATOM     39  C   UNL A   1      43.528  22.404  25.699  1.00  0.00     0.010 A 
ATOM     40  C   UNL A   1      43.336  22.959  26.974  1.00  0.00    -0.014 A 
BRANCH  40  41
ATOM     41  C   UNL A   1      43.672  24.376  27.248  1.00  0.00     0.031 A 
ATOM     42  C   UNL A   1      45.038  24.919  26.934  1.00  0.00     0.074 A 
ATOM     43  C   UNL A   1      42.713  25.188  27.729  1.00  0.00     0.049 A 
ATOM     44  N   UNL A   1      45.515  26.122  27.134  1.00  0.00    -0.248 NA
ATOM     45  C   UNL A   1      45.999  23.992  26.313  1.00  0.00     0.031 C 
ATOM     46  C   UNL A   1      41.343  24.777  28.039  1.00  0.00     0.029 A 
ATOM     47  N   UNL A   1      42.734  26.528  28.017  1.00  0.00    -0.354 N 
ATOM     48  C   UNL A   1      46.830  26.091  26.690  1.00  0.00     0.074 A 
ATOM     49  C   UNL A   1      47.085  24.747  26.219  1.00  0.00     0.031 C 
ATOM     50  C   UNL A   1      40.639  25.851  28.421  1.00  0.00     0.029 A 
ATOM     51  C   UNL A   1      41.525  27.010  28.450  1.00  0.00     0.049 A 
ATOM     52  H   UNL A   1      43.537  27.088  27.922  1.00  0.00     0.167 HD
ATOM     53  C   UNL A   1      47.737  27.097  26.676  1.00  0.00     0.037 A 
ATOM     54  C   UNL A   1      41.173  28.248  28.844  1.00  0.00     0.037 A 
ATOM     55  C   UNL A   1      47.467  28.439  27.127  1.00  0.00     0.049 A 
ATOM     56  C   UNL A   1      42.205  29.335  28.844  1.00  0.00     0.074 A 
ATOM     57  C   UNL A   1      48.324  29.525  27.168  1.00  0.00     0.029 A 
ATOM     58  N   UNL A   1      46.241  28.879  27.604  1.00  0.00    -0.354 N 
ATOM     59  N   UNL A   1      43.459  29.282  28.468  1.00  0.00    -0.248 NA
ATOM     60  C   UNL A   1      41.778  30.651  29.337  1.00  0.00     0.031 C 
ATOM     61  C   UNL A   1      47.625  30.616  27.696  1.00  0.00     0.029 A 
ATOM     62  C   UNL A   1      46.322  30.220  27.945  1.00  0.00     0.049 A 
ATOM     63  H   UNL A   1      45.434  28.323  27.687  1.00  0.00     0.167 HD
ATOM     64  C   UNL A   1      43.970  30.554  28.670  1.00  0.00     0.074 A 
ATOM     65  C   UNL A   1      42.885  31.365  29.182  1.00  0.00     0.031 C 
ATOM     66  C   UNL A   1      45.229  31.008  28.455  1.00  0.00     0.037 A 
BRANCH  53  67
ATOM     67  C   UNL A   1      49.116  26.793  26.170  1.00  0.00     0.064 A 
ATOM     68  C   UNL A   1      50.088  26.206  26.994  1.00  0.00     0.173 A 
ATOM     69  C   UNL A   1      49.446  27.022  24.826  1.00  0.00     0.173 A 
ATOM     70  F   UNL A   1      49.826  25.980  28.290  1.00  0.00    -0.203 F 
ATOM     71  C   UNL A   1      51.342  25.868  26.491  1.00  0.00     0.198 A 
ATOM     72  C   UNL A   1      50.693  26.663  24.322  1.00  0.00     0.198 A 
ATOM     73  F   UNL A   1      48.550  27.578  23.995  1.00  0.00    -0.203 F 
ATOM     74  F   UNL A   1      52.265  25.333  27.303  1.00  0.00    -0.200 F 
ATOM     75  C   UNL A   1      51.641  26.087  25.154  1.00  0.00     0.200 A 
ATOM     76  F   UNL A   1      50.977  26.866  23.027  1.00  0.00    -0.200 F 
ATOM     77  F   UNL A   1      52.843  25.748  24.670  1.00  0.00    -0.200 F 
ENDBRANCH  53  67
BRANCH  54  78
ATOM     78  C   UNL A   1      39.773  28.504  29.265  1.00  0.00     0.064 A 
ATOM     79  C   UNL A   1      39.377  28.306  30.593  1.00  0.00     0.173 A 
ATOM     80  C   UNL A   1      38.822  29.003  28.363  1.00  0.00     0.173 A 
ATOM     81  F   UNL A   1      40.249  27.815  31.487  1.00  0.00    -0.203 F 
ATOM     82  C   UNL A   1      38.079  28.598  31.005  1.00  0.00     0.198 A 
ATOM     83  C   UNL A   1      37.533  29.319  28.781  1.00  0.00     0.198 A 
ATOM     84  F   UNL A   1      39.159  29.214  27.082  1.00  0.00    -0.203 F 
ATOM     85  F   UNL A   1      37.717  28.381  32.276  1.00  0.00    -0.200 F 
ATOM     86  C   UNL A   1      37.161  29.114  30.101  1.00  0.00     0.200 A 
ATOM     87  F   UNL A   1      36.656  29.834  27.909  1.00  0.00    -0.200 F 
ATOM     88  F   UNL A   1      35.919  29.414  30.502  1.00  0.00    -0.200 F 
ENDBRANCH  54  78
BRANCH  66  89
ATOM     89  C   UNL A   1      45.493  32.451  28.760  1.00  0.00     0.064 A 
ATOM     90  C   UNL A   1      45.282  33.450  27.799  1.00  0.00     0.173 A 
ATOM     91  C   UNL A   1      45.925  32.840  30.036  1.00  0.00     0.173 A 
ATOM     92  F   UNL A   1      44.884  33.123  26.561  1.00  0.00    -0.203 F 
ATOM     93  C   UNL A   1      45.517  34.789  28.099  1.00  0.00     0.198 A 
ATOM     94  C   UNL A   1      46.136  34.182  30.340  1.00  0.00     0.198 A 
ATOM     95  F   UNL A   1      46.133  31.920  30.990  1.00  0.00    -0.203 F 
ATOM     96  F   UNL A   1      45.350  35.724  27.155  1.00  0.00    -0.200 F 
ATOM     97  C   UNL A   1      45.938  35.154  29.370  1.00  0.00     0.200 A 
ATOM     98  F   UNL A   1      46.534  34.534  31.569  1.00  0.00    -0.200 F 
ATOM     99  F   UNL A   1      46.161  36.444  29.658  1.00  0.00    -0.200 F 
ENDBRANCH  66  89
ENDBRANCH  40  41
ENDBRANCH  32  35
ENDBRANCH  30  31
ENDBRANCH  29  30
ENDBRANCH  28  29
ENDBRANCH   1  28
TORSDOF 17
ENDMDL
MODEL 2
REMARK VINA RESULT:     -12.3      1.202      2.266
REMARK SMILES CCC(CC)COc1cc2c(cc1Cl)C=C(C(=O)NCCCCNC(=O)c1ccc(-c3c4nc(c(-c5c(F)c(F)c(F)c(F)c5F)c5ccc([nH]5)c(-c5c(F)c(F)c(F)c(F)c5F)c5nc(c(-c6c(F)c(F)c(F)c(F)c6F)c6ccc3[nH]6)C=C5)C=C4)cc1)[C@@H](C(F)(F)F)O2
REMARK SMILES IDX 20 1 19 2 17 3 18 4 16 6 8 7 9 8 13 9 10 10 12 11 14 12
REMARK SMILES IDX 11 13 95 14 15 15 90 16 7 17 6 18 3 19 2 20 1 21 4 22 5 23
REMARK SMILES IDX 91 24 92 25 93 26 94 27 21 28 22 29 23 30 24 31 25 32 26 34
REMARK SMILES IDX 27 35 28 36 89 37 29 38 88 39 30 40 31 41 32 42 82 43 33 44
REMARK SMILES IDX 87 45 81 46 83 47 34 48 86 49 80 50 79 51 35 53 67 54 47 55
REMARK SMILES IDX 66 56 48 57 51 58 65 59 84 60 49 61 50 62 64 64 85 65 52 66
REMARK SMILES IDX 36 67 37 68 45 69 38 70 39 71 43 72 46 73 40 74 41 75 44 76
REMARK SMILES IDX 42 77 68 78 69 79 77 80 70 81 71 82 75 83 78 84 72 85 73 86
REMARK SMILES IDX 76 87 74 88 53 89 54 90 62 91 55 92 56 93 60 94 63 95 57 96
REMARK SMILES IDX 58 97 61 98 59 99
REMARK H PARENT 19 5 24 33 83 52 51 63
REMARK Flexibility Score: inf
ROOT
ATOM      1  C   UNL A   1      37.530  23.034  25.881  1.00  0.00     0.116 C 
ENDROOT
BRANCH   1   2
ATOM      2  N   UNL A   1      37.372  22.934  24.444  1.00  0.00    -0.352 N 
ATOM      3  C   UNL A   1      36.352  23.085  23.566  1.00  0.00     0.251 C 
ATOM      4  O   UNL A   1      36.654  22.953  22.377  1.00  0.00    -0.270 OA
ATOM      5  H   UNL A   1      38.215  22.699  23.995  1.00  0.00     0.163 HD
BRANCH   3   6
ATOM      6  C   UNL A   1      34.943  23.377  23.941  1.00  0.00     0.067 C 
ATOM      7  C   UNL A   1      30.642  25.699  25.015  1.00  0.00     0.141 A 
ATOM      8  C   UNL A   1      30.955  24.600  24.216  1.00  0.00     0.095 A 
ATOM      9  C   UNL A   1      31.647  26.340  25.757  1.00  0.00     0.083 A 
ATOM     10  C   UNL A   1      32.286  24.217  24.097  1.00  0.00     0.131 A 
ATOM     11  C   UNL A   1      32.987  26.014  25.547  1.00  0.00     0.036 A 
ATOM     12  Cl  UNL A   1      31.284  27.562  26.920  1.00  0.00    -0.080 Cl
ATOM     13  C   UNL A   1      33.310  24.964  24.693  1.00  0.00     0.019 A 
ATOM     14  O   UNL A   1      32.562  23.075  23.387  1.00  0.00    -0.475 OA
ATOM     15  C   UNL A   1      34.695  24.622  24.386  1.00  0.00     0.025 C 
ATOM     16  C   UNL A   1      33.791  22.416  23.824  1.00  0.00     0.314 C 
BRANCH   7  17
ATOM     17  O   UNL A   1      29.344  26.127  25.090  1.00  0.00    -0.492 OA
BRANCH  17  18
ATOM     18  C   UNL A   1      28.797  26.470  23.795  1.00  0.00     0.233 C 
BRANCH  18  19
ATOM     19  C   UNL A   1      28.931  27.985  23.504  1.00  0.00     0.026 C 
BRANCH  19  20
ATOM     20  C   UNL A   1      30.028  28.261  22.450  1.00  0.00     0.003 C 
ATOM     21  C   UNL A   1      31.297  28.841  23.057  1.00  0.00     0.004 C 
ENDBRANCH  19  20
BRANCH  19  22
ATOM     22  C   UNL A   1      27.577  28.622  23.126  1.00  0.00     0.003 C 
ATOM     23  C   UNL A   1      27.651  30.018  22.526  1.00  0.00     0.004 C 
ENDBRANCH  19  22
ENDBRANCH  18  19
ENDBRANCH  17  18
ENDBRANCH   7  17
BRANCH  16  24
ATOM     24  C   UNL A   1      33.561  21.622  25.136  1.00  0.00     0.429 C 
ATOM     25  F   UNL A   1      34.302  22.145  26.143  1.00  0.00    -0.167 F 
ATOM     26  F   UNL A   1      32.267  21.674  25.542  1.00  0.00    -0.167 F 
ATOM     27  F   UNL A   1      33.876  20.312  25.039  1.00  0.00    -0.167 F 
ENDBRANCH  16  24
ENDBRANCH   3   6
ENDBRANCH   1   2
BRANCH   1  28
ATOM     28  C   UNL A   1      38.955  22.710  26.313  1.00  0.00     0.023 C 
BRANCH  28  29
ATOM     29  C   UNL A   1      39.486  21.385  25.771  1.00  0.00     0.023 C 
BRANCH  29  30
ATOM     30  C   UNL A   1      39.890  20.370  26.834  1.00  0.00     0.116 C 
BRANCH  30  31
ATOM     31  N   UNL A   1      40.702  19.268  26.334  1.00  0.00    -0.352 N 
ATOM     32  C   UNL A   1      42.057  19.278  26.091  1.00  0.00     0.251 C 
ATOM     33  H   UNL A   1      40.230  18.425  26.150  1.00  0.00     0.163 HD
ATOM     34  O   UNL A   1      42.634  18.307  25.617  1.00  0.00    -0.269 OA
BRANCH  32  35
ATOM     35  C   UNL A   1      42.788  20.527  26.370  1.00  0.00     0.039 A 
ATOM     36  C   UNL A   1      42.868  20.994  27.684  1.00  0.00     0.014 A 
ATOM     37  C   UNL A   1      43.233  21.302  25.298  1.00  0.00     0.014 A 
ATOM     38  C   UNL A   1      43.241  22.311  27.909  1.00  0.00     0.010 A 
ATOM     39  C   UNL A   1      43.680  22.601  25.538  1.00  0.00     0.010 A 
ATOM     40  C   UNL A   1      43.635  23.132  26.837  1.00  0.00    -0.014 A 
BRANCH  40  41
ATOM     41  C   UNL A   1      43.979  24.550  27.095  1.00  0.00     0.031 A 
ATOM     42  C   UNL A   1      45.353  25.077  26.787  1.00  0.00     0.074 A 
ATOM     43  C   UNL A   1      43.023  25.376  27.556  1.00  0.00     0.049 A 
ATOM     44  N   UNL A   1      45.837  26.279  26.975  1.00  0.00    -0.248 NA
ATOM     45  C   UNL A   1      46.312  24.135  26.188  1.00  0.00     0.031 C 
ATOM     46  C   UNL A   1      41.646  24.979  27.858  1.00  0.00     0.029 A 
ATOM     47  N   UNL A   1      43.051  26.719  27.825  1.00  0.00    -0.354 N 
ATOM     48  C   UNL A   1      47.156  26.232  26.545  1.00  0.00     0.074 A 
ATOM     49  C   UNL A   1      47.406  24.880  26.094  1.00  0.00     0.031 C 
ATOM     50  C   UNL A   1      40.947  26.064  28.219  1.00  0.00     0.029 A 
ATOM     51  C   UNL A   1      41.842  27.217  28.241  1.00  0.00     0.049 A 
ATOM     52  H   UNL A   1      43.860  27.272  27.730  1.00  0.00     0.167 HD
ATOM     53  C   UNL A   1      48.071  27.231  26.525  1.00  0.00     0.037 A 
ATOM     54  C   UNL A   1      41.496  28.462  28.614  1.00  0.00     0.037 A 
ATOM     55  C   UNL A   1      47.808  28.580  26.955  1.00  0.00     0.049 A 
ATOM     56  C   UNL A   1      42.536  29.541  28.609  1.00  0.00     0.074 A 
ATOM     57  C   UNL A   1      48.673  29.661  26.990  1.00  0.00     0.029 A 
ATOM     58  N   UNL A   1      46.581  29.037  27.415  1.00  0.00    -0.354 N 
ATOM     59  N   UNL A   1      43.794  29.473  28.246  1.00  0.00    -0.248 NA
ATOM     60  C   UNL A   1      42.115  30.867  29.080  1.00  0.00     0.031 C 
ATOM     61  C   UNL A   1      47.978  30.764  27.496  1.00  0.00     0.029 A 
ATOM     62  C   UNL A   1      46.669  30.382  27.738  1.00  0.00     0.049 A 
ATOM     63  H   UNL A   1      45.769  28.488  27.497  1.00  0.00     0.167 HD
ATOM     64  C   UNL A   1      44.313  30.744  28.435  1.00  0.00     0.074 A 
ATOM     65  C   UNL A   1      43.229  31.570  28.926  1.00  0.00     0.031 C 
ATOM     66  C   UNL A   1      45.578  31.185  28.227  1.00  0.00     0.037 A 
BRANCH  53  67
ATOM     67  C   UNL A   1      49.453  26.909  26.037  1.00  0.00     0.064 A 
ATOM     68  C   UNL A   1      50.438  26.406  26.899  1.00  0.00     0.173 A 
ATOM     69  C   UNL A   1      49.773  27.035  24.677  1.00  0.00     0.173 A 
ATOM     70  F   UNL A   1      50.187  26.281  28.211  1.00  0.00    -0.203 F 
ATOM     71  C   UNL A   1      51.695  26.049  26.417  1.00  0.00     0.198 A 
ATOM     72  C   UNL A   1      51.022  26.656  24.195  1.00  0.00     0.198 A 
ATOM     73  F   UNL A   1      48.864  27.508  23.809  1.00  0.00    -0.203 F 
ATOM     74  F   UNL A   1      52.630  25.595  27.264  1.00  0.00    -0.200 F 
ATOM     75  C   UNL A   1      51.983  26.165  25.065  1.00  0.00     0.200 A 
ATOM     76  F   UNL A   1      51.296  26.759  22.887  1.00  0.00    -0.200 F 
ATOM     77  F   UNL A   1      53.188  25.807  24.603  1.00  0.00    -0.200 F 
ENDBRANCH  53  67
BRANCH  54  78
ATOM     78  C   UNL A   1      40.095  28.735  29.018  1.00  0.00     0.064 A 
ATOM     79  C   UNL A   1      39.137  29.112  28.070  1.00  0.00     0.173 A 
ATOM     80  C   UNL A   1      39.675  28.573  30.347  1.00  0.00     0.173 A 
ATOM     81  F   UNL A   1      39.496  29.295  26.790  1.00  0.00    -0.203 F 
ATOM     82  C   UNL A   1      37.808  29.317  28.434  1.00  0.00     0.198 A 
ATOM     83  C   UNL A   1      38.343  28.752  30.706  1.00  0.00     0.198 A 
ATOM     84  F   UNL A   1      40.557  28.206  31.289  1.00  0.00    -0.203 F 
ATOM     85  F   UNL A   1      36.913  29.696  27.513  1.00  0.00    -0.200 F 
ATOM     86  C   UNL A   1      37.410  29.125  29.750  1.00  0.00     0.200 A 
ATOM     87  F   UNL A   1      37.960  28.548  31.974  1.00  0.00    -0.200 F 
ATOM     88  F   UNL A   1      36.128  29.301  30.097  1.00  0.00    -0.200 F 
ENDBRANCH  54  78
BRANCH  66  89
ATOM     89  C   UNL A   1      45.849  32.630  28.514  1.00  0.00     0.064 A 
ATOM     90  C   UNL A   1      46.356  33.045  29.754  1.00  0.00     0.173 A 
ATOM     91  C   UNL A   1      45.634  33.603  27.529  1.00  0.00     0.173 A 
ATOM     92  F   UNL A   1      46.564  32.151  30.732  1.00  0.00    -0.203 F 
ATOM     93  C   UNL A   1      46.618  34.389  30.004  1.00  0.00     0.198 A 
ATOM     94  C   UNL A   1      45.919  34.944  27.773  1.00  0.00     0.198 A 
ATOM     95  F   UNL A   1      45.156  33.252  26.325  1.00  0.00    -0.203 F 
ATOM     96  F   UNL A   1      47.063  34.771  31.208  1.00  0.00    -0.200 F 
ATOM     97  C   UNL A   1      46.405  35.336  29.012  1.00  0.00     0.200 A 
ATOM     98  F   UNL A   1      45.721  35.855  26.812  1.00  0.00    -0.200 F 
ATOM     99  F   UNL A   1      46.660  36.629  29.253  1.00  0.00    -0.200 F 
ENDBRANCH  66  89
ENDBRANCH  40  41
ENDBRANCH  32  35
ENDBRANCH  30  31
ENDBRANCH  29  30
ENDBRANCH  28  29
ENDBRANCH   1  28
TORSDOF 17
ENDMDL
MODEL 3
REMARK VINA RESULT:     -12.1      5.580     11.127
REMARK SMILES CCC(CC)COc1cc2c(cc1Cl)C=C(C(=O)NCCCCNC(=O)c1ccc(-c3c4nc(c(-c5c(F)c(F)c(F)c(F)c5F)c5ccc([nH]5)c(-c5c(F)c(F)c(F)c(F)c5F)c5nc(c(-c6c(F)c(F)c(F)c(F)c6F)c6ccc3[nH]6)C=C5)C=C4)cc1)[C@@H](C(F)(F)F)O2
REMARK SMILES IDX 20 1 19 2 17 3 18 4 16 6 8 7 9 8 13 9 10 10 12 11 14 12
REMARK SMILES IDX 11 13 95 14 15 15 90 16 7 17 6 18 3 19 2 20 1 21 4 22 5 23
REMARK SMILES IDX 91 24 92 25 93 26 94 27 21 28 22 29 23 30 24 31 25 32 26 34
REMARK SMILES IDX 27 35 28 36 89 37 29 38 88 39 30 40 31 41 32 42 82 43 33 44
REMARK SMILES IDX 87 45 81 46 83 47 34 48 86 49 80 50 79 51 35 53 67 54 47 55
REMARK SMILES IDX 66 56 48 57 51 58 65 59 84 60 49 61 50 62 64 64 85 65 52 66
REMARK SMILES IDX 36 67 37 68 45 69 38 70 39 71 43 72 46 73 40 74 41 75 44 76
REMARK SMILES IDX 42 77 68 78 69 79 77 80 70 81 71 82 75 83 78 84 72 85 73 86
REMARK SMILES IDX 76 87 74 88 53 89 54 90 62 91 55 92 56 93 60 94 63 95 57 96
REMARK SMILES IDX 58 97 61 98 59 99
REMARK H PARENT 19 5 24 33 83 52 51 63
REMARK Flexibility Score: inf
ROOT
ATOM      1  C   UNL A   1      32.047  30.086  25.739  1.00  0.00     0.116 C 
ENDROOT
BRANCH   1   2
ATOM      2  N   UNL A   1      31.133  30.044  24.615  1.00  0.00    -0.352 N 
ATOM      3  C   UNL A   1      30.668  29.089  23.776  1.00  0.00     0.251 C 
ATOM      4  O   UNL A   1      29.836  29.471  22.949  1.00  0.00    -0.270 OA
ATOM      5  H   UNL A   1      30.756  30.930  24.412  1.00  0.00     0.163 HD
BRANCH   3   6
ATOM      6  C   UNL A   1      31.098  27.665  23.786  1.00  0.00     0.067 C 
ATOM      7  C   UNL A   1      31.686  22.835  24.957  1.00  0.00     0.141 A 
ATOM      8  C   UNL A   1      31.447  23.500  23.754  1.00  0.00     0.095 A 
ATOM      9  C   UNL A   1      31.864  23.566  26.142  1.00  0.00     0.083 A 
ATOM     10  C   UNL A   1      31.295  24.882  23.772  1.00  0.00     0.131 A 
ATOM     11  C   UNL A   1      31.605  24.937  26.165  1.00  0.00     0.036 A 
ATOM     12  Cl  UNL A   1      32.370  22.814  27.611  1.00  0.00    -0.080 Cl
ATOM     13  C   UNL A   1      31.294  25.594  24.979  1.00  0.00     0.019 A 
ATOM     14  O   UNL A   1      31.159  25.526  22.568  1.00  0.00    -0.475 OA
ATOM     15  C   UNL A   1      30.951  27.011  24.953  1.00  0.00     0.025 C 
ATOM     16  C   UNL A   1      31.637  26.907  22.604  1.00  0.00     0.314 C 
BRANCH   7  17
ATOM     17  O   UNL A   1      31.773  21.469  24.964  1.00  0.00    -0.492 OA
BRANCH  17  18
ATOM     18  C   UNL A   1      32.910  20.982  24.213  1.00  0.00     0.233 C 
BRANCH  18  19
ATOM     19  C   UNL A   1      33.959  20.316  25.138  1.00  0.00     0.026 C 
BRANCH  19  20
ATOM     20  C   UNL A   1      34.347  18.910  24.626  1.00  0.00     0.003 C 
ATOM     21  C   UNL A   1      33.182  17.930  24.653  1.00  0.00     0.004 C 
ENDBRANCH  19  20
BRANCH  19  22
ATOM     22  C   UNL A   1      35.189  21.221  25.361  1.00  0.00     0.003 C 
ATOM     23  C   UNL A   1      35.483  22.219  24.251  1.00  0.00     0.004 C 
ENDBRANCH  19  22
ENDBRANCH  18  19
ENDBRANCH  17  18
ENDBRANCH   7  17
BRANCH  16  24
ATOM     24  C   UNL A   1      33.185  26.963  22.533  1.00  0.00     0.429 C 
ATOM     25  F   UNL A   1      33.709  27.172  23.766  1.00  0.00    -0.167 F 
ATOM     26  F   UNL A   1      33.716  25.799  22.082  1.00  0.00    -0.167 F 
ATOM     27  F   UNL A   1      33.656  27.935  21.723  1.00  0.00    -0.167 F 
ENDBRANCH  16  24
ENDBRANCH   3   6
ENDBRANCH   1   2
BRANCH   1  28
ATOM     28  C   UNL A   1      31.713  31.228  26.693  1.00  0.00     0.023 C 
BRANCH  28  29
ATOM     29  C   UNL A   1      32.859  31.618  27.624  1.00  0.00     0.023 C 
BRANCH  29  30
ATOM     30  C   UNL A   1      33.581  32.907  27.251  1.00  0.00     0.116 C 
BRANCH  30  31
ATOM     31  N   UNL A   1      32.882  34.123  27.649  1.00  0.00    -0.352 N 
ATOM     32  C   UNL A   1      33.165  34.930  28.727  1.00  0.00     0.251 C 
ATOM     33  H   UNL A   1      32.124  34.396  27.083  1.00  0.00     0.163 HD
ATOM     34  O   UNL A   1      32.475  35.904  29.002  1.00  0.00    -0.269 OA
BRANCH  32  35
ATOM     35  C   UNL A   1      34.302  34.546  29.582  1.00  0.00     0.039 A 
ATOM     36  C   UNL A   1      35.604  34.765  29.127  1.00  0.00     0.014 A 
ATOM     37  C   UNL A   1      34.055  33.819  30.747  1.00  0.00     0.014 A 
ATOM     38  C   UNL A   1      36.655  34.108  29.750  1.00  0.00     0.010 A 
ATOM     39  C   UNL A   1      35.125  33.223  31.415  1.00  0.00     0.010 A 
ATOM     40  C   UNL A   1      36.423  33.318  30.891  1.00  0.00    -0.014 A 
BRANCH  40  41
ATOM     41  C   UNL A   1      37.553  32.585  31.509  1.00  0.00     0.031 A 
ATOM     42  C   UNL A   1      38.019  32.919  32.899  1.00  0.00     0.074 A 
ATOM     43  C   UNL A   1      38.119  31.573  30.828  1.00  0.00     0.049 A 
ATOM     44  N   UNL A   1      39.008  32.402  33.584  1.00  0.00    -0.248 NA
ATOM     45  C   UNL A   1      37.281  33.971  33.617  1.00  0.00     0.031 C 
ATOM     46  C   UNL A   1      37.725  31.140  29.487  1.00  0.00     0.029 A 
ATOM     47  N   UNL A   1      39.124  30.709  31.177  1.00  0.00    -0.354 N 
ATOM     48  C   UNL A   1      39.027  33.078  34.797  1.00  0.00     0.074 A 
ATOM     49  C   UNL A   1      37.959  34.053  34.755  1.00  0.00     0.031 C 
ATOM     50  C   UNL A   1      38.441  30.060  29.147  1.00  0.00     0.029 A 
ATOM     51  C   UNL A   1      39.391  29.767  30.216  1.00  0.00     0.049 A 
ATOM     52  H   UNL A   1      39.607  30.760  32.033  1.00  0.00     0.167 HD
ATOM     53  C   UNL A   1      39.860  32.895  35.849  1.00  0.00     0.037 A 
ATOM     54  C   UNL A   1      40.310  28.786  30.190  1.00  0.00     0.037 A 
ATOM     55  C   UNL A   1      40.908  31.907  35.892  1.00  0.00     0.049 A 
ATOM     56  C   UNL A   1      41.237  28.624  31.357  1.00  0.00     0.074 A 
ATOM     57  C   UNL A   1      41.816  31.654  36.905  1.00  0.00     0.029 A 
ATOM     58  N   UNL A   1      41.179  31.000  34.878  1.00  0.00    -0.354 N 
ATOM     59  N   UNL A   1      41.277  29.302  32.479  1.00  0.00    -0.248 NA
ATOM     60  C   UNL A   1      42.257  27.573  31.250  1.00  0.00     0.031 C 
ATOM     61  C   UNL A   1      42.654  30.612  36.494  1.00  0.00     0.029 A 
ATOM     62  C   UNL A   1      42.242  30.188  35.241  1.00  0.00     0.049 A 
ATOM     63  H   UNL A   1      40.688  30.940  34.028  1.00  0.00     0.167 HD
ATOM     64  C   UNL A   1      42.318  28.756  33.215  1.00  0.00     0.074 A 
ATOM     65  C   UNL A   1      42.870  27.677  32.422  1.00  0.00     0.031 C 
ATOM     66  C   UNL A   1      42.778  29.122  34.436  1.00  0.00     0.037 A 
BRANCH  53  67
ATOM     67  C   UNL A   1      39.691  33.788  37.043  1.00  0.00     0.064 A 
ATOM     68  C   UNL A   1      40.302  35.048  37.110  1.00  0.00     0.173 A 
ATOM     69  C   UNL A   1      38.849  33.409  38.100  1.00  0.00     0.173 A 
ATOM     70  F   UNL A   1      41.128  35.451  36.133  1.00  0.00    -0.203 F 
ATOM     71  C   UNL A   1      40.081  35.893  38.196  1.00  0.00     0.198 A 
ATOM     72  C   UNL A   1      38.613  34.264  39.172  1.00  0.00     0.198 A 
ATOM     73  F   UNL A   1      38.237  32.214  38.081  1.00  0.00    -0.203 F 
ATOM     74  F   UNL A   1      40.696  37.083  38.252  1.00  0.00    -0.200 F 
ATOM     75  C   UNL A   1      39.230  35.505  39.221  1.00  0.00     0.200 A 
ATOM     76  F   UNL A   1      37.782  33.892  40.156  1.00  0.00    -0.200 F 
ATOM     77  F   UNL A   1      39.008  36.325  40.256  1.00  0.00    -0.200 F 
ENDBRANCH  53  67
BRANCH  54  78
ATOM     78  C   UNL A   1      40.381  27.888  29.011  1.00  0.00     0.064 A 
ATOM     79  C   UNL A   1      39.639  26.702  28.968  1.00  0.00     0.173 A 
ATOM     80  C   UNL A   1      41.149  28.224  27.886  1.00  0.00     0.173 A 
ATOM     81  F   UNL A   1      38.903  26.333  30.028  1.00  0.00    -0.203 F 
ATOM     82  C   UNL A   1      39.659  25.884  27.842  1.00  0.00     0.198 A 
ATOM     83  C   UNL A   1      41.148  27.419  26.751  1.00  0.00     0.198 A 
ATOM     84  F   UNL A   1      41.872  29.353  27.880  1.00  0.00    -0.203 F 
ATOM     85  F   UNL A   1      38.956  24.744  27.831  1.00  0.00    -0.200 F 
ATOM     86  C   UNL A   1      40.405  26.248  26.730  1.00  0.00     0.200 A 
ATOM     87  F   UNL A   1      41.857  27.784  25.674  1.00  0.00    -0.200 F 
ATOM     88  F   UNL A   1      40.408  25.471  25.639  1.00  0.00    -0.200 F 
ENDBRANCH  54  78
BRANCH  66  89
ATOM     89  C   UNL A   1      43.925  28.336  34.993  1.00  0.00     0.064 A 
ATOM     90  C   UNL A   1      43.715  27.174  35.749  1.00  0.00     0.173 A 
ATOM     91  C   UNL A   1      45.246  28.729  34.739  1.00  0.00     0.173 A 
ATOM     92  F   UNL A   1      42.468  26.767  36.030  1.00  0.00    -0.203 F 
ATOM     93  C   UNL A   1      44.790  26.444  36.249  1.00  0.00     0.198 A 
ATOM     94  C   UNL A   1      46.319  27.985  35.220  1.00  0.00     0.198 A 
ATOM     95  F   UNL A   1      45.496  29.831  34.015  1.00  0.00    -0.203 F 
ATOM     96  F   UNL A   1      44.568  25.359  37.004  1.00  0.00    -0.200 F 
ATOM     97  C   UNL A   1      46.090  26.846  35.980  1.00  0.00     0.200 A 
ATOM     98  F   UNL A   1      47.574  28.370  34.952  1.00  0.00    -0.200 F 
ATOM     99  F   UNL A   1      47.124  26.142  36.460  1.00  0.00    -0.200 F 
ENDBRANCH  66  89
ENDBRANCH  40  41
ENDBRANCH  32  35
ENDBRANCH  30  31
ENDBRANCH  29  30
ENDBRANCH  28  29
ENDBRANCH   1  28
TORSDOF 17
ENDMDL
