MODEL 1
REMARK VINA RESULT:     -13.4      0.000      0.000
REMARK SMILES O=C(/C=C/c1ccccc1)Nc1ccc(O)cc1C(=O)NCCCCNC(=O)c1ccc(-c2c3nc(c(-c4c(F)c(F)c(F)c(F)c4F)c4ccc([nH]4)c(-c4c(F)c(F)c(F)c(F)c4F)c4nc(c(-c5c(F)c(F)c(F)c(F)c5F)c5ccc2[nH]5)C=C4)C=C3)cc1
REMARK SMILES IDX 23 1 22 2 21 3 19 4 20 5 18 7 12 8 13 9 14 10 17 11 15 12
REMARK SMILES IDX 11 13 1 14 2 15 3 17 4 18 5 19 6 20 10 21 7 22 9 23 8 24
REMARK SMILES IDX 16 25 24 27 25 28 26 29 27 30 28 32 29 33 30 34 91 35 31 36
REMARK SMILES IDX 90 37 32 38 33 39 34 40 84 41 35 42 89 43 83 44 85 45 36 46
REMARK SMILES IDX 88 47 82 48 81 49 37 51 69 52 49 53 68 54 50 55 53 56 67 57
REMARK SMILES IDX 86 58 51 59 52 60 66 62 87 63 54 64 38 65 39 66 47 67 40 68
REMARK SMILES IDX 41 69 45 70 48 71 42 72 43 73 46 74 44 75 70 76 71 77 79 78
REMARK SMILES IDX 72 79 73 80 77 81 80 82 74 83 75 84 78 85 76 86 55 87 56 88
REMARK SMILES IDX 64 89 57 90 58 91 62 92 65 93 59 94 60 95 63 96 61 97
REMARK H PARENT 21 6 11 16 16 26 26 31 85 50 53 61
REMARK Flexibility Score: inf
ROOT
ATOM      1  C   UNL A   1      31.838  29.083  25.804  1.00  0.00     0.023 C 
ENDROOT
BRANCH   1   2
ATOM      2  C   UNL A   1      32.753  28.334  26.765  1.00  0.00     0.116 C 
BRANCH   2   3
ATOM      3  N   UNL A   1      33.720  27.461  26.157  1.00  0.00    -0.352 N 
ATOM      4  C   UNL A   1      33.546  26.227  25.577  1.00  0.00     0.253 C 
ATOM      5  O   UNL A   1      34.509  25.762  24.960  1.00  0.00    -0.269 OA
ATOM      6  H   UNL A   1      34.645  27.798  26.155  1.00  0.00     0.163 HD
BRANCH   4   7
ATOM      7  C   UNL A   1      32.360  25.347  25.828  1.00  0.00     0.067 A 
ATOM      8  C   UNL A   1      30.999  25.538  25.502  1.00  0.00     0.054 A 
ATOM      9  C   UNL A   1      30.042  24.650  26.040  1.00  0.00     0.031 A 
ATOM     10  C   UNL A   1      30.417  23.535  26.788  1.00  0.00     0.048 A 
ATOM     11  C   UNL A   1      32.717  24.199  26.580  1.00  0.00     0.062 A 
ATOM     12  C   UNL A   1      31.757  23.304  27.034  1.00  0.00     0.116 A 
BRANCH   8  13
ATOM     13  N   UNL A   1      30.433  26.520  24.652  1.00  0.00    -0.322 N 
ATOM     14  O   UNL A   1      31.194  25.797  22.595  1.00  0.00    -0.270 OA
ATOM     15  C   UNL A   1      30.634  26.622  23.298  1.00  0.00     0.248 C 
ATOM     16  H   UNL A   1      29.843  27.189  25.070  1.00  0.00     0.170 HD
BRANCH  15  17
ATOM     17  C   UNL A   1      30.115  27.878  22.666  1.00  0.00     0.072 C 
ATOM     18  C   UNL A   1      28.986  28.520  23.016  1.00  0.00     0.014 C 
BRANCH  18  19
ATOM     19  C   UNL A   1      28.651  29.911  22.628  1.00  0.00    -0.025 A 
ATOM     20  C   UNL A   1      28.905  30.942  23.548  1.00  0.00     0.008 A 
ATOM     21  C   UNL A   1      28.196  30.269  21.350  1.00  0.00     0.008 A 
ATOM     22  C   UNL A   1      28.765  32.286  23.183  1.00  0.00     0.001 A 
ATOM     23  C   UNL A   1      28.065  31.615  20.983  1.00  0.00     0.001 A 
ATOM     24  C   UNL A   1      28.363  32.624  21.895  1.00  0.00     0.000 A 
ENDBRANCH  18  19
ENDBRANCH  15  17
ENDBRANCH   8  13
BRANCH  12  25
ATOM     25  O   UNL A   1      32.095  22.188  27.739  1.00  0.00    -0.508 OA
ATOM     26  H   UNL A   1      31.886  22.129  28.650  1.00  0.00     0.293 HD
ENDBRANCH  12  25
ENDBRANCH   4   7
ENDBRANCH   2   3
ENDBRANCH   1   2
BRANCH   1  27
ATOM     27  C   UNL A   1      31.867  30.616  25.891  1.00  0.00     0.023 C 
BRANCH  27  28
ATOM     28  C   UNL A   1      32.188  31.209  27.265  1.00  0.00     0.116 C 
BRANCH  28  29
ATOM     29  N   UNL A   1      32.770  32.539  27.154  1.00  0.00    -0.352 N 
ATOM     30  C   UNL A   1      33.758  33.001  27.984  1.00  0.00     0.251 C 
ATOM     31  H   UNL A   1      32.436  33.137  26.446  1.00  0.00     0.163 HD
ATOM     32  O   UNL A   1      33.521  33.907  28.775  1.00  0.00    -0.269 OA
BRANCH  30  33
ATOM     33  C   UNL A   1      35.073  32.328  27.969  1.00  0.00     0.039 A 
ATOM     34  C   UNL A   1      36.202  33.082  28.310  1.00  0.00     0.014 A 
ATOM     35  C   UNL A   1      35.176  30.951  27.773  1.00  0.00     0.014 A 
ATOM     36  C   UNL A   1      37.366  32.432  28.697  1.00  0.00     0.010 A 
ATOM     37  C   UNL A   1      36.293  30.297  28.259  1.00  0.00     0.010 A 
ATOM     38  C   UNL A   1      37.351  31.038  28.807  1.00  0.00    -0.014 A 
BRANCH  38  39
ATOM     39  C   UNL A   1      38.327  30.320  29.654  1.00  0.00     0.031 A 
ATOM     40  C   UNL A   1      38.510  30.739  31.075  1.00  0.00     0.074 A 
ATOM     41  C   UNL A   1      39.158  29.437  29.061  1.00  0.00     0.049 A 
ATOM     42  N   UNL A   1      39.469  30.435  31.907  1.00  0.00    -0.248 NA
ATOM     43  C   UNL A   1      37.506  31.669  31.616  1.00  0.00     0.031 C 
ATOM     44  C   UNL A   1      39.095  29.022  27.654  1.00  0.00     0.029 A 
ATOM     45  N   UNL A   1      40.240  28.754  29.551  1.00  0.00    -0.354 N 
ATOM     46  C   UNL A   1      39.194  31.148  33.063  1.00  0.00     0.074 A 
ATOM     47  C   UNL A   1      38.016  31.948  32.806  1.00  0.00     0.031 C 
ATOM     48  C   UNL A   1      40.081  28.147  27.403  1.00  0.00     0.029 A 
ATOM     49  C   UNL A   1      40.879  27.983  28.608  1.00  0.00     0.049 A 
ATOM     50  H   UNL A   1      40.532  28.810  30.489  1.00  0.00     0.167 HD
ATOM     51  C   UNL A   1      39.859  31.112  34.241  1.00  0.00     0.037 A 
ATOM     52  C   UNL A   1      42.002  27.248  28.706  1.00  0.00     0.037 A 
ATOM     53  C   UNL A   1      41.025  30.303  34.467  1.00  0.00     0.049 A 
ATOM     54  C   UNL A   1      42.722  27.235  30.027  1.00  0.00     0.074 A 
ATOM     55  C   UNL A   1      41.782  30.174  35.616  1.00  0.00     0.029 A 
ATOM     56  N   UNL A   1      41.600  29.475  33.511  1.00  0.00    -0.354 N 
ATOM     57  N   UNL A   1      42.430  27.875  31.134  1.00  0.00    -0.248 NA
ATOM     58  C   UNL A   1      43.926  26.399  30.118  1.00  0.00     0.031 C 
ATOM     59  C   UNL A   1      42.827  29.286  35.349  1.00  0.00     0.029 A 
ATOM     60  C   UNL A   1      42.696  28.825  34.048  1.00  0.00     0.049 A 
ATOM     61  H   UNL A   1      41.276  29.368  32.587  1.00  0.00     0.167 HD
ATOM     62  C   UNL A   1      43.380  27.485  32.064  1.00  0.00     0.074 A 
ATOM     63  C   UNL A   1      44.260  26.550  31.392  1.00  0.00     0.031 C 
ATOM     64  C   UNL A   1      43.516  27.862  33.357  1.00  0.00     0.037 A 
BRANCH  51  65
ATOM     65  C   UNL A   1      39.321  31.953  35.360  1.00  0.00     0.064 A 
ATOM     66  C   UNL A   1      39.643  33.315  35.466  1.00  0.00     0.173 A 
ATOM     67  C   UNL A   1      38.471  31.403  36.331  1.00  0.00     0.173 A 
ATOM     68  F   UNL A   1      40.466  33.886  34.572  1.00  0.00    -0.203 F 
ATOM     69  C   UNL A   1      39.163  34.087  36.519  1.00  0.00     0.198 A 
ATOM     70  C   UNL A   1      37.967  32.187  37.367  1.00  0.00     0.198 A 
ATOM     71  F   UNL A   1      38.131  30.107  36.278  1.00  0.00    -0.203 F 
ATOM     72  F   UNL A   1      39.533  35.370  36.630  1.00  0.00    -0.200 F 
ATOM     73  C   UNL A   1      38.321  33.525  37.465  1.00  0.00     0.200 A 
ATOM     74  F   UNL A   1      37.143  31.645  38.274  1.00  0.00    -0.200 F 
ATOM     75  F   UNL A   1      37.856  34.269  38.478  1.00  0.00    -0.200 F 
ENDBRANCH  51  65
BRANCH  52  76
ATOM     76  C   UNL A   1      42.499  26.453  27.551  1.00  0.00     0.064 A 
ATOM     77  C   UNL A   1      42.009  25.160  27.312  1.00  0.00     0.173 A 
ATOM     78  C   UNL A   1      43.485  26.943  26.682  1.00  0.00     0.173 A 
ATOM     79  F   UNL A   1      41.074  24.641  28.120  1.00  0.00    -0.203 F 
ATOM     80  C   UNL A   1      42.514  24.375  26.277  1.00  0.00     0.198 A 
ATOM     81  C   UNL A   1      43.966  26.167  25.627  1.00  0.00     0.198 A 
ATOM     82  F   UNL A   1      43.981  28.176  26.854  1.00  0.00    -0.203 F 
ATOM     83  F   UNL A   1      42.070  23.121  26.114  1.00  0.00    -0.200 F 
ATOM     84  C   UNL A   1      43.491  24.879  25.434  1.00  0.00     0.200 A 
ATOM     85  F   UNL A   1      44.900  26.665  24.804  1.00  0.00    -0.200 F 
ATOM     86  F   UNL A   1      43.982  24.121  24.444  1.00  0.00    -0.200 F 
ENDBRANCH  52  76
BRANCH  64  87
ATOM     87  C   UNL A   1      44.600  27.203  34.153  1.00  0.00     0.064 A 
ATOM     88  C   UNL A   1      45.871  27.775  34.288  1.00  0.00     0.173 A 
ATOM     89  C   UNL A   1      44.327  26.018  34.854  1.00  0.00     0.173 A 
ATOM     90  F   UNL A   1      46.181  28.898  33.622  1.00  0.00    -0.203 F 
ATOM     91  C   UNL A   1      46.838  27.177  35.091  1.00  0.00     0.198 A 
ATOM     92  C   UNL A   1      45.286  25.439  35.678  1.00  0.00     0.198 A 
ATOM     93  F   UNL A   1      43.122  25.437  34.756  1.00  0.00    -0.203 F 
ATOM     94  F   UNL A   1      48.059  27.722  35.183  1.00  0.00    -0.200 F 
ATOM     95  C   UNL A   1      46.541  26.018  35.793  1.00  0.00     0.200 A 
ATOM     96  F   UNL A   1      44.992  24.329  36.368  1.00  0.00    -0.200 F 
ATOM     97  F   UNL A   1      47.466  25.457  36.583  1.00  0.00    -0.200 F 
ENDBRANCH  64  87
ENDBRANCH  38  39
ENDBRANCH  30  33
ENDBRANCH  28  29
ENDBRANCH  27  28
ENDBRANCH   1  27
TORSDOF 15
ENDMDL
MODEL 2
REMARK VINA RESULT:     -13.2      0.396      7.466
REMARK SMILES O=C(/C=C/c1ccccc1)Nc1ccc(O)cc1C(=O)NCCCCNC(=O)c1ccc(-c2c3nc(c(-c4c(F)c(F)c(F)c(F)c4F)c4ccc([nH]4)c(-c4c(F)c(F)c(F)c(F)c4F)c4nc(c(-c5c(F)c(F)c(F)c(F)c5F)c5ccc2[nH]5)C=C4)C=C3)cc1
REMARK SMILES IDX 23 1 22 2 21 3 19 4 20 5 18 7 12 8 13 9 14 10 17 11 15 12
REMARK SMILES IDX 11 13 1 14 2 15 3 17 4 18 5 19 6 20 10 21 7 22 9 23 8 24
REMARK SMILES IDX 16 25 24 27 25 28 26 29 27 30 28 32 29 33 30 34 91 35 31 36
REMARK SMILES IDX 90 37 32 38 33 39 34 40 84 41 35 42 89 43 83 44 85 45 36 46
REMARK SMILES IDX 88 47 82 48 81 49 37 51 69 52 49 53 68 54 50 55 53 56 67 57
REMARK SMILES IDX 86 58 51 59 52 60 66 62 87 63 54 64 38 65 39 66 47 67 40 68
REMARK SMILES IDX 41 69 45 70 48 71 42 72 43 73 46 74 44 75 70 76 71 77 79 78
REMARK SMILES IDX 72 79 73 80 77 81 80 82 74 83 75 84 78 85 76 86 55 87 56 88
REMARK SMILES IDX 64 89 57 90 58 91 62 92 65 93 59 94 60 95 63 96 61 97
REMARK H PARENT 21 6 11 16 16 26 26 31 85 50 53 61
REMARK Flexibility Score: inf
ROOT
ATOM      1  C   UNL A   1      32.195  29.277  25.424  1.00  0.00     0.023 C 
ENDROOT
BRANCH   1   2
ATOM      2  C   UNL A   1      32.780  28.363  26.493  1.00  0.00     0.116 C 
BRANCH   2   3
ATOM      3  N   UNL A   1      33.763  27.418  26.038  1.00  0.00    -0.352 N 
ATOM      4  C   UNL A   1      33.599  26.134  25.575  1.00  0.00     0.253 C 
ATOM      5  O   UNL A   1      34.589  25.594  25.071  1.00  0.00    -0.269 OA
ATOM      6  H   UNL A   1      34.694  27.739  26.061  1.00  0.00     0.163 HD
BRANCH   4   7
ATOM      7  C   UNL A   1      32.382  25.302  25.837  1.00  0.00     0.067 A 
ATOM      8  C   UNL A   1      31.027  25.544  25.518  1.00  0.00     0.054 A 
ATOM      9  C   UNL A   1      30.040  24.697  26.066  1.00  0.00     0.031 A 
ATOM     10  C   UNL A   1      30.376  23.571  26.818  1.00  0.00     0.048 A 
ATOM     11  C   UNL A   1      32.698  24.144  26.592  1.00  0.00     0.062 A 
ATOM     12  C   UNL A   1      31.706  23.290  27.056  1.00  0.00     0.116 A 
BRANCH   8  13
ATOM     13  N   UNL A   1      30.495  26.544  24.668  1.00  0.00    -0.322 N 
ATOM     14  O   UNL A   1      31.078  25.700  22.598  1.00  0.00    -0.270 OA
ATOM     15  C   UNL A   1      30.627  26.589  23.302  1.00  0.00     0.248 C 
ATOM     16  H   UNL A   1      29.985  27.271  25.093  1.00  0.00     0.170 HD
BRANCH  15  17
ATOM     17  C   UNL A   1      30.175  27.864  22.656  1.00  0.00     0.072 C 
ATOM     18  C   UNL A   1      29.144  28.625  23.065  1.00  0.00     0.014 C 
BRANCH  18  19
ATOM     19  C   UNL A   1      28.908  30.026  22.642  1.00  0.00    -0.025 A 
ATOM     20  C   UNL A   1      28.482  30.263  21.325  1.00  0.00     0.008 A 
ATOM     21  C   UNL A   1      28.979  31.120  23.516  1.00  0.00     0.008 A 
ATOM     22  C   UNL A   1      28.086  31.542  20.913  1.00  0.00     0.001 A 
ATOM     23  C   UNL A   1      28.573  32.397  23.107  1.00  0.00     0.001 A 
ATOM     24  C   UNL A   1      28.113  32.606  21.810  1.00  0.00     0.000 A 
ENDBRANCH  18  19
ENDBRANCH  15  17
ENDBRANCH   8  13
BRANCH  12  25
ATOM     25  O   UNL A   1      32.005  22.164  27.764  1.00  0.00    -0.508 OA
ATOM     26  H   UNL A   1      31.361  21.780  28.327  1.00  0.00     0.293 HD
ENDBRANCH  12  25
ENDBRANCH   4   7
ENDBRANCH   2   3
ENDBRANCH   1   2
BRANCH   1  27
ATOM     27  C   UNL A   1      31.729  30.663  25.894  1.00  0.00     0.023 C 
BRANCH  27  28
ATOM     28  C   UNL A   1      32.168  31.083  27.299  1.00  0.00     0.116 C 
BRANCH  28  29
ATOM     29  N   UNL A   1      32.705  32.436  27.312  1.00  0.00    -0.352 N 
ATOM     30  C   UNL A   1      33.670  32.855  28.190  1.00  0.00     0.251 C 
ATOM     31  H   UNL A   1      32.356  33.084  26.657  1.00  0.00     0.163 HD
ATOM     32  O   UNL A   1      33.397  33.678  29.056  1.00  0.00    -0.269 OA
BRANCH  30  33
ATOM     33  C   UNL A   1      35.008  32.230  28.129  1.00  0.00     0.039 A 
ATOM     34  C   UNL A   1      36.123  33.071  28.042  1.00  0.00     0.014 A 
ATOM     35  C   UNL A   1      35.171  30.856  28.307  1.00  0.00     0.014 A 
ATOM     36  C   UNL A   1      37.376  32.580  28.381  1.00  0.00     0.010 A 
ATOM     37  C   UNL A   1      36.394  30.389  28.749  1.00  0.00     0.010 A 
ATOM     38  C   UNL A   1      37.475  31.275  28.874  1.00  0.00    -0.014 A 
BRANCH  38  39
ATOM     39  C   UNL A   1      38.624  30.846  29.699  1.00  0.00     0.031 A 
ATOM     40  C   UNL A   1      39.567  29.820  29.164  1.00  0.00     0.074 A 
ATOM     41  C   UNL A   1      38.672  31.253  30.985  1.00  0.00     0.049 A 
ATOM     42  N   UNL A   1      40.469  29.119  29.795  1.00  0.00    -0.248 NA
ATOM     43  C   UNL A   1      39.441  29.501  27.732  1.00  0.00     0.031 C 
ATOM     44  C   UNL A   1      37.744  32.201  31.613  1.00  0.00     0.029 A 
ATOM     45  N   UNL A   1      39.512  30.898  32.008  1.00  0.00    -0.354 N 
ATOM     46  C   UNL A   1      41.007  28.266  28.845  1.00  0.00     0.074 A 
ATOM     47  C   UNL A   1      40.288  28.491  27.609  1.00  0.00     0.031 C 
ATOM     48  C   UNL A   1      38.077  32.363  32.903  1.00  0.00     0.029 A 
ATOM     49  C   UNL A   1      39.200  31.491  33.209  1.00  0.00     0.049 A 
ATOM     50  H   UNL A   1      40.267  30.277  31.894  1.00  0.00     0.167 HD
ATOM     51  C   UNL A   1      42.028  27.392  28.994  1.00  0.00     0.037 A 
ATOM     52  C   UNL A   1      39.748  31.323  34.426  1.00  0.00     0.037 A 
ATOM     53  C   UNL A   1      42.726  27.195  30.235  1.00  0.00     0.049 A 
ATOM     54  C   UNL A   1      40.878  30.338  34.560  1.00  0.00     0.074 A 
ATOM     55  C   UNL A   1      43.781  26.346  30.511  1.00  0.00     0.029 A 
ATOM     56  N   UNL A   1      42.432  27.869  31.414  1.00  0.00    -0.354 N 
ATOM     57  N   UNL A   1      41.414  29.567  33.645  1.00  0.00    -0.248 NA
ATOM     58  C   UNL A   1      41.481  30.198  35.892  1.00  0.00     0.031 C 
ATOM     59  C   UNL A   1      44.111  26.491  31.862  1.00  0.00     0.029 A 
ATOM     60  C   UNL A   1      43.293  27.462  32.417  1.00  0.00     0.049 A 
ATOM     61  H   UNL A   1      41.716  28.537  31.519  1.00  0.00     0.167 HD
ATOM     62  C   UNL A   1      42.446  28.888  34.275  1.00  0.00     0.074 A 
ATOM     63  C   UNL A   1      42.461  29.338  35.651  1.00  0.00     0.031 C 
ATOM     64  C   UNL A   1      43.305  27.974  33.764  1.00  0.00     0.037 A 
BRANCH  51  65
ATOM     65  C   UNL A   1      42.451  26.615  27.783  1.00  0.00     0.064 A 
ATOM     66  C   UNL A   1      41.873  25.372  27.479  1.00  0.00     0.173 A 
ATOM     67  C   UNL A   1      43.431  27.113  26.912  1.00  0.00     0.173 A 
ATOM     68  F   UNL A   1      40.943  24.843  28.288  1.00  0.00    -0.203 F 
ATOM     69  C   UNL A   1      42.286  24.642  26.368  1.00  0.00     0.198 A 
ATOM     70  C   UNL A   1      43.819  26.393  25.785  1.00  0.00     0.198 A 
ATOM     71  F   UNL A   1      44.016  28.296  27.156  1.00  0.00    -0.203 F 
ATOM     72  F   UNL A   1      41.760  23.432  26.133  1.00  0.00    -0.200 F 
ATOM     73  C   UNL A   1      43.253  25.155  25.519  1.00  0.00     0.200 A 
ATOM     74  F   UNL A   1      44.745  26.896  24.957  1.00  0.00    -0.200 F 
ATOM     75  F   UNL A   1      43.647  24.452  24.448  1.00  0.00    -0.200 F 
ENDBRANCH  51  65
BRANCH  52  76
ATOM     76  C   UNL A   1      39.268  32.107  35.596  1.00  0.00     0.064 A 
ATOM     77  C   UNL A   1      39.732  33.412  35.818  1.00  0.00     0.173 A 
ATOM     78  C   UNL A   1      38.368  31.572  36.529  1.00  0.00     0.173 A 
ATOM     79  F   UNL A   1      40.603  33.966  34.961  1.00  0.00    -0.203 F 
ATOM     80  C   UNL A   1      39.347  34.135  36.945  1.00  0.00     0.198 A 
ATOM     81  C   UNL A   1      37.959  32.309  37.641  1.00  0.00     0.198 A 
ATOM     82  F   UNL A   1      37.881  30.335  36.363  1.00  0.00    -0.203 F 
ATOM     83  F   UNL A   1      39.858  35.355  37.161  1.00  0.00    -0.200 F 
ATOM     84  C   UNL A   1      38.460  33.584  37.856  1.00  0.00     0.200 A 
ATOM     85  F   UNL A   1      37.088  31.779  38.510  1.00  0.00    -0.200 F 
ATOM     86  F   UNL A   1      38.097  34.276  38.944  1.00  0.00    -0.200 F 
ENDBRANCH  52  76
BRANCH  64  87
ATOM     87  C   UNL A   1      44.384  27.466  34.670  1.00  0.00     0.064 A 
ATOM     88  C   UNL A   1      44.230  26.291  35.416  1.00  0.00     0.173 A 
ATOM     89  C   UNL A   1      45.618  28.132  34.724  1.00  0.00     0.173 A 
ATOM     90  F   UNL A   1      43.061  25.633  35.408  1.00  0.00    -0.203 F 
ATOM     91  C   UNL A   1      45.275  25.803  36.196  1.00  0.00     0.198 A 
ATOM     92  C   UNL A   1      46.669  27.625  35.482  1.00  0.00     0.198 A 
ATOM     93  F   UNL A   1      45.811  29.259  34.023  1.00  0.00    -0.203 F 
ATOM     94  F   UNL A   1      45.099  24.695  36.929  1.00  0.00    -0.200 F 
ATOM     95  C   UNL A   1      46.495  26.464  36.219  1.00  0.00     0.200 A 
ATOM     96  F   UNL A   1      47.851  28.255  35.490  1.00  0.00    -0.200 F 
ATOM     97  F   UNL A   1      47.505  25.979  36.953  1.00  0.00    -0.200 F 
ENDBRANCH  64  87
ENDBRANCH  38  39
ENDBRANCH  30  33
ENDBRANCH  28  29
ENDBRANCH  27  28
ENDBRANCH   1  27
TORSDOF 15
ENDMDL
MODEL 3
REMARK VINA RESULT:     -13.2      2.012      8.373
REMARK SMILES O=C(/C=C/c1ccccc1)Nc1ccc(O)cc1C(=O)NCCCCNC(=O)c1ccc(-c2c3nc(c(-c4c(F)c(F)c(F)c(F)c4F)c4ccc([nH]4)c(-c4c(F)c(F)c(F)c(F)c4F)c4nc(c(-c5c(F)c(F)c(F)c(F)c5F)c5ccc2[nH]5)C=C4)C=C3)cc1
REMARK SMILES IDX 23 1 22 2 21 3 19 4 20 5 18 7 12 8 13 9 14 10 17 11 15 12
REMARK SMILES IDX 11 13 1 14 2 15 3 17 4 18 5 19 6 20 10 21 7 22 9 23 8 24
REMARK SMILES IDX 16 25 24 27 25 28 26 29 27 30 28 32 29 33 30 34 91 35 31 36
REMARK SMILES IDX 90 37 32 38 33 39 34 40 84 41 35 42 89 43 83 44 85 45 36 46
REMARK SMILES IDX 88 47 82 48 81 49 37 51 69 52 49 53 68 54 50 55 53 56 67 57
REMARK SMILES IDX 86 58 51 59 52 60 66 62 87 63 54 64 38 65 39 66 47 67 40 68
REMARK SMILES IDX 41 69 45 70 48 71 42 72 43 73 46 74 44 75 70 76 71 77 79 78
REMARK SMILES IDX 72 79 73 80 77 81 80 82 74 83 75 84 78 85 76 86 55 87 56 88
REMARK SMILES IDX 64 89 57 90 58 91 62 92 65 93 59 94 60 95 63 96 61 97
REMARK H PARENT 21 6 11 16 16 26 26 31 85 50 53 61
REMARK Flexibility Score: inf
ROOT
ATOM      1  C   UNL A   1      33.469  28.282  25.660  1.00  0.00     0.023 C 
ENDROOT
BRANCH   1   2
ATOM      2  C   UNL A   1      33.214  27.029  26.488  1.00  0.00     0.116 C 
BRANCH   2   3
ATOM      3  N   UNL A   1      31.833  26.701  26.717  1.00  0.00    -0.352 N 
ATOM      4  C   UNL A   1      30.929  26.080  25.888  1.00  0.00     0.253 C 
ATOM      5  O   UNL A   1      29.851  25.748  26.390  1.00  0.00    -0.269 OA
ATOM      6  H   UNL A   1      31.482  26.958  27.601  1.00  0.00     0.163 HD
BRANCH   4   7
ATOM      7  C   UNL A   1      31.089  25.984  24.402  1.00  0.00     0.067 A 
ATOM      8  C   UNL A   1      31.679  24.971  23.614  1.00  0.00     0.054 A 
ATOM      9  C   UNL A   1      31.895  25.219  22.241  1.00  0.00     0.031 A 
ATOM     10  C   UNL A   1      31.442  26.388  21.628  1.00  0.00     0.048 A 
ATOM     11  C   UNL A   1      30.628  27.157  23.754  1.00  0.00     0.062 A 
ATOM     12  C   UNL A   1      30.790  27.341  22.386  1.00  0.00     0.116 A 
BRANCH   8  13
ATOM     13  N   UNL A   1      32.079  23.673  24.015  1.00  0.00    -0.322 N 
ATOM     14  O   UNL A   1      34.158  24.125  24.914  1.00  0.00    -0.270 OA
ATOM     15  C   UNL A   1      33.298  23.339  24.552  1.00  0.00     0.248 C 
ATOM     16  H   UNL A   1      31.426  22.946  23.899  1.00  0.00     0.170 HD
BRANCH  15  17
ATOM     17  C   UNL A   1      33.562  21.869  24.677  1.00  0.00     0.072 C 
ATOM     18  C   UNL A   1      32.771  20.890  24.202  1.00  0.00     0.014 C 
BRANCH  18  19
ATOM     19  C   UNL A   1      33.185  19.476  24.035  1.00  0.00    -0.025 A 
ATOM     20  C   UNL A   1      32.466  18.671  23.136  1.00  0.00     0.008 A 
ATOM     21  C   UNL A   1      34.325  18.927  24.640  1.00  0.00     0.008 A 
ATOM     22  C   UNL A   1      32.905  17.381  22.811  1.00  0.00     0.001 A 
ATOM     23  C   UNL A   1      34.769  17.641  24.307  1.00  0.00     0.001 A 
ATOM     24  C   UNL A   1      34.067  16.873  23.383  1.00  0.00     0.000 A 
ENDBRANCH  18  19
ENDBRANCH  15  17
ENDBRANCH   8  13
BRANCH  12  25
ATOM     25  O   UNL A   1      30.329  28.456  21.754  1.00  0.00    -0.508 OA
ATOM     26  H   UNL A   1      30.121  28.424  20.841  1.00  0.00     0.293 HD
ENDBRANCH  12  25
ENDBRANCH   4   7
ENDBRANCH   2   3
ENDBRANCH   1   2
BRANCH   1  27
ATOM     27  C   UNL A   1      32.490  29.446  25.866  1.00  0.00     0.023 C 
BRANCH  27  28
ATOM     28  C   UNL A   1      32.493  30.096  27.253  1.00  0.00     0.116 C 
BRANCH  28  29
ATOM     29  N   UNL A   1      32.875  31.499  27.188  1.00  0.00    -0.352 N 
ATOM     30  C   UNL A   1      33.804  32.066  28.020  1.00  0.00     0.251 C 
ATOM     31  H   UNL A   1      32.442  32.070  26.512  1.00  0.00     0.163 HD
ATOM     32  O   UNL A   1      33.457  32.896  28.853  1.00  0.00    -0.269 OA
BRANCH  30  33
ATOM     33  C   UNL A   1      35.202  31.592  27.954  1.00  0.00     0.039 A 
ATOM     34  C   UNL A   1      36.223  32.549  27.994  1.00  0.00     0.014 A 
ATOM     35  C   UNL A   1      35.505  30.232  28.008  1.00  0.00     0.014 A 
ATOM     36  C   UNL A   1      37.511  32.159  28.336  1.00  0.00     0.010 A 
ATOM     37  C   UNL A   1      36.758  29.853  28.453  1.00  0.00     0.010 A 
ATOM     38  C   UNL A   1      37.734  30.828  28.706  1.00  0.00    -0.014 A 
BRANCH  38  39
ATOM     39  C   UNL A   1      38.895  30.441  29.532  1.00  0.00     0.031 A 
ATOM     40  C   UNL A   1      39.843  29.406  29.024  1.00  0.00     0.074 A 
ATOM     41  C   UNL A   1      38.953  30.895  30.802  1.00  0.00     0.049 A 
ATOM     42  N   UNL A   1      40.759  28.738  29.670  1.00  0.00    -0.248 NA
ATOM     43  C   UNL A   1      39.705  29.035  27.606  1.00  0.00     0.031 C 
ATOM     44  C   UNL A   1      38.023  31.856  31.407  1.00  0.00     0.029 A 
ATOM     45  N   UNL A   1      39.808  30.585  31.828  1.00  0.00    -0.354 N 
ATOM     46  C   UNL A   1      41.295  27.856  28.745  1.00  0.00     0.074 A 
ATOM     47  C   UNL A   1      40.561  28.029  27.510  1.00  0.00     0.031 C 
ATOM     48  C   UNL A   1      38.368  32.068  32.686  1.00  0.00     0.029 A 
ATOM     49  C   UNL A   1      39.503  31.218  33.011  1.00  0.00     0.049 A 
ATOM     50  H   UNL A   1      40.569  29.968  31.728  1.00  0.00     0.167 HD
ATOM     51  C   UNL A   1      42.328  26.998  28.914  1.00  0.00     0.037 A 
ATOM     52  C   UNL A   1      40.067  31.099  34.227  1.00  0.00     0.037 A 
ATOM     53  C   UNL A   1      43.040  26.852  30.153  1.00  0.00     0.049 A 
ATOM     54  C   UNL A   1      41.208  30.131  34.383  1.00  0.00     0.074 A 
ATOM     55  C   UNL A   1      44.107  26.025  30.448  1.00  0.00     0.029 A 
ATOM     56  N   UNL A   1      42.753  27.566  31.310  1.00  0.00    -0.354 N 
ATOM     57  N   UNL A   1      41.742  29.333  33.491  1.00  0.00    -0.248 NA
ATOM     58  C   UNL A   1      41.827  30.045  35.712  1.00  0.00     0.031 C 
ATOM     59  C   UNL A   1      44.451  26.221  31.788  1.00  0.00     0.029 A 
ATOM     60  C   UNL A   1      43.629  27.204  32.317  1.00  0.00     0.049 A 
ATOM     61  H   UNL A   1      42.031  28.230  31.400  1.00  0.00     0.167 HD
ATOM     62  C   UNL A   1      42.788  28.687  34.132  1.00  0.00     0.074 A 
ATOM     63  C   UNL A   1      42.813  29.187  35.492  1.00  0.00     0.031 C 
ATOM     64  C   UNL A   1      43.651  27.764  33.645  1.00  0.00     0.037 A 
BRANCH  51  65
ATOM     65  C   UNL A   1      42.745  26.182  27.727  1.00  0.00     0.064 A 
ATOM     66  C   UNL A   1      43.741  26.637  26.847  1.00  0.00     0.173 A 
ATOM     67  C   UNL A   1      42.158  24.936  27.465  1.00  0.00     0.173 A 
ATOM     68  F   UNL A   1      44.322  27.830  27.044  1.00  0.00    -0.203 F 
ATOM     69  C   UNL A   1      44.109  25.890  25.732  1.00  0.00     0.198 A 
ATOM     70  C   UNL A   1      42.552  24.177  26.365  1.00  0.00     0.198 A 
ATOM     71  F   UNL A   1      41.202  24.454  28.273  1.00  0.00    -0.203 F 
ATOM     72  F   UNL A   1      45.020  26.373  24.877  1.00  0.00    -0.200 F 
ATOM     73  C   UNL A   1      43.519  24.658  25.495  1.00  0.00     0.200 A 
ATOM     74  F   UNL A   1      41.989  22.981  26.143  1.00  0.00    -0.200 F 
ATOM     75  F   UNL A   1      43.876  23.938  24.423  1.00  0.00    -0.200 F 
ENDBRANCH  51  65
BRANCH  52  76
ATOM     76  C   UNL A   1      39.591  31.920  35.373  1.00  0.00     0.064 A 
ATOM     77  C   UNL A   1      38.655  31.403  36.281  1.00  0.00     0.173 A 
ATOM     78  C   UNL A   1      40.029  33.238  35.574  1.00  0.00     0.173 A 
ATOM     79  F   UNL A   1      38.196  30.153  36.126  1.00  0.00    -0.203 F 
ATOM     80  C   UNL A   1      38.146  32.182  37.318  1.00  0.00     0.198 A 
ATOM     81  C   UNL A   1      39.543  34.005  36.632  1.00  0.00     0.198 A 
ATOM     82  F   UNL A   1      40.932  33.781  34.747  1.00  0.00    -0.203 F 
ATOM     83  F   UNL A   1      37.206  31.679  38.130  1.00  0.00    -0.200 F 
ATOM     84  C   UNL A   1      38.591  33.482  37.494  1.00  0.00     0.200 A 
ATOM     85  F   UNL A   1      39.988  35.257  36.809  1.00  0.00    -0.200 F 
ATOM     86  F   UNL A   1      38.095  34.234  38.487  1.00  0.00    -0.200 F 
ENDBRANCH  52  76
BRANCH  64  87
ATOM     87  C   UNL A   1      44.745  27.300  34.556  1.00  0.00     0.064 A 
ATOM     88  C   UNL A   1      45.964  27.983  34.655  1.00  0.00     0.173 A 
ATOM     89  C   UNL A   1      44.530  26.198  35.397  1.00  0.00     0.173 A 
ATOM     90  F   UNL A   1      46.219  29.031  33.856  1.00  0.00    -0.203 F 
ATOM     91  C   UNL A   1      46.937  27.572  35.561  1.00  0.00     0.198 A 
ATOM     92  C   UNL A   1      45.493  25.809  36.322  1.00  0.00     0.198 A 
ATOM     93  F   UNL A   1      43.376  25.517  35.339  1.00  0.00    -0.203 F 
ATOM     94  F   UNL A   1      48.110  28.218  35.619  1.00  0.00    -0.200 F 
ATOM     95  C   UNL A   1      46.696  26.494  36.400  1.00  0.00     0.200 A 
ATOM     96  F   UNL A   1      45.253  24.777  37.143  1.00  0.00    -0.200 F 
ATOM     97  F   UNL A   1      47.625  26.114  37.287  1.00  0.00    -0.200 F 
ENDBRANCH  64  87
ENDBRANCH  38  39
ENDBRANCH  30  33
ENDBRANCH  28  29
ENDBRANCH  27  28
ENDBRANCH   1  27
TORSDOF 15
ENDMDL
