MODEL 1
REMARK VINA RESULT:     -10.9      0.000      0.000
REMARK SMILES CCC[NH2+]CC(=O)N1CCC(CC(=O)NCCCCNC(=O)c2ccc(-c3c4nc(c(-c5c(F)c(F)c(F)c(F)c5F)c5ccc([nH]5)c(-c5c(F)c(F)c(F)c(F)c5F)c5nc(c(-c6c(F)c(F)c(F)c(F)c6F)c6ccc3[nH]6)C=C5)C=C4)cc2)CC1
REMARK SMILES IDX 16 1 15 2 13 3 14 4 12 6 11 7 6 8 7 9 8 10 9 11 87 12 10 13
REMARK SMILES IDX 86 14 5 15 4 16 3 19 2 20 1 21 17 22 18 23 19 24 20 25 21 26
REMARK SMILES IDX 22 28 23 29 24 30 85 31 25 32 84 33 26 34 27 35 28 36 78 37
REMARK SMILES IDX 29 38 83 39 77 40 79 41 30 42 82 43 76 44 75 45 31 47 63 48
REMARK SMILES IDX 43 49 62 50 44 51 47 52 61 53 80 54 45 55 46 56 60 58 81 59
REMARK SMILES IDX 48 60 32 61 33 62 41 63 34 64 35 65 39 66 42 67 36 68 37 69
REMARK SMILES IDX 40 70 38 71 64 72 65 73 73 74 66 75 67 76 71 77 74 78 68 79
REMARK SMILES IDX 69 80 72 81 70 82 49 83 50 84 58 85 51 86 52 87 56 88 59 89
REMARK SMILES IDX 53 90 54 91 57 92 55 93
REMARK H PARENT 15 5 4 17 4 18 20 27 79 46 47 57
REMARK Flexibility Score: inf
ROOT
ATOM      1  C   UNL A   1      34.339  32.080  27.845  1.00  0.00     0.116 C 
ENDROOT
BRANCH   1   2
ATOM      2  N   UNL A   1      35.534  31.260  27.743  1.00  0.00    -0.356 N 
ATOM      3  C   UNL A   1      35.665  29.907  27.620  1.00  0.00     0.220 C 
ATOM      4  O   UNL A   1      36.797  29.422  27.629  1.00  0.00    -0.275 OA
ATOM      5  H   UNL A   1      36.383  31.759  27.765  1.00  0.00     0.163 HD
BRANCH   3   6
ATOM      6  C   UNL A   1      34.439  29.021  27.488  1.00  0.00     0.103 C 
BRANCH   6   7
ATOM      7  C   UNL A   1      34.102  28.620  26.038  1.00  0.00     0.002 C 
ATOM      8  C   UNL A   1      30.745  27.262  24.213  1.00  0.00     0.277 C 
ATOM      9  O   UNL A   1      30.355  26.542  25.137  1.00  0.00    -0.268 OA
ATOM     10  N   UNL A   1      32.070  27.672  24.148  1.00  0.00    -0.338 N 
ATOM     11  C   UNL A   1      33.098  26.753  24.588  1.00  0.00     0.120 C 
ATOM     12  C   UNL A   1      32.476  29.069  24.136  1.00  0.00     0.120 C 
ATOM     13  C   UNL A   1      33.658  27.163  25.936  1.00  0.00     0.026 C 
ATOM     14  C   UNL A   1      32.997  29.532  25.495  1.00  0.00     0.026 C 
BRANCH   8  15
ATOM     15  C   UNL A   1      29.851  27.465  22.966  1.00  0.00     0.362 C 
BRANCH  15  16
ATOM     16  N   UNL A   1      28.797  28.484  23.070  1.00  0.00    -0.338 N 
ATOM     17  H   UNL A   1      28.007  28.196  22.493  1.00  0.00     0.346 HD
ATOM     18  H   UNL A   1      28.539  28.559  24.055  1.00  0.00     0.346 HD
BRANCH  16  19
ATOM     19  C   UNL A   1      29.239  29.801  22.631  1.00  0.00     0.260 C 
BRANCH  19  20
ATOM     20  C   UNL A   1      28.905  30.980  23.567  1.00  0.00     0.058 C 
ATOM     21  C   UNL A   1      27.645  31.785  23.280  1.00  0.00     0.010 C 
ENDBRANCH  19  20
ENDBRANCH  16  19
ENDBRANCH  15  16
ENDBRANCH   8  15
ENDBRANCH   6   7
ENDBRANCH   3   6
ENDBRANCH   1   2
BRANCH   1  22
ATOM     22  C   UNL A   1      34.577  33.328  28.701  1.00  0.00     0.023 C 
BRANCH  22  23
ATOM     23  C   UNL A   1      33.363  34.205  28.925  1.00  0.00     0.023 C 
BRANCH  23  24
ATOM     24  C   UNL A   1      33.691  35.525  29.585  1.00  0.00     0.116 C 
BRANCH  24  25
ATOM     25  N   UNL A   1      32.663  35.989  30.511  1.00  0.00    -0.352 N 
ATOM     26  C   UNL A   1      32.620  35.818  31.875  1.00  0.00     0.251 C 
ATOM     27  H   UNL A   1      31.912  36.486  30.113  1.00  0.00     0.163 HD
ATOM     28  O   UNL A   1      31.660  36.189  32.540  1.00  0.00    -0.269 OA
BRANCH  26  29
ATOM     29  C   UNL A   1      33.748  35.116  32.511  1.00  0.00     0.039 A 
ATOM     30  C   UNL A   1      33.580  33.794  32.925  1.00  0.00     0.014 A 
ATOM     31  C   UNL A   1      35.003  35.728  32.545  1.00  0.00     0.014 A 
ATOM     32  C   UNL A   1      34.700  33.052  33.297  1.00  0.00     0.010 A 
ATOM     33  C   UNL A   1      36.123  34.954  32.797  1.00  0.00     0.010 A 
ATOM     34  C   UNL A   1      35.982  33.613  33.189  1.00  0.00    -0.014 A 
BRANCH  34  35
ATOM     35  C   UNL A   1      37.204  32.847  33.527  1.00  0.00     0.031 A 
ATOM     36  C   UNL A   1      37.904  33.138  34.825  1.00  0.00     0.074 A 
ATOM     37  C   UNL A   1      37.731  31.978  32.643  1.00  0.00     0.049 A 
ATOM     38  N   UNL A   1      39.062  32.712  35.259  1.00  0.00    -0.248 NA
ATOM     39  C   UNL A   1      37.232  34.080  35.737  1.00  0.00     0.031 C 
ATOM     40  C   UNL A   1      37.175  31.660  31.326  1.00  0.00     0.029 A 
ATOM     41  N   UNL A   1      38.865  31.211  32.718  1.00  0.00    -0.354 N 
ATOM     42  C   UNL A   1      39.271  33.368  36.464  1.00  0.00     0.074 A 
ATOM     43  C   UNL A   1      38.157  34.266  36.665  1.00  0.00     0.031 C 
ATOM     44  C   UNL A   1      37.953  30.740  30.731  1.00  0.00     0.029 A 
ATOM     45  C   UNL A   1      39.080  30.434  31.607  1.00  0.00     0.049 A 
ATOM     46  H   UNL A   1      39.469  31.218  33.496  1.00  0.00     0.167 HD
ATOM     47  C   UNL A   1      40.287  33.210  37.343  1.00  0.00     0.037 A 
ATOM     48  C   UNL A   1      40.077  29.572  31.333  1.00  0.00     0.037 A 
ATOM     49  C   UNL A   1      41.353  32.262  37.171  1.00  0.00     0.049 A 
ATOM     50  C   UNL A   1      41.167  29.372  32.351  1.00  0.00     0.074 A 
ATOM     51  C   UNL A   1      42.391  31.963  38.032  1.00  0.00     0.029 A 
ATOM     52  N   UNL A   1      41.502  31.446  36.059  1.00  0.00    -0.354 N 
ATOM     53  N   UNL A   1      41.329  29.954  33.515  1.00  0.00    -0.248 NA
ATOM     54  C   UNL A   1      42.209  28.389  32.023  1.00  0.00     0.031 C 
ATOM     55  C   UNL A   1      43.182  30.979  37.432  1.00  0.00     0.029 A 
ATOM     56  C   UNL A   1      42.617  30.642  36.212  1.00  0.00     0.049 A 
ATOM     57  H   UNL A   1      40.902  31.438  35.277  1.00  0.00     0.167 HD
ATOM     58  C   UNL A   1      42.469  29.391  34.070  1.00  0.00     0.074 A 
ATOM     59  C   UNL A   1      42.954  28.412  33.119  1.00  0.00     0.031 C 
ATOM     60  C   UNL A   1      43.063  29.658  35.258  1.00  0.00     0.037 A 
BRANCH  47  61
ATOM     61  C   UNL A   1      40.272  34.066  38.574  1.00  0.00     0.064 A 
ATOM     62  C   UNL A   1      39.600  33.668  39.739  1.00  0.00     0.173 A 
ATOM     63  C   UNL A   1      40.938  35.301  38.590  1.00  0.00     0.173 A 
ATOM     64  F   UNL A   1      38.931  32.505  39.768  1.00  0.00    -0.203 F 
ATOM     65  C   UNL A   1      39.564  34.490  40.862  1.00  0.00     0.198 A 
ATOM     66  C   UNL A   1      40.927  36.106  39.726  1.00  0.00     0.198 A 
ATOM     67  F   UNL A   1      41.596  35.729  37.502  1.00  0.00    -0.203 F 
ATOM     68  F   UNL A   1      38.862  34.116  41.941  1.00  0.00    -0.200 F 
ATOM     69  C   UNL A   1      40.231  35.704  40.857  1.00  0.00     0.200 A 
ATOM     70  F   UNL A   1      41.581  37.276  39.723  1.00  0.00    -0.200 F 
ATOM     71  F   UNL A   1      40.196  36.494  41.939  1.00  0.00    -0.200 F 
ENDBRANCH  47  61
BRANCH  48  72
ATOM     72  C   UNL A   1      40.068  28.800  30.063  1.00  0.00     0.064 A 
ATOM     73  C   UNL A   1      40.654  29.327  28.903  1.00  0.00     0.173 A 
ATOM     74  C   UNL A   1      39.481  27.530  29.978  1.00  0.00     0.173 A 
ATOM     75  F   UNL A   1      41.212  30.547  28.931  1.00  0.00    -0.203 F 
ATOM     76  C   UNL A   1      40.633  28.623  27.701  1.00  0.00     0.198 A 
ATOM     77  C   UNL A   1      39.481  26.817  28.781  1.00  0.00     0.198 A 
ATOM     78  F   UNL A   1      38.913  26.980  31.062  1.00  0.00    -0.203 F 
ATOM     79  F   UNL A   1      41.163  29.169  26.598  1.00  0.00    -0.200 F 
ATOM     80  C   UNL A   1      40.051  27.366  27.642  1.00  0.00     0.200 A 
ATOM     81  F   UNL A   1      38.929  25.597  28.731  1.00  0.00    -0.200 F 
ATOM     82  F   UNL A   1      40.032  26.688  26.486  1.00  0.00    -0.200 F 
ENDBRANCH  48  72
BRANCH  60  83
ATOM     83  C   UNL A   1      44.273  28.853  35.618  1.00  0.00     0.064 A 
ATOM     84  C   UNL A   1      44.167  27.649  36.330  1.00  0.00     0.173 A 
ATOM     85  C   UNL A   1      45.545  29.262  35.194  1.00  0.00     0.173 A 
ATOM     86  F   UNL A   1      42.972  27.227  36.768  1.00  0.00    -0.203 F 
ATOM     87  C   UNL A   1      45.298  26.891  36.617  1.00  0.00     0.198 A 
ATOM     88  C   UNL A   1      46.670  28.489  35.461  1.00  0.00     0.198 A 
ATOM     89  F   UNL A   1      45.694  30.403  34.504  1.00  0.00    -0.203 F 
ATOM     90  F   UNL A   1      45.181  25.761  37.328  1.00  0.00    -0.200 F 
ATOM     91  C   UNL A   1      46.546  27.306  36.175  1.00  0.00     0.200 A 
ATOM     92  F   UNL A   1      47.874  28.884  35.024  1.00  0.00    -0.200 F 
ATOM     93  F   UNL A   1      47.632  26.568  36.444  1.00  0.00    -0.200 F 
ENDBRANCH  60  83
ENDBRANCH  34  35
ENDBRANCH  26  29
ENDBRANCH  24  25
ENDBRANCH  23  24
ENDBRANCH  22  23
ENDBRANCH   1  22
TORSDOF 16
ENDMDL
MODEL 2
REMARK VINA RESULT:     -10.7      6.437     10.901
REMARK SMILES CCC[NH2+]CC(=O)N1CCC(CC(=O)NCCCCNC(=O)c2ccc(-c3c4nc(c(-c5c(F)c(F)c(F)c(F)c5F)c5ccc([nH]5)c(-c5c(F)c(F)c(F)c(F)c5F)c5nc(c(-c6c(F)c(F)c(F)c(F)c6F)c6ccc3[nH]6)C=C5)C=C4)cc2)CC1
REMARK SMILES IDX 16 1 15 2 13 3 14 4 12 6 11 7 6 8 7 9 8 10 9 11 87 12 10 13
REMARK SMILES IDX 86 14 5 15 4 16 3 19 2 20 1 21 17 22 18 23 19 24 20 25 21 26
REMARK SMILES IDX 22 28 23 29 24 30 85 31 25 32 84 33 26 34 27 35 28 36 78 37
REMARK SMILES IDX 29 38 83 39 77 40 79 41 30 42 82 43 76 44 75 45 31 47 63 48
REMARK SMILES IDX 43 49 62 50 44 51 47 52 61 53 80 54 45 55 46 56 60 58 81 59
REMARK SMILES IDX 48 60 32 61 33 62 41 63 34 64 35 65 39 66 42 67 36 68 37 69
REMARK SMILES IDX 40 70 38 71 64 72 65 73 73 74 66 75 67 76 71 77 74 78 68 79
REMARK SMILES IDX 69 80 72 81 70 82 49 83 50 84 58 85 51 86 52 87 56 88 59 89
REMARK SMILES IDX 53 90 54 91 57 92 55 93
REMARK H PARENT 15 5 4 17 4 18 20 27 79 46 47 57
REMARK Flexibility Score: inf
ROOT
ATOM      1  C   UNL A   1      37.286  23.165  25.615  1.00  0.00     0.116 C 
ENDROOT
BRANCH   1   2
ATOM      2  N   UNL A   1      36.095  22.962  26.423  1.00  0.00    -0.356 N 
ATOM      3  C   UNL A   1      34.834  23.462  26.271  1.00  0.00     0.220 C 
ATOM      4  O   UNL A   1      33.993  23.210  27.136  1.00  0.00    -0.275 OA
ATOM      5  H   UNL A   1      36.216  22.371  27.200  1.00  0.00     0.163 HD
BRANCH   3   6
ATOM      6  C   UNL A   1      34.481  24.320  25.070  1.00  0.00     0.103 C 
BRANCH   6   7
ATOM      7  C   UNL A   1      33.168  25.114  25.223  1.00  0.00     0.002 C 
ATOM      8  C   UNL A   1      31.605  28.340  23.325  1.00  0.00     0.277 C 
ATOM      9  O   UNL A   1      32.665  28.959  23.189  1.00  0.00    -0.268 OA
ATOM     10  N   UNL A   1      31.497  27.326  24.268  1.00  0.00    -0.338 N 
ATOM     11  C   UNL A   1      32.201  27.474  25.524  1.00  0.00     0.120 C 
ATOM     12  C   UNL A   1      31.145  25.955  23.933  1.00  0.00     0.120 C 
ATOM     13  C   UNL A   1      33.423  26.578  25.574  1.00  0.00     0.026 C 
ATOM     14  C   UNL A   1      32.362  25.032  23.922  1.00  0.00     0.026 C 
BRANCH   8  15
ATOM     15  C   UNL A   1      30.310  28.878  22.672  1.00  0.00     0.362 C 
BRANCH  15  16
ATOM     16  N   UNL A   1      30.470  29.949  21.677  1.00  0.00    -0.338 N 
ATOM     17  H   UNL A   1      31.265  30.528  21.947  1.00  0.00     0.346 HD
ATOM     18  H   UNL A   1      30.616  29.504  20.770  1.00  0.00     0.346 HD
BRANCH  16  19
ATOM     19  C   UNL A   1      29.291  30.797  21.565  1.00  0.00     0.260 C 
BRANCH  19  20
ATOM     20  C   UNL A   1      28.102  30.436  22.478  1.00  0.00     0.058 C 
ATOM     21  C   UNL A   1      27.652  31.469  23.504  1.00  0.00     0.010 C 
ENDBRANCH  19  20
ENDBRANCH  16  19
ENDBRANCH  15  16
ENDBRANCH   8  15
ENDBRANCH   6   7
ENDBRANCH   3   6
ENDBRANCH   1   2
BRANCH   1  22
ATOM     22  C   UNL A   1      37.481  22.035  24.599  1.00  0.00     0.023 C 
BRANCH  22  23
ATOM     23  C   UNL A   1      37.929  20.709  25.178  1.00  0.00     0.023 C 
BRANCH  23  24
ATOM     24  C   UNL A   1      39.221  20.802  25.958  1.00  0.00     0.116 C 
BRANCH  24  25
ATOM     25  N   UNL A   1      40.000  19.569  25.951  1.00  0.00    -0.352 N 
ATOM     26  C   UNL A   1      41.357  19.430  26.131  1.00  0.00     0.251 C 
ATOM     27  H   UNL A   1      39.496  18.737  25.801  1.00  0.00     0.163 HD
ATOM     28  O   UNL A   1      41.912  18.342  26.028  1.00  0.00    -0.269 OA
BRANCH  26  29
ATOM     29  C   UNL A   1      42.139  20.649  26.400  1.00  0.00     0.039 A 
ATOM     30  C   UNL A   1      42.602  21.410  25.326  1.00  0.00     0.014 A 
ATOM     31  C   UNL A   1      42.268  21.104  27.714  1.00  0.00     0.014 A 
ATOM     32  C   UNL A   1      43.122  22.680  25.569  1.00  0.00     0.010 A 
ATOM     33  C   UNL A   1      42.670  22.409  27.939  1.00  0.00     0.010 A 
ATOM     34  C   UNL A   1      43.114  23.205  26.871  1.00  0.00    -0.014 A 
BRANCH  34  35
ATOM     35  C   UNL A   1      43.613  24.568  27.169  1.00  0.00     0.031 A 
ATOM     36  C   UNL A   1      42.651  25.590  27.706  1.00  0.00     0.074 A 
ATOM     37  C   UNL A   1      44.881  24.910  26.872  1.00  0.00     0.049 A 
ATOM     38  N   UNL A   1      42.818  26.873  27.891  1.00  0.00    -0.248 NA
ATOM     39  C   UNL A   1      41.296  25.109  28.028  1.00  0.00     0.031 C 
ATOM     40  C   UNL A   1      45.890  24.022  26.290  1.00  0.00     0.029 A 
ATOM     41  N   UNL A   1      45.535  26.108  27.009  1.00  0.00    -0.354 N 
ATOM     42  C   UNL A   1      41.583  27.353  28.305  1.00  0.00     0.074 A 
ATOM     43  C   UNL A   1      40.660  26.242  28.284  1.00  0.00     0.031 C 
ATOM     44  C   UNL A   1      47.043  24.697  26.150  1.00  0.00     0.029 A 
ATOM     45  C   UNL A   1      46.844  26.073  26.595  1.00  0.00     0.049 A 
ATOM     46  H   UNL A   1      45.105  26.917  27.370  1.00  0.00     0.167 HD
ATOM     47  C   UNL A   1      41.256  28.604  28.701  1.00  0.00     0.037 A 
ATOM     48  C   UNL A   1      47.773  27.047  26.581  1.00  0.00     0.037 A 
ATOM     49  C   UNL A   1      42.197  29.686  28.789  1.00  0.00     0.049 A 
ATOM     50  C   UNL A   1      47.400  28.417  27.079  1.00  0.00     0.074 A 
ATOM     51  C   UNL A   1      41.993  30.973  29.250  1.00  0.00     0.029 A 
ATOM     52  N   UNL A   1      43.531  29.595  28.420  1.00  0.00    -0.354 N 
ATOM     53  N   UNL A   1      46.245  28.849  27.522  1.00  0.00    -0.248 NA
ATOM     54  C   UNL A   1      48.462  29.433  27.083  1.00  0.00     0.031 C 
ATOM     55  C   UNL A   1      43.201  31.669  29.139  1.00  0.00     0.029 A 
ATOM     56  C   UNL A   1      44.164  30.805  28.643  1.00  0.00     0.049 A 
ATOM     57  H   UNL A   1      43.964  28.788  28.057  1.00  0.00     0.167 HD
ATOM     58  C   UNL A   1      46.445  30.174  27.884  1.00  0.00     0.074 A 
ATOM     59  C   UNL A   1      47.837  30.472  27.618  1.00  0.00     0.031 C 
ATOM     60  C   UNL A   1      45.558  31.065  28.390  1.00  0.00     0.037 A 
BRANCH  47  61
ATOM     61  C   UNL A   1      39.829  28.854  29.087  1.00  0.00     0.064 A 
ATOM     62  C   UNL A   1      38.883  29.305  28.155  1.00  0.00     0.173 A 
ATOM     63  C   UNL A   1      39.400  28.639  30.405  1.00  0.00     0.173 A 
ATOM     64  F   UNL A   1      39.247  29.544  26.885  1.00  0.00    -0.203 F 
ATOM     65  C   UNL A   1      37.570  29.567  28.535  1.00  0.00     0.198 A 
ATOM     66  C   UNL A   1      38.078  28.872  30.775  1.00  0.00     0.198 A 
ATOM     67  F   UNL A   1      40.264  28.209  31.336  1.00  0.00    -0.203 F 
ATOM     68  F   UNL A   1      36.700  30.057  27.640  1.00  0.00    -0.200 F 
ATOM     69  C   UNL A   1      37.167  29.346  29.842  1.00  0.00     0.200 A 
ATOM     70  F   UNL A   1      37.687  28.648  32.038  1.00  0.00    -0.200 F 
ATOM     71  F   UNL A   1      35.902  29.598  30.207  1.00  0.00    -0.200 F 
ENDBRANCH  47  61
BRANCH  48  72
ATOM     72  C   UNL A   1      49.156  26.751  26.123  1.00  0.00     0.064 A 
ATOM     73  C   UNL A   1      50.108  26.237  27.015  1.00  0.00     0.173 A 
ATOM     74  C   UNL A   1      49.556  26.973  24.799  1.00  0.00     0.173 A 
ATOM     75  F   UNL A   1      49.777  26.026  28.298  1.00  0.00    -0.203 F 
ATOM     76  C   UNL A   1      51.414  25.976  26.605  1.00  0.00     0.198 A 
ATOM     77  C   UNL A   1      50.856  26.690  24.383  1.00  0.00     0.198 A 
ATOM     78  F   UNL A   1      48.681  27.458  23.905  1.00  0.00    -0.203 F 
ATOM     79  F   UNL A   1      52.314  25.524  27.489  1.00  0.00    -0.200 F 
ATOM     80  C   UNL A   1      51.785  26.198  25.287  1.00  0.00     0.200 A 
ATOM     81  F   UNL A   1      51.209  26.894  23.107  1.00  0.00    -0.200 F 
ATOM     82  F   UNL A   1      53.041  25.946  24.892  1.00  0.00    -0.200 F 
ENDBRANCH  48  72
BRANCH  60  83
ATOM     83  C   UNL A   1      46.074  32.429  28.732  1.00  0.00     0.064 A 
ATOM     84  C   UNL A   1      46.031  33.482  27.807  1.00  0.00     0.173 A 
ATOM     85  C   UNL A   1      46.560  32.698  30.020  1.00  0.00     0.173 A 
ATOM     86  F   UNL A   1      45.587  33.267  26.560  1.00  0.00    -0.203 F 
ATOM     87  C   UNL A   1      46.473  34.754  28.157  1.00  0.00     0.198 A 
ATOM     88  C   UNL A   1      46.978  33.977  30.373  1.00  0.00     0.198 A 
ATOM     89  F   UNL A   1      46.613  31.722  30.940  1.00  0.00    -0.203 F 
ATOM     90  F   UNL A   1      46.457  35.740  27.249  1.00  0.00    -0.200 F 
ATOM     91  C   UNL A   1      46.937  35.003  29.441  1.00  0.00     0.200 A 
ATOM     92  F   UNL A   1      47.415  34.218  31.617  1.00  0.00    -0.200 F 
ATOM     93  F   UNL A   1      47.352  36.232  29.778  1.00  0.00    -0.200 F 
ENDBRANCH  60  83
ENDBRANCH  34  35
ENDBRANCH  26  29
ENDBRANCH  24  25
ENDBRANCH  23  24
ENDBRANCH  22  23
ENDBRANCH   1  22
TORSDOF 16
ENDMDL
MODEL 3
REMARK VINA RESULT:     -10.6      1.217      2.731
REMARK SMILES CCC[NH2+]CC(=O)N1CCC(CC(=O)NCCCCNC(=O)c2ccc(-c3c4nc(c(-c5c(F)c(F)c(F)c(F)c5F)c5ccc([nH]5)c(-c5c(F)c(F)c(F)c(F)c5F)c5nc(c(-c6c(F)c(F)c(F)c(F)c6F)c6ccc3[nH]6)C=C5)C=C4)cc2)CC1
REMARK SMILES IDX 16 1 15 2 13 3 14 4 12 6 11 7 6 8 7 9 8 10 9 11 87 12 10 13
REMARK SMILES IDX 86 14 5 15 4 16 3 19 2 20 1 21 17 22 18 23 19 24 20 25 21 26
REMARK SMILES IDX 22 28 23 29 24 30 85 31 25 32 84 33 26 34 27 35 28 36 78 37
REMARK SMILES IDX 29 38 83 39 77 40 79 41 30 42 82 43 76 44 75 45 31 47 63 48
REMARK SMILES IDX 43 49 62 50 44 51 47 52 61 53 80 54 45 55 46 56 60 58 81 59
REMARK SMILES IDX 48 60 32 61 33 62 41 63 34 64 35 65 39 66 42 67 36 68 37 69
REMARK SMILES IDX 40 70 38 71 64 72 65 73 73 74 66 75 67 76 71 77 74 78 68 79
REMARK SMILES IDX 69 80 72 81 70 82 49 83 50 84 58 85 51 86 52 87 56 88 59 89
REMARK SMILES IDX 53 90 54 91 57 92 55 93
REMARK H PARENT 15 5 4 17 4 18 20 27 79 46 47 57
REMARK Flexibility Score: inf
ROOT
ATOM      1  C   UNL A   1      34.886  32.628  27.757  1.00  0.00     0.116 C 
ENDROOT
BRANCH   1   2
ATOM      2  N   UNL A   1      35.550  31.352  27.964  1.00  0.00    -0.356 N 
ATOM      3  C   UNL A   1      35.103  30.082  27.739  1.00  0.00     0.220 C 
ATOM      4  O   UNL A   1      35.825  29.138  28.066  1.00  0.00    -0.275 OA
ATOM      5  H   UNL A   1      36.465  31.413  28.321  1.00  0.00     0.163 HD
BRANCH   3   6
ATOM      6  C   UNL A   1      33.743  29.840  27.111  1.00  0.00     0.103 C 
BRANCH   6   7
ATOM      7  C   UNL A   1      33.409  28.353  26.879  1.00  0.00     0.002 C 
ATOM      8  C   UNL A   1      31.024  26.393  24.249  1.00  0.00     0.277 C 
ATOM      9  O   UNL A   1      30.106  27.220  24.236  1.00  0.00    -0.268 OA
ATOM     10  N   UNL A   1      31.940  26.372  25.291  1.00  0.00    -0.338 N 
ATOM     11  C   UNL A   1      31.474  26.682  26.626  1.00  0.00     0.120 C 
ATOM     12  C   UNL A   1      33.373  26.536  25.101  1.00  0.00     0.120 C 
ATOM     13  C   UNL A   1      31.919  28.068  27.052  1.00  0.00     0.026 C 
ATOM     14  C   UNL A   1      33.850  27.939  25.471  1.00  0.00     0.026 C 
BRANCH   8  15
ATOM     15  C   UNL A   1      30.987  25.189  23.278  1.00  0.00     0.362 C 
BRANCH  15  16
ATOM     16  N   UNL A   1      30.464  23.924  23.815  1.00  0.00    -0.338 N 
ATOM     17  H   UNL A   1      29.801  24.137  24.560  1.00  0.00     0.346 HD
ATOM     18  H   UNL A   1      30.020  23.425  23.044  1.00  0.00     0.346 HD
BRANCH  16  19
ATOM     19  C   UNL A   1      31.509  23.063  24.352  1.00  0.00     0.260 C 
BRANCH  19  20
ATOM     20  C   UNL A   1      31.231  22.433  25.732  1.00  0.00     0.058 C 
ATOM     21  C   UNL A   1      31.921  23.040  26.946  1.00  0.00     0.010 C 
ENDBRANCH  19  20
ENDBRANCH  16  19
ENDBRANCH  15  16
ENDBRANCH   8  15
ENDBRANCH   6   7
ENDBRANCH   3   6
ENDBRANCH   1   2
BRANCH   1  22
ATOM     22  C   UNL A   1      34.485  33.280  29.084  1.00  0.00     0.023 C 
BRANCH  22  23
ATOM     23  C   UNL A   1      33.367  34.300  28.996  1.00  0.00     0.023 C 
BRANCH  23  24
ATOM     24  C   UNL A   1      33.695  35.608  29.679  1.00  0.00     0.116 C 
BRANCH  24  25
ATOM     25  N   UNL A   1      32.662  36.062  30.604  1.00  0.00    -0.352 N 
ATOM     26  C   UNL A   1      32.608  35.870  31.965  1.00  0.00     0.251 C 
ATOM     27  H   UNL A   1      31.916  36.567  30.208  1.00  0.00     0.163 HD
ATOM     28  O   UNL A   1      31.645  36.236  32.628  1.00  0.00    -0.269 OA
BRANCH  26  29
ATOM     29  C   UNL A   1      33.729  35.156  32.599  1.00  0.00     0.039 A 
ATOM     30  C   UNL A   1      33.555  33.827  32.988  1.00  0.00     0.014 A 
ATOM     31  C   UNL A   1      34.985  35.764  32.656  1.00  0.00     0.014 A 
ATOM     32  C   UNL A   1      34.670  33.076  33.357  1.00  0.00     0.010 A 
ATOM     33  C   UNL A   1      36.101  34.985  32.905  1.00  0.00     0.010 A 
ATOM     34  C   UNL A   1      35.954  33.637  33.271  1.00  0.00    -0.014 A 
BRANCH  34  35
ATOM     35  C   UNL A   1      37.171  32.863  33.607  1.00  0.00     0.031 A 
ATOM     36  C   UNL A   1      37.876  33.150  34.903  1.00  0.00     0.074 A 
ATOM     37  C   UNL A   1      37.691  31.990  32.723  1.00  0.00     0.049 A 
ATOM     38  N   UNL A   1      39.032  32.717  35.335  1.00  0.00    -0.248 NA
ATOM     39  C   UNL A   1      37.213  34.097  35.816  1.00  0.00     0.031 C 
ATOM     40  C   UNL A   1      37.130  31.675  31.407  1.00  0.00     0.029 A 
ATOM     41  N   UNL A   1      38.820  31.215  32.796  1.00  0.00    -0.354 N 
ATOM     42  C   UNL A   1      39.248  33.372  36.540  1.00  0.00     0.074 A 
ATOM     43  C   UNL A   1      38.141  34.277  36.742  1.00  0.00     0.031 C 
ATOM     44  C   UNL A   1      37.901  30.749  30.811  1.00  0.00     0.029 A 
ATOM     45  C   UNL A   1      39.028  30.436  31.684  1.00  0.00     0.049 A 
ATOM     46  H   UNL A   1      39.426  31.219  33.573  1.00  0.00     0.167 HD
ATOM     47  C   UNL A   1      40.265  33.207  37.417  1.00  0.00     0.037 A 
ATOM     48  C   UNL A   1      40.018  29.568  31.409  1.00  0.00     0.037 A 
ATOM     49  C   UNL A   1      41.324  32.252  37.243  1.00  0.00     0.049 A 
ATOM     50  C   UNL A   1      41.108  29.360  32.425  1.00  0.00     0.074 A 
ATOM     51  C   UNL A   1      42.362  31.946  38.102  1.00  0.00     0.029 A 
ATOM     52  N   UNL A   1      41.465  31.434  36.131  1.00  0.00    -0.354 N 
ATOM     53  N   UNL A   1      41.277  29.942  33.588  1.00  0.00    -0.248 NA
ATOM     54  C   UNL A   1      42.144  28.370  32.096  1.00  0.00     0.031 C 
ATOM     55  C   UNL A   1      43.146  30.957  37.500  1.00  0.00     0.029 A 
ATOM     56  C   UNL A   1      42.575  30.623  36.282  1.00  0.00     0.049 A 
ATOM     57  H   UNL A   1      40.863  31.430  35.351  1.00  0.00     0.167 HD
ATOM     58  C   UNL A   1      42.414  29.371  34.141  1.00  0.00     0.074 A 
ATOM     59  C   UNL A   1      42.891  28.389  33.190  1.00  0.00     0.031 C 
ATOM     60  C   UNL A   1      43.012  29.636  35.328  1.00  0.00     0.037 A 
BRANCH  47  61
ATOM     61  C   UNL A   1      40.259  34.064  38.647  1.00  0.00     0.064 A 
ATOM     62  C   UNL A   1      40.925  35.298  38.686  1.00  0.00     0.173 A 
ATOM     63  C   UNL A   1      39.579  33.649  39.801  1.00  0.00     0.173 A 
ATOM     64  F   UNL A   1      41.607  35.732  37.615  1.00  0.00    -0.203 F 
ATOM     65  C   UNL A   1      40.943  36.067  39.846  1.00  0.00     0.198 A 
ATOM     66  C   UNL A   1      39.572  34.435  40.950  1.00  0.00     0.198 A 
ATOM     67  F   UNL A   1      38.927  32.477  39.817  1.00  0.00    -0.203 F 
ATOM     68  F   UNL A   1      41.639  37.213  39.879  1.00  0.00    -0.200 F 
ATOM     69  C   UNL A   1      40.262  35.639  40.975  1.00  0.00     0.200 A 
ATOM     70  F   UNL A   1      38.905  34.024  42.038  1.00  0.00    -0.200 F 
ATOM     71  F   UNL A   1      40.278  36.380  42.091  1.00  0.00    -0.200 F 
ENDBRANCH  47  61
BRANCH  48  72
ATOM     72  C   UNL A   1      40.001  28.795  30.140  1.00  0.00     0.064 A 
ATOM     73  C   UNL A   1      39.389  27.534  30.080  1.00  0.00     0.173 A 
ATOM     74  C   UNL A   1      40.590  29.290  28.969  1.00  0.00     0.173 A 
ATOM     75  F   UNL A   1      38.828  27.011  31.180  1.00  0.00    -0.203 F 
ATOM     76  C   UNL A   1      39.385  26.790  28.902  1.00  0.00     0.198 A 
ATOM     77  C   UNL A   1      40.565  28.555  27.785  1.00  0.00     0.198 A 
ATOM     78  F   UNL A   1      41.183  30.493  28.973  1.00  0.00    -0.203 F 
ATOM     79  F   UNL A   1      38.829  25.571  28.885  1.00  0.00    -0.200 F 
ATOM     80  C   UNL A   1      39.969  27.303  27.754  1.00  0.00     0.200 A 
ATOM     81  F   UNL A   1      41.120  29.058  26.674  1.00  0.00    -0.200 F 
ATOM     82  F   UNL A   1      39.964  26.588  26.621  1.00  0.00    -0.200 F 
ENDBRANCH  48  72
BRANCH  60  83
ATOM     83  C   UNL A   1      44.218  28.823  35.686  1.00  0.00     0.064 A 
ATOM     84  C   UNL A   1      45.510  29.231  35.328  1.00  0.00     0.173 A 
ATOM     85  C   UNL A   1      44.080  27.653  36.448  1.00  0.00     0.173 A 
ATOM     86  F   UNL A   1      45.688  30.335  34.587  1.00  0.00    -0.203 F 
ATOM     87  C   UNL A   1      46.623  28.486  35.707  1.00  0.00     0.198 A 
ATOM     88  C   UNL A   1      45.196  26.925  36.847  1.00  0.00     0.198 A 
ATOM     89  F   UNL A   1      42.863  27.228  36.820  1.00  0.00    -0.203 F 
ATOM     90  F   UNL A   1      47.848  28.874  35.326  1.00  0.00    -0.200 F 
ATOM     91  C   UNL A   1      46.466  27.340  36.474  1.00  0.00     0.200 A 
ATOM     92  F   UNL A   1      45.044  25.825  37.597  1.00  0.00    -0.200 F 
ATOM     93  F   UNL A   1      47.540  26.631  36.848  1.00  0.00    -0.200 F 
ENDBRANCH  60  83
ENDBRANCH  34  35
ENDBRANCH  26  29
ENDBRANCH  24  25
ENDBRANCH  23  24
ENDBRANCH  22  23
ENDBRANCH   1  22
TORSDOF 16
ENDMDL
