MODEL 1
REMARK VINA RESULT:     -13.8      0.000      0.000
REMARK SMILES Cn1c(C[NH+]2CCC3(CC2)NC(=O)C[C@@H]3C(=O)NCCCCNC(=O)c2ccc(-c3c4nc(c(-c5c(F)c(F)c(F)c(F)c5F)c5ccc([nH]5)c(-c5c(F)c(F)c(F)c(F)c5F)c5nc(c(-c6c(F)c(F)c(F)c(F)c6F)c6ccc3[nH]6)C=C5)C=C4)cc2)nc2ccccc21
REMARK SMILES IDX 20 1 19 2 18 3 16 4 17 5 15 7 5 8 6 9 10 10 7 12 9 13 8 14
REMARK SMILES IDX 11 15 12 16 14 18 13 19 4 20 3 21 1 22 2 23 95 24 89 25
REMARK SMILES IDX 90 26 94 27 91 28 93 29 92 30 21 31 22 32 23 33 24 34 25 36
REMARK SMILES IDX 26 37 27 38 88 39 28 40 87 41 29 42 30 43 31 44 81 45 32 46
REMARK SMILES IDX 86 47 80 48 82 49 33 50 85 51 79 52 78 53 34 55 66 56 46 57
REMARK SMILES IDX 65 58 47 59 50 60 64 61 83 62 48 63 49 64 63 66 84 67 51 68
REMARK SMILES IDX 35 69 36 70 44 71 37 72 38 73 42 74 45 75 39 76 40 77 43 78
REMARK SMILES IDX 41 79 67 80 68 81 76 82 69 83 70 84 74 85 77 86 71 87 72 88
REMARK SMILES IDX 75 89 73 90 52 91 53 92 61 93 54 94 55 95 59 96 62 97 56 98
REMARK SMILES IDX 57 99 60 100 58 101
REMARK H PARENT 18 6 5 11 11 17 23 35 82 54 50 65
REMARK Flexibility Score: inf
ROOT
ATOM      1  C   UNL A   1      31.778  30.569  26.622  1.00  0.00     0.023 C 
ENDROOT
BRANCH   1   2
ATOM      2  C   UNL A   1      33.147  29.970  26.277  1.00  0.00     0.116 C 
BRANCH   2   3
ATOM      3  N   UNL A   1      33.299  29.696  24.861  1.00  0.00    -0.356 N 
ATOM      4  C   UNL A   1      32.408  29.247  23.937  1.00  0.00     0.226 C 
ATOM      5  O   UNL A   1      32.790  29.220  22.766  1.00  0.00    -0.275 OA
ATOM      6  H   UNL A   1      34.202  29.864  24.509  1.00  0.00     0.163 HD
BRANCH   4   7
ATOM      7  C   UNL A   1      31.023  28.768  24.344  1.00  0.00     0.114 C 
ATOM      8  N   UNL A   1      33.187  25.676  25.660  1.00  0.00    -0.328 N 
ATOM      9  C   UNL A   1      33.185  26.115  24.270  1.00  0.00     0.265 C 
ATOM     10  C   UNL A   1      32.267  26.401  26.528  1.00  0.00     0.265 C 
ATOM     11  H   UNL A   1      34.116  25.960  25.968  1.00  0.00     0.348 HD
ATOM     12  C   UNL A   1      31.806  26.365  23.656  1.00  0.00     0.091 C 
ATOM     13  C   UNL A   1      30.899  26.787  25.992  1.00  0.00     0.091 C 
ATOM     14  C   UNL A   1      30.868  27.225  24.522  1.00  0.00     0.063 C 
ATOM     15  N   UNL A   1      29.499  27.012  24.060  1.00  0.00    -0.349 N 
ATOM     16  C   UNL A   1      28.960  28.052  23.353  1.00  0.00     0.221 C 
ATOM     17  H   UNL A   1      29.002  26.183  24.243  1.00  0.00     0.164 HD
ATOM     18  C   UNL A   1      29.998  29.127  23.245  1.00  0.00     0.116 C 
ATOM     19  O   UNL A   1      27.843  28.072  22.877  1.00  0.00    -0.275 OA
BRANCH   8  20
ATOM     20  C   UNL A   1      33.202  24.220  25.882  1.00  0.00     0.339 C 
BRANCH  20  21
ATOM     21  C   UNL A   1      34.433  23.546  25.365  1.00  0.00     0.165 A 
ATOM     22  C   UNL A   1      33.385  21.418  24.478  1.00  0.00     0.152 C 
ATOM     23  N   UNL A   1      34.488  22.268  24.852  1.00  0.00    -0.326 N 
ATOM     24  C   UNL A   1      35.796  21.842  24.953  1.00  0.00     0.068 A 
ATOM     25  N   UNL A   1      35.651  24.039  25.496  1.00  0.00    -0.227 NA
ATOM     26  C   UNL A   1      36.490  22.969  25.375  1.00  0.00     0.089 A 
ATOM     27  C   UNL A   1      36.414  20.599  24.785  1.00  0.00     0.028 A 
ATOM     28  C   UNL A   1      37.850  22.874  25.700  1.00  0.00     0.030 A 
ATOM     29  C   UNL A   1      37.767  20.515  25.136  1.00  0.00     0.002 A 
ATOM     30  C   UNL A   1      38.472  21.627  25.599  1.00  0.00     0.002 A 
ENDBRANCH  20  21
ENDBRANCH   8  20
ENDBRANCH   4   7
ENDBRANCH   2   3
ENDBRANCH   1   2
BRANCH   1  31
ATOM     31  C   UNL A   1      31.688  32.082  26.613  1.00  0.00     0.023 C 
BRANCH  31  32
ATOM     32  C   UNL A   1      32.801  32.762  27.373  1.00  0.00     0.116 C 
BRANCH  32  33
ATOM     33  N   UNL A   1      32.506  34.162  27.646  1.00  0.00    -0.352 N 
ATOM     34  C   UNL A   1      33.009  34.978  28.629  1.00  0.00     0.251 C 
ATOM     35  H   UNL A   1      31.854  34.583  27.042  1.00  0.00     0.163 HD
ATOM     36  O   UNL A   1      32.506  36.073  28.851  1.00  0.00    -0.269 OA
BRANCH  34  37
ATOM     37  C   UNL A   1      34.149  34.501  29.436  1.00  0.00     0.039 A 
ATOM     38  C   UNL A   1      33.911  33.905  30.674  1.00  0.00     0.014 A 
ATOM     39  C   UNL A   1      35.449  34.595  28.932  1.00  0.00     0.014 A 
ATOM     40  C   UNL A   1      34.975  33.336  31.372  1.00  0.00     0.010 A 
ATOM     41  C   UNL A   1      36.477  33.913  29.560  1.00  0.00     0.010 A 
ATOM     42  C   UNL A   1      36.257  33.295  30.798  1.00  0.00    -0.014 A 
BRANCH  42  43
ATOM     43  C   UNL A   1      37.396  32.643  31.488  1.00  0.00     0.031 A 
ATOM     44  C   UNL A   1      38.096  31.484  30.833  1.00  0.00     0.074 A 
ATOM     45  C   UNL A   1      37.752  33.049  32.721  1.00  0.00     0.049 A 
ATOM     46  N   UNL A   1      39.066  30.736  31.293  1.00  0.00    -0.248 NA
ATOM     47  C   UNL A   1      37.619  31.088  29.497  1.00  0.00     0.031 C 
ATOM     48  C   UNL A   1      37.107  34.121  33.481  1.00  0.00     0.029 A 
ATOM     49  N   UNL A   1      38.744  32.603  33.558  1.00  0.00    -0.354 N 
ATOM     50  C   UNL A   1      39.300  29.780  30.312  1.00  0.00     0.074 A 
ATOM     51  C   UNL A   1      38.323  29.991  29.269  1.00  0.00     0.031 C 
ATOM     52  C   UNL A   1      37.742  34.275  34.653  1.00  0.00     0.029 A 
ATOM     53  C   UNL A   1      38.807  33.282  34.749  1.00  0.00     0.049 A 
ATOM     54  H   UNL A   1      39.352  31.864  33.325  1.00  0.00     0.167 HD
ATOM     55  C   UNL A   1      40.266  28.833  30.271  1.00  0.00     0.037 A 
ATOM     56  C   UNL A   1      39.631  33.116  35.801  1.00  0.00     0.037 A 
ATOM     57  C   UNL A   1      41.251  28.649  31.302  1.00  0.00     0.049 A 
ATOM     58  C   UNL A   1      40.690  32.048  35.733  1.00  0.00     0.074 A 
ATOM     59  C   UNL A   1      42.308  27.758  31.334  1.00  0.00     0.029 A 
ATOM     60  N   UNL A   1      41.294  29.367  32.487  1.00  0.00    -0.354 N 
ATOM     61  N   UNL A   1      40.952  31.200  34.767  1.00  0.00    -0.248 NA
ATOM     62  C   UNL A   1      41.574  31.919  36.900  1.00  0.00     0.031 C 
ATOM     63  C   UNL A   1      42.956  27.897  32.564  1.00  0.00     0.029 A 
ATOM     64  C   UNL A   1      42.347  28.921  33.271  1.00  0.00     0.049 A 
ATOM     65  H   UNL A   1      40.670  30.087  32.736  1.00  0.00     0.167 HD
ATOM     66  C   UNL A   1      42.049  30.463  35.193  1.00  0.00     0.074 A 
ATOM     67  C   UNL A   1      42.413  30.975  36.498  1.00  0.00     0.031 C 
ATOM     68  C   UNL A   1      42.699  29.453  34.562  1.00  0.00     0.037 A 
BRANCH  55  69
ATOM     69  C   UNL A   1      40.305  27.933  29.070  1.00  0.00     0.064 A 
ATOM     70  C   UNL A   1      39.601  26.718  29.033  1.00  0.00     0.173 A 
ATOM     71  C   UNL A   1      41.031  28.301  27.927  1.00  0.00     0.173 A 
ATOM     72  F   UNL A   1      38.903  26.308  30.103  1.00  0.00    -0.203 F 
ATOM     73  C   UNL A   1      39.648  25.894  27.911  1.00  0.00     0.198 A 
ATOM     74  C   UNL A   1      41.045  27.493  26.793  1.00  0.00     0.198 A 
ATOM     75  F   UNL A   1      41.720  29.452  27.906  1.00  0.00    -0.203 F 
ATOM     76  F   UNL A   1      39.015  24.713  27.923  1.00  0.00    -0.200 F 
ATOM     77  C   UNL A   1      40.362  26.287  26.790  1.00  0.00     0.200 A 
ATOM     78  F   UNL A   1      41.725  27.881  25.705  1.00  0.00    -0.200 F 
ATOM     79  F   UNL A   1      40.399  25.497  25.707  1.00  0.00    -0.200 F 
ENDBRANCH  55  69
BRANCH  56  80
ATOM     80  C   UNL A   1      39.506  33.994  36.994  1.00  0.00     0.064 A 
ATOM     81  C   UNL A   1      38.783  33.581  38.123  1.00  0.00     0.173 A 
ATOM     82  C   UNL A   1      40.091  35.269  37.029  1.00  0.00     0.173 A 
ATOM     83  F   UNL A   1      38.191  32.378  38.133  1.00  0.00    -0.203 F 
ATOM     84  C   UNL A   1      38.625  34.418  39.225  1.00  0.00     0.198 A 
ATOM     85  C   UNL A   1      39.960  36.092  38.145  1.00  0.00     0.198 A 
ATOM     86  F   UNL A   1      40.800  35.712  35.980  1.00  0.00    -0.203 F 
ATOM     87  F   UNL A   1      37.882  34.018  40.266  1.00  0.00    -0.200 F 
ATOM     88  C   UNL A   1      39.218  35.671  39.238  1.00  0.00     0.200 A 
ATOM     89  F   UNL A   1      40.551  37.295  38.160  1.00  0.00    -0.200 F 
ATOM     90  F   UNL A   1      39.067  36.476  40.299  1.00  0.00    -0.200 F 
ENDBRANCH  56  80
BRANCH  68  91
ATOM     91  C   UNL A   1      43.899  28.868  35.250  1.00  0.00     0.064 A 
ATOM     92  C   UNL A   1      43.785  27.818  36.173  1.00  0.00     0.173 A 
ATOM     93  C   UNL A   1      45.185  29.340  34.948  1.00  0.00     0.173 A 
ATOM     94  F   UNL A   1      42.577  27.340  36.507  1.00  0.00    -0.203 F 
ATOM     95  C   UNL A   1      44.913  27.284  36.791  1.00  0.00     0.198 A 
ATOM     96  C   UNL A   1      46.313  28.778  35.538  1.00  0.00     0.198 A 
ATOM     97  F   UNL A   1      45.351  30.336  34.064  1.00  0.00    -0.203 F 
ATOM     98  F   UNL A   1      44.776  26.319  37.711  1.00  0.00    -0.200 F 
ATOM     99  C   UNL A   1      46.176  27.758  36.466  1.00  0.00     0.200 A 
ATOM    100  F   UNL A   1      47.533  29.225  35.208  1.00  0.00    -0.200 F 
ATOM    101  F   UNL A   1      47.260  27.236  37.055  1.00  0.00    -0.200 F 
ENDBRANCH  68  91
ENDBRANCH  42  43
ENDBRANCH  34  37
ENDBRANCH  32  33
ENDBRANCH  31  32
ENDBRANCH   1  31
TORSDOF 13
ENDMDL
MODEL 2
REMARK VINA RESULT:     -13.8      5.546     11.101
REMARK SMILES Cn1c(C[NH+]2CCC3(CC2)NC(=O)C[C@@H]3C(=O)NCCCCNC(=O)c2ccc(-c3c4nc(c(-c5c(F)c(F)c(F)c(F)c5F)c5ccc([nH]5)c(-c5c(F)c(F)c(F)c(F)c5F)c5nc(c(-c6c(F)c(F)c(F)c(F)c6F)c6ccc3[nH]6)C=C5)C=C4)cc2)nc2ccccc21
REMARK SMILES IDX 20 1 19 2 18 3 16 4 17 5 15 7 5 8 6 9 10 10 7 12 9 13 8 14
REMARK SMILES IDX 11 15 12 16 14 18 13 19 4 20 3 21 1 22 2 23 95 24 89 25
REMARK SMILES IDX 90 26 94 27 91 28 93 29 92 30 21 31 22 32 23 33 24 34 25 36
REMARK SMILES IDX 26 37 27 38 88 39 28 40 87 41 29 42 30 43 31 44 81 45 32 46
REMARK SMILES IDX 86 47 80 48 82 49 33 50 85 51 79 52 78 53 34 55 66 56 46 57
REMARK SMILES IDX 65 58 47 59 50 60 64 61 83 62 48 63 49 64 63 66 84 67 51 68
REMARK SMILES IDX 35 69 36 70 44 71 37 72 38 73 42 74 45 75 39 76 40 77 43 78
REMARK SMILES IDX 41 79 67 80 68 81 76 82 69 83 70 84 74 85 77 86 71 87 72 88
REMARK SMILES IDX 75 89 73 90 52 91 53 92 61 93 54 94 55 95 59 96 62 97 56 98
REMARK SMILES IDX 57 99 60 100 58 101
REMARK H PARENT 18 6 5 11 11 17 23 35 82 54 50 65
REMARK Flexibility Score: inf
ROOT
ATOM      1  C   UNL A   1      37.276  21.101  24.570  1.00  0.00     0.023 C 
ENDROOT
BRANCH   1   2
ATOM      2  C   UNL A   1      37.056  22.187  25.630  1.00  0.00     0.116 C 
BRANCH   2   3
ATOM      3  N   UNL A   1      35.920  21.912  26.488  1.00  0.00    -0.356 N 
ATOM      4  C   UNL A   1      34.728  21.310  26.228  1.00  0.00     0.226 C 
ATOM      5  O   UNL A   1      33.989  21.103  27.192  1.00  0.00    -0.275 OA
ATOM      6  H   UNL A   1      36.030  22.211  27.419  1.00  0.00     0.163 HD
BRANCH   4   7
ATOM      7  C   UNL A   1      34.320  20.950  24.808  1.00  0.00     0.114 C 
ATOM      8  N   UNL A   1      33.772  24.905  24.651  1.00  0.00    -0.328 N 
ATOM      9  C   UNL A   1      33.093  24.043  25.609  1.00  0.00     0.265 C 
ATOM     10  C   UNL A   1      34.610  24.202  23.687  1.00  0.00     0.265 C 
ATOM     11  H   UNL A   1      34.427  25.409  25.248  1.00  0.00     0.348 HD
ATOM     12  C   UNL A   1      32.457  22.778  25.029  1.00  0.00     0.091 C 
ATOM     13  C   UNL A   1      34.122  22.883  23.112  1.00  0.00     0.091 C 
ATOM     14  C   UNL A   1      33.378  21.971  24.096  1.00  0.00     0.063 C 
ATOM     15  N   UNL A   1      32.545  21.087  23.286  1.00  0.00    -0.349 N 
ATOM     16  C   UNL A   1      32.596  19.766  23.635  1.00  0.00     0.221 C 
ATOM     17  H   UNL A   1      31.988  21.418  22.545  1.00  0.00     0.164 HD
ATOM     18  C   UNL A   1      33.514  19.632  24.811  1.00  0.00     0.116 C 
ATOM     19  O   UNL A   1      31.975  18.873  23.094  1.00  0.00    -0.275 OA
BRANCH   8  20
ATOM     20  C   UNL A   1      32.965  25.991  24.067  1.00  0.00     0.339 C 
BRANCH  20  21
ATOM     21  C   UNL A   1      32.621  27.073  25.039  1.00  0.00     0.165 A 
ATOM     22  C   UNL A   1      30.573  28.017  23.884  1.00  0.00     0.152 C 
ATOM     23  N   UNL A   1      31.626  28.013  24.869  1.00  0.00    -0.326 N 
ATOM     24  C   UNL A   1      31.933  29.085  25.682  1.00  0.00     0.068 A 
ATOM     25  N   UNL A   1      33.345  27.362  26.105  1.00  0.00    -0.227 NA
ATOM     26  C   UNL A   1      33.021  28.649  26.426  1.00  0.00     0.089 A 
ATOM     27  C   UNL A   1      31.421  30.382  25.789  1.00  0.00     0.028 A 
ATOM     28  C   UNL A   1      33.682  29.535  27.287  1.00  0.00     0.030 A 
ATOM     29  C   UNL A   1      32.105  31.262  26.636  1.00  0.00     0.002 A 
ATOM     30  C   UNL A   1      33.226  30.854  27.363  1.00  0.00     0.002 A 
ENDBRANCH  20  21
ENDBRANCH   8  20
ENDBRANCH   4   7
ENDBRANCH   2   3
ENDBRANCH   1   2
BRANCH   1  31
ATOM     31  C   UNL A   1      38.118  19.914  24.995  1.00  0.00     0.023 C 
BRANCH  31  32
ATOM     32  C   UNL A   1      39.337  20.290  25.801  1.00  0.00     0.116 C 
BRANCH  32  33
ATOM     33  N   UNL A   1      40.275  19.183  25.931  1.00  0.00    -0.352 N 
ATOM     34  C   UNL A   1      41.637  19.216  26.101  1.00  0.00     0.251 C 
ATOM     35  H   UNL A   1      39.877  18.284  25.889  1.00  0.00     0.163 HD
ATOM     36  O   UNL A   1      42.306  18.196  25.988  1.00  0.00    -0.269 OA
BRANCH  34  37
ATOM     37  C   UNL A   1      42.287  20.507  26.395  1.00  0.00     0.039 A 
ATOM     38  C   UNL A   1      42.832  21.253  25.352  1.00  0.00     0.014 A 
ATOM     39  C   UNL A   1      42.298  21.001  27.702  1.00  0.00     0.014 A 
ATOM     40  C   UNL A   1      43.324  22.532  25.612  1.00  0.00     0.010 A 
ATOM     41  C   UNL A   1      42.662  22.317  27.933  1.00  0.00     0.010 A 
ATOM     42  C   UNL A   1      43.200  23.090  26.896  1.00  0.00    -0.014 A 
BRANCH  42  43
ATOM     43  C   UNL A   1      43.657  24.469  27.190  1.00  0.00     0.031 A 
ATOM     44  C   UNL A   1      42.663  25.498  27.653  1.00  0.00     0.074 A 
ATOM     45  C   UNL A   1      44.944  24.806  26.979  1.00  0.00     0.049 A 
ATOM     46  N   UNL A   1      42.844  26.771  27.900  1.00  0.00    -0.248 NA
ATOM     47  C   UNL A   1      41.272  25.048  27.828  1.00  0.00     0.031 C 
ATOM     48  C   UNL A   1      45.984  23.909  26.473  1.00  0.00     0.029 A 
ATOM     49  N   UNL A   1      45.596  26.000  27.157  1.00  0.00    -0.354 N 
ATOM     50  C   UNL A   1      41.593  27.267  28.242  1.00  0.00     0.074 A 
ATOM     51  C   UNL A   1      40.649  26.184  28.096  1.00  0.00     0.031 C 
ATOM     52  C   UNL A   1      47.150  24.572  26.418  1.00  0.00     0.029 A 
ATOM     53  C   UNL A   1      46.930  25.953  26.839  1.00  0.00     0.049 A 
ATOM     54  H   UNL A   1      45.148  26.814  27.484  1.00  0.00     0.167 HD
ATOM     55  C   UNL A   1      41.267  28.509  28.672  1.00  0.00     0.037 A 
ATOM     56  C   UNL A   1      47.868  26.918  26.877  1.00  0.00     0.037 A 
ATOM     57  C   UNL A   1      42.218  29.574  28.840  1.00  0.00     0.049 A 
ATOM     58  C   UNL A   1      47.476  28.293  27.350  1.00  0.00     0.074 A 
ATOM     59  C   UNL A   1      42.005  30.851  29.323  1.00  0.00     0.029 A 
ATOM     60  N   UNL A   1      43.566  29.483  28.522  1.00  0.00    -0.354 N 
ATOM     61  N   UNL A   1      46.305  28.731  27.745  1.00  0.00    -0.248 NA
ATOM     62  C   UNL A   1      48.540  29.306  27.389  1.00  0.00     0.031 C 
ATOM     63  C   UNL A   1      43.211  31.553  29.244  1.00  0.00     0.029 A 
ATOM     64  C   UNL A   1      44.192  30.693  28.776  1.00  0.00     0.049 A 
ATOM     65  H   UNL A   1      44.011  28.679  28.169  1.00  0.00     0.167 HD
ATOM     66  C   UNL A   1      46.497  30.057  28.112  1.00  0.00     0.074 A 
ATOM     67  C   UNL A   1      47.902  30.345  27.908  1.00  0.00     0.031 C 
ATOM     68  C   UNL A   1      45.594  30.955  28.577  1.00  0.00     0.037 A 
BRANCH  55  69
ATOM     69  C   UNL A   1      39.825  28.776  28.995  1.00  0.00     0.064 A 
ATOM     70  C   UNL A   1      39.302  28.552  30.279  1.00  0.00     0.173 A 
ATOM     71  C   UNL A   1      38.960  29.293  28.019  1.00  0.00     0.173 A 
ATOM     72  F   UNL A   1      40.080  28.044  31.247  1.00  0.00    -0.203 F 
ATOM     73  C   UNL A   1      37.962  28.805  30.564  1.00  0.00     0.198 A 
ATOM     74  C   UNL A   1      37.630  29.580  28.316  1.00  0.00     0.198 A 
ATOM     75  F   UNL A   1      39.407  29.529  26.776  1.00  0.00    -0.203 F 
ATOM     76  F   UNL A   1      37.473  28.527  31.780  1.00  0.00    -0.200 F 
ATOM     77  C   UNL A   1      37.131  29.327  29.585  1.00  0.00     0.200 A 
ATOM     78  F   UNL A   1      36.831  30.098  27.373  1.00  0.00    -0.200 F 
ATOM     79  F   UNL A   1      35.844  29.579  29.862  1.00  0.00    -0.200 F 
ENDBRANCH  55  69
BRANCH  56  80
ATOM     80  C   UNL A   1      49.270  26.615  26.483  1.00  0.00     0.064 A 
ATOM     81  C   UNL A   1      50.202  26.158  27.426  1.00  0.00     0.173 A 
ATOM     82  C   UNL A   1      49.713  26.790  25.163  1.00  0.00     0.173 A 
ATOM     83  F   UNL A   1      49.833  25.991  28.704  1.00  0.00    -0.203 F 
ATOM     84  C   UNL A   1      51.528  25.916  27.071  1.00  0.00     0.198 A 
ATOM     85  C   UNL A   1      51.030  26.515  24.803  1.00  0.00     0.198 A 
ATOM     86  F   UNL A   1      48.860  27.217  24.220  1.00  0.00    -0.203 F 
ATOM     87  F   UNL A   1      52.410  25.534  28.005  1.00  0.00    -0.200 F 
ATOM     88  C   UNL A   1      51.940  26.090  25.759  1.00  0.00     0.200 A 
ATOM     89  F   UNL A   1      51.419  26.667  23.529  1.00  0.00    -0.200 F 
ATOM     90  F   UNL A   1      53.214  25.857  25.417  1.00  0.00    -0.200 F 
ENDBRANCH  56  80
BRANCH  68  91
ATOM     91  C   UNL A   1      46.105  32.320  28.944  1.00  0.00     0.064 A 
ATOM     92  C   UNL A   1      46.574  32.612  30.233  1.00  0.00     0.173 A 
ATOM     93  C   UNL A   1      46.162  33.335  27.978  1.00  0.00     0.173 A 
ATOM     94  F   UNL A   1      46.528  31.680  31.197  1.00  0.00    -0.203 F 
ATOM     95  C   UNL A   1      47.053  33.881  30.548  1.00  0.00     0.198 A 
ATOM     96  C   UNL A   1      46.677  34.591  28.286  1.00  0.00     0.198 A 
ATOM     97  F   UNL A   1      45.734  33.105  26.727  1.00  0.00    -0.203 F 
ATOM     98  F   UNL A   1      47.444  34.154  31.801  1.00  0.00    -0.200 F 
ATOM     99  C   UNL A   1      47.112  34.866  29.573  1.00  0.00     0.200 A 
ATOM    100  F   UNL A   1      46.751  35.535  27.337  1.00  0.00    -0.200 F 
ATOM    101  F   UNL A   1      47.582  36.083  29.877  1.00  0.00    -0.200 F 
ENDBRANCH  68  91
ENDBRANCH  42  43
ENDBRANCH  34  37
ENDBRANCH  32  33
ENDBRANCH  31  32
ENDBRANCH   1  31
TORSDOF 13
ENDMDL
MODEL 3
REMARK VINA RESULT:     -13.7      0.620      7.110
REMARK SMILES Cn1c(C[NH+]2CCC3(CC2)NC(=O)C[C@@H]3C(=O)NCCCCNC(=O)c2ccc(-c3c4nc(c(-c5c(F)c(F)c(F)c(F)c5F)c5ccc([nH]5)c(-c5c(F)c(F)c(F)c(F)c5F)c5nc(c(-c6c(F)c(F)c(F)c(F)c6F)c6ccc3[nH]6)C=C5)C=C4)cc2)nc2ccccc21
REMARK SMILES IDX 20 1 19 2 18 3 16 4 17 5 15 7 5 8 6 9 10 10 7 12 9 13 8 14
REMARK SMILES IDX 11 15 12 16 14 18 13 19 4 20 3 21 1 22 2 23 95 24 89 25
REMARK SMILES IDX 90 26 94 27 91 28 93 29 92 30 21 31 22 32 23 33 24 34 25 36
REMARK SMILES IDX 26 37 27 38 88 39 28 40 87 41 29 42 30 43 31 44 81 45 32 46
REMARK SMILES IDX 86 47 80 48 82 49 33 50 85 51 79 52 78 53 34 55 66 56 46 57
REMARK SMILES IDX 65 58 47 59 50 60 64 61 83 62 48 63 49 64 63 66 84 67 51 68
REMARK SMILES IDX 35 69 36 70 44 71 37 72 38 73 42 74 45 75 39 76 40 77 43 78
REMARK SMILES IDX 41 79 67 80 68 81 76 82 69 83 70 84 74 85 77 86 71 87 72 88
REMARK SMILES IDX 75 89 73 90 52 91 53 92 61 93 54 94 55 95 59 96 62 97 56 98
REMARK SMILES IDX 57 99 60 100 58 101
REMARK H PARENT 18 6 5 11 11 17 23 35 82 54 50 65
REMARK Flexibility Score: inf
ROOT
ATOM      1  C   UNL A   1      31.649  30.640  26.502  1.00  0.00     0.023 C 
ENDROOT
BRANCH   1   2
ATOM      2  C   UNL A   1      33.058  30.097  26.234  1.00  0.00     0.116 C 
BRANCH   2   3
ATOM      3  N   UNL A   1      33.268  29.740  24.844  1.00  0.00    -0.356 N 
ATOM      4  C   UNL A   1      32.415  29.233  23.913  1.00  0.00     0.226 C 
ATOM      5  O   UNL A   1      32.844  29.137  22.762  1.00  0.00    -0.275 OA
ATOM      6  H   UNL A   1      34.184  29.889  24.519  1.00  0.00     0.163 HD
BRANCH   4   7
ATOM      7  C   UNL A   1      31.015  28.775  24.292  1.00  0.00     0.114 C 
ATOM      8  N   UNL A   1      33.109  25.671  25.689  1.00  0.00    -0.328 N 
ATOM      9  C   UNL A   1      33.145  26.095  24.295  1.00  0.00     0.265 C 
ATOM     10  C   UNL A   1      32.177  26.415  26.528  1.00  0.00     0.265 C 
ATOM     11  H   UNL A   1      34.034  25.947  26.017  1.00  0.00     0.348 HD
ATOM     12  C   UNL A   1      31.784  26.356  23.647  1.00  0.00     0.091 C 
ATOM     13  C   UNL A   1      30.827  26.813  25.956  1.00  0.00     0.091 C 
ATOM     14  C   UNL A   1      30.837  27.236  24.481  1.00  0.00     0.063 C 
ATOM     15  N   UNL A   1      29.477  27.035  23.989  1.00  0.00    -0.349 N 
ATOM     16  C   UNL A   1      28.968  28.075  23.260  1.00  0.00     0.221 C 
ATOM     17  H   UNL A   1      28.965  26.214  24.168  1.00  0.00     0.164 HD
ATOM     18  C   UNL A   1      30.021  29.135  23.166  1.00  0.00     0.116 C 
ATOM     19  O   UNL A   1      27.862  28.104  22.756  1.00  0.00    -0.275 OA
BRANCH   8  20
ATOM     20  C   UNL A   1      33.100  24.216  25.926  1.00  0.00     0.339 C 
BRANCH  20  21
ATOM     21  C   UNL A   1      34.299  23.511  25.375  1.00  0.00     0.165 A 
ATOM     22  C   UNL A   1      33.197  21.349  24.651  1.00  0.00     0.152 C 
ATOM     23  N   UNL A   1      34.322  22.210  24.922  1.00  0.00    -0.326 N 
ATOM     24  C   UNL A   1      35.632  21.782  24.971  1.00  0.00     0.068 A 
ATOM     25  N   UNL A   1      35.524  24.003  25.415  1.00  0.00    -0.227 NA
ATOM     26  C   UNL A   1      36.352  22.923  25.299  1.00  0.00     0.089 A 
ATOM     27  C   UNL A   1      36.236  20.529  24.830  1.00  0.00     0.028 A 
ATOM     28  C   UNL A   1      37.727  22.837  25.553  1.00  0.00     0.030 A 
ATOM     29  C   UNL A   1      37.606  20.454  25.109  1.00  0.00     0.002 A 
ATOM     30  C   UNL A   1      38.339  21.583  25.479  1.00  0.00     0.002 A 
ENDBRANCH  20  21
ENDBRANCH   8  20
ENDBRANCH   4   7
ENDBRANCH   2   3
ENDBRANCH   1   2
BRANCH   1  31
ATOM     31  C   UNL A   1      31.525  32.145  26.624  1.00  0.00     0.023 C 
BRANCH  31  32
ATOM     32  C   UNL A   1      32.750  32.812  27.202  1.00  0.00     0.116 C 
BRANCH  32  33
ATOM     33  N   UNL A   1      32.490  34.189  27.603  1.00  0.00    -0.352 N 
ATOM     34  C   UNL A   1      33.036  34.908  28.637  1.00  0.00     0.251 C 
ATOM     35  H   UNL A   1      31.831  34.672  27.055  1.00  0.00     0.163 HD
ATOM     36  O   UNL A   1      32.561  35.989  28.965  1.00  0.00    -0.269 OA
BRANCH  34  37
ATOM     37  C   UNL A   1      34.187  34.343  29.368  1.00  0.00     0.039 A 
ATOM     38  C   UNL A   1      33.962  33.523  30.472  1.00  0.00     0.014 A 
ATOM     39  C   UNL A   1      35.486  34.584  28.915  1.00  0.00     0.014 A 
ATOM     40  C   UNL A   1      35.042  32.883  31.078  1.00  0.00     0.010 A 
ATOM     41  C   UNL A   1      36.537  33.845  29.431  1.00  0.00     0.010 A 
ATOM     42  C   UNL A   1      36.332  33.003  30.532  1.00  0.00    -0.014 A 
BRANCH  42  43
ATOM     43  C   UNL A   1      37.492  32.288  31.116  1.00  0.00     0.031 A 
ATOM     44  C   UNL A   1      37.989  32.669  32.483  1.00  0.00     0.074 A 
ATOM     45  C   UNL A   1      38.131  31.349  30.392  1.00  0.00     0.049 A 
ATOM     46  N   UNL A   1      39.023  32.215  33.144  1.00  0.00    -0.248 NA
ATOM     47  C   UNL A   1      37.247  33.727  33.189  1.00  0.00     0.031 C 
ATOM     48  C   UNL A   1      37.778  30.939  29.032  1.00  0.00     0.029 A 
ATOM     49  N   UNL A   1      39.219  30.572  30.699  1.00  0.00    -0.354 N 
ATOM     50  C   UNL A   1      39.059  32.942  34.327  1.00  0.00     0.074 A 
ATOM     51  C   UNL A   1      37.996  33.917  34.263  1.00  0.00     0.031 C 
ATOM     52  C   UNL A   1      38.608  29.961  28.636  1.00  0.00     0.029 A 
ATOM     53  C   UNL A   1      39.581  29.708  29.695  1.00  0.00     0.049 A 
ATOM     54  H   UNL A   1      39.696  30.628  31.559  1.00  0.00     0.167 HD
ATOM     55  C   UNL A   1      39.886  32.785  35.388  1.00  0.00     0.037 A 
ATOM     56  C   UNL A   1      40.588  28.817  29.635  1.00  0.00     0.037 A 
ATOM     57  C   UNL A   1      40.925  31.793  35.454  1.00  0.00     0.049 A 
ATOM     58  C   UNL A   1      41.499  28.670  30.826  1.00  0.00     0.074 A 
ATOM     59  C   UNL A   1      41.781  31.510  36.502  1.00  0.00     0.029 A 
ATOM     60  N   UNL A   1      41.250  30.924  34.423  1.00  0.00    -0.354 N 
ATOM     61  N   UNL A   1      41.477  29.309  31.971  1.00  0.00    -0.248 NA
ATOM     62  C   UNL A   1      42.572  27.672  30.717  1.00  0.00     0.031 C 
ATOM     63  C   UNL A   1      42.663  30.510  36.085  1.00  0.00     0.029 A 
ATOM     64  C   UNL A   1      42.314  30.121  34.802  1.00  0.00     0.049 A 
ATOM     65  H   UNL A   1      40.794  30.884  33.552  1.00  0.00     0.167 HD
ATOM     66  C   UNL A   1      42.505  28.767  32.730  1.00  0.00     0.074 A 
ATOM     67  C   UNL A   1      43.122  27.737  31.921  1.00  0.00     0.031 C 
ATOM     68  C   UNL A   1      42.905  29.092  33.985  1.00  0.00     0.037 A 
BRANCH  55  69
ATOM     69  C   UNL A   1      39.693  33.703  36.561  1.00  0.00     0.064 A 
ATOM     70  C   UNL A   1      38.865  33.357  37.641  1.00  0.00     0.173 A 
ATOM     71  C   UNL A   1      40.369  34.931  36.623  1.00  0.00     0.173 A 
ATOM     72  F   UNL A   1      38.183  32.202  37.628  1.00  0.00    -0.203 F 
ATOM     73  C   UNL A   1      38.697  34.220  38.722  1.00  0.00     0.198 A 
ATOM     74  C   UNL A   1      40.228  35.774  37.722  1.00  0.00     0.198 A 
ATOM     75  F   UNL A   1      41.175  35.310  35.619  1.00  0.00    -0.203 F 
ATOM     76  F   UNL A   1      37.856  33.893  39.713  1.00  0.00    -0.200 F 
ATOM     77  C   UNL A   1      39.385  35.422  38.765  1.00  0.00     0.200 A 
ATOM     78  F   UNL A   1      40.905  36.930  37.769  1.00  0.00    -0.200 F 
ATOM     79  F   UNL A   1      39.230  36.247  39.810  1.00  0.00    -0.200 F 
ENDBRANCH  55  69
BRANCH  56  80
ATOM     80  C   UNL A   1      40.774  27.978  28.422  1.00  0.00     0.064 A 
ATOM     81  C   UNL A   1      40.188  26.707  28.327  1.00  0.00     0.173 A 
ATOM     82  C   UNL A   1      41.550  28.418  27.339  1.00  0.00     0.173 A 
ATOM     83  F   UNL A   1      39.451  26.232  29.342  1.00  0.00    -0.203 F 
ATOM     84  C   UNL A   1      40.397  25.898  27.211  1.00  0.00     0.198 A 
ATOM     85  C   UNL A   1      41.729  27.622  26.210  1.00  0.00     0.198 A 
ATOM     86  F   UNL A   1      42.125  29.629  27.375  1.00  0.00    -0.203 F 
ATOM     87  F   UNL A   1      39.871  24.666  27.172  1.00  0.00    -0.200 F 
ATOM     88  C   UNL A   1      41.163  26.359  26.151  1.00  0.00     0.200 A 
ATOM     89  F   UNL A   1      42.455  28.079  25.180  1.00  0.00    -0.200 F 
ATOM     90  F   UNL A   1      41.362  25.581  25.078  1.00  0.00    -0.200 F 
ENDBRANCH  56  80
BRANCH  68  91
ATOM     91  C   UNL A   1      44.030  28.293  34.580  1.00  0.00     0.064 A 
ATOM     92  C   UNL A   1      45.364  28.716  34.494  1.00  0.00     0.173 A 
ATOM     93  C   UNL A   1      43.759  27.109  35.281  1.00  0.00     0.173 A 
ATOM     94  F   UNL A   1      45.677  29.834  33.823  1.00  0.00    -0.203 F 
ATOM     95  C   UNL A   1      46.390  27.965  35.063  1.00  0.00     0.198 A 
ATOM     96  C   UNL A   1      44.783  26.380  35.881  1.00  0.00     0.198 A 
ATOM     97  F   UNL A   1      42.499  26.665  35.401  1.00  0.00    -0.203 F 
ATOM     98  F   UNL A   1      47.663  28.359  34.920  1.00  0.00    -0.200 F 
ATOM     99  C   UNL A   1      46.097  26.803  35.763  1.00  0.00     0.200 A 
ATOM    100  F   UNL A   1      44.495  25.269  36.573  1.00  0.00    -0.200 F 
ATOM    101  F   UNL A   1      47.085  26.088  36.317  1.00  0.00    -0.200 F 
ENDBRANCH  68  91
ENDBRANCH  42  43
ENDBRANCH  34  37
ENDBRANCH  32  33
ENDBRANCH  31  32
ENDBRANCH   1  31
TORSDOF 13
ENDMDL
