MODEL 1
REMARK VINA RESULT:     -13.0      0.000      0.000
REMARK SMILES C[C@@H]1[C@@H](C(=O)NCCCCNC(=O)c2ccc(-c3c4nc(c(-c5c(F)c(F)c(F)c(F)c5F)c5ccc([nH]5)c(-c5c(F)c(F)c(F)c(F)c5F)c5nc(c(-c6c(F)c(F)c(F)c(F)c6F)c6ccc3[nH]6)C=C5)C=C4)cc2)CCN1C(=O)N1CCC[C@H]2CCC[C@@H]21
REMARK SMILES IDX 8 1 7 2 6 3 4 4 5 5 3 7 1 8 2 9 79 10 77 11 78 12 80 13
REMARK SMILES IDX 81 14 82 15 83 16 90 17 84 18 86 19 89 20 85 21 87 22 88 23
REMARK SMILES IDX 9 24 10 25 11 26 12 27 13 29 14 30 15 31 76 32 16 33 75 34
REMARK SMILES IDX 17 35 18 36 19 37 69 38 20 39 74 40 68 41 70 42 21 43 73 44
REMARK SMILES IDX 67 45 66 46 22 48 54 49 34 50 53 51 35 52 38 53 52 54 71 55
REMARK SMILES IDX 36 56 37 57 51 59 72 60 39 61 23 62 24 63 32 64 25 65 26 66
REMARK SMILES IDX 30 67 33 68 27 69 28 70 31 71 29 72 55 73 56 74 64 75 57 76
REMARK SMILES IDX 58 77 62 78 65 79 59 80 60 81 63 82 61 83 40 84 41 85 49 86
REMARK SMILES IDX 42 87 43 88 47 89 50 90 44 91 45 92 48 93 46 94
REMARK H PARENT 6 6 11 28 70 47 38 58
REMARK Flexibility Score: inf
ROOT
ATOM      1  C   UNL A   1      31.672  30.699  26.132  1.00  0.00     0.023 C 
ENDROOT
BRANCH   1   2
ATOM      2  C   UNL A   1      33.028  30.073  26.431  1.00  0.00     0.116 C 
BRANCH   2   3
ATOM      3  N   UNL A   1      33.741  29.622  25.251  1.00  0.00    -0.356 N 
ATOM      4  C   UNL A   1      33.639  28.422  24.599  1.00  0.00     0.225 C 
ATOM      5  O   UNL A   1      34.303  28.269  23.574  1.00  0.00    -0.275 OA
ATOM      6  H   UNL A   1      34.382  30.263  24.869  1.00  0.00     0.163 HD
BRANCH   4   7
ATOM      7  C   UNL A   1      32.800  27.313  25.225  1.00  0.00     0.102 C 
ATOM      8  C   UNL A   1      33.102  25.089  26.296  1.00  0.00     0.032 C 
ATOM      9  C   UNL A   1      33.416  25.906  25.034  1.00  0.00     0.096 C 
ATOM     10  N   UNL A   1      32.755  25.381  23.820  1.00  0.00    -0.321 N 
ATOM     11  C   UNL A   1      31.405  27.146  24.615  1.00  0.00     0.037 C 
ATOM     12  C   UNL A   1      31.633  26.215  23.445  1.00  0.00     0.122 C 
BRANCH  10  13
ATOM     13  C   UNL A   1      33.299  24.594  22.815  1.00  0.00     0.320 C 
ATOM     14  O   UNL A   1      33.713  25.084  21.764  1.00  0.00    -0.248 OA
BRANCH  13  15
ATOM     15  N   UNL A   1      33.474  23.266  23.103  1.00  0.00    -0.321 N 
ATOM     16  C   UNL A   1      32.498  22.259  22.718  1.00  0.00     0.121 C 
ATOM     17  C   UNL A   1      34.785  22.707  23.372  1.00  0.00     0.090 C 
ATOM     18  C   UNL A   1      32.312  21.233  23.842  1.00  0.00     0.022 C 
ATOM     19  C   UNL A   1      34.634  21.823  24.612  1.00  0.00     0.012 C 
ATOM     20  C   UNL A   1      35.944  23.613  23.769  1.00  0.00     0.025 C 
ATOM     21  C   UNL A   1      33.659  20.678  24.344  1.00  0.00     0.007 C 
ATOM     22  C   UNL A   1      36.068  21.450  24.947  1.00  0.00     0.006 C 
ATOM     23  C   UNL A   1      36.881  22.696  24.568  1.00  0.00     0.002 C 
ENDBRANCH  13  15
ENDBRANCH  10  13
ENDBRANCH   4   7
ENDBRANCH   2   3
ENDBRANCH   1   2
BRANCH   1  24
ATOM     24  C   UNL A   1      31.425  32.070  26.757  1.00  0.00     0.023 C 
BRANCH  24  25
ATOM     25  C   UNL A   1      32.667  32.806  27.243  1.00  0.00     0.116 C 
BRANCH  25  26
ATOM     26  N   UNL A   1      32.406  34.190  27.610  1.00  0.00    -0.352 N 
ATOM     27  C   UNL A   1      33.000  34.977  28.570  1.00  0.00     0.251 C 
ATOM     28  H   UNL A   1      31.693  34.631  27.092  1.00  0.00     0.163 HD
ATOM     29  O   UNL A   1      32.543  36.084  28.824  1.00  0.00    -0.269 OA
BRANCH  27  30
ATOM     30  C   UNL A   1      34.172  34.474  29.320  1.00  0.00     0.039 A 
ATOM     31  C   UNL A   1      33.968  33.857  30.556  1.00  0.00     0.014 A 
ATOM     32  C   UNL A   1      35.465  34.602  28.808  1.00  0.00     0.014 A 
ATOM     33  C   UNL A   1      35.052  33.300  31.240  1.00  0.00     0.010 A 
ATOM     34  C   UNL A   1      36.526  33.964  29.441  1.00  0.00     0.010 A 
ATOM     35  C   UNL A   1      36.335  33.311  30.668  1.00  0.00    -0.014 A 
BRANCH  35  36
ATOM     36  C   UNL A   1      37.490  32.662  31.340  1.00  0.00     0.031 A 
ATOM     37  C   UNL A   1      38.207  31.520  30.672  1.00  0.00     0.074 A 
ATOM     38  C   UNL A   1      37.854  33.049  32.579  1.00  0.00     0.049 A 
ATOM     39  N   UNL A   1      39.182  30.772  31.123  1.00  0.00    -0.248 NA
ATOM     40  C   UNL A   1      37.744  31.150  29.325  1.00  0.00     0.031 C 
ATOM     41  C   UNL A   1      37.213  34.112  33.355  1.00  0.00     0.029 A 
ATOM     42  N   UNL A   1      38.847  32.588  33.408  1.00  0.00    -0.354 N 
ATOM     43  C   UNL A   1      39.435  29.839  30.127  1.00  0.00     0.074 A 
ATOM     44  C   UNL A   1      38.470  30.071  29.076  1.00  0.00     0.031 C 
ATOM     45  C   UNL A   1      37.844  34.238  34.534  1.00  0.00     0.029 A 
ATOM     46  C   UNL A   1      38.904  33.239  34.616  1.00  0.00     0.049 A 
ATOM     47  H   UNL A   1      39.459  31.857  33.159  1.00  0.00     0.167 HD
ATOM     48  C   UNL A   1      40.401  28.891  30.078  1.00  0.00     0.037 A 
ATOM     49  C   UNL A   1      39.717  33.047  35.673  1.00  0.00     0.037 A 
ATOM     50  C   UNL A   1      41.373  28.674  31.119  1.00  0.00     0.049 A 
ATOM     51  C   UNL A   1      40.773  31.975  35.603  1.00  0.00     0.074 A 
ATOM     52  C   UNL A   1      42.424  27.774  31.145  1.00  0.00     0.029 A 
ATOM     53  N   UNL A   1      41.410  29.367  32.321  1.00  0.00    -0.354 N 
ATOM     54  N   UNL A   1      41.046  31.142  34.628  1.00  0.00    -0.248 NA
ATOM     55  C   UNL A   1      41.640  31.824  36.779  1.00  0.00     0.031 C 
ATOM     56  C   UNL A   1      43.062  27.883  32.384  1.00  0.00     0.029 A 
ATOM     57  C   UNL A   1      42.451  28.897  33.106  1.00  0.00     0.049 A 
ATOM     58  H   UNL A   1      40.787  30.084  32.579  1.00  0.00     0.167 HD
ATOM     59  C   UNL A   1      42.137  30.397  35.055  1.00  0.00     0.074 A 
ATOM     60  C   UNL A   1      42.483  30.885  36.374  1.00  0.00     0.031 C 
ATOM     61  C   UNL A   1      42.794  29.401  34.411  1.00  0.00     0.037 A 
BRANCH  48  62
ATOM     62  C   UNL A   1      40.453  28.014  28.859  1.00  0.00     0.064 A 
ATOM     63  C   UNL A   1      41.211  28.363  27.730  1.00  0.00     0.173 A 
ATOM     64  C   UNL A   1      39.753  26.798  28.825  1.00  0.00     0.173 A 
ATOM     65  F   UNL A   1      41.891  29.520  27.704  1.00  0.00    -0.203 F 
ATOM     66  C   UNL A   1      41.236  27.548  26.601  1.00  0.00     0.198 A 
ATOM     67  C   UNL A   1      39.811  25.968  27.708  1.00  0.00     0.198 A 
ATOM     68  F   UNL A   1      39.018  26.410  29.877  1.00  0.00    -0.203 F 
ATOM     69  F   UNL A   1      41.919  27.934  25.514  1.00  0.00    -0.200 F 
ATOM     70  C   UNL A   1      40.542  26.348  26.594  1.00  0.00     0.200 A 
ATOM     71  F   UNL A   1      39.152  24.800  27.708  1.00  0.00    -0.200 F 
ATOM     72  F   UNL A   1      40.572  25.563  25.508  1.00  0.00    -0.200 F 
ENDBRANCH  48  62
BRANCH  49  73
ATOM     73  C   UNL A   1      39.586  33.906  36.879  1.00  0.00     0.064 A 
ATOM     74  C   UNL A   1      38.816  33.492  37.977  1.00  0.00     0.173 A 
ATOM     75  C   UNL A   1      40.214  35.158  36.961  1.00  0.00     0.173 A 
ATOM     76  F   UNL A   1      38.179  32.312  37.940  1.00  0.00    -0.203 F 
ATOM     77  C   UNL A   1      38.661  34.306  39.097  1.00  0.00     0.198 A 
ATOM     78  C   UNL A   1      40.084  35.957  38.094  1.00  0.00     0.198 A 
ATOM     79  F   UNL A   1      40.966  35.599  35.942  1.00  0.00    -0.203 F 
ATOM     80  F   UNL A   1      37.879  33.907  40.109  1.00  0.00    -0.200 F 
ATOM     81  C   UNL A   1      39.299  35.535  39.157  1.00  0.00     0.200 A 
ATOM     82  F   UNL A   1      40.716  37.137  38.156  1.00  0.00    -0.200 F 
ATOM     83  F   UNL A   1      39.153  36.317  40.236  1.00  0.00    -0.200 F 
ENDBRANCH  49  73
BRANCH  61  84
ATOM     84  C   UNL A   1      43.992  28.808  35.097  1.00  0.00     0.064 A 
ATOM     85  C   UNL A   1      45.283  29.327  34.921  1.00  0.00     0.173 A 
ATOM     86  C   UNL A   1      43.837  27.723  35.976  1.00  0.00     0.173 A 
ATOM     87  F   UNL A   1      45.490  30.354  34.082  1.00  0.00    -0.203 F 
ATOM     88  C   UNL A   1      46.377  28.764  35.573  1.00  0.00     0.198 A 
ATOM     89  C   UNL A   1      44.927  27.186  36.654  1.00  0.00     0.198 A 
ATOM     90  F   UNL A   1      42.623  27.192  36.188  1.00  0.00    -0.203 F 
ATOM     91  F   UNL A   1      47.609  29.241  35.347  1.00  0.00    -0.200 F 
ATOM     92  C   UNL A   1      46.197  27.700  36.445  1.00  0.00     0.200 A 
ATOM     93  F   UNL A   1      44.748  26.169  37.508  1.00  0.00    -0.200 F 
ATOM     94  F   UNL A   1      47.250  27.165  37.078  1.00  0.00    -0.200 F 
ENDBRANCH  61  84
ENDBRANCH  35  36
ENDBRANCH  27  30
ENDBRANCH  25  26
ENDBRANCH  24  25
ENDBRANCH   1  24
TORSDOF 13
ENDMDL
MODEL 2
REMARK VINA RESULT:     -13.0      0.094      1.123
REMARK SMILES C[C@@H]1[C@@H](C(=O)NCCCCNC(=O)c2ccc(-c3c4nc(c(-c5c(F)c(F)c(F)c(F)c5F)c5ccc([nH]5)c(-c5c(F)c(F)c(F)c(F)c5F)c5nc(c(-c6c(F)c(F)c(F)c(F)c6F)c6ccc3[nH]6)C=C5)C=C4)cc2)CCN1C(=O)N1CCC[C@H]2CCC[C@@H]21
REMARK SMILES IDX 8 1 7 2 6 3 4 4 5 5 3 7 1 8 2 9 79 10 77 11 78 12 80 13
REMARK SMILES IDX 81 14 82 15 83 16 90 17 84 18 86 19 89 20 85 21 87 22 88 23
REMARK SMILES IDX 9 24 10 25 11 26 12 27 13 29 14 30 15 31 76 32 16 33 75 34
REMARK SMILES IDX 17 35 18 36 19 37 69 38 20 39 74 40 68 41 70 42 21 43 73 44
REMARK SMILES IDX 67 45 66 46 22 48 54 49 34 50 53 51 35 52 38 53 52 54 71 55
REMARK SMILES IDX 36 56 37 57 51 59 72 60 39 61 23 62 24 63 32 64 25 65 26 66
REMARK SMILES IDX 30 67 33 68 27 69 28 70 31 71 29 72 55 73 56 74 64 75 57 76
REMARK SMILES IDX 58 77 62 78 65 79 59 80 60 81 63 82 61 83 40 84 41 85 49 86
REMARK SMILES IDX 42 87 43 88 47 89 50 90 44 91 45 92 48 93 46 94
REMARK H PARENT 6 6 11 28 70 47 38 58
REMARK Flexibility Score: inf
ROOT
ATOM      1  C   UNL A   1      31.579  30.685  26.129  1.00  0.00     0.023 C 
ENDROOT
BRANCH   1   2
ATOM      2  C   UNL A   1      32.957  30.102  26.413  1.00  0.00     0.116 C 
BRANCH   2   3
ATOM      3  N   UNL A   1      33.664  29.662  25.225  1.00  0.00    -0.356 N 
ATOM      4  C   UNL A   1      33.617  28.442  24.606  1.00  0.00     0.225 C 
ATOM      5  O   UNL A   1      34.263  28.301  23.567  1.00  0.00    -0.275 OA
ATOM      6  H   UNL A   1      34.258  30.329  24.810  1.00  0.00     0.163 HD
BRANCH   4   7
ATOM      7  C   UNL A   1      32.860  27.303  25.281  1.00  0.00     0.102 C 
ATOM      8  C   UNL A   1      33.311  25.093  26.330  1.00  0.00     0.032 C 
ATOM      9  C   UNL A   1      33.515  25.919  25.051  1.00  0.00     0.096 C 
ATOM     10  N   UNL A   1      32.801  25.369  23.880  1.00  0.00    -0.321 N 
ATOM     11  C   UNL A   1      31.437  27.083  24.758  1.00  0.00     0.037 C 
ATOM     12  C   UNL A   1      31.628  26.159  23.575  1.00  0.00     0.122 C 
BRANCH  10  13
ATOM     13  C   UNL A   1      33.311  24.601  22.842  1.00  0.00     0.320 C 
ATOM     14  O   UNL A   1      33.713  25.114  21.797  1.00  0.00    -0.248 OA
BRANCH  13  15
ATOM     15  N   UNL A   1      33.467  23.263  23.089  1.00  0.00    -0.321 N 
ATOM     16  C   UNL A   1      32.482  22.281  22.665  1.00  0.00     0.121 C 
ATOM     17  C   UNL A   1      34.769  22.679  23.349  1.00  0.00     0.090 C 
ATOM     18  C   UNL A   1      32.275  21.222  23.754  1.00  0.00     0.022 C 
ATOM     19  C   UNL A   1      34.598  21.758  24.559  1.00  0.00     0.012 C 
ATOM     20  C   UNL A   1      35.936  23.557  23.783  1.00  0.00     0.025 C 
ATOM     21  C   UNL A   1      33.611  20.634  24.248  1.00  0.00     0.007 C 
ATOM     22  C   UNL A   1      36.025  21.357  24.892  1.00  0.00     0.006 C 
ATOM     23  C   UNL A   1      36.857  22.604  24.558  1.00  0.00     0.002 C 
ENDBRANCH  13  15
ENDBRANCH  10  13
ENDBRANCH   4   7
ENDBRANCH   2   3
ENDBRANCH   1   2
BRANCH   1  24
ATOM     24  C   UNL A   1      31.392  32.153  26.508  1.00  0.00     0.023 C 
BRANCH  24  25
ATOM     25  C   UNL A   1      32.543  32.786  27.279  1.00  0.00     0.116 C 
BRANCH  25  26
ATOM     26  N   UNL A   1      32.313  34.185  27.605  1.00  0.00    -0.352 N 
ATOM     27  C   UNL A   1      32.933  34.990  28.534  1.00  0.00     0.251 C 
ATOM     28  H   UNL A   1      31.604  34.624  27.081  1.00  0.00     0.163 HD
ATOM     29  O   UNL A   1      32.500  36.113  28.758  1.00  0.00    -0.269 OA
BRANCH  27  30
ATOM     30  C   UNL A   1      34.103  34.487  29.288  1.00  0.00     0.039 A 
ATOM     31  C   UNL A   1      33.896  33.881  30.530  1.00  0.00     0.014 A 
ATOM     32  C   UNL A   1      35.396  34.604  28.774  1.00  0.00     0.014 A 
ATOM     33  C   UNL A   1      34.977  33.324  31.218  1.00  0.00     0.010 A 
ATOM     34  C   UNL A   1      36.454  33.966  29.413  1.00  0.00     0.010 A 
ATOM     35  C   UNL A   1      36.260  33.324  30.645  1.00  0.00    -0.014 A 
BRANCH  35  36
ATOM     36  C   UNL A   1      37.412  32.674  31.322  1.00  0.00     0.031 A 
ATOM     37  C   UNL A   1      38.127  31.527  30.660  1.00  0.00     0.074 A 
ATOM     38  C   UNL A   1      37.774  33.066  32.560  1.00  0.00     0.049 A 
ATOM     39  N   UNL A   1      39.099  30.779  31.116  1.00  0.00    -0.248 NA
ATOM     40  C   UNL A   1      37.665  31.153  29.314  1.00  0.00     0.031 C 
ATOM     41  C   UNL A   1      37.135  34.134  33.330  1.00  0.00     0.029 A 
ATOM     42  N   UNL A   1      38.764  32.605  33.393  1.00  0.00    -0.354 N 
ATOM     43  C   UNL A   1      39.351  29.841  30.124  1.00  0.00     0.074 A 
ATOM     44  C   UNL A   1      38.389  30.071  29.070  1.00  0.00     0.031 C 
ATOM     45  C   UNL A   1      37.763  34.263  34.510  1.00  0.00     0.029 A 
ATOM     46  C   UNL A   1      38.821  33.261  34.598  1.00  0.00     0.049 A 
ATOM     47  H   UNL A   1      39.374  31.872  33.148  1.00  0.00     0.167 HD
ATOM     48  C   UNL A   1      40.315  28.890  30.082  1.00  0.00     0.037 A 
ATOM     49  C   UNL A   1      39.631  33.071  35.658  1.00  0.00     0.037 A 
ATOM     50  C   UNL A   1      41.284  28.675  31.125  1.00  0.00     0.049 A 
ATOM     51  C   UNL A   1      40.684  31.996  35.594  1.00  0.00     0.074 A 
ATOM     52  C   UNL A   1      42.333  27.772  31.157  1.00  0.00     0.029 A 
ATOM     53  N   UNL A   1      41.320  29.372  32.324  1.00  0.00    -0.354 N 
ATOM     54  N   UNL A   1      40.957  31.159  34.624  1.00  0.00    -0.248 NA
ATOM     55  C   UNL A   1      41.549  31.848  36.773  1.00  0.00     0.031 C 
ATOM     56  C   UNL A   1      42.969  27.884  32.398  1.00  0.00     0.029 A 
ATOM     57  C   UNL A   1      42.359  28.903  33.113  1.00  0.00     0.049 A 
ATOM     58  H   UNL A   1      40.699  30.093  32.579  1.00  0.00     0.167 HD
ATOM     59  C   UNL A   1      42.045  30.412  35.056  1.00  0.00     0.074 A 
ATOM     60  C   UNL A   1      42.389  30.904  36.373  1.00  0.00     0.031 C 
ATOM     61  C   UNL A   1      42.701  29.412  34.418  1.00  0.00     0.037 A 
BRANCH  48  62
ATOM     62  C   UNL A   1      40.366  28.008  28.867  1.00  0.00     0.064 A 
ATOM     63  C   UNL A   1      41.121  28.354  27.735  1.00  0.00     0.173 A 
ATOM     64  C   UNL A   1      39.670  26.790  28.839  1.00  0.00     0.173 A 
ATOM     65  F   UNL A   1      41.797  29.513  27.702  1.00  0.00    -0.203 F 
ATOM     66  C   UNL A   1      41.146  27.534  26.609  1.00  0.00     0.198 A 
ATOM     67  C   UNL A   1      39.728  25.954  27.726  1.00  0.00     0.198 A 
ATOM     68  F   UNL A   1      38.940  26.404  29.895  1.00  0.00    -0.203 F 
ATOM     69  F   UNL A   1      41.825  27.918  25.518  1.00  0.00    -0.200 F 
ATOM     70  C   UNL A   1      40.456  26.332  26.608  1.00  0.00     0.200 A 
ATOM     71  F   UNL A   1      39.074  24.785  27.733  1.00  0.00    -0.200 F 
ATOM     72  F   UNL A   1      40.486  25.542  25.526  1.00  0.00    -0.200 F 
ENDBRANCH  48  62
BRANCH  49  73
ATOM     73  C   UNL A   1      39.500  33.936  36.860  1.00  0.00     0.064 A 
ATOM     74  C   UNL A   1      40.144  35.181  36.925  1.00  0.00     0.173 A 
ATOM     75  C   UNL A   1      38.740  33.539  37.970  1.00  0.00     0.173 A 
ATOM     76  F   UNL A   1      40.899  35.598  35.897  1.00  0.00    -0.203 F 
ATOM     77  C   UNL A   1      40.052  35.982  38.060  1.00  0.00     0.198 A 
ATOM     78  C   UNL A   1      38.623  34.355  39.092  1.00  0.00     0.198 A 
ATOM     79  F   UNL A   1      38.098  32.361  37.958  1.00  0.00    -0.203 F 
ATOM     80  F   UNL A   1      40.719  37.143  38.114  1.00  0.00    -0.200 F 
ATOM     81  C   UNL A   1      39.287  35.572  39.141  1.00  0.00     0.200 A 
ATOM     82  F   UNL A   1      37.869  33.963  40.128  1.00  0.00    -0.200 F 
ATOM     83  F   UNL A   1      39.196  36.344  40.233  1.00  0.00    -0.200 F 
ENDBRANCH  49  73
BRANCH  61  84
ATOM     84  C   UNL A   1      43.896  28.818  35.108  1.00  0.00     0.064 A 
ATOM     85  C   UNL A   1      45.188  29.334  34.933  1.00  0.00     0.173 A 
ATOM     86  C   UNL A   1      43.736  27.737  35.991  1.00  0.00     0.173 A 
ATOM     87  F   UNL A   1      45.399  30.356  34.091  1.00  0.00    -0.203 F 
ATOM     88  C   UNL A   1      46.280  28.770  35.590  1.00  0.00     0.198 A 
ATOM     89  C   UNL A   1      44.823  27.200  36.673  1.00  0.00     0.198 A 
ATOM     90  F   UNL A   1      42.520  27.210  36.202  1.00  0.00    -0.203 F 
ATOM     91  F   UNL A   1      47.513  29.243  35.365  1.00  0.00    -0.200 F 
ATOM     92  C   UNL A   1      46.095  27.710  36.465  1.00  0.00     0.200 A 
ATOM     93  F   UNL A   1      44.640  26.187  37.531  1.00  0.00    -0.200 F 
ATOM     94  F   UNL A   1      47.145  27.175  37.103  1.00  0.00    -0.200 F 
ENDBRANCH  61  84
ENDBRANCH  35  36
ENDBRANCH  27  30
ENDBRANCH  25  26
ENDBRANCH  24  25
ENDBRANCH   1  24
TORSDOF 13
ENDMDL
MODEL 3
REMARK VINA RESULT:     -13.0      0.126      1.588
REMARK SMILES C[C@@H]1[C@@H](C(=O)NCCCCNC(=O)c2ccc(-c3c4nc(c(-c5c(F)c(F)c(F)c(F)c5F)c5ccc([nH]5)c(-c5c(F)c(F)c(F)c(F)c5F)c5nc(c(-c6c(F)c(F)c(F)c(F)c6F)c6ccc3[nH]6)C=C5)C=C4)cc2)CCN1C(=O)N1CCC[C@H]2CCC[C@@H]21
REMARK SMILES IDX 8 1 7 2 6 3 4 4 5 5 3 7 1 8 2 9 79 10 77 11 78 12 80 13
REMARK SMILES IDX 81 14 82 15 83 16 90 17 84 18 86 19 89 20 85 21 87 22 88 23
REMARK SMILES IDX 9 24 10 25 11 26 12 27 13 29 14 30 15 31 76 32 16 33 75 34
REMARK SMILES IDX 17 35 18 36 19 37 69 38 20 39 74 40 68 41 70 42 21 43 73 44
REMARK SMILES IDX 67 45 66 46 22 48 54 49 34 50 53 51 35 52 38 53 52 54 71 55
REMARK SMILES IDX 36 56 37 57 51 59 72 60 39 61 23 62 24 63 32 64 25 65 26 66
REMARK SMILES IDX 30 67 33 68 27 69 28 70 31 71 29 72 55 73 56 74 64 75 57 76
REMARK SMILES IDX 58 77 62 78 65 79 59 80 60 81 63 82 61 83 40 84 41 85 49 86
REMARK SMILES IDX 42 87 43 88 47 89 50 90 44 91 45 92 48 93 46 94
REMARK H PARENT 6 6 11 28 70 47 38 58
REMARK Flexibility Score: inf
ROOT
ATOM      1  C   UNL A   1      31.565  30.704  26.126  1.00  0.00     0.023 C 
ENDROOT
BRANCH   1   2
ATOM      2  C   UNL A   1      32.927  30.101  26.442  1.00  0.00     0.116 C 
BRANCH   2   3
ATOM      3  N   UNL A   1      33.654  29.644  25.273  1.00  0.00    -0.356 N 
ATOM      4  C   UNL A   1      33.559  28.443  24.624  1.00  0.00     0.225 C 
ATOM      5  O   UNL A   1      34.236  28.285  23.608  1.00  0.00    -0.275 OA
ATOM      6  H   UNL A   1      34.301  30.283  24.896  1.00  0.00     0.163 HD
BRANCH   4   7
ATOM      7  C   UNL A   1      32.711  27.336  25.243  1.00  0.00     0.102 C 
ATOM      8  C   UNL A   1      32.997  25.117  26.327  1.00  0.00     0.032 C 
ATOM      9  C   UNL A   1      33.328  25.928  25.066  1.00  0.00     0.096 C 
ATOM     10  N   UNL A   1      32.683  25.399  23.845  1.00  0.00    -0.321 N 
ATOM     11  C   UNL A   1      31.324  27.168  24.615  1.00  0.00     0.037 C 
ATOM     12  C   UNL A   1      31.567  26.232  23.452  1.00  0.00     0.122 C 
BRANCH  10  13
ATOM     13  C   UNL A   1      33.240  24.607  22.851  1.00  0.00     0.320 C 
ATOM     14  O   UNL A   1      33.653  25.091  21.796  1.00  0.00    -0.248 OA
BRANCH  13  15
ATOM     15  N   UNL A   1      33.426  23.285  23.153  1.00  0.00    -0.321 N 
ATOM     16  C   UNL A   1      32.476  22.260  22.751  1.00  0.00     0.121 C 
ATOM     17  C   UNL A   1      34.738  22.746  23.459  1.00  0.00     0.090 C 
ATOM     18  C   UNL A   1      32.277  21.239  23.877  1.00  0.00     0.022 C 
ATOM     19  C   UNL A   1      34.570  21.869  24.701  1.00  0.00     0.012 C 
ATOM     20  C   UNL A   1      35.874  23.673  23.878  1.00  0.00     0.025 C 
ATOM     21  C   UNL A   1      33.618  20.708  24.417  1.00  0.00     0.007 C 
ATOM     22  C   UNL A   1      36.000  21.520  25.074  1.00  0.00     0.006 C 
ATOM     23  C   UNL A   1      36.804  22.775  24.706  1.00  0.00     0.002 C 
ENDBRANCH  13  15
ENDBRANCH  10  13
ENDBRANCH   4   7
ENDBRANCH   2   3
ENDBRANCH   1   2
BRANCH   1  24
ATOM     24  C   UNL A   1      31.386  32.170  26.514  1.00  0.00     0.023 C 
BRANCH  24  25
ATOM     25  C   UNL A   1      32.558  32.804  27.251  1.00  0.00     0.116 C 
BRANCH  25  26
ATOM     26  N   UNL A   1      32.334  34.203  27.588  1.00  0.00    -0.352 N 
ATOM     27  C   UNL A   1      32.955  34.996  28.525  1.00  0.00     0.251 C 
ATOM     28  H   UNL A   1      31.630  34.649  27.064  1.00  0.00     0.163 HD
ATOM     29  O   UNL A   1      32.528  36.120  28.757  1.00  0.00    -0.269 OA
BRANCH  27  30
ATOM     30  C   UNL A   1      34.120  34.481  29.279  1.00  0.00     0.039 A 
ATOM     31  C   UNL A   1      33.908  33.884  30.524  1.00  0.00     0.014 A 
ATOM     32  C   UNL A   1      35.414  34.578  28.762  1.00  0.00     0.014 A 
ATOM     33  C   UNL A   1      34.982  33.315  31.212  1.00  0.00     0.010 A 
ATOM     34  C   UNL A   1      36.464  33.929  29.401  1.00  0.00     0.010 A 
ATOM     35  C   UNL A   1      36.264  33.295  30.637  1.00  0.00    -0.014 A 
BRANCH  35  36
ATOM     36  C   UNL A   1      37.409  32.633  31.315  1.00  0.00     0.031 A 
ATOM     37  C   UNL A   1      38.117  31.485  30.649  1.00  0.00     0.074 A 
ATOM     38  C   UNL A   1      37.770  33.016  32.556  1.00  0.00     0.049 A 
ATOM     39  N   UNL A   1      39.082  30.727  31.105  1.00  0.00    -0.248 NA
ATOM     40  C   UNL A   1      37.658  31.121  29.299  1.00  0.00     0.031 C 
ATOM     41  C   UNL A   1      37.135  34.084  33.330  1.00  0.00     0.029 A 
ATOM     42  N   UNL A   1      38.752  32.543  33.390  1.00  0.00    -0.354 N 
ATOM     43  C   UNL A   1      39.331  29.791  30.109  1.00  0.00     0.074 A 
ATOM     44  C   UNL A   1      38.374  30.035  29.053  1.00  0.00     0.031 C 
ATOM     45  C   UNL A   1      37.760  34.202  34.512  1.00  0.00     0.029 A 
ATOM     46  C   UNL A   1      38.810  33.192  34.599  1.00  0.00     0.049 A 
ATOM     47  H   UNL A   1      39.358  31.806  33.144  1.00  0.00     0.167 HD
ATOM     48  C   UNL A   1      40.287  28.833  30.065  1.00  0.00     0.037 A 
ATOM     49  C   UNL A   1      39.615  32.990  35.660  1.00  0.00     0.037 A 
ATOM     50  C   UNL A   1      41.251  28.606  31.110  1.00  0.00     0.049 A 
ATOM     51  C   UNL A   1      40.660  31.907  35.595  1.00  0.00     0.074 A 
ATOM     52  C   UNL A   1      42.293  27.695  31.141  1.00  0.00     0.029 A 
ATOM     53  N   UNL A   1      41.288  29.296  32.313  1.00  0.00    -0.354 N 
ATOM     54  N   UNL A   1      40.930  31.073  34.621  1.00  0.00    -0.248 NA
ATOM     55  C   UNL A   1      41.519  31.746  36.776  1.00  0.00     0.031 C 
ATOM     56  C   UNL A   1      42.925  27.795  32.384  1.00  0.00     0.029 A 
ATOM     57  C   UNL A   1      42.320  28.815  33.104  1.00  0.00     0.049 A 
ATOM     58  H   UNL A   1      40.671  30.020  32.569  1.00  0.00     0.167 HD
ATOM     59  C   UNL A   1      42.011  30.316  35.053  1.00  0.00     0.074 A 
ATOM     60  C   UNL A   1      42.354  30.798  36.374  1.00  0.00     0.031 C 
ATOM     61  C   UNL A   1      42.661  29.314  34.412  1.00  0.00     0.037 A 
BRANCH  48  62
ATOM     62  C   UNL A   1      40.336  27.958  28.845  1.00  0.00     0.064 A 
ATOM     63  C   UNL A   1      39.626  26.748  28.776  1.00  0.00     0.173 A 
ATOM     64  C   UNL A   1      41.084  28.340  27.722  1.00  0.00     0.173 A 
ATOM     65  F   UNL A   1      38.903  26.328  29.825  1.00  0.00    -0.203 F 
ATOM     66  C   UNL A   1      39.693  25.939  27.644  1.00  0.00     0.198 A 
ATOM     67  C   UNL A   1      41.120  27.547  26.577  1.00  0.00     0.198 A 
ATOM     68  F   UNL A   1      41.777  29.489  27.729  1.00  0.00    -0.203 F 
ATOM     69  F   UNL A   1      39.055  24.760  27.627  1.00  0.00    -0.200 F 
ATOM     70  C   UNL A   1      40.434  26.342  26.544  1.00  0.00     0.200 A 
ATOM     71  F   UNL A   1      41.823  27.945  25.508  1.00  0.00    -0.200 F 
ATOM     72  F   UNL A   1      40.493  25.564  25.453  1.00  0.00    -0.200 F 
ENDBRANCH  48  62
BRANCH  49  73
ATOM     73  C   UNL A   1      39.486  33.850  36.867  1.00  0.00     0.064 A 
ATOM     74  C   UNL A   1      40.146  35.085  36.944  1.00  0.00     0.173 A 
ATOM     75  C   UNL A   1      38.711  33.457  37.968  1.00  0.00     0.173 A 
ATOM     76  F   UNL A   1      40.915  35.498  35.925  1.00  0.00    -0.203 F 
ATOM     77  C   UNL A   1      40.056  35.881  38.084  1.00  0.00     0.198 A 
ATOM     78  C   UNL A   1      38.597  34.267  39.095  1.00  0.00     0.198 A 
ATOM     79  F   UNL A   1      38.054  32.288  37.944  1.00  0.00    -0.203 F 
ATOM     80  F   UNL A   1      40.739  37.032  38.150  1.00  0.00    -0.200 F 
ATOM     81  C   UNL A   1      39.277  35.474  39.156  1.00  0.00     0.200 A 
ATOM     82  F   UNL A   1      37.829  33.879  40.122  1.00  0.00    -0.200 F 
ATOM     83  F   UNL A   1      39.188  36.242  40.252  1.00  0.00    -0.200 F 
ENDBRANCH  49  73
BRANCH  61  84
ATOM     84  C   UNL A   1      43.849  28.707  35.103  1.00  0.00     0.064 A 
ATOM     85  C   UNL A   1      45.145  29.217  34.939  1.00  0.00     0.173 A 
ATOM     86  C   UNL A   1      43.678  27.620  35.976  1.00  0.00     0.173 A 
ATOM     87  F   UNL A   1      45.367  30.246  34.107  1.00  0.00    -0.203 F 
ATOM     88  C   UNL A   1      46.230  28.641  35.597  1.00  0.00     0.198 A 
ATOM     89  C   UNL A   1      44.758  27.070  36.659  1.00  0.00     0.198 A 
ATOM     90  F   UNL A   1      42.459  27.098  36.176  1.00  0.00    -0.203 F 
ATOM     91  F   UNL A   1      47.467  29.110  35.383  1.00  0.00    -0.200 F 
ATOM     92  C   UNL A   1      46.035  27.575  36.463  1.00  0.00     0.200 A 
ATOM     93  F   UNL A   1      44.565  26.051  37.508  1.00  0.00    -0.200 F 
ATOM     94  F   UNL A   1      47.078  27.028  37.101  1.00  0.00    -0.200 F 
ENDBRANCH  61  84
ENDBRANCH  35  36
ENDBRANCH  27  30
ENDBRANCH  25  26
ENDBRANCH  24  25
ENDBRANCH   1  24
TORSDOF 13
ENDMDL
