MODEL 1
REMARK VINA RESULT:     -13.3      0.000      0.000
REMARK SMILES O=C(NCCCCNC(=O)c1ccc(-c2c3nc(c(-c4c(F)c(F)c(F)c(F)c4F)c4ccc([nH]4)c(-c4c(F)c(F)c(F)c(F)c4F)c4nc(c(-c5c(F)c(F)c(F)c(F)c5F)c5ccc2[nH]5)C=C4)C=C3)cc1)C1=Cc2c(cc(Cl)c(Cl)c2Cl)O[C@H]1C(F)(F)F
REMARK SMILES IDX 6 1 5 2 4 3 3 4 1 5 2 6 74 8 75 9 86 10 76 11 85 12 77 13
REMARK SMILES IDX 83 14 78 15 81 16 84 17 79 18 82 19 80 20 87 21 88 22 89 23
REMARK SMILES IDX 90 24 7 25 8 26 9 27 10 29 11 30 12 31 73 32 13 33 72 34
REMARK SMILES IDX 14 35 15 36 16 37 66 38 17 39 71 40 65 41 67 42 18 43 70 44
REMARK SMILES IDX 64 45 63 46 19 48 51 49 31 50 50 51 32 52 35 53 49 54 68 55
REMARK SMILES IDX 33 56 34 57 48 59 69 60 36 61 20 62 21 63 29 64 22 65 23 66
REMARK SMILES IDX 27 67 30 68 24 69 25 70 28 71 26 72 52 73 53 74 61 75 54 76
REMARK SMILES IDX 55 77 59 78 62 79 56 80 57 81 60 82 58 83 37 84 38 85 46 86
REMARK SMILES IDX 39 87 40 88 44 89 47 90 41 91 42 92 45 93 43 94
REMARK H PARENT 3 7 8 28 67 47 35 58
REMARK Flexibility Score: inf
ROOT
ATOM      1  C   UNL A   1      31.413  29.718  25.327  1.00  0.00     0.023 C 
ENDROOT
BRANCH   1   2
ATOM      2  C   UNL A   1      31.825  28.900  24.109  1.00  0.00     0.023 C 
BRANCH   2   3
ATOM      3  C   UNL A   1      33.249  28.362  24.114  1.00  0.00     0.116 C 
BRANCH   3   4
ATOM      4  N   UNL A   1      33.546  27.338  23.133  1.00  0.00    -0.352 N 
ATOM      5  O   UNL A   1      33.966  25.250  22.388  1.00  0.00    -0.270 OA
ATOM      6  C   UNL A   1      33.650  25.983  23.319  1.00  0.00     0.251 C 
ATOM      7  H   UNL A   1      33.691  27.656  22.212  1.00  0.00     0.163 HD
BRANCH   6   8
ATOM      8  C   UNL A   1      33.413  25.391  24.663  1.00  0.00     0.067 C 
ATOM      9  C   UNL A   1      34.497  24.950  25.323  1.00  0.00     0.027 C 
ATOM     10  C   UNL A   1      32.056  24.778  24.881  1.00  0.00     0.314 C 
ATOM     11  C   UNL A   1      34.542  23.470  25.402  1.00  0.00     0.037 A 
ATOM     12  O   UNL A   1      32.109  23.356  25.208  1.00  0.00    -0.475 OA
ATOM     13  C   UNL A   1      33.341  22.759  25.281  1.00  0.00     0.131 A 
ATOM     14  C   UNL A   1      35.772  22.780  25.387  1.00  0.00     0.072 A 
ATOM     15  C   UNL A   1      33.361  21.380  25.098  1.00  0.00     0.069 A 
ATOM     16  C   UNL A   1      35.795  21.394  25.162  1.00  0.00     0.079 A 
ATOM     17  Cl  UNL A   1      37.252  23.684  25.542  1.00  0.00    -0.082 Cl
ATOM     18  C   UNL A   1      34.583  20.705  25.003  1.00  0.00     0.064 A 
ATOM     19  Cl  UNL A   1      37.308  20.553  25.004  1.00  0.00    -0.081 Cl
ATOM     20  Cl  UNL A   1      34.515  19.023  24.605  1.00  0.00    -0.083 Cl
BRANCH  10  21
ATOM     21  C   UNL A   1      31.230  25.542  25.937  1.00  0.00     0.429 C 
ATOM     22  F   UNL A   1      31.933  26.523  26.548  1.00  0.00    -0.167 F 
ATOM     23  F   UNL A   1      30.142  26.120  25.373  1.00  0.00    -0.167 F 
ATOM     24  F   UNL A   1      30.780  24.719  26.916  1.00  0.00    -0.167 F 
ENDBRANCH  10  21
ENDBRANCH   6   8
ENDBRANCH   3   4
ENDBRANCH   2   3
ENDBRANCH   1   2
BRANCH   1  25
ATOM     25  C   UNL A   1      32.522  30.108  26.302  1.00  0.00     0.116 C 
BRANCH  25  26
ATOM     26  N   UNL A   1      32.444  31.474  26.805  1.00  0.00    -0.352 N 
ATOM     27  C   UNL A   1      33.377  32.201  27.513  1.00  0.00     0.251 C 
ATOM     28  H   UNL A   1      31.602  31.945  26.610  1.00  0.00     0.163 HD
ATOM     29  O   UNL A   1      33.114  33.341  27.885  1.00  0.00    -0.269 OA
BRANCH  27  30
ATOM     30  C   UNL A   1      34.666  31.582  27.898  1.00  0.00     0.039 A 
ATOM     31  C   UNL A   1      35.766  32.416  28.121  1.00  0.00     0.014 A 
ATOM     32  C   UNL A   1      34.775  30.208  28.119  1.00  0.00     0.014 A 
ATOM     33  C   UNL A   1      36.930  31.894  28.690  1.00  0.00     0.010 A 
ATOM     34  C   UNL A   1      35.904  29.702  28.760  1.00  0.00     0.010 A 
ATOM     35  C   UNL A   1      36.980  30.545  29.080  1.00  0.00    -0.014 A 
BRANCH  35  36
ATOM     36  C   UNL A   1      38.116  30.017  29.879  1.00  0.00     0.031 A 
ATOM     37  C   UNL A   1      38.329  30.470  31.296  1.00  0.00     0.074 A 
ATOM     38  C   UNL A   1      39.014  29.199  29.292  1.00  0.00     0.049 A 
ATOM     39  N   UNL A   1      39.310  30.189  32.115  1.00  0.00    -0.248 NA
ATOM     40  C   UNL A   1      37.322  31.385  31.854  1.00  0.00     0.031 C 
ATOM     41  C   UNL A   1      38.956  28.738  27.902  1.00  0.00     0.029 A 
ATOM     42  N   UNL A   1      40.159  28.622  29.782  1.00  0.00    -0.354 N 
ATOM     43  C   UNL A   1      39.052  30.909  33.275  1.00  0.00     0.074 A 
ATOM     44  C   UNL A   1      37.845  31.671  33.038  1.00  0.00     0.031 C 
ATOM     45  C   UNL A   1      40.006  27.936  27.660  1.00  0.00     0.029 A 
ATOM     46  C   UNL A   1      40.829  27.853  28.861  1.00  0.00     0.049 A 
ATOM     47  H   UNL A   1      40.472  28.747  30.708  1.00  0.00     0.167 HD
ATOM     48  C   UNL A   1      39.749  30.916  34.436  1.00  0.00     0.037 A 
ATOM     49  C   UNL A   1      41.982  27.164  28.969  1.00  0.00     0.037 A 
ATOM     50  C   UNL A   1      40.928  30.129  34.681  1.00  0.00     0.049 A 
ATOM     51  C   UNL A   1      42.720  27.170  30.280  1.00  0.00     0.074 A 
ATOM     52  C   UNL A   1      41.656  30.006  35.851  1.00  0.00     0.029 A 
ATOM     53  N   UNL A   1      41.552  29.328  33.736  1.00  0.00    -0.354 N 
ATOM     54  N   UNL A   1      42.418  27.788  31.396  1.00  0.00    -0.248 NA
ATOM     55  C   UNL A   1      43.956  26.377  30.349  1.00  0.00     0.031 C 
ATOM     56  C   UNL A   1      42.743  29.161  35.605  1.00  0.00     0.029 A 
ATOM     57  C   UNL A   1      42.669  28.724  34.292  1.00  0.00     0.049 A 
ATOM     58  H   UNL A   1      41.248  29.206  32.808  1.00  0.00     0.167 HD
ATOM     59  C   UNL A   1      43.407  27.439  32.305  1.00  0.00     0.074 A 
ATOM     60  C   UNL A   1      44.312  26.543  31.614  1.00  0.00     0.031 C 
ATOM     61  C   UNL A   1      43.553  27.826  33.595  1.00  0.00     0.037 A 
BRANCH  48  62
ATOM     62  C   UNL A   1      39.250  31.805  35.537  1.00  0.00     0.064 A 
ATOM     63  C   UNL A   1      38.361  31.334  36.515  1.00  0.00     0.173 A 
ATOM     64  C   UNL A   1      39.698  33.131  35.639  1.00  0.00     0.173 A 
ATOM     65  F   UNL A   1      37.896  30.078  36.456  1.00  0.00    -0.203 F 
ATOM     66  C   UNL A   1      37.915  32.167  37.538  1.00  0.00     0.198 A 
ATOM     67  C   UNL A   1      39.271  33.953  36.679  1.00  0.00     0.198 A 
ATOM     68  F   UNL A   1      40.553  33.628  34.733  1.00  0.00    -0.203 F 
ATOM     69  F   UNL A   1      37.030  31.710  38.434  1.00  0.00    -0.200 F 
ATOM     70  C   UNL A   1      38.376  33.473  37.623  1.00  0.00     0.200 A 
ATOM     71  F   UNL A   1      39.727  35.210  36.767  1.00  0.00    -0.200 F 
ATOM     72  F   UNL A   1      37.952  34.271  38.613  1.00  0.00    -0.200 F 
ENDBRANCH  48  62
BRANCH  49  73
ATOM     73  C   UNL A   1      42.498  26.388  27.812  1.00  0.00     0.064 A 
ATOM     74  C   UNL A   1      42.071  25.072  27.581  1.00  0.00     0.173 A 
ATOM     75  C   UNL A   1      43.434  26.935  26.922  1.00  0.00     0.173 A 
ATOM     76  F   UNL A   1      41.194  24.498  28.417  1.00  0.00    -0.203 F 
ATOM     77  C   UNL A   1      42.577  24.326  26.519  1.00  0.00     0.198 A 
ATOM     78  C   UNL A   1      43.918  26.196  25.844  1.00  0.00     0.198 A 
ATOM     79  F   UNL A   1      43.871  28.191  27.095  1.00  0.00    -0.203 F 
ATOM     80  F   UNL A   1      42.186  23.055  26.350  1.00  0.00    -0.200 F 
ATOM     81  C   UNL A   1      43.497  24.891  25.648  1.00  0.00     0.200 A 
ATOM     82  F   UNL A   1      44.798  26.749  24.997  1.00  0.00    -0.200 F 
ATOM     83  F   UNL A   1      43.982  24.173  24.626  1.00  0.00    -0.200 F 
ENDBRANCH  49  73
BRANCH  61  84
ATOM     84  C   UNL A   1      44.712  27.258  34.355  1.00  0.00     0.064 A 
ATOM     85  C   UNL A   1      45.942  27.929  34.429  1.00  0.00     0.173 A 
ATOM     86  C   UNL A   1      44.579  26.048  35.053  1.00  0.00     0.173 A 
ATOM     87  F   UNL A   1      46.123  29.080  33.764  1.00  0.00    -0.203 F 
ATOM     88  C   UNL A   1      47.003  27.398  35.157  1.00  0.00     0.198 A 
ATOM     89  C   UNL A   1      45.633  25.534  35.803  1.00  0.00     0.198 A 
ATOM     90  F   UNL A   1      43.421  25.371  35.017  1.00  0.00    -0.203 F 
ATOM     91  F   UNL A   1      48.182  28.034  35.181  1.00  0.00    -0.200 F 
ATOM     92  C   UNL A   1      46.846  26.206  35.850  1.00  0.00     0.200 A 
ATOM     93  F   UNL A   1      45.476  24.388  36.480  1.00  0.00    -0.200 F 
ATOM     94  F   UNL A   1      47.865  25.701  36.557  1.00  0.00    -0.200 F 
ENDBRANCH  61  84
ENDBRANCH  35  36
ENDBRANCH  27  30
ENDBRANCH  25  26
ENDBRANCH   1  25
TORSDOF 12
ENDMDL
MODEL 2
REMARK VINA RESULT:     -13.3      0.429      7.358
REMARK SMILES O=C(NCCCCNC(=O)c1ccc(-c2c3nc(c(-c4c(F)c(F)c(F)c(F)c4F)c4ccc([nH]4)c(-c4c(F)c(F)c(F)c(F)c4F)c4nc(c(-c5c(F)c(F)c(F)c(F)c5F)c5ccc2[nH]5)C=C4)C=C3)cc1)C1=Cc2c(cc(Cl)c(Cl)c2Cl)O[C@H]1C(F)(F)F
REMARK SMILES IDX 6 1 5 2 4 3 3 4 1 5 2 6 74 8 75 9 86 10 76 11 85 12 77 13
REMARK SMILES IDX 83 14 78 15 81 16 84 17 79 18 82 19 80 20 87 21 88 22 89 23
REMARK SMILES IDX 90 24 7 25 8 26 9 27 10 29 11 30 12 31 73 32 13 33 72 34
REMARK SMILES IDX 14 35 15 36 16 37 66 38 17 39 71 40 65 41 67 42 18 43 70 44
REMARK SMILES IDX 64 45 63 46 19 48 51 49 31 50 50 51 32 52 35 53 49 54 68 55
REMARK SMILES IDX 33 56 34 57 48 59 69 60 36 61 20 62 21 63 29 64 22 65 23 66
REMARK SMILES IDX 27 67 30 68 24 69 25 70 28 71 26 72 52 73 53 74 61 75 54 76
REMARK SMILES IDX 55 77 59 78 62 79 56 80 57 81 60 82 58 83 37 84 38 85 46 86
REMARK SMILES IDX 39 87 40 88 44 89 47 90 41 91 42 92 45 93 43 94
REMARK H PARENT 3 7 8 28 67 47 35 58
REMARK Flexibility Score: inf
ROOT
ATOM      1  C   UNL A   1      31.480  29.587  25.219  1.00  0.00     0.023 C 
ENDROOT
BRANCH   1   2
ATOM      2  C   UNL A   1      31.942  28.947  23.915  1.00  0.00     0.023 C 
BRANCH   2   3
ATOM      3  C   UNL A   1      33.353  28.377  23.912  1.00  0.00     0.116 C 
BRANCH   3   4
ATOM      4  N   UNL A   1      33.612  27.323  22.952  1.00  0.00    -0.352 N 
ATOM      5  O   UNL A   1      33.975  25.209  22.251  1.00  0.00    -0.270 OA
ATOM      6  C   UNL A   1      33.691  25.971  23.170  1.00  0.00     0.251 C 
ATOM      7  H   UNL A   1      33.747  27.616  22.022  1.00  0.00     0.163 HD
BRANCH   6   8
ATOM      8  C   UNL A   1      33.465  25.417  24.531  1.00  0.00     0.067 C 
ATOM      9  C   UNL A   1      34.549  24.955  25.177  1.00  0.00     0.027 C 
ATOM     10  C   UNL A   1      32.094  24.854  24.793  1.00  0.00     0.314 C 
ATOM     11  C   UNL A   1      34.547  23.477  25.289  1.00  0.00     0.037 A 
ATOM     12  O   UNL A   1      32.107  23.438  25.150  1.00  0.00    -0.475 OA
ATOM     13  C   UNL A   1      33.321  22.803  25.210  1.00  0.00     0.131 A 
ATOM     14  C   UNL A   1      35.753  22.746  25.262  1.00  0.00     0.072 A 
ATOM     15  C   UNL A   1      33.292  21.420  25.059  1.00  0.00     0.069 A 
ATOM     16  C   UNL A   1      35.726  21.355  25.069  1.00  0.00     0.079 A 
ATOM     17  Cl  UNL A   1      37.265  23.604  25.365  1.00  0.00    -0.082 Cl
ATOM     18  C   UNL A   1      34.488  20.703  24.951  1.00  0.00     0.064 A 
ATOM     19  Cl  UNL A   1      37.206  20.461  24.897  1.00  0.00    -0.081 Cl
ATOM     20  Cl  UNL A   1      34.356  19.017  24.593  1.00  0.00    -0.083 Cl
BRANCH  10  21
ATOM     21  C   UNL A   1      31.318  25.668  25.849  1.00  0.00     0.429 C 
ATOM     22  F   UNL A   1      32.100  26.544  26.521  1.00  0.00    -0.167 F 
ATOM     23  F   UNL A   1      30.322  26.383  25.272  1.00  0.00    -0.167 F 
ATOM     24  F   UNL A   1      30.744  24.867  26.780  1.00  0.00    -0.167 F 
ENDBRANCH  10  21
ENDBRANCH   6   8
ENDBRANCH   3   4
ENDBRANCH   2   3
ENDBRANCH   1   2
BRANCH   1  25
ATOM     25  C   UNL A   1      32.570  30.065  26.177  1.00  0.00     0.116 C 
BRANCH  25  26
ATOM     26  N   UNL A   1      32.387  31.417  26.687  1.00  0.00    -0.352 N 
ATOM     27  C   UNL A   1      33.258  32.205  27.411  1.00  0.00     0.251 C 
ATOM     28  H   UNL A   1      31.516  31.827  26.487  1.00  0.00     0.163 HD
ATOM     29  O   UNL A   1      32.908  33.320  27.788  1.00  0.00    -0.269 OA
BRANCH  27  30
ATOM     30  C   UNL A   1      34.583  31.679  27.807  1.00  0.00     0.039 A 
ATOM     31  C   UNL A   1      35.647  32.578  27.935  1.00  0.00     0.014 A 
ATOM     32  C   UNL A   1      34.764  30.332  28.128  1.00  0.00     0.014 A 
ATOM     33  C   UNL A   1      36.847  32.155  28.510  1.00  0.00     0.010 A 
ATOM     34  C   UNL A   1      35.932  29.930  28.774  1.00  0.00     0.010 A 
ATOM     35  C   UNL A   1      36.972  30.845  29.000  1.00  0.00    -0.014 A 
BRANCH  35  36
ATOM     36  C   UNL A   1      38.152  30.433  29.805  1.00  0.00     0.031 A 
ATOM     37  C   UNL A   1      39.140  29.441  29.259  1.00  0.00     0.074 A 
ATOM     38  C   UNL A   1      38.279  30.883  31.070  1.00  0.00     0.049 A 
ATOM     39  N   UNL A   1      40.175  28.897  29.847  1.00  0.00    -0.248 NA
ATOM     40  C   UNL A   1      38.916  28.976  27.882  1.00  0.00     0.031 C 
ATOM     41  C   UNL A   1      37.351  31.798  31.740  1.00  0.00     0.029 A 
ATOM     42  N   UNL A   1      39.229  30.621  32.026  1.00  0.00    -0.354 N 
ATOM     43  C   UNL A   1      40.711  28.010  28.922  1.00  0.00     0.074 A 
ATOM     44  C   UNL A   1      39.863  28.058  27.751  1.00  0.00     0.031 C 
ATOM     45  C   UNL A   1      37.788  32.035  32.987  1.00  0.00     0.029 A 
ATOM     46  C   UNL A   1      39.004  31.264  33.220  1.00  0.00     0.049 A 
ATOM     47  H   UNL A   1      40.000  30.027  31.871  1.00  0.00     0.167 HD
ATOM     48  C   UNL A   1      41.820  27.241  29.035  1.00  0.00     0.037 A 
ATOM     49  C   UNL A   1      39.696  31.231  34.375  1.00  0.00     0.037 A 
ATOM     50  C   UNL A   1      42.683  27.223  30.186  1.00  0.00     0.049 A 
ATOM     51  C   UNL A   1      40.941  30.388  34.461  1.00  0.00     0.074 A 
ATOM     52  C   UNL A   1      43.874  26.541  30.362  1.00  0.00     0.029 A 
ATOM     53  N   UNL A   1      42.445  27.923  31.361  1.00  0.00    -0.354 N 
ATOM     54  N   UNL A   1      41.483  29.620  33.549  1.00  0.00    -0.248 NA
ATOM     55  C   UNL A   1      41.671  30.414  35.736  1.00  0.00     0.031 C 
ATOM     56  C   UNL A   1      44.338  26.796  31.657  1.00  0.00     0.029 A 
ATOM     57  C   UNL A   1      43.458  27.671  32.273  1.00  0.00     0.049 A 
ATOM     58  H   UNL A   1      41.673  28.510  31.522  1.00  0.00     0.167 HD
ATOM     59  C   UNL A   1      42.629  29.093  34.127  1.00  0.00     0.074 A 
ATOM     60  C   UNL A   1      42.712  29.640  35.465  1.00  0.00     0.031 C 
ATOM     61  C   UNL A   1      43.532  28.233  33.596  1.00  0.00     0.037 A 
BRANCH  48  62
ATOM     62  C   UNL A   1      42.170  26.355  27.875  1.00  0.00     0.064 A 
ATOM     63  C   UNL A   1      41.557  25.106  27.695  1.00  0.00     0.173 A 
ATOM     64  C   UNL A   1      43.098  26.778  26.911  1.00  0.00     0.173 A 
ATOM     65  F   UNL A   1      40.671  24.652  28.594  1.00  0.00    -0.203 F 
ATOM     66  C   UNL A   1      41.883  24.299  26.608  1.00  0.00     0.198 A 
ATOM     67  C   UNL A   1      43.400  25.980  25.810  1.00  0.00     0.198 A 
ATOM     68  F   UNL A   1      43.707  27.967  27.033  1.00  0.00    -0.203 F 
ATOM     69  F   UNL A   1      41.319  23.090  26.480  1.00  0.00    -0.200 F 
ATOM     70  C   UNL A   1      42.798  24.740  25.663  1.00  0.00     0.200 A 
ATOM     71  F   UNL A   1      44.275  26.412  24.893  1.00  0.00    -0.200 F 
ATOM     72  F   UNL A   1      43.105  23.965  24.613  1.00  0.00    -0.200 F 
ENDBRANCH  48  62
BRANCH  49  73
ATOM     73  C   UNL A   1      39.247  32.041  35.537  1.00  0.00     0.064 A 
ATOM     74  C   UNL A   1      39.643  33.378  35.677  1.00  0.00     0.173 A 
ATOM     75  C   UNL A   1      38.427  31.496  36.536  1.00  0.00     0.173 A 
ATOM     76  F   UNL A   1      40.446  33.937  34.760  1.00  0.00    -0.203 F 
ATOM     77  C   UNL A   1      39.255  34.133  36.782  1.00  0.00     0.198 A 
ATOM     78  C   UNL A   1      38.017  32.261  37.626  1.00  0.00     0.198 A 
ATOM     79  F   UNL A   1      38.015  30.223  36.446  1.00  0.00    -0.203 F 
ATOM     80  F   UNL A   1      39.687  35.395  36.914  1.00  0.00    -0.200 F 
ATOM     81  C   UNL A   1      38.438  33.575  37.753  1.00  0.00     0.200 A 
ATOM     82  F   UNL A   1      37.216  31.722  38.557  1.00  0.00    -0.200 F 
ATOM     83  F   UNL A   1      38.063  34.302  38.815  1.00  0.00    -0.200 F 
ENDBRANCH  49  73
BRANCH  61  84
ATOM     84  C   UNL A   1      44.705  27.856  34.450  1.00  0.00     0.064 A 
ATOM     85  C   UNL A   1      44.677  26.725  35.278  1.00  0.00     0.173 A 
ATOM     86  C   UNL A   1      45.886  28.613  34.407  1.00  0.00     0.173 A 
ATOM     87  F   UNL A   1      43.564  25.980  35.367  1.00  0.00    -0.203 F 
ATOM     88  C   UNL A   1      45.783  26.376  36.049  1.00  0.00     0.198 A 
ATOM     89  C   UNL A   1      46.999  28.245  35.158  1.00  0.00     0.198 A 
ATOM     90  F   UNL A   1      45.963  29.701  33.626  1.00  0.00    -0.203 F 
ATOM     91  F   UNL A   1      45.721  25.315  36.866  1.00  0.00    -0.200 F 
ATOM     92  C   UNL A   1      46.945  27.132  35.983  1.00  0.00     0.200 A 
ATOM     93  F   UNL A   1      48.123  28.970  35.084  1.00  0.00    -0.200 F 
ATOM     94  F   UNL A   1      48.010  26.790  36.719  1.00  0.00    -0.200 F 
ENDBRANCH  61  84
ENDBRANCH  35  36
ENDBRANCH  27  30
ENDBRANCH  25  26
ENDBRANCH   1  25
TORSDOF 12
ENDMDL
MODEL 3
REMARK VINA RESULT:     -13.3      0.178      1.990
REMARK SMILES O=C(NCCCCNC(=O)c1ccc(-c2c3nc(c(-c4c(F)c(F)c(F)c(F)c4F)c4ccc([nH]4)c(-c4c(F)c(F)c(F)c(F)c4F)c4nc(c(-c5c(F)c(F)c(F)c(F)c5F)c5ccc2[nH]5)C=C4)C=C3)cc1)C1=Cc2c(cc(Cl)c(Cl)c2Cl)O[C@H]1C(F)(F)F
REMARK SMILES IDX 6 1 5 2 4 3 3 4 1 5 2 6 74 8 75 9 86 10 76 11 85 12 77 13
REMARK SMILES IDX 83 14 78 15 81 16 84 17 79 18 82 19 80 20 87 21 88 22 89 23
REMARK SMILES IDX 90 24 7 25 8 26 9 27 10 29 11 30 12 31 73 32 13 33 72 34
REMARK SMILES IDX 14 35 15 36 16 37 66 38 17 39 71 40 65 41 67 42 18 43 70 44
REMARK SMILES IDX 64 45 63 46 19 48 51 49 31 50 50 51 32 52 35 53 49 54 68 55
REMARK SMILES IDX 33 56 34 57 48 59 69 60 36 61 20 62 21 63 29 64 22 65 23 66
REMARK SMILES IDX 27 67 30 68 24 69 25 70 28 71 26 72 52 73 53 74 61 75 54 76
REMARK SMILES IDX 55 77 59 78 62 79 56 80 57 81 60 82 58 83 37 84 38 85 46 86
REMARK SMILES IDX 39 87 40 88 44 89 47 90 41 91 42 92 45 93 43 94
REMARK H PARENT 3 7 8 28 67 47 35 58
REMARK Flexibility Score: inf
ROOT
ATOM      1  C   UNL A   1      31.409  29.630  25.372  1.00  0.00     0.023 C 
ENDROOT
BRANCH   1   2
ATOM      2  C   UNL A   1      31.884  28.992  24.071  1.00  0.00     0.023 C 
BRANCH   2   3
ATOM      3  C   UNL A   1      33.296  28.423  24.081  1.00  0.00     0.116 C 
BRANCH   3   4
ATOM      4  N   UNL A   1      33.577  27.398  23.095  1.00  0.00    -0.352 N 
ATOM      5  O   UNL A   1      33.975  25.309  22.343  1.00  0.00    -0.270 OA
ATOM      6  C   UNL A   1      33.673  26.043  23.279  1.00  0.00     0.251 C 
ATOM      7  H   UNL A   1      33.716  27.717  22.175  1.00  0.00     0.163 HD
BRANCH   6   8
ATOM      8  C   UNL A   1      33.444  25.450  24.624  1.00  0.00     0.067 C 
ATOM      9  C   UNL A   1      34.530  24.996  25.271  1.00  0.00     0.027 C 
ATOM     10  C   UNL A   1      32.083  24.850  24.855  1.00  0.00     0.314 C 
ATOM     11  C   UNL A   1      34.561  23.516  25.347  1.00  0.00     0.037 A 
ATOM     12  O   UNL A   1      32.124  23.427  25.178  1.00  0.00    -0.475 OA
ATOM     13  C   UNL A   1      33.351  22.817  25.237  1.00  0.00     0.131 A 
ATOM     14  C   UNL A   1      35.784  22.813  25.317  1.00  0.00     0.072 A 
ATOM     15  C   UNL A   1      33.355  21.439  25.051  1.00  0.00     0.069 A 
ATOM     16  C   UNL A   1      35.790  21.427  25.089  1.00  0.00     0.079 A 
ATOM     17  Cl  UNL A   1      37.274  23.702  25.459  1.00  0.00    -0.082 Cl
ATOM     18  C   UNL A   1      34.568  20.751  24.941  1.00  0.00     0.064 A 
ATOM     19  Cl  UNL A   1      37.292  20.571  24.913  1.00  0.00    -0.081 Cl
ATOM     20  Cl  UNL A   1      34.479  19.072  24.540  1.00  0.00    -0.083 Cl
BRANCH  10  21
ATOM     21  C   UNL A   1      31.277  25.620  25.921  1.00  0.00     0.429 C 
ATOM     22  F   UNL A   1      30.684  24.807  26.825  1.00  0.00    -0.167 F 
ATOM     23  F   UNL A   1      32.075  26.471  26.611  1.00  0.00    -0.167 F 
ATOM     24  F   UNL A   1      30.290  26.366  25.365  1.00  0.00    -0.167 F 
ENDBRANCH  10  21
ENDBRANCH   6   8
ENDBRANCH   3   4
ENDBRANCH   2   3
ENDBRANCH   1   2
BRANCH   1  25
ATOM     25  C   UNL A   1      32.489  30.040  26.372  1.00  0.00     0.116 C 
BRANCH  25  26
ATOM     26  N   UNL A   1      32.425  31.429  26.807  1.00  0.00    -0.352 N 
ATOM     27  C   UNL A   1      33.379  32.190  27.449  1.00  0.00     0.251 C 
ATOM     28  H   UNL A   1      31.578  31.891  26.613  1.00  0.00     0.163 HD
ATOM     29  O   UNL A   1      33.126  33.348  27.771  1.00  0.00    -0.269 OA
BRANCH  27  30
ATOM     30  C   UNL A   1      34.678  31.590  27.827  1.00  0.00     0.039 A 
ATOM     31  C   UNL A   1      35.764  32.441  28.055  1.00  0.00     0.014 A 
ATOM     32  C   UNL A   1      34.810  30.216  28.037  1.00  0.00     0.014 A 
ATOM     33  C   UNL A   1      36.938  31.933  28.618  1.00  0.00     0.010 A 
ATOM     34  C   UNL A   1      35.949  29.725  28.671  1.00  0.00     0.010 A 
ATOM     35  C   UNL A   1      37.011  30.583  28.997  1.00  0.00    -0.014 A 
BRANCH  35  36
ATOM     36  C   UNL A   1      38.158  30.067  29.790  1.00  0.00     0.031 A 
ATOM     37  C   UNL A   1      38.385  30.539  31.198  1.00  0.00     0.074 A 
ATOM     38  C   UNL A   1      39.051  29.244  29.203  1.00  0.00     0.049 A 
ATOM     39  N   UNL A   1      39.377  30.271  32.010  1.00  0.00    -0.248 NA
ATOM     40  C   UNL A   1      37.383  31.459  31.756  1.00  0.00     0.031 C 
ATOM     41  C   UNL A   1      38.978  28.765  27.820  1.00  0.00     0.029 A 
ATOM     42  N   UNL A   1      40.203  28.676  29.687  1.00  0.00    -0.354 N 
ATOM     43  C   UNL A   1      39.130  31.005  33.162  1.00  0.00     0.074 A 
ATOM     44  C   UNL A   1      37.919  31.761  32.930  1.00  0.00     0.031 C 
ATOM     45  C   UNL A   1      40.027  27.962  27.575  1.00  0.00     0.029 A 
ATOM     46  C   UNL A   1      40.864  27.897  28.768  1.00  0.00     0.049 A 
ATOM     47  H   UNL A   1      40.526  28.814  30.608  1.00  0.00     0.167 HD
ATOM     48  C   UNL A   1      39.840  31.029  34.315  1.00  0.00     0.037 A 
ATOM     49  C   UNL A   1      42.020  27.212  28.872  1.00  0.00     0.037 A 
ATOM     50  C   UNL A   1      41.023  30.247  34.557  1.00  0.00     0.049 A 
ATOM     51  C   UNL A   1      42.772  27.236  30.175  1.00  0.00     0.074 A 
ATOM     52  C   UNL A   1      41.765  30.141  35.721  1.00  0.00     0.029 A 
ATOM     53  N   UNL A   1      41.639  29.436  33.615  1.00  0.00    -0.354 N 
ATOM     54  N   UNL A   1      42.481  27.867  31.286  1.00  0.00    -0.248 NA
ATOM     55  C   UNL A   1      44.011  26.447  30.239  1.00  0.00     0.031 C 
ATOM     56  C   UNL A   1      42.851  29.295  35.473  1.00  0.00     0.029 A 
ATOM     57  C   UNL A   1      42.763  28.841  34.166  1.00  0.00     0.049 A 
ATOM     58  H   UNL A   1      41.324  29.302  32.693  1.00  0.00     0.167 HD
ATOM     59  C   UNL A   1      43.482  27.532  32.188  1.00  0.00     0.074 A 
ATOM     60  C   UNL A   1      44.381  26.630  31.498  1.00  0.00     0.031 C 
ATOM     61  C   UNL A   1      43.641  27.937  33.471  1.00  0.00     0.037 A 
BRANCH  48  62
ATOM     62  C   UNL A   1      39.351  31.930  35.411  1.00  0.00     0.064 A 
ATOM     63  C   UNL A   1      39.695  33.289  35.453  1.00  0.00     0.173 A 
ATOM     64  C   UNL A   1      38.496  31.438  36.408  1.00  0.00     0.173 A 
ATOM     65  F   UNL A   1      40.519  33.806  34.528  1.00  0.00    -0.203 F 
ATOM     66  C   UNL A   1      39.225  34.117  36.469  1.00  0.00     0.198 A 
ATOM     67  C   UNL A   1      38.004  32.274  37.408  1.00  0.00     0.198 A 
ATOM     68  F   UNL A   1      38.131  30.147  36.411  1.00  0.00    -0.203 F 
ATOM     69  F   UNL A   1      39.604  35.401  36.515  1.00  0.00    -0.200 F 
ATOM     70  C   UNL A   1      38.375  33.610  37.441  1.00  0.00     0.200 A 
ATOM     71  F   UNL A   1      37.174  31.786  38.339  1.00  0.00    -0.200 F 
ATOM     72  F   UNL A   1      37.917  34.410  38.415  1.00  0.00    -0.200 F 
ENDBRANCH  48  62
BRANCH  49  73
ATOM     73  C   UNL A   1      42.524  26.422  27.719  1.00  0.00     0.064 A 
ATOM     74  C   UNL A   1      43.460  26.968  26.828  1.00  0.00     0.173 A 
ATOM     75  C   UNL A   1      42.077  25.115  27.475  1.00  0.00     0.173 A 
ATOM     76  F   UNL A   1      43.900  28.221  27.007  1.00  0.00    -0.203 F 
ATOM     77  C   UNL A   1      43.911  26.246  25.725  1.00  0.00     0.198 A 
ATOM     78  C   UNL A   1      42.550  24.385  26.387  1.00  0.00     0.198 A 
ATOM     79  F   UNL A   1      41.186  24.545  28.300  1.00  0.00    -0.203 F 
ATOM     80  F   UNL A   1      44.769  26.810  24.864  1.00  0.00    -0.200 F 
ATOM     81  C   UNL A   1      43.459  24.953  25.508  1.00  0.00     0.200 A 
ATOM     82  F   UNL A   1      42.121  23.131  26.187  1.00  0.00    -0.200 F 
ATOM     83  F   UNL A   1      43.894  24.258  24.448  1.00  0.00    -0.200 F 
ENDBRANCH  49  73
BRANCH  61  84
ATOM     84  C   UNL A   1      44.811  27.381  34.225  1.00  0.00     0.064 A 
ATOM     85  C   UNL A   1      44.727  26.164  34.917  1.00  0.00     0.173 A 
ATOM     86  C   UNL A   1      46.043  28.054  34.222  1.00  0.00     0.173 A 
ATOM     87  F   UNL A   1      43.566  25.493  34.964  1.00  0.00    -0.203 F 
ATOM     88  C   UNL A   1      45.829  25.650  35.595  1.00  0.00     0.198 A 
ATOM     89  C   UNL A   1      47.150  27.523  34.878  1.00  0.00     0.198 A 
ATOM     90  F   UNL A   1      46.174  29.219  33.570  1.00  0.00    -0.203 F 
ATOM     91  F   UNL A   1      45.716  24.506  36.284  1.00  0.00    -0.200 F 
ATOM     92  C   UNL A   1      47.041  26.326  35.569  1.00  0.00     0.200 A 
ATOM     93  F   UNL A   1      48.321  28.172  34.842  1.00  0.00    -0.200 F 
ATOM     94  F   UNL A   1      48.102  25.826  36.215  1.00  0.00    -0.200 F 
ENDBRANCH  61  84
ENDBRANCH  35  36
ENDBRANCH  27  30
ENDBRANCH  25  26
ENDBRANCH   1  25
TORSDOF 12
ENDMDL
