MODEL 1
REMARK VINA RESULT:     -13.0      0.000      0.000
REMARK SMILES C[C@@H](Sc1nc(C[NH+]2CCCC2)nc2ccccc12)C(=O)NCCCCNC(=O)c1ccc(-c2c3nc(c(-c4c(F)c(F)c(F)c(F)c4F)c4ccc([nH]4)c(-c4c(F)c(F)c(F)c(F)c4F)c4nc(c(-c5c(F)c(F)c(F)c(F)c5F)c5ccc2[nH]5)C=C4)C=C3)cc1
REMARK SMILES IDX 23 1 22 2 20 3 21 4 2 6 1 7 3 8 4 9 5 10 19 11 6 12 14 13
REMARK SMILES IDX 18 14 13 15 15 16 17 17 16 18 7 19 8 20 9 21 12 22 10 24
REMARK SMILES IDX 11 25 24 26 25 27 26 28 27 29 28 30 29 32 30 33 31 34 92 35
REMARK SMILES IDX 32 36 91 37 33 38 34 39 35 40 85 41 36 42 90 43 84 44 86 45
REMARK SMILES IDX 37 46 89 47 83 48 82 49 38 51 70 52 50 53 69 54 51 55 54 56
REMARK SMILES IDX 68 57 87 58 52 59 53 60 67 62 88 63 55 64 39 65 40 66 48 67
REMARK SMILES IDX 41 68 42 69 46 70 49 71 43 72 44 73 47 74 45 75 71 76 72 77
REMARK SMILES IDX 80 78 73 79 74 80 78 81 81 82 75 83 76 84 79 85 77 86 56 87
REMARK SMILES IDX 57 88 65 89 58 90 59 91 63 92 66 93 60 94 61 95 64 96 62 97
REMARK H PARENT 22 5 8 23 27 31 86 50 54 61
REMARK Flexibility Score: inf
ROOT
ATOM      1  C   UNL A   1      30.544  26.566  25.324  1.00  0.00     0.116 C 
ENDROOT
BRANCH   1   2
ATOM      2  N   UNL A   1      30.042  25.464  26.124  1.00  0.00    -0.355 N 
ATOM      3  C   UNL A   1      30.674  24.325  26.547  1.00  0.00     0.233 C 
ATOM      4  O   UNL A   1      30.032  23.553  27.265  1.00  0.00    -0.274 OA
ATOM      5  H   UNL A   1      29.102  25.547  26.406  1.00  0.00     0.163 HD
BRANCH   3   6
ATOM      6  C   UNL A   1      32.110  24.000  26.120  1.00  0.00     0.139 C 
ATOM      7  C   UNL A   1      32.810  23.178  27.202  1.00  0.00     0.030 C 
BRANCH   6   8
ATOM      8  S   UNL A   1      32.033  23.284  24.420  1.00  0.00    -0.093 SA
BRANCH   8   9
ATOM      9  C   UNL A   1      33.086  21.855  24.547  1.00  0.00     0.109 A 
ATOM     10  N   UNL A   1      32.441  20.705  24.791  1.00  0.00    -0.220 NA
ATOM     11  C   UNL A   1      34.482  21.970  24.521  1.00  0.00     0.033 A 
ATOM     12  C   UNL A   1      33.192  19.640  25.096  1.00  0.00     0.185 A 
ATOM     13  C   UNL A   1      35.165  20.781  24.795  1.00  0.00     0.075 A 
ATOM     14  C   UNL A   1      35.219  23.158  24.261  1.00  0.00     0.013 A 
ATOM     15  N   UNL A   1      34.538  19.635  25.086  1.00  0.00    -0.227 NA
ATOM     16  C   UNL A   1      36.555  20.803  24.792  1.00  0.00     0.029 A 
ATOM     17  C   UNL A   1      36.610  23.154  24.270  1.00  0.00     0.001 A 
ATOM     18  C   UNL A   1      37.282  21.969  24.535  1.00  0.00     0.002 A 
BRANCH  12  19
ATOM     19  C   UNL A   1      32.468  18.390  25.574  1.00  0.00     0.340 C 
BRANCH  19  20
ATOM     20  N   UNL A   1      32.373  17.247  24.635  1.00  0.00    -0.329 N 
ATOM     21  C   UNL A   1      33.257  16.124  24.952  1.00  0.00     0.262 C 
ATOM     22  C   UNL A   1      32.609  17.617  23.237  1.00  0.00     0.262 C 
ATOM     23  H   UNL A   1      31.405  16.950  24.756  1.00  0.00     0.348 HD
ATOM     24  C   UNL A   1      34.424  16.182  23.984  1.00  0.00     0.067 C 
ATOM     25  C   UNL A   1      33.906  16.957  22.790  1.00  0.00     0.067 C 
ENDBRANCH  19  20
ENDBRANCH  12  19
ENDBRANCH   8   9
ENDBRANCH   6   8
ENDBRANCH   3   6
ENDBRANCH   1   2
BRANCH   1  26
ATOM     26  C   UNL A   1      31.457  27.484  26.125  1.00  0.00     0.023 C 
BRANCH  26  27
ATOM     27  C   UNL A   1      31.619  28.880  25.530  1.00  0.00     0.023 C 
BRANCH  27  28
ATOM     28  C   UNL A   1      32.876  29.625  25.965  1.00  0.00     0.116 C 
BRANCH  28  29
ATOM     29  N   UNL A   1      32.618  30.995  26.385  1.00  0.00    -0.352 N 
ATOM     30  C   UNL A   1      33.341  31.783  27.247  1.00  0.00     0.251 C 
ATOM     31  H   UNL A   1      31.815  31.415  25.998  1.00  0.00     0.163 HD
ATOM     32  O   UNL A   1      32.923  32.886  27.582  1.00  0.00    -0.269 OA
BRANCH  30  33
ATOM     33  C   UNL A   1      34.611  31.272  27.799  1.00  0.00     0.039 A 
ATOM     34  C   UNL A   1      35.684  32.153  27.949  1.00  0.00     0.014 A 
ATOM     35  C   UNL A   1      34.725  29.940  28.206  1.00  0.00     0.014 A 
ATOM     36  C   UNL A   1      36.850  31.716  28.577  1.00  0.00     0.010 A 
ATOM     37  C   UNL A   1      35.860  29.527  28.897  1.00  0.00     0.010 A 
ATOM     38  C   UNL A   1      36.932  30.412  29.092  1.00  0.00    -0.014 A 
BRANCH  38  39
ATOM     39  C   UNL A   1      38.125  29.953  29.845  1.00  0.00     0.031 A 
ATOM     40  C   UNL A   1      38.379  30.464  31.235  1.00  0.00     0.074 A 
ATOM     41  C   UNL A   1      39.016  29.138  29.249  1.00  0.00     0.049 A 
ATOM     42  N   UNL A   1      39.400  30.244  32.023  1.00  0.00    -0.248 NA
ATOM     43  C   UNL A   1      37.365  31.365  31.802  1.00  0.00     0.031 C 
ATOM     44  C   UNL A   1      38.907  28.616  27.886  1.00  0.00     0.029 A 
ATOM     45  N   UNL A   1      40.198  28.615  29.710  1.00  0.00    -0.354 N 
ATOM     46  C   UNL A   1      39.161  30.993  33.167  1.00  0.00     0.074 A 
ATOM     47  C   UNL A   1      37.924  31.712  32.953  1.00  0.00     0.031 C 
ATOM     48  C   UNL A   1      39.964  27.830  27.630  1.00  0.00     0.029 A 
ATOM     49  C   UNL A   1      40.844  27.820  28.794  1.00  0.00     0.049 A 
ATOM     50  H   UNL A   1      40.550  28.793  30.612  1.00  0.00     0.167 HD
ATOM     51  C   UNL A   1      39.896  31.058  34.303  1.00  0.00     0.037 A 
ATOM     52  C   UNL A   1      42.015  27.163  28.884  1.00  0.00     0.037 A 
ATOM     53  C   UNL A   1      41.108  30.315  34.526  1.00  0.00     0.049 A 
ATOM     54  C   UNL A   1      42.810  27.249  30.159  1.00  0.00     0.074 A 
ATOM     55  C   UNL A   1      41.885  30.255  35.669  1.00  0.00     0.029 A 
ATOM     56  N   UNL A   1      41.721  29.503  33.583  1.00  0.00    -0.354 N 
ATOM     57  N   UNL A   1      42.535  27.901  31.263  1.00  0.00    -0.248 NA
ATOM     58  C   UNL A   1      44.075  26.502  30.202  1.00  0.00     0.031 C 
ATOM     59  C   UNL A   1      42.990  29.440  35.404  1.00  0.00     0.029 A 
ATOM     60  C   UNL A   1      42.877  28.956  34.111  1.00  0.00     0.049 A 
ATOM     61  H   UNL A   1      41.382  29.341  32.672  1.00  0.00     0.167 HD
ATOM     62  C   UNL A   1      43.574  27.620  32.140  1.00  0.00     0.074 A 
ATOM     63  C   UNL A   1      44.479  26.729  31.444  1.00  0.00     0.031 C 
ATOM     64  C   UNL A   1      43.762  28.061  33.408  1.00  0.00     0.037 A 
BRANCH  51  65
ATOM     65  C   UNL A   1      39.405  31.962  35.396  1.00  0.00     0.064 A 
ATOM     66  C   UNL A   1      38.498  31.515  36.369  1.00  0.00     0.173 A 
ATOM     67  C   UNL A   1      39.874  33.280  35.492  1.00  0.00     0.173 A 
ATOM     68  F   UNL A   1      38.010  30.267  36.314  1.00  0.00    -0.203 F 
ATOM     69  C   UNL A   1      38.056  32.365  37.380  1.00  0.00     0.198 A 
ATOM     70  C   UNL A   1      39.452  34.119  36.521  1.00  0.00     0.198 A 
ATOM     71  F   UNL A   1      40.745  33.757  34.590  1.00  0.00    -0.203 F 
ATOM     72  F   UNL A   1      37.152  31.930  38.268  1.00  0.00    -0.200 F 
ATOM     73  C   UNL A   1      38.539  33.662  37.459  1.00  0.00     0.200 A 
ATOM     74  F   UNL A   1      39.929  35.368  36.604  1.00  0.00    -0.200 F 
ATOM     75  F   UNL A   1      38.117  34.476  38.436  1.00  0.00    -0.200 F 
ENDBRANCH  51  65
BRANCH  52  76
ATOM     76  C   UNL A   1      42.495  26.340  27.744  1.00  0.00     0.064 A 
ATOM     77  C   UNL A   1      43.359  26.881  26.782  1.00  0.00     0.173 A 
ATOM     78  C   UNL A   1      42.099  25.004  27.589  1.00  0.00     0.173 A 
ATOM     79  F   UNL A   1      43.748  28.162  26.878  1.00  0.00    -0.203 F 
ATOM     80  C   UNL A   1      43.795  26.125  25.698  1.00  0.00     0.198 A 
ATOM     81  C   UNL A   1      42.557  24.239  26.517  1.00  0.00     0.198 A 
ATOM     82  F   UNL A   1      41.278  24.437  28.483  1.00  0.00    -0.203 F 
ATOM     83  F   UNL A   1      44.585  26.681  24.770  1.00  0.00    -0.200 F 
ATOM     84  C   UNL A   1      43.397  24.802  25.568  1.00  0.00     0.200 A 
ATOM     85  F   UNL A   1      42.182  22.958  26.402  1.00  0.00    -0.200 F 
ATOM     86  F   UNL A   1      43.818  24.073  24.526  1.00  0.00    -0.200 F 
ENDBRANCH  52  76
BRANCH  64  87
ATOM     87  C   UNL A   1      44.971  27.557  34.140  1.00  0.00     0.064 A 
ATOM     88  C   UNL A   1      44.944  26.358  34.866  1.00  0.00     0.173 A 
ATOM     89  C   UNL A   1      46.182  28.262  34.078  1.00  0.00     0.173 A 
ATOM     90  F   UNL A   1      43.805  25.657  34.969  1.00  0.00    -0.203 F 
ATOM     91  C   UNL A   1      46.080  25.896  35.526  1.00  0.00     0.198 A 
ATOM     92  C   UNL A   1      47.323  27.782  34.713  1.00  0.00     0.198 A 
ATOM     93  F   UNL A   1      46.261  29.412  33.389  1.00  0.00    -0.203 F 
ATOM     94  F   UNL A   1      46.020  24.772  36.251  1.00  0.00    -0.200 F 
ATOM     95  C   UNL A   1      47.270  26.604  35.441  1.00  0.00     0.200 A 
ATOM     96  F   UNL A   1      48.475  28.461  34.620  1.00  0.00    -0.200 F 
ATOM     97  F   UNL A   1      48.364  26.154  36.070  1.00  0.00    -0.200 F 
ENDBRANCH  64  87
ENDBRANCH  38  39
ENDBRANCH  30  33
ENDBRANCH  28  29
ENDBRANCH  27  28
ENDBRANCH  26  27
ENDBRANCH   1  26
TORSDOF 15
ENDMDL
MODEL 2
REMARK VINA RESULT:     -13.0      0.446      7.287
REMARK SMILES C[C@@H](Sc1nc(C[NH+]2CCCC2)nc2ccccc12)C(=O)NCCCCNC(=O)c1ccc(-c2c3nc(c(-c4c(F)c(F)c(F)c(F)c4F)c4ccc([nH]4)c(-c4c(F)c(F)c(F)c(F)c4F)c4nc(c(-c5c(F)c(F)c(F)c(F)c5F)c5ccc2[nH]5)C=C4)C=C3)cc1
REMARK SMILES IDX 23 1 22 2 20 3 21 4 2 6 1 7 3 8 4 9 5 10 19 11 6 12 14 13
REMARK SMILES IDX 18 14 13 15 15 16 17 17 16 18 7 19 8 20 9 21 12 22 10 24
REMARK SMILES IDX 11 25 24 26 25 27 26 28 27 29 28 30 29 32 30 33 31 34 92 35
REMARK SMILES IDX 32 36 91 37 33 38 34 39 35 40 85 41 36 42 90 43 84 44 86 45
REMARK SMILES IDX 37 46 89 47 83 48 82 49 38 51 70 52 50 53 69 54 51 55 54 56
REMARK SMILES IDX 68 57 87 58 52 59 53 60 67 62 88 63 55 64 39 65 40 66 48 67
REMARK SMILES IDX 41 68 42 69 46 70 49 71 43 72 44 73 47 74 45 75 71 76 72 77
REMARK SMILES IDX 80 78 73 79 74 80 78 81 81 82 75 83 76 84 79 85 77 86 56 87
REMARK SMILES IDX 57 88 65 89 58 90 59 91 63 92 66 93 60 94 61 95 64 96 62 97
REMARK H PARENT 22 5 8 23 27 31 86 50 54 61
REMARK Flexibility Score: inf
ROOT
ATOM      1  C   UNL A   1      30.187  26.347  25.289  1.00  0.00     0.116 C 
ENDROOT
BRANCH   1   2
ATOM      2  N   UNL A   1      29.712  25.248  26.110  1.00  0.00    -0.355 N 
ATOM      3  C   UNL A   1      30.367  24.127  26.544  1.00  0.00     0.233 C 
ATOM      4  O   UNL A   1      29.746  23.355  27.280  1.00  0.00    -0.274 OA
ATOM      5  H   UNL A   1      28.774  25.320  26.401  1.00  0.00     0.163 HD
BRANCH   3   6
ATOM      6  C   UNL A   1      31.804  23.819  26.107  1.00  0.00     0.139 C 
ATOM      7  C   UNL A   1      32.537  23.049  27.204  1.00  0.00     0.030 C 
BRANCH   6   8
ATOM      8  S   UNL A   1      31.720  23.046  24.433  1.00  0.00    -0.093 SA
BRANCH   8   9
ATOM      9  C   UNL A   1      32.873  21.697  24.563  1.00  0.00     0.109 A 
ATOM     10  N   UNL A   1      32.318  20.513  24.858  1.00  0.00    -0.220 NA
ATOM     11  C   UNL A   1      34.256  21.908  24.489  1.00  0.00     0.033 A 
ATOM     12  C   UNL A   1      33.151  19.512  25.167  1.00  0.00     0.185 A 
ATOM     13  C   UNL A   1      35.029  20.778  24.773  1.00  0.00     0.075 A 
ATOM     14  C   UNL A   1      34.901  23.136  24.174  1.00  0.00     0.013 A 
ATOM     15  N   UNL A   1      34.493  19.600  25.114  1.00  0.00    -0.227 NA
ATOM     16  C   UNL A   1      36.413  20.895  24.724  1.00  0.00     0.029 A 
ATOM     17  C   UNL A   1      36.288  23.229  24.139  1.00  0.00     0.001 A 
ATOM     18  C   UNL A   1      37.048  22.101  24.413  1.00  0.00     0.002 A 
BRANCH  12  19
ATOM     19  C   UNL A   1      32.531  18.229  25.701  1.00  0.00     0.340 C 
BRANCH  19  20
ATOM     20  N   UNL A   1      32.528  17.043  24.812  1.00  0.00    -0.329 N 
ATOM     21  C   UNL A   1      33.354  15.929  25.282  1.00  0.00     0.262 C 
ATOM     22  C   UNL A   1      32.929  17.342  23.435  1.00  0.00     0.262 C 
ATOM     23  H   UNL A   1      31.549  16.760  24.835  1.00  0.00     0.348 HD
ATOM     24  C   UNL A   1      34.625  15.930  24.453  1.00  0.00     0.067 C 
ATOM     25  C   UNL A   1      34.260  16.651  23.172  1.00  0.00     0.067 C 
ENDBRANCH  19  20
ENDBRANCH  12  19
ENDBRANCH   8   9
ENDBRANCH   6   8
ENDBRANCH   3   6
ENDBRANCH   1   2
BRANCH   1  26
ATOM     26  C   UNL A   1      31.062  27.312  26.076  1.00  0.00     0.023 C 
BRANCH  26  27
ATOM     27  C   UNL A   1      31.797  28.336  25.216  1.00  0.00     0.023 C 
BRANCH  27  28
ATOM     28  C   UNL A   1      32.889  29.120  25.935  1.00  0.00     0.116 C 
BRANCH  28  29
ATOM     29  N   UNL A   1      32.504  30.488  26.250  1.00  0.00    -0.352 N 
ATOM     30  C   UNL A   1      33.146  31.400  27.052  1.00  0.00     0.251 C 
ATOM     31  H   UNL A   1      31.669  30.802  25.833  1.00  0.00     0.163 HD
ATOM     32  O   UNL A   1      32.627  32.483  27.303  1.00  0.00    -0.269 OA
BRANCH  30  33
ATOM     33  C   UNL A   1      34.453  31.050  27.642  1.00  0.00     0.039 A 
ATOM     34  C   UNL A   1      35.385  32.065  27.867  1.00  0.00     0.014 A 
ATOM     35  C   UNL A   1      34.737  29.732  28.011  1.00  0.00     0.014 A 
ATOM     36  C   UNL A   1      36.576  31.771  28.531  1.00  0.00     0.010 A 
ATOM     37  C   UNL A   1      35.890  29.455  28.736  1.00  0.00     0.010 A 
ATOM     38  C   UNL A   1      36.819  30.472  29.006  1.00  0.00    -0.014 A 
BRANCH  38  39
ATOM     39  C   UNL A   1      38.035  30.155  29.796  1.00  0.00     0.031 A 
ATOM     40  C   UNL A   1      39.070  29.219  29.239  1.00  0.00     0.074 A 
ATOM     41  C   UNL A   1      38.169  30.651  31.040  1.00  0.00     0.049 A 
ATOM     42  N   UNL A   1      40.157  28.758  29.803  1.00  0.00    -0.248 NA
ATOM     43  C   UNL A   1      38.834  28.707  27.880  1.00  0.00     0.031 C 
ATOM     44  C   UNL A   1      37.210  31.530  31.710  1.00  0.00     0.029 A 
ATOM     45  N   UNL A   1      39.164  30.478  31.970  1.00  0.00    -0.354 N 
ATOM     46  C   UNL A   1      40.723  27.891  28.877  1.00  0.00     0.074 A 
ATOM     47  C   UNL A   1      39.835  27.851  27.736  1.00  0.00     0.031 C 
ATOM     48  C   UNL A   1      37.672  31.836  32.932  1.00  0.00     0.029 A 
ATOM     49  C   UNL A   1      38.941  31.149  33.148  1.00  0.00     0.049 A 
ATOM     50  H   UNL A   1      39.961  29.923  31.808  1.00  0.00     0.167 HD
ATOM     51  C   UNL A   1      41.889  27.208  28.964  1.00  0.00     0.037 A 
ATOM     52  C   UNL A   1      39.676  31.198  34.274  1.00  0.00     0.037 A 
ATOM     53  C   UNL A   1      42.787  27.277  30.086  1.00  0.00     0.049 A 
ATOM     54  C   UNL A   1      40.970  30.434  34.342  1.00  0.00     0.074 A 
ATOM     55  C   UNL A   1      44.027  26.683  30.237  1.00  0.00     0.029 A 
ATOM     56  N   UNL A   1      42.537  27.985  31.253  1.00  0.00    -0.354 N 
ATOM     57  N   UNL A   1      41.533  29.677  33.430  1.00  0.00    -0.248 NA
ATOM     58  C   UNL A   1      41.735  30.535  35.592  1.00  0.00     0.031 C 
ATOM     59  C   UNL A   1      44.509  26.996  31.512  1.00  0.00     0.029 A 
ATOM     60  C   UNL A   1      43.591  27.824  32.137  1.00  0.00     0.049 A 
ATOM     61  H   UNL A   1      41.730  28.524  31.426  1.00  0.00     0.167 HD
ATOM     62  C   UNL A   1      42.727  29.237  33.984  1.00  0.00     0.074 A 
ATOM     63  C   UNL A   1      42.815  29.821  35.306  1.00  0.00     0.031 C 
ATOM     64  C   UNL A   1      43.667  28.422  33.446  1.00  0.00     0.037 A 
BRANCH  51  65
ATOM     65  C   UNL A   1      42.264  26.328  27.807  1.00  0.00     0.064 A 
ATOM     66  C   UNL A   1      43.133  26.769  26.798  1.00  0.00     0.173 A 
ATOM     67  C   UNL A   1      41.776  25.016  27.725  1.00  0.00     0.173 A 
ATOM     68  F   UNL A   1      43.617  28.020  26.823  1.00  0.00    -0.203 F 
ATOM     69  C   UNL A   1      43.476  25.938  25.734  1.00  0.00     0.198 A 
ATOM     70  C   UNL A   1      42.144  24.177  26.676  1.00  0.00     0.198 A 
ATOM     71  F   UNL A   1      40.945  24.542  28.666  1.00  0.00    -0.203 F 
ATOM     72  F   UNL A   1      44.268  26.399  24.756  1.00  0.00    -0.200 F 
ATOM     73  C   UNL A   1      42.987  24.642  25.678  1.00  0.00     0.200 A 
ATOM     74  F   UNL A   1      41.681  22.921  26.629  1.00  0.00    -0.200 F 
ATOM     75  F   UNL A   1      43.323  23.842  24.657  1.00  0.00    -0.200 F 
ENDBRANCH  51  65
BRANCH  52  76
ATOM     76  C   UNL A   1      39.224  32.027  35.421  1.00  0.00     0.064 A 
ATOM     77  C   UNL A   1      38.415  31.479  36.426  1.00  0.00     0.173 A 
ATOM     78  C   UNL A   1      39.582  33.378  35.535  1.00  0.00     0.173 A 
ATOM     79  F   UNL A   1      38.029  30.196  36.349  1.00  0.00    -0.203 F 
ATOM     80  C   UNL A   1      37.966  32.254  37.492  1.00  0.00     0.198 A 
ATOM     81  C   UNL A   1      39.154  34.146  36.617  1.00  0.00     0.198 A 
ATOM     82  F   UNL A   1      40.357  33.949  34.603  1.00  0.00    -0.203 F 
ATOM     83  F   UNL A   1      37.158  31.716  38.415  1.00  0.00    -0.200 F 
ATOM     84  C   UNL A   1      38.339  33.586  37.590  1.00  0.00     0.200 A 
ATOM     85  F   UNL A   1      39.528  35.429  36.714  1.00  0.00    -0.200 F 
ATOM     86  F   UNL A   1      37.910  34.331  38.616  1.00  0.00    -0.200 F 
ENDBRANCH  52  76
BRANCH  64  87
ATOM     87  C   UNL A   1      44.890  28.144  34.270  1.00  0.00     0.064 A 
ATOM     88  C   UNL A   1      44.964  27.034  35.123  1.00  0.00     0.173 A 
ATOM     89  C   UNL A   1      46.015  28.976  34.172  1.00  0.00     0.173 A 
ATOM     90  F   UNL A   1      43.909  26.218  35.264  1.00  0.00    -0.203 F 
ATOM     91  C   UNL A   1      46.114  26.781  35.868  1.00  0.00     0.198 A 
ATOM     92  C   UNL A   1      47.172  28.703  34.894  1.00  0.00     0.198 A 
ATOM     93  F   UNL A   1      45.996  30.047  33.364  1.00  0.00    -0.203 F 
ATOM     94  F   UNL A   1      46.148  25.740  36.711  1.00  0.00    -0.200 F 
ATOM     95  C   UNL A   1      47.218  27.610  35.746  1.00  0.00     0.200 A 
ATOM     96  F   UNL A   1      48.243  29.499  34.766  1.00  0.00    -0.200 F 
ATOM     97  F   UNL A   1      48.327  27.361  36.457  1.00  0.00    -0.200 F 
ENDBRANCH  64  87
ENDBRANCH  38  39
ENDBRANCH  30  33
ENDBRANCH  28  29
ENDBRANCH  27  28
ENDBRANCH  26  27
ENDBRANCH   1  26
TORSDOF 15
ENDMDL
MODEL 3
REMARK VINA RESULT:     -12.6      3.423      6.080
REMARK SMILES C[C@@H](Sc1nc(C[NH+]2CCCC2)nc2ccccc12)C(=O)NCCCCNC(=O)c1ccc(-c2c3nc(c(-c4c(F)c(F)c(F)c(F)c4F)c4ccc([nH]4)c(-c4c(F)c(F)c(F)c(F)c4F)c4nc(c(-c5c(F)c(F)c(F)c(F)c5F)c5ccc2[nH]5)C=C4)C=C3)cc1
REMARK SMILES IDX 23 1 22 2 20 3 21 4 2 6 1 7 3 8 4 9 5 10 19 11 6 12 14 13
REMARK SMILES IDX 18 14 13 15 15 16 17 17 16 18 7 19 8 20 9 21 12 22 10 24
REMARK SMILES IDX 11 25 24 26 25 27 26 28 27 29 28 30 29 32 30 33 31 34 92 35
REMARK SMILES IDX 32 36 91 37 33 38 34 39 35 40 85 41 36 42 90 43 84 44 86 45
REMARK SMILES IDX 37 46 89 47 83 48 82 49 38 51 70 52 50 53 69 54 51 55 54 56
REMARK SMILES IDX 68 57 87 58 52 59 53 60 67 62 88 63 55 64 39 65 40 66 48 67
REMARK SMILES IDX 41 68 42 69 46 70 49 71 43 72 44 73 47 74 45 75 71 76 72 77
REMARK SMILES IDX 80 78 73 79 74 80 78 81 81 82 75 83 76 84 79 85 77 86 56 87
REMARK SMILES IDX 57 88 65 89 58 90 59 91 63 92 66 93 60 94 61 95 64 96 62 97
REMARK H PARENT 22 5 8 23 27 31 86 50 54 61
REMARK Flexibility Score: inf
ROOT
ATOM      1  C   UNL A   1      34.396  31.956  28.285  1.00  0.00     0.116 C 
ENDROOT
BRANCH   1   2
ATOM      2  N   UNL A   1      33.219  31.925  27.436  1.00  0.00    -0.355 N 
ATOM      3  C   UNL A   1      32.480  30.860  26.997  1.00  0.00     0.233 C 
ATOM      4  O   UNL A   1      31.483  31.106  26.310  1.00  0.00    -0.274 OA
ATOM      5  H   UNL A   1      32.904  32.806  27.127  1.00  0.00     0.163 HD
BRANCH   3   6
ATOM      6  C   UNL A   1      32.887  29.416  27.312  1.00  0.00     0.139 C 
ATOM      7  C   UNL A   1      31.646  28.553  27.536  1.00  0.00     0.030 C 
BRANCH   6   8
ATOM      8  S   UNL A   1      34.076  28.880  26.007  1.00  0.00    -0.093 SA
BRANCH   8   9
ATOM      9  C   UNL A   1      33.035  27.999  24.864  1.00  0.00     0.109 A 
ATOM     10  N   UNL A   1      32.368  28.778  24.000  1.00  0.00    -0.220 NA
ATOM     11  C   UNL A   1      32.844  26.614  24.966  1.00  0.00     0.033 A 
ATOM     12  C   UNL A   1      31.423  28.191  23.257  1.00  0.00     0.185 A 
ATOM     13  C   UNL A   1      31.874  26.100  24.100  1.00  0.00     0.075 A 
ATOM     14  C   UNL A   1      33.525  25.738  25.855  1.00  0.00     0.013 A 
ATOM     15  N   UNL A   1      31.166  26.870  23.265  1.00  0.00    -0.227 NA
ATOM     16  C   UNL A   1      31.616  24.734  24.134  1.00  0.00     0.029 A 
ATOM     17  C   UNL A   1      33.244  24.376  25.873  1.00  0.00     0.001 A 
ATOM     18  C   UNL A   1      32.286  23.871  25.006  1.00  0.00     0.002 A 
BRANCH  12  19
ATOM     19  C   UNL A   1      30.524  29.097  22.428  1.00  0.00     0.340 C 
BRANCH  19  20
ATOM     20  N   UNL A   1      29.242  29.532  23.030  1.00  0.00    -0.329 N 
ATOM     21  C   UNL A   1      28.104  29.524  22.108  1.00  0.00     0.262 C 
ATOM     22  C   UNL A   1      29.304  30.861  23.645  1.00  0.00     0.262 C 
ATOM     23  H   UNL A   1      29.090  28.824  23.747  1.00  0.00     0.348 HD
ATOM     24  C   UNL A   1      27.835  30.963  21.711  1.00  0.00     0.067 C 
ATOM     25  C   UNL A   1      28.421  31.797  22.831  1.00  0.00     0.067 C 
ENDBRANCH  19  20
ENDBRANCH  12  19
ENDBRANCH   8   9
ENDBRANCH   6   8
ENDBRANCH   3   6
ENDBRANCH   1   2
BRANCH   1  26
ATOM     26  C   UNL A   1      34.481  33.241  29.097  1.00  0.00     0.023 C 
BRANCH  26  27
ATOM     27  C   UNL A   1      33.331  34.213  28.853  1.00  0.00     0.023 C 
BRANCH  27  28
ATOM     28  C   UNL A   1      33.559  35.629  29.372  1.00  0.00     0.116 C 
BRANCH  28  29
ATOM     29  N   UNL A   1      32.618  36.021  30.411  1.00  0.00    -0.352 N 
ATOM     30  C   UNL A   1      32.669  35.765  31.760  1.00  0.00     0.251 C 
ATOM     31  H   UNL A   1      31.839  36.541  30.106  1.00  0.00     0.163 HD
ATOM     32  O   UNL A   1      31.731  36.074  32.488  1.00  0.00    -0.269 OA
BRANCH  30  33
ATOM     33  C   UNL A   1      33.848  35.077  32.321  1.00  0.00     0.039 A 
ATOM     34  C   UNL A   1      33.709  33.764  32.776  1.00  0.00     0.014 A 
ATOM     35  C   UNL A   1      35.092  35.712  32.356  1.00  0.00     0.014 A 
ATOM     36  C   UNL A   1      34.837  33.060  33.199  1.00  0.00     0.010 A 
ATOM     37  C   UNL A   1      36.224  34.986  32.708  1.00  0.00     0.010 A 
ATOM     38  C   UNL A   1      36.108  33.652  33.130  1.00  0.00    -0.014 A 
BRANCH  38  39
ATOM     39  C   UNL A   1      37.333  32.893  33.487  1.00  0.00     0.031 A 
ATOM     40  C   UNL A   1      38.052  33.187  34.772  1.00  0.00     0.074 A 
ATOM     41  C   UNL A   1      37.835  31.995  32.618  1.00  0.00     0.049 A 
ATOM     42  N   UNL A   1      39.174  32.689  35.225  1.00  0.00    -0.248 NA
ATOM     43  C   UNL A   1      37.444  34.196  35.653  1.00  0.00     0.031 C 
ATOM     44  C   UNL A   1      37.256  31.658  31.317  1.00  0.00     0.029 A 
ATOM     45  N   UNL A   1      38.956  31.207  32.696  1.00  0.00    -0.354 N 
ATOM     46  C   UNL A   1      39.416  33.338  36.428  1.00  0.00     0.074 A 
ATOM     47  C   UNL A   1      38.351  34.299  36.613  1.00  0.00     0.031 C 
ATOM     48  C   UNL A   1      38.013  30.719  30.729  1.00  0.00     0.029 A 
ATOM     49  C   UNL A   1      39.148  30.411  31.593  1.00  0.00     0.049 A 
ATOM     50  H   UNL A   1      39.566  31.212  33.469  1.00  0.00     0.167 HD
ATOM     51  C   UNL A   1      40.424  33.133  37.310  1.00  0.00     0.037 A 
ATOM     52  C   UNL A   1      40.132  29.536  31.310  1.00  0.00     0.037 A 
ATOM     53  C   UNL A   1      41.463  32.153  37.139  1.00  0.00     0.049 A 
ATOM     54  C   UNL A   1      41.237  29.325  32.309  1.00  0.00     0.074 A 
ATOM     55  C   UNL A   1      42.484  31.818  38.009  1.00  0.00     0.029 A 
ATOM     56  N   UNL A   1      41.612  31.350  36.018  1.00  0.00    -0.354 N 
ATOM     57  N   UNL A   1      41.414  29.890  33.479  1.00  0.00    -0.248 NA
ATOM     58  C   UNL A   1      42.276  28.351  31.951  1.00  0.00     0.031 C 
ATOM     59  C   UNL A   1      43.277  30.842  37.396  1.00  0.00     0.029 A 
ATOM     60  C   UNL A   1      42.722  30.535  36.165  1.00  0.00     0.049 A 
ATOM     61  H   UNL A   1      41.015  31.357  35.233  1.00  0.00     0.167 HD
ATOM     62  C   UNL A   1      42.563  29.320  34.008  1.00  0.00     0.074 A 
ATOM     63  C   UNL A   1      43.036  28.355  33.036  1.00  0.00     0.031 C 
ATOM     64  C   UNL A   1      43.173  29.572  35.192  1.00  0.00     0.037 A 
BRANCH  51  65
ATOM     65  C   UNL A   1      40.448  33.987  38.544  1.00  0.00     0.064 A 
ATOM     66  C   UNL A   1      41.166  35.192  38.592  1.00  0.00     0.173 A 
ATOM     67  C   UNL A   1      39.719  33.612  39.682  1.00  0.00     0.173 A 
ATOM     68  F   UNL A   1      41.890  35.588  37.535  1.00  0.00    -0.203 F 
ATOM     69  C   UNL A   1      41.175  35.975  39.743  1.00  0.00     0.198 A 
ATOM     70  C   UNL A   1      39.706  34.412  40.822  1.00  0.00     0.198 A 
ATOM     71  F   UNL A   1      39.013  32.471  39.689  1.00  0.00    -0.203 F 
ATOM     72  F   UNL A   1      41.907  37.097  39.782  1.00  0.00    -0.200 F 
ATOM     73  C   UNL A   1      40.440  35.588  40.854  1.00  0.00     0.200 A 
ATOM     74  F   UNL A   1      38.987  34.043  41.890  1.00  0.00    -0.200 F 
ATOM     75  F   UNL A   1      40.445  36.346  41.959  1.00  0.00    -0.200 F 
ENDBRANCH  51  65
BRANCH  52  76
ATOM     76  C   UNL A   1      40.102  28.769  30.038  1.00  0.00     0.064 A 
ATOM     77  C   UNL A   1      39.476  27.517  29.971  1.00  0.00     0.173 A 
ATOM     78  C   UNL A   1      40.699  29.264  28.870  1.00  0.00     0.173 A 
ATOM     79  F   UNL A   1      38.910  26.993  31.069  1.00  0.00    -0.203 F 
ATOM     80  C   UNL A   1      39.464  26.779  28.790  1.00  0.00     0.198 A 
ATOM     81  C   UNL A   1      40.663  28.537  27.681  1.00  0.00     0.198 A 
ATOM     82  F   UNL A   1      41.307  30.459  28.879  1.00  0.00    -0.203 F 
ATOM     83  F   UNL A   1      38.897  25.566  28.766  1.00  0.00    -0.200 F 
ATOM     84  C   UNL A   1      40.054  27.292  27.644  1.00  0.00     0.200 A 
ATOM     85  F   UNL A   1      41.222  29.042  26.573  1.00  0.00    -0.200 F 
ATOM     86  F   UNL A   1      40.040  26.584  26.507  1.00  0.00    -0.200 F 
ENDBRANCH  52  76
BRANCH  64  87
ATOM     87  C   UNL A   1      44.396  28.768  35.521  1.00  0.00     0.064 A 
ATOM     88  C   UNL A   1      44.311  27.545  36.201  1.00  0.00     0.173 A 
ATOM     89  C   UNL A   1      45.665  29.208  35.115  1.00  0.00     0.173 A 
ATOM     90  F   UNL A   1      43.122  27.090  36.625  1.00  0.00    -0.203 F 
ATOM     91  C   UNL A   1      45.454  26.803  36.484  1.00  0.00     0.198 A 
ATOM     92  C   UNL A   1      46.802  28.449  35.373  1.00  0.00     0.198 A 
ATOM     93  F   UNL A   1      45.799  30.369  34.455  1.00  0.00    -0.203 F 
ATOM     94  F   UNL A   1      45.355  25.659  37.174  1.00  0.00    -0.200 F 
ATOM     95  C   UNL A   1      46.697  27.251  36.062  1.00  0.00     0.200 A 
ATOM     96  F   UNL A   1      48.001  28.879  34.954  1.00  0.00    -0.200 F 
ATOM     97  F   UNL A   1      47.796  26.532  36.328  1.00  0.00    -0.200 F 
ENDBRANCH  64  87
ENDBRANCH  38  39
ENDBRANCH  30  33
ENDBRANCH  28  29
ENDBRANCH  27  28
ENDBRANCH  26  27
ENDBRANCH   1  26
TORSDOF 15
ENDMDL
