MODEL 1
REMARK VINA RESULT:     -12.5      0.000      0.000
REMARK SMILES Nc1cc(-c2ccsc2)ccc1C(=O)NCCCCNC(=O)c1ccc(-c2c3nc(c(-c4c(F)c(F)c(F)c(F)c4F)c4ccc([nH]4)c(-c4c(F)c(F)c(F)c(F)c4F)c4nc(c(-c5c(F)c(F)c(F)c(F)c5F)c5ccc2[nH]5)C=C4)C=C3)cc1
REMARK SMILES IDX 18 1 17 2 16 3 15 4 13 5 14 6 12 8 2 9 3 10 4 11 11 12 10 13
REMARK SMILES IDX 1 14 5 17 6 18 9 19 7 20 8 21 19 22 20 23 21 24 22 26 23 27
REMARK SMILES IDX 24 28 85 29 25 30 84 31 26 32 27 33 28 34 78 35 29 36 83 37
REMARK SMILES IDX 77 38 79 39 30 40 82 41 76 42 75 43 31 45 63 46 43 47 62 48
REMARK SMILES IDX 44 49 47 50 61 51 80 52 45 53 46 54 60 56 81 57 48 58 32 59
REMARK SMILES IDX 33 60 41 61 34 62 35 63 39 64 42 65 36 66 37 67 40 68 38 69
REMARK SMILES IDX 64 70 65 71 73 72 66 73 67 74 71 75 74 76 68 77 69 78 72 79
REMARK SMILES IDX 70 80 49 81 50 82 58 83 51 84 52 85 56 86 59 87 53 88 54 89
REMARK SMILES IDX 57 90 55 91
REMARK H PARENT 15 7 1 15 1 16 20 25 79 44 47 55
REMARK Flexibility Score: inf
ROOT
ATOM      1  C   UNL A   1      31.765  28.237  26.621  1.00  0.00     0.023 C 
ENDROOT
BRANCH   1   2
ATOM      2  C   UNL A   1      32.130  26.765  26.430  1.00  0.00     0.023 C 
BRANCH   2   3
ATOM      3  C   UNL A   1      30.966  25.794  26.264  1.00  0.00     0.116 C 
BRANCH   3   4
ATOM      4  N   UNL A   1      31.001  25.012  25.041  1.00  0.00    -0.352 N 
ATOM      5  C   UNL A   1      30.673  25.394  23.759  1.00  0.00     0.253 C 
ATOM      6  O   UNL A   1      30.789  24.574  22.849  1.00  0.00    -0.269 OA
ATOM      7  H   UNL A   1      31.300  24.079  25.142  1.00  0.00     0.163 HD
BRANCH   5   8
ATOM      8  C   UNL A   1      30.107  26.738  23.462  1.00  0.00     0.062 A 
ATOM      9  C   UNL A   1      28.756  27.091  23.628  1.00  0.00     0.045 A 
ATOM     10  C   UNL A   1      28.335  28.341  23.148  1.00  0.00     0.035 A 
ATOM     11  C   UNL A   1      29.244  29.296  22.665  1.00  0.00    -0.015 A 
ATOM     12  C   UNL A   1      31.030  27.704  23.021  1.00  0.00     0.016 A 
ATOM     13  C   UNL A   1      30.603  28.977  22.636  1.00  0.00     0.010 A 
BRANCH   9  14
ATOM     14  N   UNL A   1      27.791  26.239  24.160  1.00  0.00    -0.398 N 
ATOM     15  H   UNL A   1      27.294  25.628  23.570  1.00  0.00     0.156 HD
ATOM     16  H   UNL A   1      27.604  26.249  25.127  1.00  0.00     0.156 HD
ENDBRANCH   9  14
BRANCH  11  17
ATOM     17  C   UNL A   1      28.773  30.597  22.196  1.00  0.00    -0.008 A 
ATOM     18  C   UNL A   1      28.678  31.812  22.952  1.00  0.00     0.020 A 
ATOM     19  C   UNL A   1      28.351  30.796  20.895  1.00  0.00     0.073 A 
ATOM     20  C   UNL A   1      28.224  32.872  22.197  1.00  0.00     0.065 A 
ATOM     21  S   UNL A   1      27.888  32.414  20.586  1.00  0.00    -0.152 S 
ENDBRANCH  11  17
ENDBRANCH   5   8
ENDBRANCH   3   4
ENDBRANCH   2   3
ENDBRANCH   1   2
BRANCH   1  22
ATOM     22  C   UNL A   1      32.687  29.261  25.964  1.00  0.00     0.116 C 
BRANCH  22  23
ATOM     23  N   UNL A   1      32.408  30.637  26.350  1.00  0.00    -0.352 N 
ATOM     24  C   UNL A   1      33.130  31.513  27.127  1.00  0.00     0.251 C 
ATOM     25  H   UNL A   1      31.564  31.000  25.996  1.00  0.00     0.163 HD
ATOM     26  O   UNL A   1      32.661  32.617  27.398  1.00  0.00    -0.269 OA
BRANCH  24  27
ATOM     27  C   UNL A   1      34.445  31.125  27.683  1.00  0.00     0.039 A 
ATOM     28  C   UNL A   1      35.428  32.108  27.830  1.00  0.00     0.014 A 
ATOM     29  C   UNL A   1      34.716  29.810  28.066  1.00  0.00     0.014 A 
ATOM     30  C   UNL A   1      36.638  31.796  28.456  1.00  0.00     0.010 A 
ATOM     31  C   UNL A   1      35.883  29.519  28.767  1.00  0.00     0.010 A 
ATOM     32  C   UNL A   1      36.854  30.511  28.980  1.00  0.00    -0.014 A 
BRANCH  32  33
ATOM     33  C   UNL A   1      38.072  30.190  29.770  1.00  0.00     0.031 A 
ATOM     34  C   UNL A   1      39.106  29.244  29.227  1.00  0.00     0.074 A 
ATOM     35  C   UNL A   1      38.208  30.687  31.017  1.00  0.00     0.049 A 
ATOM     36  N   UNL A   1      40.183  28.771  29.802  1.00  0.00    -0.248 NA
ATOM     37  C   UNL A   1      38.884  28.737  27.863  1.00  0.00     0.031 C 
ATOM     38  C   UNL A   1      37.252  31.571  31.686  1.00  0.00     0.029 A 
ATOM     39  N   UNL A   1      39.199  30.506  31.951  1.00  0.00    -0.354 N 
ATOM     40  C   UNL A   1      40.752  27.899  28.882  1.00  0.00     0.074 A 
ATOM     41  C   UNL A   1      39.875  27.868  27.732  1.00  0.00     0.031 C 
ATOM     42  C   UNL A   1      37.712  31.873  32.909  1.00  0.00     0.029 A 
ATOM     43  C   UNL A   1      38.974  31.175  33.131  1.00  0.00     0.049 A 
ATOM     44  H   UNL A   1      39.996  29.950  31.791  1.00  0.00     0.167 HD
ATOM     45  C   UNL A   1      41.912  27.208  28.978  1.00  0.00     0.037 A 
ATOM     46  C   UNL A   1      39.698  31.213  34.265  1.00  0.00     0.037 A 
ATOM     47  C   UNL A   1      42.801  27.264  30.109  1.00  0.00     0.049 A 
ATOM     48  C   UNL A   1      40.985  30.437  34.345  1.00  0.00     0.074 A 
ATOM     49  C   UNL A   1      44.032  26.654  30.271  1.00  0.00     0.029 A 
ATOM     50  N   UNL A   1      42.550  27.972  31.275  1.00  0.00    -0.354 N 
ATOM     51  N   UNL A   1      41.549  29.673  33.441  1.00  0.00    -0.248 NA
ATOM     52  C   UNL A   1      41.740  30.532  35.603  1.00  0.00     0.031 C 
ATOM     53  C   UNL A   1      44.506  26.956  31.552  1.00  0.00     0.029 A 
ATOM     54  C   UNL A   1      43.594  27.796  32.170  1.00  0.00     0.049 A 
ATOM     55  H   UNL A   1      41.749  28.519  31.443  1.00  0.00     0.167 HD
ATOM     56  C   UNL A   1      42.732  29.221  34.007  1.00  0.00     0.074 A 
ATOM     57  C   UNL A   1      42.815  29.808  35.329  1.00  0.00     0.031 C 
ATOM     58  C   UNL A   1      43.666  28.392  33.480  1.00  0.00     0.037 A 
BRANCH  45  59
ATOM     59  C   UNL A   1      42.293  26.330  27.820  1.00  0.00     0.064 A 
ATOM     60  C   UNL A   1      43.203  26.759  26.841  1.00  0.00     0.173 A 
ATOM     61  C   UNL A   1      41.770  25.034  27.705  1.00  0.00     0.173 A 
ATOM     62  F   UNL A   1      43.725  27.993  26.898  1.00  0.00    -0.203 F 
ATOM     63  C   UNL A   1      43.547  25.936  25.771  1.00  0.00     0.198 A 
ATOM     64  C   UNL A   1      42.141  24.202  26.651  1.00  0.00     0.198 A 
ATOM     65  F   UNL A   1      40.902  24.570  28.617  1.00  0.00    -0.203 F 
ATOM     66  F   UNL A   1      44.375  26.388  24.820  1.00  0.00    -0.200 F 
ATOM     67  C   UNL A   1      43.021  24.656  25.682  1.00  0.00     0.200 A 
ATOM     68  F   UNL A   1      41.642  22.960  26.573  1.00  0.00    -0.200 F 
ATOM     69  F   UNL A   1      43.358  23.864  24.655  1.00  0.00    -0.200 F 
ENDBRANCH  45  59
BRANCH  46  70
ATOM     70  C   UNL A   1      39.237  32.037  35.414  1.00  0.00     0.064 A 
ATOM     71  C   UNL A   1      39.578  33.393  35.506  1.00  0.00     0.173 A 
ATOM     72  C   UNL A   1      38.454  31.490  36.441  1.00  0.00     0.173 A 
ATOM     73  F   UNL A   1      40.344  33.957  34.560  1.00  0.00    -0.203 F 
ATOM     74  C   UNL A   1      39.171  34.166  36.591  1.00  0.00     0.198 A 
ATOM     75  C   UNL A   1      38.023  32.271  37.511  1.00  0.00     0.198 A 
ATOM     76  F   UNL A   1      38.097  30.198  36.397  1.00  0.00    -0.203 F 
ATOM     77  F   UNL A   1      39.550  35.449  36.677  1.00  0.00    -0.200 F 
ATOM     78  C   UNL A   1      38.389  33.606  37.590  1.00  0.00     0.200 A 
ATOM     79  F   UNL A   1      37.256  31.729  38.467  1.00  0.00    -0.200 F 
ATOM     80  F   UNL A   1      37.994  34.351  38.631  1.00  0.00    -0.200 F 
ENDBRANCH  46  70
BRANCH  58  81
ATOM     81  C   UNL A   1      44.877  28.098  34.317  1.00  0.00     0.064 A 
ATOM     82  C   UNL A   1      44.927  26.988  35.173  1.00  0.00     0.173 A 
ATOM     83  C   UNL A   1      46.015  28.914  34.230  1.00  0.00     0.173 A 
ATOM     84  F   UNL A   1      43.859  26.186  35.303  1.00  0.00    -0.203 F 
ATOM     85  C   UNL A   1      46.065  26.720  35.931  1.00  0.00     0.198 A 
ATOM     86  C   UNL A   1      47.161  28.627  34.967  1.00  0.00     0.198 A 
ATOM     87  F   UNL A   1      46.020  29.985  33.422  1.00  0.00    -0.203 F 
ATOM     88  F   UNL A   1      46.074  25.681  36.777  1.00  0.00    -0.200 F 
ATOM     89  C   UNL A   1      47.182  27.534  35.821  1.00  0.00     0.200 A 
ATOM     90  F   UNL A   1      48.244  29.407  34.850  1.00  0.00    -0.200 F 
ATOM     91  F   UNL A   1      48.278  27.270  36.546  1.00  0.00    -0.200 F 
ENDBRANCH  58  81
ENDBRANCH  32  33
ENDBRANCH  24  27
ENDBRANCH  22  23
ENDBRANCH   1  22
TORSDOF 13
ENDMDL
MODEL 2
REMARK VINA RESULT:     -12.4      5.945      9.834
REMARK SMILES Nc1cc(-c2ccsc2)ccc1C(=O)NCCCCNC(=O)c1ccc(-c2c3nc(c(-c4c(F)c(F)c(F)c(F)c4F)c4ccc([nH]4)c(-c4c(F)c(F)c(F)c(F)c4F)c4nc(c(-c5c(F)c(F)c(F)c(F)c5F)c5ccc2[nH]5)C=C4)C=C3)cc1
REMARK SMILES IDX 18 1 17 2 16 3 15 4 13 5 14 6 12 8 2 9 3 10 4 11 11 12 10 13
REMARK SMILES IDX 1 14 5 17 6 18 9 19 7 20 8 21 19 22 20 23 21 24 22 26 23 27
REMARK SMILES IDX 24 28 85 29 25 30 84 31 26 32 27 33 28 34 78 35 29 36 83 37
REMARK SMILES IDX 77 38 79 39 30 40 82 41 76 42 75 43 31 45 63 46 43 47 62 48
REMARK SMILES IDX 44 49 47 50 61 51 80 52 45 53 46 54 60 56 81 57 48 58 32 59
REMARK SMILES IDX 33 60 41 61 34 62 35 63 39 64 42 65 36 66 37 67 40 68 38 69
REMARK SMILES IDX 64 70 65 71 73 72 66 73 67 74 71 75 74 76 68 77 69 78 72 79
REMARK SMILES IDX 70 80 49 81 50 82 58 83 51 84 52 85 56 86 59 87 53 88 54 89
REMARK SMILES IDX 57 90 55 91
REMARK H PARENT 15 7 1 15 1 16 20 25 79 44 47 55
REMARK Flexibility Score: inf
ROOT
ATOM      1  C   UNL A   1      42.070  22.025  27.744  1.00  0.00     0.023 C 
ENDROOT
BRANCH   1   2
ATOM      2  C   UNL A   1      42.569  23.188  28.602  1.00  0.00     0.023 C 
BRANCH   2   3
ATOM      3  C   UNL A   1      44.063  23.214  28.905  1.00  0.00     0.116 C 
BRANCH   3   4
ATOM      4  N   UNL A   1      44.905  22.690  27.845  1.00  0.00    -0.352 N 
ATOM      5  C   UNL A   1      45.673  23.376  26.929  1.00  0.00     0.253 C 
ATOM      6  O   UNL A   1      46.333  22.735  26.113  1.00  0.00    -0.269 OA
ATOM      7  H   UNL A   1      44.931  21.708  27.769  1.00  0.00     0.163 HD
BRANCH   5   8
ATOM      8  C   UNL A   1      45.656  24.861  26.849  1.00  0.00     0.062 A 
ATOM      9  C   UNL A   1      46.649  25.703  27.380  1.00  0.00     0.045 A 
ATOM     10  C   UNL A   1      46.416  27.086  27.377  1.00  0.00     0.035 A 
ATOM     11  C   UNL A   1      45.310  27.652  26.721  1.00  0.00    -0.015 A 
ATOM     12  C   UNL A   1      44.569  25.421  26.152  1.00  0.00     0.016 A 
ATOM     13  C   UNL A   1      44.403  26.806  26.080  1.00  0.00     0.010 A 
BRANCH   9  14
ATOM     14  N   UNL A   1      47.814  25.240  27.989  1.00  0.00    -0.398 N 
ATOM     15  H   UNL A   1      48.360  24.553  27.547  1.00  0.00     0.156 HD
ATOM     16  H   UNL A   1      48.090  25.602  28.863  1.00  0.00     0.156 HD
ENDBRANCH   9  14
BRANCH  11  17
ATOM     17  C   UNL A   1      45.110  29.099  26.718  1.00  0.00    -0.008 A 
ATOM     18  C   UNL A   1      43.916  29.813  27.064  1.00  0.00     0.020 A 
ATOM     19  C   UNL A   1      46.118  29.976  26.363  1.00  0.00     0.073 A 
ATOM     20  C   UNL A   1      44.074  31.180  26.987  1.00  0.00     0.065 A 
ATOM     21  S   UNL A   1      45.645  31.616  26.480  1.00  0.00    -0.152 S 
ENDBRANCH  11  17
ENDBRANCH   5   8
ENDBRANCH   3   4
ENDBRANCH   2   3
ENDBRANCH   1   2
BRANCH   1  22
ATOM     22  C   UNL A   1      41.775  22.335  26.278  1.00  0.00     0.116 C 
BRANCH  22  23
ATOM     23  N   UNL A   1      40.368  22.215  25.923  1.00  0.00    -0.352 N 
ATOM     24  C   UNL A   1      39.312  23.066  26.152  1.00  0.00     0.251 C 
ATOM     25  H   UNL A   1      40.134  21.390  25.440  1.00  0.00     0.163 HD
ATOM     26  O   UNL A   1      38.174  22.724  25.835  1.00  0.00    -0.269 OA
BRANCH  24  27
ATOM     27  C   UNL A   1      39.520  24.369  26.819  1.00  0.00     0.039 A 
ATOM     28  C   UNL A   1      39.047  24.539  28.124  1.00  0.00     0.014 A 
ATOM     29  C   UNL A   1      40.180  25.420  26.179  1.00  0.00     0.014 A 
ATOM     30  C   UNL A   1      39.328  25.718  28.820  1.00  0.00     0.010 A 
ATOM     31  C   UNL A   1      40.535  26.557  26.899  1.00  0.00     0.010 A 
ATOM     32  C   UNL A   1      40.123  26.716  28.232  1.00  0.00    -0.014 A 
BRANCH  32  33
ATOM     33  C   UNL A   1      40.552  27.916  28.997  1.00  0.00     0.031 A 
ATOM     34  C   UNL A   1      41.935  27.994  29.581  1.00  0.00     0.074 A 
ATOM     35  C   UNL A   1      39.666  28.904  29.238  1.00  0.00     0.049 A 
ATOM     36  N   UNL A   1      42.460  28.913  30.353  1.00  0.00    -0.248 NA
ATOM     37  C   UNL A   1      42.841  26.874  29.282  1.00  0.00     0.031 C 
ATOM     38  C   UNL A   1      38.277  28.927  28.778  1.00  0.00     0.029 A 
ATOM     39  N   UNL A   1      39.799  30.075  29.945  1.00  0.00    -0.354 N 
ATOM     40  C   UNL A   1      43.744  28.472  30.647  1.00  0.00     0.074 A 
ATOM     41  C   UNL A   1      43.902  27.181  30.014  1.00  0.00     0.031 C 
ATOM     42  C   UNL A   1      37.694  30.063  29.192  1.00  0.00     0.029 A 
ATOM     43  C   UNL A   1      38.651  30.831  29.982  1.00  0.00     0.049 A 
ATOM     44  H   UNL A   1      40.637  30.347  30.384  1.00  0.00     0.167 HD
ATOM     45  C   UNL A   1      44.711  29.099  31.358  1.00  0.00     0.037 A 
ATOM     46  C   UNL A   1      38.397  32.004  30.591  1.00  0.00     0.037 A 
ATOM     47  C   UNL A   1      44.564  30.398  31.961  1.00  0.00     0.049 A 
ATOM     48  C   UNL A   1      39.490  32.680  31.374  1.00  0.00     0.074 A 
ATOM     49  C   UNL A   1      45.509  31.145  32.642  1.00  0.00     0.029 A 
ATOM     50  N   UNL A   1      43.394  31.142  31.955  1.00  0.00    -0.354 N 
ATOM     51  N   UNL A   1      40.723  32.287  31.584  1.00  0.00    -0.248 NA
ATOM     52  C   UNL A   1      39.157  33.967  32.001  1.00  0.00     0.031 C 
ATOM     53  C   UNL A   1      44.898  32.322  33.088  1.00  0.00     0.029 A 
ATOM     54  C   UNL A   1      43.586  32.331  32.641  1.00  0.00     0.049 A 
ATOM     55  H   UNL A   1      42.551  30.867  31.528  1.00  0.00     0.167 HD
ATOM     56  C   UNL A   1      41.318  33.287  32.340  1.00  0.00     0.074 A 
ATOM     57  C   UNL A   1      40.316  34.313  32.541  1.00  0.00     0.031 C 
ATOM     58  C   UNL A   1      42.582  33.348  32.826  1.00  0.00     0.037 A 
BRANCH  45  59
ATOM     59  C   UNL A   1      46.024  28.386  31.519  1.00  0.00     0.064 A 
ATOM     60  C   UNL A   1      46.234  27.456  32.549  1.00  0.00     0.173 A 
ATOM     61  C   UNL A   1      47.073  28.610  30.615  1.00  0.00     0.173 A 
ATOM     62  F   UNL A   1      45.267  27.213  33.447  1.00  0.00    -0.203 F 
ATOM     63  C   UNL A   1      47.456  26.803  32.688  1.00  0.00     0.198 A 
ATOM     64  C   UNL A   1      48.282  27.931  30.738  1.00  0.00     0.198 A 
ATOM     65  F   UNL A   1      46.923  29.482  29.607  1.00  0.00    -0.203 F 
ATOM     66  F   UNL A   1      47.651  25.960  33.711  1.00  0.00    -0.200 F 
ATOM     67  C   UNL A   1      48.476  27.036  31.778  1.00  0.00     0.200 A 
ATOM     68  F   UNL A   1      49.263  28.147  29.850  1.00  0.00    -0.200 F 
ATOM     69  F   UNL A   1      49.649  26.402  31.910  1.00  0.00    -0.200 F 
ENDBRANCH  45  59
BRANCH  46  70
ATOM     70  C   UNL A   1      37.054  32.631  30.465  1.00  0.00     0.064 A 
ATOM     71  C   UNL A   1      36.749  33.456  29.374  1.00  0.00     0.173 A 
ATOM     72  C   UNL A   1      36.056  32.425  31.428  1.00  0.00     0.173 A 
ATOM     73  F   UNL A   1      37.678  33.702  28.439  1.00  0.00    -0.203 F 
ATOM     74  C   UNL A   1      35.502  34.068  29.261  1.00  0.00     0.198 A 
ATOM     75  C   UNL A   1      34.799  33.014  31.299  1.00  0.00     0.198 A 
ATOM     76  F   UNL A   1      36.297  31.640  32.488  1.00  0.00    -0.203 F 
ATOM     77  F   UNL A   1      35.252  34.889  28.232  1.00  0.00    -0.200 F 
ATOM     78  C   UNL A   1      34.527  33.842  30.220  1.00  0.00     0.200 A 
ATOM     79  F   UNL A   1      33.855  32.782  32.221  1.00  0.00    -0.200 F 
ATOM     80  F   UNL A   1      33.326  34.427  30.109  1.00  0.00    -0.200 F 
ENDBRANCH  46  70
BRANCH  58  81
ATOM     81  C   UNL A   1      42.966  34.580  33.593  1.00  0.00     0.064 A 
ATOM     82  C   UNL A   1      43.382  35.751  32.943  1.00  0.00     0.173 A 
ATOM     83  C   UNL A   1      42.877  34.601  34.994  1.00  0.00     0.173 A 
ATOM     84  F   UNL A   1      43.498  35.777  31.607  1.00  0.00    -0.203 F 
ATOM     85  C   UNL A   1      43.719  36.891  33.670  1.00  0.00     0.198 A 
ATOM     86  C   UNL A   1      43.187  35.750  35.714  1.00  0.00     0.198 A 
ATOM     87  F   UNL A   1      42.479  33.508  35.662  1.00  0.00    -0.203 F 
ATOM     88  F   UNL A   1      44.158  37.984  33.031  1.00  0.00    -0.200 F 
ATOM     89  C   UNL A   1      43.614  36.892  35.052  1.00  0.00     0.200 A 
ATOM     90  F   UNL A   1      43.072  35.754  37.049  1.00  0.00    -0.200 F 
ATOM     91  F   UNL A   1      43.931  37.992  35.749  1.00  0.00    -0.200 F 
ENDBRANCH  58  81
ENDBRANCH  32  33
ENDBRANCH  24  27
ENDBRANCH  22  23
ENDBRANCH   1  22
TORSDOF 13
ENDMDL
MODEL 3
REMARK VINA RESULT:     -12.4      0.492      1.817
REMARK SMILES Nc1cc(-c2ccsc2)ccc1C(=O)NCCCCNC(=O)c1ccc(-c2c3nc(c(-c4c(F)c(F)c(F)c(F)c4F)c4ccc([nH]4)c(-c4c(F)c(F)c(F)c(F)c4F)c4nc(c(-c5c(F)c(F)c(F)c(F)c5F)c5ccc2[nH]5)C=C4)C=C3)cc1
REMARK SMILES IDX 18 1 17 2 16 3 15 4 13 5 14 6 12 8 2 9 3 10 4 11 11 12 10 13
REMARK SMILES IDX 1 14 5 17 6 18 9 19 7 20 8 21 19 22 20 23 21 24 22 26 23 27
REMARK SMILES IDX 24 28 85 29 25 30 84 31 26 32 27 33 28 34 78 35 29 36 83 37
REMARK SMILES IDX 77 38 79 39 30 40 82 41 76 42 75 43 31 45 63 46 43 47 62 48
REMARK SMILES IDX 44 49 47 50 61 51 80 52 45 53 46 54 60 56 81 57 48 58 32 59
REMARK SMILES IDX 33 60 41 61 34 62 35 63 39 64 42 65 36 66 37 67 40 68 38 69
REMARK SMILES IDX 64 70 65 71 73 72 66 73 67 74 71 75 74 76 68 77 69 78 72 79
REMARK SMILES IDX 70 80 49 81 50 82 58 83 51 84 52 85 56 86 59 87 53 88 54 89
REMARK SMILES IDX 57 90 55 91
REMARK H PARENT 15 7 1 15 1 16 20 25 79 44 47 55
REMARK Flexibility Score: inf
ROOT
ATOM      1  C   UNL A   1      31.803  28.177  26.205  1.00  0.00     0.023 C 
ENDROOT
BRANCH   1   2
ATOM      2  C   UNL A   1      32.285  26.730  26.110  1.00  0.00     0.023 C 
BRANCH   2   3
ATOM      3  C   UNL A   1      31.218  25.650  26.250  1.00  0.00     0.116 C 
BRANCH   3   4
ATOM      4  N   UNL A   1      31.142  24.727  25.132  1.00  0.00    -0.352 N 
ATOM      5  C   UNL A   1      30.822  24.984  23.817  1.00  0.00     0.253 C 
ATOM      6  O   UNL A   1      30.830  24.053  23.013  1.00  0.00    -0.269 OA
ATOM      7  H   UNL A   1      31.347  23.787  25.342  1.00  0.00     0.163 HD
BRANCH   5   8
ATOM      8  C   UNL A   1      30.386  26.333  23.365  1.00  0.00     0.062 A 
ATOM      9  C   UNL A   1      31.158  27.201  22.574  1.00  0.00     0.045 A 
ATOM     10  C   UNL A   1      30.686  28.506  22.368  1.00  0.00     0.035 A 
ATOM     11  C   UNL A   1      29.407  28.908  22.787  1.00  0.00    -0.015 A 
ATOM     12  C   UNL A   1      29.086  26.713  23.750  1.00  0.00     0.016 A 
ATOM     13  C   UNL A   1      28.597  27.987  23.453  1.00  0.00     0.010 A 
BRANCH   9  14
ATOM     14  N   UNL A   1      32.409  26.871  22.055  1.00  0.00    -0.398 N 
ATOM     15  H   UNL A   1      32.693  25.931  22.017  1.00  0.00     0.156 HD
ATOM     16  H   UNL A   1      33.008  27.581  21.726  1.00  0.00     0.156 HD
ENDBRANCH   9  14
BRANCH  11  17
ATOM     17  C   UNL A   1      28.938  30.269  22.534  1.00  0.00    -0.008 A 
ATOM     18  C   UNL A   1      28.824  31.339  23.482  1.00  0.00     0.020 A 
ATOM     19  C   UNL A   1      28.538  30.684  21.278  1.00  0.00     0.073 A 
ATOM     20  C   UNL A   1      28.379  32.510  22.908  1.00  0.00     0.065 A 
ATOM     21  S   UNL A   1      28.073  32.330  21.238  1.00  0.00    -0.152 S 
ENDBRANCH  11  17
ENDBRANCH   5   8
ENDBRANCH   3   4
ENDBRANCH   2   3
ENDBRANCH   1   2
BRANCH   1  22
ATOM     22  C   UNL A   1      32.776  29.255  25.732  1.00  0.00     0.116 C 
BRANCH  22  23
ATOM     23  N   UNL A   1      32.440  30.594  26.190  1.00  0.00    -0.352 N 
ATOM     24  C   UNL A   1      33.109  31.445  27.039  1.00  0.00     0.251 C 
ATOM     25  H   UNL A   1      31.594  30.951  25.834  1.00  0.00     0.163 HD
ATOM     26  O   UNL A   1      32.595  32.515  27.361  1.00  0.00    -0.269 OA
BRANCH  24  27
ATOM     27  C   UNL A   1      34.420  31.068  27.609  1.00  0.00     0.039 A 
ATOM     28  C   UNL A   1      35.393  32.060  27.772  1.00  0.00     0.014 A 
ATOM     29  C   UNL A   1      34.699  29.755  27.992  1.00  0.00     0.014 A 
ATOM     30  C   UNL A   1      36.598  31.757  28.411  1.00  0.00     0.010 A 
ATOM     31  C   UNL A   1      35.860  29.473  28.707  1.00  0.00     0.010 A 
ATOM     32  C   UNL A   1      36.820  30.473  28.935  1.00  0.00    -0.014 A 
BRANCH  32  33
ATOM     33  C   UNL A   1      38.031  30.161  29.739  1.00  0.00     0.031 A 
ATOM     34  C   UNL A   1      39.078  29.224  29.206  1.00  0.00     0.074 A 
ATOM     35  C   UNL A   1      38.148  30.657  30.987  1.00  0.00     0.049 A 
ATOM     36  N   UNL A   1      40.153  28.759  29.794  1.00  0.00    -0.248 NA
ATOM     37  C   UNL A   1      38.877  28.717  27.839  1.00  0.00     0.031 C 
ATOM     38  C   UNL A   1      37.176  31.532  31.646  1.00  0.00     0.029 A 
ATOM     39  N   UNL A   1      39.129  30.483  31.933  1.00  0.00    -0.354 N 
ATOM     40  C   UNL A   1      40.740  27.894  28.879  1.00  0.00     0.074 A 
ATOM     41  C   UNL A   1      39.876  27.857  27.719  1.00  0.00     0.031 C 
ATOM     42  C   UNL A   1      37.619  31.837  32.875  1.00  0.00     0.029 A 
ATOM     43  C   UNL A   1      38.885  31.148  33.111  1.00  0.00     0.049 A 
ATOM     44  H   UNL A   1      39.932  29.934  31.781  1.00  0.00     0.167 HD
ATOM     45  C   UNL A   1      41.905  27.212  28.988  1.00  0.00     0.037 A 
ATOM     46  C   UNL A   1      39.595  31.191  34.254  1.00  0.00     0.037 A 
ATOM     47  C   UNL A   1      42.779  27.274  30.129  1.00  0.00     0.049 A 
ATOM     48  C   UNL A   1      40.887  30.426  34.348  1.00  0.00     0.074 A 
ATOM     49  C   UNL A   1      44.014  26.674  30.305  1.00  0.00     0.029 A 
ATOM     50  N   UNL A   1      42.509  27.978  31.293  1.00  0.00    -0.354 N 
ATOM     51  N   UNL A   1      41.468  29.668  33.449  1.00  0.00    -0.248 NA
ATOM     52  C   UNL A   1      41.626  30.525  35.614  1.00  0.00     0.031 C 
ATOM     53  C   UNL A   1      44.470  26.978  31.592  1.00  0.00     0.029 A 
ATOM     54  C   UNL A   1      43.543  27.810  32.200  1.00  0.00     0.049 A 
ATOM     55  H   UNL A   1      41.701  28.519  31.452  1.00  0.00     0.167 HD
ATOM     56  C   UNL A   1      42.648  29.225  34.029  1.00  0.00     0.074 A 
ATOM     57  C   UNL A   1      42.710  29.810  35.352  1.00  0.00     0.031 C 
ATOM     58  C   UNL A   1      43.596  28.405  33.511  1.00  0.00     0.037 A 
BRANCH  45  59
ATOM     59  C   UNL A   1      42.307  26.339  27.833  1.00  0.00     0.064 A 
ATOM     60  C   UNL A   1      41.825  25.028  27.700  1.00  0.00     0.173 A 
ATOM     61  C   UNL A   1      43.157  26.830  26.830  1.00  0.00     0.173 A 
ATOM     62  F   UNL A   1      41.017  24.507  28.635  1.00  0.00    -0.203 F 
ATOM     63  C   UNL A   1      42.206  24.230  26.624  1.00  0.00     0.198 A 
ATOM     64  C   UNL A   1      43.510  26.039  25.740  1.00  0.00     0.198 A 
ATOM     65  F   UNL A   1      43.640  28.079  26.904  1.00  0.00    -0.203 F 
ATOM     66  F   UNL A   1      41.776  22.963  26.547  1.00  0.00    -0.200 F 
ATOM     67  C   UNL A   1      43.042  24.738  25.643  1.00  0.00     0.200 A 
ATOM     68  F   UNL A   1      44.308  26.537  24.784  1.00  0.00    -0.200 F 
ATOM     69  F   UNL A   1      43.403  23.969  24.605  1.00  0.00    -0.200 F 
ENDBRANCH  45  59
BRANCH  46  70
ATOM     70  C   UNL A   1      39.113  32.010  35.398  1.00  0.00     0.064 A 
ATOM     71  C   UNL A   1      39.402  33.379  35.471  1.00  0.00     0.173 A 
ATOM     72  C   UNL A   1      38.363  31.444  36.439  1.00  0.00     0.173 A 
ATOM     73  F   UNL A   1      40.135  33.962  34.511  1.00  0.00    -0.203 F 
ATOM     74  C   UNL A   1      38.976  34.148  36.552  1.00  0.00     0.198 A 
ATOM     75  C   UNL A   1      37.913  32.220  37.505  1.00  0.00     0.198 A 
ATOM     76  F   UNL A   1      38.056  30.139  36.414  1.00  0.00    -0.203 F 
ATOM     77  F   UNL A   1      39.305  35.446  36.620  1.00  0.00    -0.200 F 
ATOM     78  C   UNL A   1      38.227  33.570  37.565  1.00  0.00     0.200 A 
ATOM     79  F   UNL A   1      37.178  31.660  38.475  1.00  0.00    -0.200 F 
ATOM     80  F   UNL A   1      37.813  34.311  38.602  1.00  0.00    -0.200 F 
ENDBRANCH  46  70
BRANCH  58  81
ATOM     81  C   UNL A   1      44.798  28.119  34.362  1.00  0.00     0.064 A 
ATOM     82  C   UNL A   1      45.924  28.957  34.351  1.00  0.00     0.173 A 
ATOM     83  C   UNL A   1      44.808  27.016  35.230  1.00  0.00     0.173 A 
ATOM     84  F   UNL A   1      45.970  30.015  33.528  1.00  0.00    -0.203 F 
ATOM     85  C   UNL A   1      47.025  28.686  35.160  1.00  0.00     0.198 A 
ATOM     86  C   UNL A   1      45.899  26.765  36.058  1.00  0.00     0.198 A 
ATOM     87  F   UNL A   1      43.754  26.187  35.282  1.00  0.00    -0.203 F 
ATOM     88  F   UNL A   1      48.107  29.473  35.099  1.00  0.00    -0.200 F 
ATOM     89  C   UNL A   1      47.008  27.596  36.017  1.00  0.00     0.200 A 
ATOM     90  F   UNL A   1      45.875  25.719  36.895  1.00  0.00    -0.200 F 
ATOM     91  F   UNL A   1      48.066  27.342  36.800  1.00  0.00    -0.200 F 
ENDBRANCH  58  81
ENDBRANCH  32  33
ENDBRANCH  24  27
ENDBRANCH  22  23
ENDBRANCH   1  22
TORSDOF 13
ENDMDL
