MODEL 1
REMARK VINA RESULT:     -11.6      0.000      0.000
REMARK SMILES CCc1ncc(S(=O)(=O)NCc2ccc(C(=O)NCCCCNC(=O)c3ccc(-c4c5nc(c(-c6c(F)c(F)c(F)c(F)c6F)c6ccc([nH]6)c(-c6c(F)c(F)c(F)c(F)c6F)c6nc(c(-c7c(F)c(F)c(F)c(F)c7F)c7ccc4[nH]7)C=C6)C=C5)cc3)o2)[nH]1
REMARK SMILES IDX 19 1 18 2 16 3 17 4 15 6 12 7 13 8 89 9 14 10 11 11 10 12
REMARK SMILES IDX 7 14 8 15 9 16 6 17 3 18 4 19 90 20 5 21 2 23 1 24 20 25
REMARK SMILES IDX 21 26 22 27 23 28 24 29 25 31 26 32 27 33 88 34 28 35 87 36
REMARK SMILES IDX 29 37 30 38 31 39 81 40 32 41 86 42 80 43 82 44 33 45 85 46
REMARK SMILES IDX 79 47 78 48 34 50 66 51 46 52 65 53 47 54 50 55 64 56 83 57
REMARK SMILES IDX 48 58 49 59 63 61 84 62 51 63 35 64 36 65 44 66 37 67 38 68
REMARK SMILES IDX 42 69 45 70 39 71 40 72 43 73 41 74 67 75 68 76 76 77 69 78
REMARK SMILES IDX 70 79 74 80 77 81 71 82 72 83 75 84 73 85 52 86 53 87 61 88
REMARK SMILES IDX 54 89 55 90 59 91 62 92 56 93 57 94 60 95 58 96
REMARK H PARENT 18 5 10 13 90 22 23 30 82 49 50 60
REMARK Flexibility Score: inf
ROOT
ATOM      1  C   UNL A   1      32.876  29.547  25.878  1.00  0.00     0.116 C 
ENDROOT
BRANCH   1   2
ATOM      2  N   UNL A   1      33.544  29.372  24.609  1.00  0.00    -0.349 N 
ATOM      3  C   UNL A   1      33.250  28.555  23.543  1.00  0.00     0.286 C 
ATOM      4  O   UNL A   1      34.044  28.609  22.601  1.00  0.00    -0.266 OA
ATOM      5  H   UNL A   1      34.345  29.933  24.488  1.00  0.00     0.163 HD
BRANCH   3   6
ATOM      6  C   UNL A   1      32.067  27.712  23.540  1.00  0.00     0.191 A 
ATOM      7  C   UNL A   1      31.106  25.718  23.642  1.00  0.00     0.119 A 
ATOM      8  C   UNL A   1      30.092  26.619  23.416  1.00  0.00     0.048 A 
ATOM      9  O   UNL A   1      32.287  26.375  23.753  1.00  0.00    -0.455 OA
ATOM     10  C   UNL A   1      30.703  27.898  23.387  1.00  0.00     0.056 A 
BRANCH   7  11
ATOM     11  C   UNL A   1      31.147  24.255  23.851  1.00  0.00     0.174 C 
BRANCH  11  12
ATOM     12  N   UNL A   1      30.374  23.837  25.024  1.00  0.00    -0.202 NA
ATOM     13  H   UNL A   1      29.500  24.364  25.004  1.00  0.00     0.141 HD
BRANCH  12  14
ATOM     14  S   UNL A   1      31.019  24.024  26.560  1.00  0.00     0.258 S 
ATOM     15  O   UNL A   1      30.367  23.125  27.476  1.00  0.00    -0.205 OA
ATOM     16  O   UNL A   1      31.050  25.446  26.827  1.00  0.00    -0.205 OA
BRANCH  14  17
ATOM     17  C   UNL A   1      32.697  23.541  26.569  1.00  0.00     0.167 A 
ATOM     18  C   UNL A   1      34.869  23.648  26.101  1.00  0.00     0.106 A 
ATOM     19  N   UNL A   1      34.721  22.542  26.798  1.00  0.00    -0.240 NA
ATOM     20  N   UNL A   1      33.672  24.308  25.977  1.00  0.00    -0.332 N 
ATOM     21  C   UNL A   1      33.381  22.454  27.065  1.00  0.00     0.153 A 
ATOM     22  H   UNL A   1      33.534  25.179  25.539  1.00  0.00     0.169 HD
BRANCH  18  23
ATOM     23  C   UNL A   1      36.132  24.138  25.480  1.00  0.00     0.072 C 
ATOM     24  C   UNL A   1      37.145  23.007  25.359  1.00  0.00     0.012 C 
ENDBRANCH  18  23
ENDBRANCH  14  17
ENDBRANCH  12  14
ENDBRANCH  11  12
ENDBRANCH   7  11
ENDBRANCH   3   6
ENDBRANCH   1   2
BRANCH   1  25
ATOM     25  C   UNL A   1      31.793  30.620  25.768  1.00  0.00     0.023 C 
BRANCH  25  26
ATOM     26  C   UNL A   1      31.698  31.525  27.003  1.00  0.00     0.023 C 
BRANCH  26  27
ATOM     27  C   UNL A   1      32.876  32.476  27.193  1.00  0.00     0.116 C 
BRANCH  27  28
ATOM     28  N   UNL A   1      32.473  33.834  27.523  1.00  0.00    -0.352 N 
ATOM     29  C   UNL A   1      33.009  34.677  28.466  1.00  0.00     0.251 C 
ATOM     30  H   UNL A   1      31.718  34.196  27.004  1.00  0.00     0.163 HD
ATOM     31  O   UNL A   1      32.492  35.764  28.699  1.00  0.00    -0.269 OA
BRANCH  29  32
ATOM     32  C   UNL A   1      34.192  34.236  29.228  1.00  0.00     0.039 A 
ATOM     33  C   UNL A   1      34.002  33.485  30.389  1.00  0.00     0.014 A 
ATOM     34  C   UNL A   1      35.480  34.527  28.770  1.00  0.00     0.014 A 
ATOM     35  C   UNL A   1      35.110  32.962  31.058  1.00  0.00     0.010 A 
ATOM     36  C   UNL A   1      36.577  33.953  29.400  1.00  0.00     0.010 A 
ATOM     37  C   UNL A   1      36.402  33.161  30.547  1.00  0.00    -0.014 A 
BRANCH  37  38
ATOM     38  C   UNL A   1      37.590  32.549  31.188  1.00  0.00     0.031 A 
ATOM     39  C   UNL A   1      38.309  31.422  30.507  1.00  0.00     0.074 A 
ATOM     40  C   UNL A   1      37.967  32.952  32.417  1.00  0.00     0.049 A 
ATOM     41  N   UNL A   1      39.292  30.678  30.948  1.00  0.00    -0.248 NA
ATOM     42  C   UNL A   1      37.839  31.059  29.160  1.00  0.00     0.031 C 
ATOM     43  C   UNL A   1      37.319  34.010  33.195  1.00  0.00     0.029 A 
ATOM     44  N   UNL A   1      38.975  32.506  33.234  1.00  0.00    -0.354 N 
ATOM     45  C   UNL A   1      39.543  29.752  29.945  1.00  0.00     0.074 A 
ATOM     46  C   UNL A   1      38.581  29.995  28.892  1.00  0.00     0.031 C 
ATOM     47  C   UNL A   1      37.954  34.140  34.372  1.00  0.00     0.029 A 
ATOM     48  C   UNL A   1      39.027  33.153  34.445  1.00  0.00     0.049 A 
ATOM     49  H   UNL A   1      39.600  31.792  32.977  1.00  0.00     0.167 HD
ATOM     50  C   UNL A   1      40.503  28.799  29.899  1.00  0.00     0.037 A 
ATOM     51  C   UNL A   1      39.842  32.960  35.499  1.00  0.00     0.037 A 
ATOM     52  C   UNL A   1      41.477  28.582  30.936  1.00  0.00     0.049 A 
ATOM     53  C   UNL A   1      40.905  31.898  35.421  1.00  0.00     0.074 A 
ATOM     54  C   UNL A   1      42.526  27.680  30.962  1.00  0.00     0.029 A 
ATOM     55  N   UNL A   1      41.522  29.282  32.134  1.00  0.00    -0.354 N 
ATOM     56  N   UNL A   1      41.171  31.066  34.443  1.00  0.00    -0.248 NA
ATOM     57  C   UNL A   1      41.784  31.751  36.589  1.00  0.00     0.031 C 
ATOM     58  C   UNL A   1      43.183  27.807  32.189  1.00  0.00     0.029 A 
ATOM     59  C   UNL A   1      42.572  28.821  32.910  1.00  0.00     0.049 A 
ATOM     60  H   UNL A   1      40.899  29.999  32.393  1.00  0.00     0.167 HD
ATOM     61  C   UNL A   1      42.266  30.322  34.862  1.00  0.00     0.074 A 
ATOM     62  C   UNL A   1      42.618  30.806  36.181  1.00  0.00     0.031 C 
ATOM     63  C   UNL A   1      42.920  29.331  34.212  1.00  0.00     0.037 A 
BRANCH  50  64
ATOM     64  C   UNL A   1      40.551  27.920  28.684  1.00  0.00     0.064 A 
ATOM     65  C   UNL A   1      41.319  28.262  27.560  1.00  0.00     0.173 A 
ATOM     66  C   UNL A   1      39.846  26.708  28.654  1.00  0.00     0.173 A 
ATOM     67  F   UNL A   1      42.001  29.417  27.535  1.00  0.00    -0.203 F 
ATOM     68  C   UNL A   1      41.358  27.435  26.441  1.00  0.00     0.198 A 
ATOM     69  C   UNL A   1      39.912  25.869  27.544  1.00  0.00     0.198 A 
ATOM     70  F   UNL A   1      39.100  26.332  29.703  1.00  0.00    -0.203 F 
ATOM     71  F   UNL A   1      42.060  27.805  25.361  1.00  0.00    -0.200 F 
ATOM     72  C   UNL A   1      40.661  26.237  26.436  1.00  0.00     0.200 A 
ATOM     73  F   UNL A   1      39.246  24.706  27.545  1.00  0.00    -0.200 F 
ATOM     74  F   UNL A   1      40.704  25.439  25.360  1.00  0.00    -0.200 F 
ENDBRANCH  50  64
BRANCH  51  75
ATOM     75  C   UNL A   1      39.705  33.812  36.709  1.00  0.00     0.064 A 
ATOM     76  C   UNL A   1      38.896  33.411  37.780  1.00  0.00     0.173 A 
ATOM     77  C   UNL A   1      40.375  35.038  36.819  1.00  0.00     0.173 A 
ATOM     78  F   UNL A   1      38.219  32.255  37.712  1.00  0.00    -0.203 F 
ATOM     79  C   UNL A   1      38.744  34.214  38.909  1.00  0.00     0.198 A 
ATOM     80  C   UNL A   1      40.244  35.829  37.960  1.00  0.00     0.198 A 
ATOM     81  F   UNL A   1      41.167  35.465  35.825  1.00  0.00    -0.203 F 
ATOM     82  F   UNL A   1      37.930  33.827  39.899  1.00  0.00    -0.200 F 
ATOM     83  C   UNL A   1      39.423  35.420  39.000  1.00  0.00     0.200 A 
ATOM     84  F   UNL A   1      40.912  36.986  38.051  1.00  0.00    -0.200 F 
ATOM     85  F   UNL A   1      39.280  36.190  40.087  1.00  0.00    -0.200 F 
ENDBRANCH  51  75
BRANCH  63  86
ATOM     86  C   UNL A   1      44.119  28.734  34.891  1.00  0.00     0.064 A 
ATOM     87  C   UNL A   1      44.022  27.569  35.664  1.00  0.00     0.173 A 
ATOM     88  C   UNL A   1      45.387  29.308  34.716  1.00  0.00     0.173 A 
ATOM     89  F   UNL A   1      42.829  26.992  35.872  1.00  0.00    -0.203 F 
ATOM     90  C   UNL A   1      45.153  27.011  36.256  1.00  0.00     0.198 A 
ATOM     91  C   UNL A   1      46.517  28.731  35.286  1.00  0.00     0.198 A 
ATOM     92  F   UNL A   1      45.530  30.420  33.979  1.00  0.00    -0.203 F 
ATOM     93  F   UNL A   1      45.033  25.918  37.023  1.00  0.00    -0.200 F 
ATOM     94  C   UNL A   1      46.399  27.586  36.060  1.00  0.00     0.200 A 
ATOM     95  F   UNL A   1      47.723  29.283  35.085  1.00  0.00    -0.200 F 
ATOM     96  F   UNL A   1      47.487  27.040  36.620  1.00  0.00    -0.200 F 
ENDBRANCH  63  86
ENDBRANCH  37  38
ENDBRANCH  29  32
ENDBRANCH  27  28
ENDBRANCH  26  27
ENDBRANCH  25  26
ENDBRANCH   1  25
TORSDOF 16
ENDMDL
MODEL 2
REMARK VINA RESULT:     -11.5      0.537      7.291
REMARK SMILES CCc1ncc(S(=O)(=O)NCc2ccc(C(=O)NCCCCNC(=O)c3ccc(-c4c5nc(c(-c6c(F)c(F)c(F)c(F)c6F)c6ccc([nH]6)c(-c6c(F)c(F)c(F)c(F)c6F)c6nc(c(-c7c(F)c(F)c(F)c(F)c7F)c7ccc4[nH]7)C=C6)C=C5)cc3)o2)[nH]1
REMARK SMILES IDX 19 1 18 2 16 3 17 4 15 6 12 7 13 8 89 9 14 10 11 11 10 12
REMARK SMILES IDX 7 14 8 15 9 16 6 17 3 18 4 19 90 20 5 21 2 23 1 24 20 25
REMARK SMILES IDX 21 26 22 27 23 28 24 29 25 31 26 32 27 33 88 34 28 35 87 36
REMARK SMILES IDX 29 37 30 38 31 39 81 40 32 41 86 42 80 43 82 44 33 45 85 46
REMARK SMILES IDX 79 47 78 48 34 50 66 51 46 52 65 53 47 54 50 55 64 56 83 57
REMARK SMILES IDX 48 58 49 59 63 61 84 62 51 63 35 64 36 65 44 66 37 67 38 68
REMARK SMILES IDX 42 69 45 70 39 71 40 72 43 73 41 74 67 75 68 76 76 77 69 78
REMARK SMILES IDX 70 79 74 80 77 81 71 82 72 83 75 84 73 85 52 86 53 87 61 88
REMARK SMILES IDX 54 89 55 90 59 91 62 92 56 93 57 94 60 95 58 96
REMARK H PARENT 18 5 10 13 90 22 23 30 82 49 50 60
REMARK Flexibility Score: inf
ROOT
ATOM      1  C   UNL A   1      31.640  29.901  25.628  1.00  0.00     0.116 C 
ENDROOT
BRANCH   1   2
ATOM      2  N   UNL A   1      32.337  29.720  24.375  1.00  0.00    -0.349 N 
ATOM      3  C   UNL A   1      32.231  28.734  23.422  1.00  0.00     0.286 C 
ATOM      4  O   UNL A   1      32.998  28.841  22.463  1.00  0.00    -0.266 OA
ATOM      5  H   UNL A   1      32.997  30.420  24.169  1.00  0.00     0.163 HD
BRANCH   3   6
ATOM      6  C   UNL A   1      31.258  27.662  23.547  1.00  0.00     0.191 A 
ATOM      7  C   UNL A   1      30.754  25.517  23.775  1.00  0.00     0.119 A 
ATOM      8  C   UNL A   1      29.556  26.176  23.632  1.00  0.00     0.048 A 
ATOM      9  O   UNL A   1      31.774  26.410  23.761  1.00  0.00    -0.455 OA
ATOM     10  C   UNL A   1      29.877  27.553  23.522  1.00  0.00     0.056 A 
BRANCH   7  11
ATOM     11  C   UNL A   1      31.123  24.104  24.004  1.00  0.00     0.174 C 
BRANCH  11  12
ATOM     12  N   UNL A   1      30.411  23.519  25.145  1.00  0.00    -0.202 NA
ATOM     13  H   UNL A   1      29.463  23.897  25.126  1.00  0.00     0.141 HD
BRANCH  12  14
ATOM     14  S   UNL A   1      30.995  23.748  26.700  1.00  0.00     0.258 S 
ATOM     15  O   UNL A   1      30.211  22.981  27.633  1.00  0.00    -0.205 OA
ATOM     16  O   UNL A   1      31.155  25.175  26.877  1.00  0.00    -0.205 OA
BRANCH  14  17
ATOM     17  C   UNL A   1      32.613  23.107  26.834  1.00  0.00     0.167 A 
ATOM     18  C   UNL A   1      34.816  23.010  26.541  1.00  0.00     0.106 A 
ATOM     19  N   UNL A   1      34.509  21.917  27.206  1.00  0.00    -0.240 NA
ATOM     20  N   UNL A   1      33.701  23.782  26.333  1.00  0.00    -0.332 N 
ATOM     21  C   UNL A   1      33.150  21.956  27.364  1.00  0.00     0.153 A 
ATOM     22  H   UNL A   1      33.682  24.666  25.900  1.00  0.00     0.169 HD
BRANCH  18  23
ATOM     23  C   UNL A   1      36.166  23.383  26.030  1.00  0.00     0.072 C 
ATOM     24  C   UNL A   1      36.099  23.749  24.553  1.00  0.00     0.012 C 
ENDBRANCH  18  23
ENDBRANCH  14  17
ENDBRANCH  12  14
ENDBRANCH  11  12
ENDBRANCH   7  11
ENDBRANCH   3   6
ENDBRANCH   1   2
BRANCH   1  25
ATOM     25  C   UNL A   1      31.145  31.341  25.761  1.00  0.00     0.023 C 
BRANCH  25  26
ATOM     26  C   UNL A   1      31.445  31.970  27.127  1.00  0.00     0.023 C 
BRANCH  26  27
ATOM     27  C   UNL A   1      32.695  32.844  27.168  1.00  0.00     0.116 C 
BRANCH  27  28
ATOM     28  N   UNL A   1      32.424  34.217  27.567  1.00  0.00    -0.352 N 
ATOM     29  C   UNL A   1      33.031  34.953  28.556  1.00  0.00     0.251 C 
ATOM     30  H   UNL A   1      31.714  34.678  27.064  1.00  0.00     0.163 HD
ATOM     31  O   UNL A   1      32.622  36.072  28.843  1.00  0.00    -0.269 OA
BRANCH  29  32
ATOM     32  C   UNL A   1      34.157  34.358  29.300  1.00  0.00     0.039 A 
ATOM     33  C   UNL A   1      33.881  33.517  30.380  1.00  0.00     0.014 A 
ATOM     34  C   UNL A   1      35.476  34.596  28.902  1.00  0.00     0.014 A 
ATOM     35  C   UNL A   1      34.928  32.855  31.020  1.00  0.00     0.010 A 
ATOM     36  C   UNL A   1      36.511  33.888  29.500  1.00  0.00     0.010 A 
ATOM     37  C   UNL A   1      36.246  33.007  30.561  1.00  0.00    -0.014 A 
BRANCH  37  38
ATOM     38  C   UNL A   1      37.368  32.253  31.168  1.00  0.00     0.031 A 
ATOM     39  C   UNL A   1      37.867  32.625  32.534  1.00  0.00     0.074 A 
ATOM     40  C   UNL A   1      37.990  31.293  30.456  1.00  0.00     0.049 A 
ATOM     41  N   UNL A   1      38.903  32.170  33.191  1.00  0.00    -0.248 NA
ATOM     42  C   UNL A   1      37.117  33.673  33.246  1.00  0.00     0.031 C 
ATOM     43  C   UNL A   1      37.622  30.873  29.102  1.00  0.00     0.029 A 
ATOM     44  N   UNL A   1      39.073  30.510  30.765  1.00  0.00    -0.354 N 
ATOM     45  C   UNL A   1      38.941  32.887  34.379  1.00  0.00     0.074 A 
ATOM     46  C   UNL A   1      37.853  33.840  34.334  1.00  0.00     0.031 C 
ATOM     47  C   UNL A   1      38.458  29.900  28.703  1.00  0.00     0.029 A 
ATOM     48  C   UNL A   1      39.439  29.655  29.754  1.00  0.00     0.049 A 
ATOM     49  H   UNL A   1      39.543  30.557  31.629  1.00  0.00     0.167 HD
ATOM     50  C   UNL A   1      39.794  32.748  35.420  1.00  0.00     0.037 A 
ATOM     51  C   UNL A   1      40.461  28.780  29.683  1.00  0.00     0.037 A 
ATOM     52  C   UNL A   1      40.855  31.778  35.473  1.00  0.00     0.049 A 
ATOM     53  C   UNL A   1      41.392  28.641  30.856  1.00  0.00     0.074 A 
ATOM     54  C   UNL A   1      41.740  31.518  36.505  1.00  0.00     0.029 A 
ATOM     55  N   UNL A   1      41.173  30.902  34.444  1.00  0.00    -0.354 N 
ATOM     56  N   UNL A   1      41.383  29.284  31.999  1.00  0.00    -0.248 NA
ATOM     57  C   UNL A   1      42.471  27.652  30.733  1.00  0.00     0.031 C 
ATOM     58  C   UNL A   1      42.616  30.513  36.087  1.00  0.00     0.029 A 
ATOM     59  C   UNL A   1      42.250  30.112  34.812  1.00  0.00     0.049 A 
ATOM     60  H   UNL A   1      40.703  30.851  33.580  1.00  0.00     0.167 HD
ATOM     61  C   UNL A   1      42.429  28.755  32.743  1.00  0.00     0.074 A 
ATOM     62  C   UNL A   1      43.048  27.733  31.924  1.00  0.00     0.031 C 
ATOM     63  C   UNL A   1      42.837  29.085  33.992  1.00  0.00     0.037 A 
BRANCH  50  64
ATOM     64  C   UNL A   1      39.612  33.665  36.594  1.00  0.00     0.064 A 
ATOM     65  C   UNL A   1      38.807  33.307  37.687  1.00  0.00     0.173 A 
ATOM     66  C   UNL A   1      40.272  34.902  36.641  1.00  0.00     0.173 A 
ATOM     67  F   UNL A   1      38.144  32.142  37.685  1.00  0.00    -0.203 F 
ATOM     68  C   UNL A   1      38.650  34.167  38.771  1.00  0.00     0.198 A 
ATOM     69  C   UNL A   1      40.136  35.745  37.741  1.00  0.00     0.198 A 
ATOM     70  F   UNL A   1      41.055  35.290  35.624  1.00  0.00    -0.203 F 
ATOM     71  F   UNL A   1      37.839  33.825  39.782  1.00  0.00    -0.200 F 
ATOM     72  C   UNL A   1      39.319  35.380  38.801  1.00  0.00     0.200 A 
ATOM     73  F   UNL A   1      40.792  36.913  37.773  1.00  0.00    -0.200 F 
ATOM     74  F   UNL A   1      39.172  36.203  39.849  1.00  0.00    -0.200 F 
ENDBRANCH  50  64
BRANCH  51  75
ATOM     75  C   UNL A   1      40.639  27.946  28.466  1.00  0.00     0.064 A 
ATOM     76  C   UNL A   1      40.038  26.684  28.368  1.00  0.00     0.173 A 
ATOM     77  C   UNL A   1      41.412  28.388  27.383  1.00  0.00     0.173 A 
ATOM     78  F   UNL A   1      39.306  26.210  29.387  1.00  0.00    -0.203 F 
ATOM     79  C   UNL A   1      40.219  25.886  27.240  1.00  0.00     0.198 A 
ATOM     80  C   UNL A   1      41.571  27.600  26.244  1.00  0.00     0.198 A 
ATOM     81  F   UNL A   1      42.004  29.591  27.425  1.00  0.00    -0.203 F 
ATOM     82  F   UNL A   1      39.668  24.666  27.190  1.00  0.00    -0.200 F 
ATOM     83  C   UNL A   1      40.981  26.347  26.177  1.00  0.00     0.200 A 
ATOM     84  F   UNL A   1      42.295  28.055  25.214  1.00  0.00    -0.200 F 
ATOM     85  F   UNL A   1      41.151  25.581  25.091  1.00  0.00    -0.200 F 
ENDBRANCH  51  75
BRANCH  63  86
ATOM     86  C   UNL A   1      43.977  28.301  34.575  1.00  0.00     0.064 A 
ATOM     87  C   UNL A   1      43.769  27.083  35.237  1.00  0.00     0.173 A 
ATOM     88  C   UNL A   1      45.297  28.750  34.417  1.00  0.00     0.173 A 
ATOM     89  F   UNL A   1      42.525  26.620  35.426  1.00  0.00    -0.203 F 
ATOM     90  C   UNL A   1      44.844  26.353  35.739  1.00  0.00     0.198 A 
ATOM     91  C   UNL A   1      46.368  28.004  34.895  1.00  0.00     0.198 A 
ATOM     92  F   UNL A   1      45.546  29.907  33.784  1.00  0.00    -0.203 F 
ATOM     93  F   UNL A   1      44.621  25.210  36.403  1.00  0.00    -0.200 F 
ATOM     94  C   UNL A   1      46.141  26.808  35.560  1.00  0.00     0.200 A 
ATOM     95  F   UNL A   1      47.622  28.440  34.710  1.00  0.00    -0.200 F 
ATOM     96  F   UNL A   1      47.174  26.097  36.033  1.00  0.00    -0.200 F 
ENDBRANCH  63  86
ENDBRANCH  37  38
ENDBRANCH  29  32
ENDBRANCH  27  28
ENDBRANCH  26  27
ENDBRANCH  25  26
ENDBRANCH   1  25
TORSDOF 16
ENDMDL
MODEL 3
REMARK VINA RESULT:     -11.3      6.256     10.745
REMARK SMILES CCc1ncc(S(=O)(=O)NCc2ccc(C(=O)NCCCCNC(=O)c3ccc(-c4c5nc(c(-c6c(F)c(F)c(F)c(F)c6F)c6ccc([nH]6)c(-c6c(F)c(F)c(F)c(F)c6F)c6nc(c(-c7c(F)c(F)c(F)c(F)c7F)c7ccc4[nH]7)C=C6)C=C5)cc3)o2)[nH]1
REMARK SMILES IDX 19 1 18 2 16 3 17 4 15 6 12 7 13 8 89 9 14 10 11 11 10 12
REMARK SMILES IDX 7 14 8 15 9 16 6 17 3 18 4 19 90 20 5 21 2 23 1 24 20 25
REMARK SMILES IDX 21 26 22 27 23 28 24 29 25 31 26 32 27 33 88 34 28 35 87 36
REMARK SMILES IDX 29 37 30 38 31 39 81 40 32 41 86 42 80 43 82 44 33 45 85 46
REMARK SMILES IDX 79 47 78 48 34 50 66 51 46 52 65 53 47 54 50 55 64 56 83 57
REMARK SMILES IDX 48 58 49 59 63 61 84 62 51 63 35 64 36 65 44 66 37 67 38 68
REMARK SMILES IDX 42 69 45 70 39 71 40 72 43 73 41 74 67 75 68 76 76 77 69 78
REMARK SMILES IDX 70 79 74 80 77 81 71 82 72 83 75 84 73 85 52 86 53 87 61 88
REMARK SMILES IDX 54 89 55 90 59 91 62 92 56 93 57 94 60 95 58 96
REMARK H PARENT 18 5 10 13 90 22 23 30 82 49 50 60
REMARK Flexibility Score: inf
ROOT
ATOM      1  C   UNL A   1      39.643  21.636  26.235  1.00  0.00     0.116 C 
ENDROOT
BRANCH   1   2
ATOM      2  N   UNL A   1      39.453  22.969  26.760  1.00  0.00    -0.349 N 
ATOM      3  C   UNL A   1      38.491  23.913  26.488  1.00  0.00     0.286 C 
ATOM      4  O   UNL A   1      38.620  24.986  27.082  1.00  0.00    -0.266 OA
ATOM      5  H   UNL A   1      40.126  23.247  27.423  1.00  0.00     0.163 HD
BRANCH   3   6
ATOM      6  C   UNL A   1      37.393  23.634  25.579  1.00  0.00     0.191 A 
ATOM      7  C   UNL A   1      35.288  23.900  24.941  1.00  0.00     0.119 A 
ATOM      8  C   UNL A   1      35.831  22.972  24.083  1.00  0.00     0.048 A 
ATOM      9  O   UNL A   1      36.233  24.326  25.815  1.00  0.00    -0.455 OA
ATOM     10  C   UNL A   1      37.188  22.829  24.470  1.00  0.00     0.056 A 
BRANCH   7  11
ATOM     11  C   UNL A   1      33.963  24.547  25.042  1.00  0.00     0.174 C 
BRANCH  11  12
ATOM     12  N   UNL A   1      33.355  24.373  26.365  1.00  0.00    -0.202 NA
ATOM     13  H   UNL A   1      34.100  24.068  26.993  1.00  0.00     0.141 HD
BRANCH  12  14
ATOM     14  S   UNL A   1      32.081  23.301  26.564  1.00  0.00     0.258 S 
ATOM     15  O   UNL A   1      30.849  23.928  26.162  1.00  0.00    -0.205 OA
ATOM     16  O   UNL A   1      32.217  22.737  27.890  1.00  0.00    -0.205 OA
BRANCH  14  17
ATOM     17  C   UNL A   1      32.269  21.940  25.488  1.00  0.00     0.167 A 
ATOM     18  C   UNL A   1      32.883  19.902  24.840  1.00  0.00     0.106 A 
ATOM     19  N   UNL A   1      32.338  20.453  23.776  1.00  0.00    -0.240 NA
ATOM     20  N   UNL A   1      32.821  20.754  25.913  1.00  0.00    -0.332 N 
ATOM     21  C   UNL A   1      31.985  21.718  24.160  1.00  0.00     0.153 A 
ATOM     22  H   UNL A   1      33.120  20.553  26.829  1.00  0.00     0.169 HD
BRANCH  18  23
ATOM     23  C   UNL A   1      33.524  18.558  24.908  1.00  0.00     0.072 C 
ATOM     24  C   UNL A   1      32.598  17.555  25.583  1.00  0.00     0.012 C 
ENDBRANCH  18  23
ENDBRANCH  14  17
ENDBRANCH  12  14
ENDBRANCH  11  12
ENDBRANCH   7  11
ENDBRANCH   3   6
ENDBRANCH   1   2
BRANCH   1  25
ATOM     25  C   UNL A   1      41.129  21.278  26.212  1.00  0.00     0.023 C 
BRANCH  25  26
ATOM     26  C   UNL A   1      41.396  19.779  26.030  1.00  0.00     0.023 C 
BRANCH  26  27
ATOM     27  C   UNL A   1      42.819  19.337  26.359  1.00  0.00     0.116 C 
BRANCH  27  28
ATOM     28  N   UNL A   1      43.550  18.841  25.202  1.00  0.00    -0.352 N 
ATOM     29  C   UNL A   1      44.425  19.522  24.391  1.00  0.00     0.251 C 
ATOM     30  H   UNL A   1      43.398  17.896  24.972  1.00  0.00     0.163 HD
ATOM     31  O   UNL A   1      44.889  18.992  23.388  1.00  0.00    -0.269 OA
BRANCH  29  32
ATOM     32  C   UNL A   1      44.764  20.919  24.719  1.00  0.00     0.039 A 
ATOM     33  C   UNL A   1      44.327  21.936  23.868  1.00  0.00     0.014 A 
ATOM     34  C   UNL A   1      45.471  21.222  25.886  1.00  0.00     0.014 A 
ATOM     35  C   UNL A   1      44.538  23.268  24.223  1.00  0.00     0.010 A 
ATOM     36  C   UNL A   1      45.624  22.549  26.270  1.00  0.00     0.010 A 
ATOM     37  C   UNL A   1      45.155  23.584  25.444  1.00  0.00    -0.014 A 
BRANCH  37  38
ATOM     38  C   UNL A   1      45.319  24.989  25.887  1.00  0.00     0.031 A 
ATOM     39  C   UNL A   1      46.669  25.640  25.825  1.00  0.00     0.074 A 
ATOM     40  C   UNL A   1      44.271  25.646  26.422  1.00  0.00     0.049 A 
ATOM     41  N   UNL A   1      47.046  26.812  26.267  1.00  0.00    -0.248 NA
ATOM     42  C   UNL A   1      47.751  24.854  25.210  1.00  0.00     0.031 C 
ATOM     43  C   UNL A   1      42.920  25.102  26.574  1.00  0.00     0.029 A 
ATOM     44  N   UNL A   1      44.184  26.908  26.954  1.00  0.00    -0.354 N 
ATOM     45  C   UNL A   1      48.406  26.896  26.004  1.00  0.00     0.074 A 
ATOM     46  C   UNL A   1      48.800  25.639  25.405  1.00  0.00     0.031 C 
ATOM     47  C   UNL A   1      42.136  26.029  27.148  1.00  0.00     0.029 A 
ATOM     48  C   UNL A   1      42.936  27.215  27.437  1.00  0.00     0.049 A 
ATOM     49  H   UNL A   1      44.944  27.532  26.986  1.00  0.00     0.167 HD
ATOM     50  C   UNL A   1      49.244  27.936  26.223  1.00  0.00     0.037 A 
ATOM     51  C   UNL A   1      42.492  28.327  28.055  1.00  0.00     0.037 A 
ATOM     52  C   UNL A   1      48.841  29.195  26.790  1.00  0.00     0.049 A 
ATOM     53  C   UNL A   1      43.443  29.470  28.282  1.00  0.00     0.074 A 
ATOM     54  C   UNL A   1      49.601  30.331  27.001  1.00  0.00     0.029 A 
ATOM     55  N   UNL A   1      47.558  29.484  27.234  1.00  0.00    -0.354 N 
ATOM     56  N   UNL A   1      44.714  29.561  27.975  1.00  0.00    -0.248 NA
ATOM     57  C   UNL A   1      42.897  30.668  28.935  1.00  0.00     0.031 C 
ATOM     58  C   UNL A   1      48.790  31.294  27.607  1.00  0.00     0.029 A 
ATOM     59  C   UNL A   1      47.511  30.775  27.731  1.00  0.00     0.049 A 
ATOM     60  H   UNL A   1      46.795  28.861  27.201  1.00  0.00     0.167 HD
ATOM     61  C   UNL A   1      45.112  30.833  28.364  1.00  0.00     0.074 A 
ATOM     62  C   UNL A   1      43.944  31.480  28.924  1.00  0.00     0.031 C 
ATOM     63  C   UNL A   1      46.333  31.410  28.265  1.00  0.00     0.037 A 
BRANCH  50  64
ATOM     64  C   UNL A   1      50.685  27.757  25.842  1.00  0.00     0.064 A 
ATOM     65  C   UNL A   1      51.123  27.932  24.520  1.00  0.00     0.173 A 
ATOM     66  C   UNL A   1      51.644  27.437  26.814  1.00  0.00     0.173 A 
ATOM     67  F   UNL A   1      50.243  28.226  23.551  1.00  0.00    -0.203 F 
ATOM     68  C   UNL A   1      52.463  27.768  24.182  1.00  0.00     0.198 A 
ATOM     69  C   UNL A   1      52.989  27.303  26.478  1.00  0.00     0.198 A 
ATOM     70  F   UNL A   1      51.280  27.262  28.093  1.00  0.00    -0.203 F 
ATOM     71  F   UNL A   1      52.850  27.893  22.905  1.00  0.00    -0.200 F 
ATOM     72  C   UNL A   1      53.395  27.460  25.160  1.00  0.00     0.200 A 
ATOM     73  F   UNL A   1      53.891  27.016  27.426  1.00  0.00    -0.200 F 
ATOM     74  F   UNL A   1      54.687  27.308  24.834  1.00  0.00    -0.200 F 
ENDBRANCH  50  64
BRANCH  51  75
ATOM     75  C   UNL A   1      41.070  28.424  28.477  1.00  0.00     0.064 A 
ATOM     76  C   UNL A   1      40.095  28.916  27.600  1.00  0.00     0.173 A 
ATOM     77  C   UNL A   1      40.660  28.031  29.758  1.00  0.00     0.173 A 
ATOM     78  F   UNL A   1      40.443  29.324  26.370  1.00  0.00    -0.203 F 
ATOM     79  C   UNL A   1      38.763  29.032  27.996  1.00  0.00     0.198 A 
ATOM     80  C   UNL A   1      39.323  28.122  30.144  1.00  0.00     0.198 A 
ATOM     81  F   UNL A   1      41.554  27.547  30.633  1.00  0.00    -0.203 F 
ATOM     82  F   UNL A   1      37.859  29.547  27.153  1.00  0.00    -0.200 F 
ATOM     83  C   UNL A   1      38.378  28.629  29.266  1.00  0.00     0.200 A 
ATOM     84  F   UNL A   1      38.953  27.719  31.367  1.00  0.00    -0.200 F 
ATOM     85  F   UNL A   1      37.097  28.737  29.644  1.00  0.00    -0.200 F 
ENDBRANCH  51  75
BRANCH  63  86
ATOM     86  C   UNL A   1      46.462  32.834  28.723  1.00  0.00     0.064 A 
ATOM     87  C   UNL A   1      46.216  33.910  27.860  1.00  0.00     0.173 A 
ATOM     88  C   UNL A   1      46.782  33.119  30.059  1.00  0.00     0.173 A 
ATOM     89  F   UNL A   1      45.921  33.689  26.570  1.00  0.00    -0.203 F 
ATOM     90  C   UNL A   1      46.305  35.223  28.315  1.00  0.00     0.198 A 
ATOM     91  C   UNL A   1      46.843  34.431  30.516  1.00  0.00     0.198 A 
ATOM     92  F   UNL A   1      47.020  32.121  30.925  1.00  0.00    -0.203 F 
ATOM     93  F   UNL A   1      46.103  36.240  27.464  1.00  0.00    -0.200 F 
ATOM     94  C   UNL A   1      46.610  35.482  29.642  1.00  0.00     0.200 A 
ATOM     95  F   UNL A   1      47.126  34.679  31.803  1.00  0.00    -0.200 F 
ATOM     96  F   UNL A   1      46.683  36.747  30.081  1.00  0.00    -0.200 F 
ENDBRANCH  63  86
ENDBRANCH  37  38
ENDBRANCH  29  32
ENDBRANCH  27  28
ENDBRANCH  26  27
ENDBRANCH  25  26
ENDBRANCH   1  25
TORSDOF 16
ENDMDL
