MODEL 1
REMARK VINA RESULT:     -14.3      0.000      0.000
REMARK SMILES Cc1cccc2c1[C@H]1c3c(C)cccc3[C@H](CC(=O)NCCCCNC(=O)c3ccc(-c4c5nc(c(-c6c(F)c(F)c(F)c(F)c6F)c6ccc([nH]6)c(-c6c(F)c(F)c(F)c(F)c6F)c6nc(c(-c7c(F)c(F)c(F)c(F)c7F)c7ccc4[nH]7)C=C6)C=C5)cc3)C[C@H]1CC2
REMARK SMILES IDX 23 1 22 2 21 3 20 4 18 5 19 6 17 8 16 9 1 10 2 11 3 12 7 13
REMARK SMILES IDX 4 14 6 15 8 16 5 17 94 18 9 19 92 20 93 21 10 22 15 23 91 24
REMARK SMILES IDX 12 25 11 26 14 27 13 28 24 29 25 30 26 31 27 33 28 34 29 35
REMARK SMILES IDX 90 36 30 37 89 38 31 39 32 40 33 41 83 42 34 43 88 44 82 45
REMARK SMILES IDX 84 46 35 47 87 48 81 49 80 50 36 52 68 53 48 54 67 55 49 56
REMARK SMILES IDX 52 57 66 58 85 59 50 60 51 61 65 63 86 64 53 65 37 66 38 67
REMARK SMILES IDX 46 68 39 69 40 70 44 71 47 72 41 73 42 74 45 75 43 76 69 77
REMARK SMILES IDX 70 78 78 79 71 80 72 81 76 82 79 83 73 84 74 85 77 86 75 87
REMARK SMILES IDX 54 88 55 89 63 90 56 91 57 92 61 93 64 94 58 95 59 96 62 97
REMARK SMILES IDX 60 98
REMARK H PARENT 20 7 25 32 84 51 52 62
REMARK Flexibility Score: inf
ROOT
ATOM      1  C   UNL A   1      31.464  32.478  26.662  1.00  0.00     0.023 C 
ENDROOT
BRANCH   1   2
ATOM      2  C   UNL A   1      31.402  30.946  26.695  1.00  0.00     0.023 C 
BRANCH   2   3
ATOM      3  C   UNL A   1      32.769  30.276  26.852  1.00  0.00     0.116 C 
BRANCH   3   4
ATOM      4  N   UNL A   1      33.346  30.011  25.550  1.00  0.00    -0.356 N 
ATOM      5  C   UNL A   1      32.911  29.195  24.553  1.00  0.00     0.220 C 
ATOM      6  O   UNL A   1      33.678  28.961  23.619  1.00  0.00    -0.275 OA
ATOM      7  H   UNL A   1      34.181  30.496  25.358  1.00  0.00     0.163 HD
BRANCH   5   8
ATOM      8  C   UNL A   1      31.488  28.682  24.550  1.00  0.00     0.108 C 
BRANCH   8   9
ATOM      9  C   UNL A   1      31.278  27.181  24.832  1.00  0.00     0.029 C 
ATOM     10  C   UNL A   1      36.108  24.041  25.792  1.00  0.00     0.044 C 
ATOM     11  C   UNL A   1      34.947  23.079  25.792  1.00  0.00    -0.047 A 
ATOM     12  C   UNL A   1      35.243  21.714  25.958  1.00  0.00     0.004 A 
ATOM     13  C   UNL A   1      33.593  23.494  25.707  1.00  0.00    -0.034 A 
ATOM     14  C   UNL A   1      34.230  20.768  26.064  1.00  0.00     0.001 A 
ATOM     15  C   UNL A   1      32.576  22.541  25.958  1.00  0.00    -0.044 A 
ATOM     16  C   UNL A   1      33.200  24.932  25.372  1.00  0.00     0.053 C 
ATOM     17  C   UNL A   1      32.905  21.183  26.094  1.00  0.00     0.004 A 
ATOM     18  C   UNL A   1      31.146  22.938  26.239  1.00  0.00     0.036 C 
ATOM     19  C   UNL A   1      32.798  25.267  23.908  1.00  0.00    -0.034 A 
ATOM     20  C   UNL A   1      32.066  25.311  26.358  1.00  0.00     0.002 C 
ATOM     21  C   UNL A   1      30.828  24.427  26.125  1.00  0.00     0.009 C 
ATOM     22  C   UNL A   1      33.318  24.621  22.750  1.00  0.00    -0.047 A 
ATOM     23  C   UNL A   1      31.870  26.334  23.697  1.00  0.00    -0.040 A 
ATOM     24  C   UNL A   1      31.791  26.805  26.224  1.00  0.00     0.013 C 
ATOM     25  C   UNL A   1      32.849  24.977  21.466  1.00  0.00     0.004 A 
ATOM     26  C   UNL A   1      34.363  23.540  22.750  1.00  0.00     0.044 C 
ATOM     27  C   UNL A   1      31.395  26.617  22.396  1.00  0.00     0.004 A 
ATOM     28  C   UNL A   1      31.885  25.952  21.288  1.00  0.00     0.001 A 
ENDBRANCH   8   9
ENDBRANCH   5   8
ENDBRANCH   3   4
ENDBRANCH   2   3
ENDBRANCH   1   2
BRANCH   1  29
ATOM     29  C   UNL A   1      32.691  33.071  27.343  1.00  0.00     0.116 C 
BRANCH  29  30
ATOM     30  N   UNL A   1      32.480  34.456  27.731  1.00  0.00    -0.352 N 
ATOM     31  C   UNL A   1      33.081  35.144  28.754  1.00  0.00     0.251 C 
ATOM     32  H   UNL A   1      31.827  34.961  27.195  1.00  0.00     0.163 HD
ATOM     33  O   UNL A   1      32.693  36.260  29.080  1.00  0.00    -0.269 OA
BRANCH  31  34
ATOM     34  C   UNL A   1      34.200  34.509  29.470  1.00  0.00     0.039 A 
ATOM     35  C   UNL A   1      33.946  33.839  30.669  1.00  0.00     0.014 A 
ATOM     36  C   UNL A   1      35.492  34.564  28.937  1.00  0.00     0.014 A 
ATOM     37  C   UNL A   1      34.991  33.190  31.325  1.00  0.00     0.010 A 
ATOM     38  C   UNL A   1      36.524  33.882  29.570  1.00  0.00     0.010 A 
ATOM     39  C   UNL A   1      36.283  33.201  30.774  1.00  0.00    -0.014 A 
BRANCH  39  40
ATOM     40  C   UNL A   1      37.417  32.564  31.478  1.00  0.00     0.031 A 
ATOM     41  C   UNL A   1      38.120  31.407  30.834  1.00  0.00     0.074 A 
ATOM     42  C   UNL A   1      37.780  32.994  32.700  1.00  0.00     0.049 A 
ATOM     43  N   UNL A   1      39.082  30.655  31.304  1.00  0.00    -0.248 NA
ATOM     44  C   UNL A   1      37.667  31.033  29.484  1.00  0.00     0.031 C 
ATOM     45  C   UNL A   1      37.161  34.103  33.425  1.00  0.00     0.029 A 
ATOM     46  N   UNL A   1      38.756  32.538  33.549  1.00  0.00    -0.354 N 
ATOM     47  C   UNL A   1      39.349  29.725  30.310  1.00  0.00     0.074 A 
ATOM     48  C   UNL A   1      38.415  29.968  29.233  1.00  0.00     0.031 C 
ATOM     49  C   UNL A   1      37.781  34.249  34.609  1.00  0.00     0.029 A 
ATOM     50  C   UNL A   1      38.817  33.227  34.735  1.00  0.00     0.049 A 
ATOM     51  H   UNL A   1      39.355  31.788  33.331  1.00  0.00     0.167 HD
ATOM     52  C   UNL A   1      40.305  28.767  30.290  1.00  0.00     0.037 A 
ATOM     53  C   UNL A   1      39.618  33.045  35.802  1.00  0.00     0.037 A 
ATOM     54  C   UNL A   1      41.236  28.532  31.359  1.00  0.00     0.049 A 
ATOM     55  C   UNL A   1      40.642  31.942  35.773  1.00  0.00     0.074 A 
ATOM     56  C   UNL A   1      42.257  27.601  31.427  1.00  0.00     0.029 A 
ATOM     57  N   UNL A   1      41.258  29.240  32.552  1.00  0.00    -0.354 N 
ATOM     58  N   UNL A   1      40.908  31.084  34.818  1.00  0.00    -0.248 NA
ATOM     59  C   UNL A   1      41.478  31.784  36.971  1.00  0.00     0.031 C 
ATOM     60  C   UNL A   1      42.875  27.722  32.676  1.00  0.00     0.029 A 
ATOM     61  C   UNL A   1      42.266  28.756  33.371  1.00  0.00     0.049 A 
ATOM     62  H   UNL A   1      40.648  29.977  32.785  1.00  0.00     0.167 HD
ATOM     63  C   UNL A   1      41.951  30.299  35.289  1.00  0.00     0.074 A 
ATOM     64  C   UNL A   1      42.281  30.793  36.610  1.00  0.00     0.031 C 
ATOM     65  C   UNL A   1      42.578  29.262  34.682  1.00  0.00     0.037 A 
BRANCH  52  66
ATOM     66  C   UNL A   1      40.393  27.908  29.065  1.00  0.00     0.064 A 
ATOM     67  C   UNL A   1      39.663  26.714  28.959  1.00  0.00     0.173 A 
ATOM     68  C   UNL A   1      41.186  28.294  27.975  1.00  0.00     0.173 A 
ATOM     69  F   UNL A   1      38.903  26.294  29.982  1.00  0.00    -0.203 F 
ATOM     70  C   UNL A   1      39.739  25.928  27.813  1.00  0.00     0.198 A 
ATOM     71  C   UNL A   1      41.240  27.518  26.820  1.00  0.00     0.198 A 
ATOM     72  F   UNL A   1      41.903  29.426  28.028  1.00  0.00    -0.203 F 
ATOM     73  F   UNL A   1      39.065  24.772  27.750  1.00  0.00    -0.200 F 
ATOM     74  C   UNL A   1      40.521  26.335  26.742  1.00  0.00     0.200 A 
ATOM     75  F   UNL A   1      41.989  27.915  25.782  1.00  0.00    -0.200 F 
ATOM     76  F   UNL A   1      40.587  25.581  25.635  1.00  0.00    -0.200 F 
ENDBRANCH  52  66
BRANCH  53  77
ATOM     77  C   UNL A   1      39.501  33.946  36.977  1.00  0.00     0.064 A 
ATOM     78  C   UNL A   1      40.156  35.185  36.996  1.00  0.00     0.173 A 
ATOM     79  C   UNL A   1      38.736  33.593  38.097  1.00  0.00     0.173 A 
ATOM     80  F   UNL A   1      40.917  35.554  35.956  1.00  0.00    -0.203 F 
ATOM     81  C   UNL A   1      40.057  36.034  38.095  1.00  0.00     0.198 A 
ATOM     82  C   UNL A   1      38.619  34.453  39.188  1.00  0.00     0.198 A 
ATOM     83  F   UNL A   1      38.090  32.418  38.127  1.00  0.00    -0.203 F 
ATOM     84  F   UNL A   1      40.721  37.197  38.101  1.00  0.00    -0.200 F 
ATOM     85  C   UNL A   1      39.285  35.670  39.188  1.00  0.00     0.200 A 
ATOM     86  F   UNL A   1      37.864  34.103  40.238  1.00  0.00    -0.200 F 
ATOM     87  F   UNL A   1      39.186  36.490  40.243  1.00  0.00    -0.200 F 
ENDBRANCH  53  77
BRANCH  65  88
ATOM     88  C   UNL A   1      43.694  28.599  35.433  1.00  0.00     0.064 A 
ATOM     89  C   UNL A   1      45.024  29.019  35.287  1.00  0.00     0.173 A 
ATOM     90  C   UNL A   1      43.425  27.572  36.351  1.00  0.00     0.173 A 
ATOM     91  F   UNL A   1      45.333  29.988  34.412  1.00  0.00    -0.203 F 
ATOM     92  C   UNL A   1      46.046  28.423  36.020  1.00  0.00     0.198 A 
ATOM     93  C   UNL A   1      44.446  26.996  37.101  1.00  0.00     0.198 A 
ATOM     94  F   UNL A   1      42.167  27.140  36.531  1.00  0.00    -0.203 F 
ATOM     95  F   UNL A   1      47.315  28.813  35.836  1.00  0.00    -0.200 F 
ATOM     96  C   UNL A   1      45.755  27.418  36.932  1.00  0.00     0.200 A 
ATOM     97  F   UNL A   1      44.161  26.036  37.990  1.00  0.00    -0.200 F 
ATOM     98  F   UNL A   1      46.740  26.852  37.643  1.00  0.00    -0.200 F 
ENDBRANCH  65  88
ENDBRANCH  39  40
ENDBRANCH  31  34
ENDBRANCH  29  30
ENDBRANCH   1  29
TORSDOF 12
ENDMDL
MODEL 2
REMARK VINA RESULT:     -14.3      0.126      1.554
REMARK SMILES Cc1cccc2c1[C@H]1c3c(C)cccc3[C@H](CC(=O)NCCCCNC(=O)c3ccc(-c4c5nc(c(-c6c(F)c(F)c(F)c(F)c6F)c6ccc([nH]6)c(-c6c(F)c(F)c(F)c(F)c6F)c6nc(c(-c7c(F)c(F)c(F)c(F)c7F)c7ccc4[nH]7)C=C6)C=C5)cc3)C[C@H]1CC2
REMARK SMILES IDX 23 1 22 2 21 3 20 4 18 5 19 6 17 8 16 9 1 10 2 11 3 12 7 13
REMARK SMILES IDX 4 14 6 15 8 16 5 17 94 18 9 19 92 20 93 21 10 22 15 23 91 24
REMARK SMILES IDX 12 25 11 26 14 27 13 28 24 29 25 30 26 31 27 33 28 34 29 35
REMARK SMILES IDX 90 36 30 37 89 38 31 39 32 40 33 41 83 42 34 43 88 44 82 45
REMARK SMILES IDX 84 46 35 47 87 48 81 49 80 50 36 52 68 53 48 54 67 55 49 56
REMARK SMILES IDX 52 57 66 58 85 59 50 60 51 61 65 63 86 64 53 65 37 66 38 67
REMARK SMILES IDX 46 68 39 69 40 70 44 71 47 72 41 73 42 74 45 75 43 76 69 77
REMARK SMILES IDX 70 78 78 79 71 80 72 81 76 82 79 83 73 84 74 85 77 86 75 87
REMARK SMILES IDX 54 88 55 89 63 90 56 91 57 92 61 93 64 94 58 95 59 96 62 97
REMARK SMILES IDX 60 98
REMARK H PARENT 20 7 25 32 84 51 52 62
REMARK Flexibility Score: inf
ROOT
ATOM      1  C   UNL A   1      31.542  32.695  26.574  1.00  0.00     0.023 C 
ENDROOT
BRANCH   1   2
ATOM      2  C   UNL A   1      31.354  31.173  26.542  1.00  0.00     0.023 C 
BRANCH   2   3
ATOM      3  C   UNL A   1      32.643  30.387  26.790  1.00  0.00     0.116 C 
BRANCH   3   4
ATOM      4  N   UNL A   1      33.286  30.074  25.531  1.00  0.00    -0.356 N 
ATOM      5  C   UNL A   1      32.903  29.221  24.544  1.00  0.00     0.220 C 
ATOM      6  O   UNL A   1      33.716  28.953  23.660  1.00  0.00    -0.275 OA
ATOM      7  H   UNL A   1      34.130  30.553  25.363  1.00  0.00     0.163 HD
BRANCH   5   8
ATOM      8  C   UNL A   1      31.482  28.705  24.488  1.00  0.00     0.108 C 
BRANCH   8   9
ATOM      9  C   UNL A   1      31.262  27.206  24.777  1.00  0.00     0.029 C 
ATOM     10  C   UNL A   1      36.069  24.052  25.809  1.00  0.00     0.044 C 
ATOM     11  C   UNL A   1      34.904  23.095  25.802  1.00  0.00    -0.047 A 
ATOM     12  C   UNL A   1      35.192  21.730  25.980  1.00  0.00     0.004 A 
ATOM     13  C   UNL A   1      33.552  23.515  25.700  1.00  0.00    -0.034 A 
ATOM     14  C   UNL A   1      34.174  20.789  26.080  1.00  0.00     0.001 A 
ATOM     15  C   UNL A   1      32.529  22.568  25.945  1.00  0.00    -0.044 A 
ATOM     16  C   UNL A   1      33.169  24.953  25.351  1.00  0.00     0.053 C 
ATOM     17  C   UNL A   1      32.851  21.209  26.094  1.00  0.00     0.004 A 
ATOM     18  C   UNL A   1      31.097  22.972  26.209  1.00  0.00     0.036 C 
ATOM     19  C   UNL A   1      32.784  25.280  23.882  1.00  0.00    -0.034 A 
ATOM     20  C   UNL A   1      32.027  25.342  26.322  1.00  0.00     0.002 C 
ATOM     21  C   UNL A   1      30.787  24.463  26.083  1.00  0.00     0.009 C 
ATOM     22  C   UNL A   1      33.314  24.625  22.733  1.00  0.00    -0.047 A 
ATOM     23  C   UNL A   1      31.864  26.350  23.654  1.00  0.00    -0.040 A 
ATOM     24  C   UNL A   1      31.759  26.837  26.177  1.00  0.00     0.013 C 
ATOM     25  C   UNL A   1      32.861  24.975  21.442  1.00  0.00     0.004 A 
ATOM     26  C   UNL A   1      34.355  23.540  22.751  1.00  0.00     0.044 C 
ATOM     27  C   UNL A   1      31.403  26.626  22.346  1.00  0.00     0.004 A 
ATOM     28  C   UNL A   1      31.902  25.953  21.248  1.00  0.00     0.001 A 
ENDBRANCH   8   9
ENDBRANCH   5   8
ENDBRANCH   3   4
ENDBRANCH   2   3
ENDBRANCH   1   2
BRANCH   1  29
ATOM     29  C   UNL A   1      32.647  33.172  27.507  1.00  0.00     0.116 C 
BRANCH  29  30
ATOM     30  N   UNL A   1      32.502  34.578  27.847  1.00  0.00    -0.352 N 
ATOM     31  C   UNL A   1      33.159  35.279  28.825  1.00  0.00     0.251 C 
ATOM     32  H   UNL A   1      31.854  35.088  27.310  1.00  0.00     0.163 HD
ATOM     33  O   UNL A   1      32.824  36.421  29.118  1.00  0.00    -0.269 OA
BRANCH  31  34
ATOM     34  C   UNL A   1      34.273  34.627  29.535  1.00  0.00     0.039 A 
ATOM     35  C   UNL A   1      34.026  34.009  30.762  1.00  0.00     0.014 A 
ATOM     36  C   UNL A   1      35.550  34.615  28.967  1.00  0.00     0.014 A 
ATOM     37  C   UNL A   1      35.064  33.344  31.414  1.00  0.00     0.010 A 
ATOM     38  C   UNL A   1      36.574  33.915  29.597  1.00  0.00     0.010 A 
ATOM     39  C   UNL A   1      36.339  33.287  30.830  1.00  0.00    -0.014 A 
BRANCH  39  40
ATOM     40  C   UNL A   1      37.468  32.632  31.527  1.00  0.00     0.031 A 
ATOM     41  C   UNL A   1      38.146  31.461  30.881  1.00  0.00     0.074 A 
ATOM     42  C   UNL A   1      37.848  33.058  32.745  1.00  0.00     0.049 A 
ATOM     43  N   UNL A   1      39.098  30.694  31.345  1.00  0.00    -0.248 NA
ATOM     44  C   UNL A   1      37.676  31.092  29.535  1.00  0.00     0.031 C 
ATOM     45  C   UNL A   1      37.254  34.179  33.473  1.00  0.00     0.029 A 
ATOM     46  N   UNL A   1      38.822  32.588  33.588  1.00  0.00    -0.354 N 
ATOM     47  C   UNL A   1      39.341  29.756  30.352  1.00  0.00     0.074 A 
ATOM     48  C   UNL A   1      38.404  30.014  29.281  1.00  0.00     0.031 C 
ATOM     49  C   UNL A   1      37.885  34.318  34.651  1.00  0.00     0.029 A 
ATOM     50  C   UNL A   1      38.905  33.278  34.772  1.00  0.00     0.049 A 
ATOM     51  H   UNL A   1      39.407  31.827  33.367  1.00  0.00     0.167 HD
ATOM     52  C   UNL A   1      40.280  28.783  30.327  1.00  0.00     0.037 A 
ATOM     53  C   UNL A   1      39.710  33.085  35.833  1.00  0.00     0.037 A 
ATOM     54  C   UNL A   1      41.216  28.534  31.390  1.00  0.00     0.049 A 
ATOM     55  C   UNL A   1      40.714  31.964  35.799  1.00  0.00     0.074 A 
ATOM     56  C   UNL A   1      42.220  27.585  31.452  1.00  0.00     0.029 A 
ATOM     57  N   UNL A   1      41.259  29.244  32.581  1.00  0.00    -0.354 N 
ATOM     58  N   UNL A   1      40.958  31.100  34.845  1.00  0.00    -0.248 NA
ATOM     59  C   UNL A   1      41.557  31.794  36.991  1.00  0.00     0.031 C 
ATOM     60  C   UNL A   1      42.850  27.698  32.696  1.00  0.00     0.029 A 
ATOM     61  C   UNL A   1      42.264  28.744  33.393  1.00  0.00     0.049 A 
ATOM     62  H   UNL A   1      40.664  29.992  32.816  1.00  0.00     0.167 HD
ATOM     63  C   UNL A   1      41.991  30.297  35.309  1.00  0.00     0.074 A 
ATOM     64  C   UNL A   1      42.340  30.789  36.626  1.00  0.00     0.031 C 
ATOM     65  C   UNL A   1      42.595  29.248  34.701  1.00  0.00     0.037 A 
BRANCH  52  66
ATOM     66  C   UNL A   1      40.344  27.919  29.104  1.00  0.00     0.064 A 
ATOM     67  C   UNL A   1      39.627  26.715  29.024  1.00  0.00     0.173 A 
ATOM     68  C   UNL A   1      41.099  28.310  27.990  1.00  0.00     0.173 A 
ATOM     69  F   UNL A   1      38.903  26.290  30.070  1.00  0.00    -0.203 F 
ATOM     70  C   UNL A   1      39.679  25.925  27.879  1.00  0.00     0.198 A 
ATOM     71  C   UNL A   1      41.130  27.530  26.837  1.00  0.00     0.198 A 
ATOM     72  F   UNL A   1      41.803  29.451  28.016  1.00  0.00    -0.203 F 
ATOM     73  F   UNL A   1      39.020  24.760  27.841  1.00  0.00    -0.200 F 
ATOM     74  C   UNL A   1      40.425  26.337  26.784  1.00  0.00     0.200 A 
ATOM     75  F   UNL A   1      41.843  27.932  25.776  1.00  0.00    -0.200 F 
ATOM     76  F   UNL A   1      40.469  25.579  25.679  1.00  0.00    -0.200 F 
ENDBRANCH  52  66
BRANCH  53  77
ATOM     77  C   UNL A   1      39.618  33.990  37.007  1.00  0.00     0.064 A 
ATOM     78  C   UNL A   1      38.841  33.642  38.120  1.00  0.00     0.173 A 
ATOM     79  C   UNL A   1      40.303  35.213  37.043  1.00  0.00     0.173 A 
ATOM     80  F   UNL A   1      38.151  32.493  38.120  1.00  0.00    -0.203 F 
ATOM     81  C   UNL A   1      38.745  34.487  39.222  1.00  0.00     0.198 A 
ATOM     82  C   UNL A   1      40.224  36.048  38.156  1.00  0.00     0.198 A 
ATOM     83  F   UNL A   1      41.059  35.591  36.002  1.00  0.00    -0.203 F 
ATOM     84  F   UNL A   1      37.968  34.146  40.259  1.00  0.00    -0.200 F 
ATOM     85  C   UNL A   1      39.440  35.688  39.242  1.00  0.00     0.200 A 
ATOM     86  F   UNL A   1      40.904  37.203  38.176  1.00  0.00    -0.200 F 
ATOM     87  F   UNL A   1      39.350  36.498  40.306  1.00  0.00    -0.200 F 
ENDBRANCH  53  77
BRANCH  65  88
ATOM     88  C   UNL A   1      43.706  28.567  35.445  1.00  0.00     0.064 A 
ATOM     89  C   UNL A   1      43.450  27.520  36.341  1.00  0.00     0.173 A 
ATOM     90  C   UNL A   1      45.042  28.927  35.215  1.00  0.00     0.173 A 
ATOM     91  F   UNL A   1      42.188  27.149  36.603  1.00  0.00    -0.203 F 
ATOM     92  C   UNL A   1      44.493  26.869  36.995  1.00  0.00     0.198 A 
ATOM     93  C   UNL A   1      46.083  28.256  35.850  1.00  0.00     0.198 A 
ATOM     94  F   UNL A   1      45.338  29.918  34.360  1.00  0.00    -0.203 F 
ATOM     95  F   UNL A   1      44.225  25.897  37.877  1.00  0.00    -0.200 F 
ATOM     96  C   UNL A   1      45.808  27.232  36.742  1.00  0.00     0.200 A 
ATOM     97  F   UNL A   1      47.353  28.599  35.595  1.00  0.00    -0.200 F 
ATOM     98  F   UNL A   1      46.811  26.597  37.366  1.00  0.00    -0.200 F 
ENDBRANCH  65  88
ENDBRANCH  39  40
ENDBRANCH  31  34
ENDBRANCH  29  30
ENDBRANCH   1  29
TORSDOF 12
ENDMDL
MODEL 3
REMARK VINA RESULT:     -14.3      0.237      1.567
REMARK SMILES Cc1cccc2c1[C@H]1c3c(C)cccc3[C@H](CC(=O)NCCCCNC(=O)c3ccc(-c4c5nc(c(-c6c(F)c(F)c(F)c(F)c6F)c6ccc([nH]6)c(-c6c(F)c(F)c(F)c(F)c6F)c6nc(c(-c7c(F)c(F)c(F)c(F)c7F)c7ccc4[nH]7)C=C6)C=C5)cc3)C[C@H]1CC2
REMARK SMILES IDX 23 1 22 2 21 3 20 4 18 5 19 6 17 8 16 9 1 10 2 11 3 12 7 13
REMARK SMILES IDX 4 14 6 15 8 16 5 17 94 18 9 19 92 20 93 21 10 22 15 23 91 24
REMARK SMILES IDX 12 25 11 26 14 27 13 28 24 29 25 30 26 31 27 33 28 34 29 35
REMARK SMILES IDX 90 36 30 37 89 38 31 39 32 40 33 41 83 42 34 43 88 44 82 45
REMARK SMILES IDX 84 46 35 47 87 48 81 49 80 50 36 52 68 53 48 54 67 55 49 56
REMARK SMILES IDX 52 57 66 58 85 59 50 60 51 61 65 63 86 64 53 65 37 66 38 67
REMARK SMILES IDX 46 68 39 69 40 70 44 71 47 72 41 73 42 74 45 75 43 76 69 77
REMARK SMILES IDX 70 78 78 79 71 80 72 81 76 82 79 83 73 84 74 85 77 86 75 87
REMARK SMILES IDX 54 88 55 89 63 90 56 91 57 92 61 93 64 94 58 95 59 96 62 97
REMARK SMILES IDX 60 98
REMARK H PARENT 20 7 25 32 84 51 52 62
REMARK Flexibility Score: inf
ROOT
ATOM      1  C   UNL A   1      31.403  32.330  26.674  1.00  0.00     0.023 C 
ENDROOT
BRANCH   1   2
ATOM      2  C   UNL A   1      31.404  30.798  26.745  1.00  0.00     0.023 C 
BRANCH   2   3
ATOM      3  C   UNL A   1      32.803  30.187  26.859  1.00  0.00     0.116 C 
BRANCH   3   4
ATOM      4  N   UNL A   1      33.358  29.964  25.541  1.00  0.00    -0.356 N 
ATOM      5  C   UNL A   1      32.900  29.190  24.521  1.00  0.00     0.220 C 
ATOM      6  O   UNL A   1      33.651  28.983  23.567  1.00  0.00    -0.275 OA
ATOM      7  H   UNL A   1      34.195  30.447  25.353  1.00  0.00     0.163 HD
BRANCH   5   8
ATOM      8  C   UNL A   1      31.472  28.692  24.520  1.00  0.00     0.108 C 
BRANCH   8   9
ATOM      9  C   UNL A   1      31.247  27.193  24.802  1.00  0.00     0.029 C 
ATOM     10  C   UNL A   1      36.043  24.014  25.807  1.00  0.00     0.044 C 
ATOM     11  C   UNL A   1      34.873  23.062  25.798  1.00  0.00    -0.047 A 
ATOM     12  C   UNL A   1      35.157  21.694  25.969  1.00  0.00     0.004 A 
ATOM     13  C   UNL A   1      33.523  23.488  25.701  1.00  0.00    -0.034 A 
ATOM     14  C   UNL A   1      34.135  20.757  26.067  1.00  0.00     0.001 A 
ATOM     15  C   UNL A   1      32.497  22.544  25.945  1.00  0.00    -0.044 A 
ATOM     16  C   UNL A   1      33.145  24.929  25.361  1.00  0.00     0.053 C 
ATOM     17  C   UNL A   1      32.813  21.183  26.086  1.00  0.00     0.004 A 
ATOM     18  C   UNL A   1      31.067  22.953  26.214  1.00  0.00     0.036 C 
ATOM     19  C   UNL A   1      32.759  25.265  23.894  1.00  0.00    -0.034 A 
ATOM     20  C   UNL A   1      32.007  25.318  26.337  1.00  0.00     0.002 C 
ATOM     21  C   UNL A   1      30.763  24.445  26.096  1.00  0.00     0.009 C 
ATOM     22  C   UNL A   1      33.282  24.613  22.741  1.00  0.00    -0.047 A 
ATOM     23  C   UNL A   1      31.842  26.340  23.674  1.00  0.00    -0.040 A 
ATOM     24  C   UNL A   1      31.745  26.815  26.199  1.00  0.00     0.013 C 
ATOM     25  C   UNL A   1      32.828  24.971  21.452  1.00  0.00     0.004 A 
ATOM     26  C   UNL A   1      34.319  23.524  22.751  1.00  0.00     0.044 C 
ATOM     27  C   UNL A   1      31.379  26.624  22.368  1.00  0.00     0.004 A 
ATOM     28  C   UNL A   1      31.873  25.954  21.266  1.00  0.00     0.001 A 
ENDBRANCH   8   9
ENDBRANCH   5   8
ENDBRANCH   3   4
ENDBRANCH   2   3
ENDBRANCH   1   2
BRANCH   1  29
ATOM     29  C   UNL A   1      32.650  32.987  27.251  1.00  0.00     0.116 C 
BRANCH  29  30
ATOM     30  N   UNL A   1      32.393  34.349  27.688  1.00  0.00    -0.352 N 
ATOM     31  C   UNL A   1      32.975  35.021  28.733  1.00  0.00     0.251 C 
ATOM     32  H   UNL A   1      31.720  34.850  27.173  1.00  0.00     0.163 HD
ATOM     33  O   UNL A   1      32.550  36.111  29.099  1.00  0.00    -0.269 OA
BRANCH  31  34
ATOM     34  C   UNL A   1      34.119  34.401  29.422  1.00  0.00     0.039 A 
ATOM     35  C   UNL A   1      33.889  33.637  30.567  1.00  0.00     0.014 A 
ATOM     36  C   UNL A   1      35.412  34.564  28.914  1.00  0.00     0.014 A 
ATOM     37  C   UNL A   1      34.961  33.003  31.194  1.00  0.00     0.010 A 
ATOM     38  C   UNL A   1      36.474  33.897  29.515  1.00  0.00     0.010 A 
ATOM     39  C   UNL A   1      36.256  33.124  30.666  1.00  0.00    -0.014 A 
BRANCH  39  40
ATOM     40  C   UNL A   1      37.416  32.503  31.343  1.00  0.00     0.031 A 
ATOM     41  C   UNL A   1      38.145  31.382  30.664  1.00  0.00     0.074 A 
ATOM     42  C   UNL A   1      37.780  32.913  32.571  1.00  0.00     0.049 A 
ATOM     43  N   UNL A   1      39.133  30.648  31.105  1.00  0.00    -0.248 NA
ATOM     44  C   UNL A   1      37.689  31.028  29.309  1.00  0.00     0.031 C 
ATOM     45  C   UNL A   1      37.137  33.986  33.330  1.00  0.00     0.029 A 
ATOM     46  N   UNL A   1      38.777  32.466  33.399  1.00  0.00    -0.354 N 
ATOM     47  C   UNL A   1      39.417  29.750  30.087  1.00  0.00     0.074 A 
ATOM     48  C   UNL A   1      38.465  29.992  29.025  1.00  0.00     0.031 C 
ATOM     49  C   UNL A   1      37.765  34.122  34.510  1.00  0.00     0.029 A 
ATOM     50  C   UNL A   1      38.832  33.128  34.601  1.00  0.00     0.049 A 
ATOM     51  H   UNL A   1      39.396  31.739  33.157  1.00  0.00     0.167 HD
ATOM     52  C   UNL A   1      40.399  28.822  30.034  1.00  0.00     0.037 A 
ATOM     53  C   UNL A   1      39.649  32.943  35.655  1.00  0.00     0.037 A 
ATOM     54  C   UNL A   1      41.349  28.588  31.087  1.00  0.00     0.049 A 
ATOM     55  C   UNL A   1      40.704  31.871  35.589  1.00  0.00     0.074 A 
ATOM     56  C   UNL A   1      42.397  27.686  31.122  1.00  0.00     0.029 A 
ATOM     57  N   UNL A   1      41.363  29.267  32.297  1.00  0.00    -0.354 N 
ATOM     58  N   UNL A   1      40.984  31.045  34.611  1.00  0.00    -0.248 NA
ATOM     59  C   UNL A   1      41.557  31.709  36.774  1.00  0.00     0.031 C 
ATOM     60  C   UNL A   1      43.024  27.794  32.367  1.00  0.00     0.029 A 
ATOM     61  C   UNL A   1      42.393  28.793  33.093  1.00  0.00     0.049 A 
ATOM     62  H   UNL A   1      40.734  29.980  32.553  1.00  0.00     0.167 HD
ATOM     63  C   UNL A   1      42.054  30.279  35.051  1.00  0.00     0.074 A 
ATOM     64  C   UNL A   1      42.384  30.751  36.381  1.00  0.00     0.031 C 
ATOM     65  C   UNL A   1      42.704  29.276  34.414  1.00  0.00     0.037 A 
BRANCH  52  66
ATOM     66  C   UNL A   1      40.499  27.995  28.787  1.00  0.00     0.064 A 
ATOM     67  C   UNL A   1      41.304  28.396  27.710  1.00  0.00     0.173 A 
ATOM     68  C   UNL A   1      39.814  26.777  28.679  1.00  0.00     0.173 A 
ATOM     69  F   UNL A   1      41.965  29.562  27.759  1.00  0.00    -0.203 F 
ATOM     70  C   UNL A   1      41.403  27.616  26.561  1.00  0.00     0.198 A 
ATOM     71  C   UNL A   1      39.935  25.987  27.539  1.00  0.00     0.198 A 
ATOM     72  F   UNL A   1      39.032  26.349  29.681  1.00  0.00    -0.203 F 
ATOM     73  F   UNL A   1      42.145  28.039  25.529  1.00  0.00    -0.200 F 
ATOM     74  C   UNL A   1      40.725  26.409  26.480  1.00  0.00     0.200 A 
ATOM     75  F   UNL A   1      39.287  24.816  27.464  1.00  0.00    -0.200 F 
ATOM     76  F   UNL A   1      40.828  25.655  25.376  1.00  0.00    -0.200 F 
ENDBRANCH  52  66
BRANCH  53  77
ATOM     77  C   UNL A   1      39.519  33.812  36.853  1.00  0.00     0.064 A 
ATOM     78  C   UNL A   1      38.744  33.408  37.948  1.00  0.00     0.173 A 
ATOM     79  C   UNL A   1      40.165  35.054  36.930  1.00  0.00     0.173 A 
ATOM     80  F   UNL A   1      38.091  32.238  37.910  1.00  0.00    -0.203 F 
ATOM     81  C   UNL A   1      38.612  34.218  39.073  1.00  0.00     0.198 A 
ATOM     82  C   UNL A   1      40.050  35.854  38.065  1.00  0.00     0.198 A 
ATOM     83  F   UNL A   1      40.917  35.484  35.907  1.00  0.00    -0.203 F 
ATOM     84  F   UNL A   1      37.838  33.823  40.093  1.00  0.00    -0.200 F 
ATOM     85  C   UNL A   1      39.269  35.438  39.133  1.00  0.00     0.200 A 
ATOM     86  F   UNL A   1      40.694  37.028  38.124  1.00  0.00    -0.200 F 
ATOM     87  F   UNL A   1      39.145  36.214  40.219  1.00  0.00    -0.200 F 
ENDBRANCH  53  77
BRANCH  65  88
ATOM     88  C   UNL A   1      43.847  28.628  35.137  1.00  0.00     0.064 A 
ATOM     89  C   UNL A   1      45.153  29.129  35.038  1.00  0.00     0.173 A 
ATOM     90  C   UNL A   1      43.625  27.530  35.981  1.00  0.00     0.173 A 
ATOM     91  F   UNL A   1      45.417  30.169  34.233  1.00  0.00    -0.203 F 
ATOM     92  C   UNL A   1      46.199  28.543  35.746  1.00  0.00     0.198 A 
ATOM     93  C   UNL A   1      44.668  26.963  36.708  1.00  0.00     0.198 A 
ATOM     94  F   UNL A   1      42.392  27.018  36.115  1.00  0.00    -0.203 F 
ATOM     95  F   UNL A   1      47.446  29.014  35.608  1.00  0.00    -0.200 F 
ATOM     96  C   UNL A   1      45.954  27.467  36.586  1.00  0.00     0.200 A 
ATOM     97  F   UNL A   1      44.428  25.933  37.529  1.00  0.00    -0.200 F 
ATOM     98  F   UNL A   1      46.961  26.911  37.275  1.00  0.00    -0.200 F 
ENDBRANCH  65  88
ENDBRANCH  39  40
ENDBRANCH  31  34
ENDBRANCH  29  30
ENDBRANCH   1  29
TORSDOF 12
ENDMDL
