MODEL 1
REMARK VINA RESULT:     -12.5      0.000      0.000
REMARK SMILES C[C@@H]1CC[C@H]([N@@H+]2[C@@H](C(=O)NCCCCNC(=O)c3ccc(-c4c5nc(c(-c6c(F)c(F)c(F)c(F)c6F)c6ccc([nH]6)c(-c6c(F)c(F)c(F)c(F)c6F)c6nc(c(-c7c(F)c(F)c(F)c(F)c7F)c7ccc4[nH]7)C=C6)C=C5)cc3)C[C@H]3CCCC[C@H]32)C1
REMARK SMILES IDX 13 1 12 2 11 3 10 4 8 5 9 6 7 8 6 9 87 10 81 12 82 13 86 14
REMARK SMILES IDX 83 15 85 16 84 17 5 18 1 19 2 20 3 21 88 22 4 23 14 24 15 25
REMARK SMILES IDX 16 26 17 28 18 29 19 30 80 31 20 32 79 33 21 34 22 35 23 36
REMARK SMILES IDX 73 37 24 38 78 39 72 40 74 41 25 42 77 43 71 44 70 45 26 47
REMARK SMILES IDX 58 48 38 49 57 50 39 51 42 52 56 53 75 54 40 55 41 56 55 58
REMARK SMILES IDX 76 59 43 60 27 61 28 62 36 63 29 64 30 65 34 66 37 67 31 68
REMARK SMILES IDX 32 69 35 70 33 71 59 72 60 73 68 74 61 75 62 76 66 77 69 78
REMARK SMILES IDX 63 79 64 80 67 81 65 82 44 83 45 84 53 85 46 86 47 87 51 88
REMARK SMILES IDX 54 89 48 90 49 91 52 92 50 93
REMARK H PARENT 10 7 6 11 15 27 74 46 42 57
REMARK Flexibility Score: inf
ROOT
ATOM      1  C   UNL A   1      36.554  23.353  23.869  1.00  0.00     0.023 C 
ENDROOT
BRANCH   1   2
ATOM      2  C   UNL A   1      35.078  23.346  23.485  1.00  0.00     0.023 C 
BRANCH   2   3
ATOM      3  C   UNL A   1      34.364  24.687  23.582  1.00  0.00     0.116 C 
BRANCH   3   4
ATOM      4  N   UNL A   1      33.320  24.860  22.595  1.00  0.00    -0.351 N 
ATOM      5  C   UNL A   1      32.493  25.933  22.385  1.00  0.00     0.278 C 
ATOM      6  O   UNL A   1      31.708  25.839  21.438  1.00  0.00    -0.268 OA
ATOM      7  H   UNL A   1      33.183  24.097  21.987  1.00  0.00     0.163 HD
BRANCH   5   8
ATOM      8  C   UNL A   1      32.521  27.136  23.369  1.00  0.00     0.275 C 
ATOM      9  N   UNL A   1      31.698  26.836  24.580  1.00  0.00    -0.320 N 
ATOM     10  C   UNL A   1      30.479  27.649  24.495  1.00  0.00     0.188 C 
ATOM     11  H   UNL A   1      31.389  25.865  24.603  1.00  0.00     0.349 HD
ATOM     12  C   UNL A   1      31.925  28.434  22.795  1.00  0.00     0.085 C 
ATOM     13  C   UNL A   1      30.949  28.939  23.846  1.00  0.00     0.054 C 
ATOM     14  C   UNL A   1      29.396  26.930  23.665  1.00  0.00     0.065 C 
ATOM     15  C   UNL A   1      29.841  29.836  23.306  1.00  0.00     0.010 C 
ATOM     16  C   UNL A   1      28.256  27.880  23.303  1.00  0.00     0.006 C 
ATOM     17  C   UNL A   1      28.773  29.084  22.522  1.00  0.00     0.001 C 
BRANCH   9  18
ATOM     18  C   UNL A   1      32.471  26.852  25.835  1.00  0.00     0.185 C 
ATOM     19  C   UNL A   1      31.886  30.006  26.904  1.00  0.00     0.008 C 
ATOM     20  C   UNL A   1      32.494  28.722  27.460  1.00  0.00    -0.008 C 
ATOM     21  C   UNL A   1      33.925  28.507  26.982  1.00  0.00     0.009 C 
ATOM     22  C   UNL A   1      31.757  27.438  27.067  1.00  0.00     0.068 C 
ATOM     23  C   UNL A   1      33.866  27.507  25.831  1.00  0.00     0.065 C 
ENDBRANCH   9  18
ENDBRANCH   5   8
ENDBRANCH   3   4
ENDBRANCH   2   3
ENDBRANCH   1   2
BRANCH   1  24
ATOM     24  C   UNL A   1      36.846  23.390  25.363  1.00  0.00     0.116 C 
BRANCH  24  25
ATOM     25  N   UNL A   1      37.885  22.460  25.772  1.00  0.00    -0.352 N 
ATOM     26  C   UNL A   1      39.072  22.705  26.433  1.00  0.00     0.251 C 
ATOM     27  H   UNL A   1      37.717  21.518  25.546  1.00  0.00     0.163 HD
ATOM     28  O   UNL A   1      39.881  21.805  26.599  1.00  0.00    -0.269 OA
BRANCH  26  29
ATOM     29  C   UNL A   1      39.374  24.073  26.905  1.00  0.00     0.039 A 
ATOM     30  C   UNL A   1      39.024  24.428  28.210  1.00  0.00     0.014 A 
ATOM     31  C   UNL A   1      40.016  24.992  26.074  1.00  0.00     0.014 A 
ATOM     32  C   UNL A   1      39.388  25.682  28.706  1.00  0.00     0.010 A 
ATOM     33  C   UNL A   1      40.455  26.204  26.595  1.00  0.00     0.010 A 
ATOM     34  C   UNL A   1      40.138  26.565  27.914  1.00  0.00    -0.014 A 
BRANCH  34  35
ATOM     35  C   UNL A   1      40.582  27.885  28.433  1.00  0.00     0.031 A 
ATOM     36  C   UNL A   1      42.036  28.115  28.739  1.00  0.00     0.074 A 
ATOM     37  C   UNL A   1      39.674  28.846  28.693  1.00  0.00     0.049 A 
ATOM     38  N   UNL A   1      42.615  29.159  29.275  1.00  0.00    -0.248 NA
ATOM     39  C   UNL A   1      42.958  27.010  28.432  1.00  0.00     0.031 C 
ATOM     40  C   UNL A   1      38.230  28.727  28.488  1.00  0.00     0.029 A 
ATOM     41  N   UNL A   1      39.834  30.112  29.199  1.00  0.00    -0.354 N 
ATOM     42  C   UNL A   1      43.960  28.827  29.389  1.00  0.00     0.074 A 
ATOM     43  C   UNL A   1      44.100  27.466  28.923  1.00  0.00     0.031 C 
ATOM     44  C   UNL A   1      37.639  29.880  28.841  1.00  0.00     0.029 A 
ATOM     45  C   UNL A   1      38.656  30.806  29.329  1.00  0.00     0.049 A 
ATOM     46  H   UNL A   1      40.710  30.488  29.444  1.00  0.00     0.167 HD
ATOM     47  C   UNL A   1      44.988  29.596  29.816  1.00  0.00     0.037 A 
ATOM     48  C   UNL A   1      38.425  32.049  29.796  1.00  0.00     0.037 A 
ATOM     49  C   UNL A   1      44.850  30.962  30.246  1.00  0.00     0.049 A 
ATOM     50  C   UNL A   1      39.588  32.889  30.253  1.00  0.00     0.074 A 
ATOM     51  C   UNL A   1      45.836  31.846  30.645  1.00  0.00     0.029 A 
ATOM     52  N   UNL A   1      43.644  31.643  30.330  1.00  0.00    -0.354 N 
ATOM     53  N   UNL A   1      40.863  32.587  30.293  1.00  0.00    -0.248 NA
ATOM     54  C   UNL A   1      39.278  34.249  30.717  1.00  0.00     0.031 C 
ATOM     55  C   UNL A   1      45.223  33.050  31.009  1.00  0.00     0.029 A 
ATOM     56  C   UNL A   1      43.860  32.933  30.785  1.00  0.00     0.049 A 
ATOM     57  H   UNL A   1      42.764  31.265  30.098  1.00  0.00     0.167 HD
ATOM     58  C   UNL A   1      41.510  33.727  30.750  1.00  0.00     0.074 A 
ATOM     59  C   UNL A   1      40.489  34.731  30.964  1.00  0.00     0.031 C 
ATOM     60  C   UNL A   1      42.833  33.925  30.972  1.00  0.00     0.037 A 
BRANCH  47  61
ATOM     61  C   UNL A   1      46.357  28.978  29.830  1.00  0.00     0.064 A 
ATOM     62  C   UNL A   1      46.854  28.318  30.966  1.00  0.00     0.173 A 
ATOM     63  C   UNL A   1      47.172  29.023  28.690  1.00  0.00     0.173 A 
ATOM     64  F   UNL A   1      46.121  28.260  32.087  1.00  0.00    -0.203 F 
ATOM     65  C   UNL A   1      48.129  27.759  30.969  1.00  0.00     0.198 A 
ATOM     66  C   UNL A   1      48.433  28.433  28.686  1.00  0.00     0.198 A 
ATOM     67  F   UNL A   1      46.744  29.636  27.575  1.00  0.00    -0.203 F 
ATOM     68  F   UNL A   1      48.604  27.185  32.083  1.00  0.00    -0.200 F 
ATOM     69  C   UNL A   1      48.914  27.810  29.828  1.00  0.00     0.200 A 
ATOM     70  F   UNL A   1      49.186  28.472  27.578  1.00  0.00    -0.200 F 
ATOM     71  F   UNL A   1      50.139  27.266  29.830  1.00  0.00    -0.200 F 
ENDBRANCH  47  61
BRANCH  48  72
ATOM     72  C   UNL A   1      37.040  32.590  29.818  1.00  0.00     0.064 A 
ATOM     73  C   UNL A   1      36.525  33.289  28.717  1.00  0.00     0.173 A 
ATOM     74  C   UNL A   1      36.210  32.432  30.937  1.00  0.00     0.173 A 
ATOM     75  F   UNL A   1      37.288  33.484  27.631  1.00  0.00    -0.203 F 
ATOM     76  C   UNL A   1      35.242  33.831  28.743  1.00  0.00     0.198 A 
ATOM     77  C   UNL A   1      34.916  32.950  30.951  1.00  0.00     0.198 A 
ATOM     78  F   UNL A   1      36.652  31.767  32.014  1.00  0.00    -0.203 F 
ATOM     79  F   UNL A   1      34.793  34.536  27.696  1.00  0.00    -0.200 F 
ATOM     80  C   UNL A   1      34.436  33.655  29.857  1.00  0.00     0.200 A 
ATOM     81  F   UNL A   1      34.135  32.766  32.024  1.00  0.00    -0.200 F 
ATOM     82  F   UNL A   1      33.201  34.175  29.882  1.00  0.00    -0.200 F 
ENDBRANCH  48  72
BRANCH  60  83
ATOM     83  C   UNL A   1      43.260  35.295  31.414  1.00  0.00     0.064 A 
ATOM     84  C   UNL A   1      43.671  36.273  30.498  1.00  0.00     0.173 A 
ATOM     85  C   UNL A   1      43.217  35.644  32.773  1.00  0.00     0.173 A 
ATOM     86  F   UNL A   1      43.744  35.986  29.189  1.00  0.00    -0.203 F 
ATOM     87  C   UNL A   1      44.050  37.542  30.928  1.00  0.00     0.198 A 
ATOM     88  C   UNL A   1      43.566  36.922  33.196  1.00  0.00     0.198 A 
ATOM     89  F   UNL A   1      42.822  34.746  33.689  1.00  0.00    -0.203 F 
ATOM     90  F   UNL A   1      44.487  38.446  30.041  1.00  0.00    -0.200 F 
ATOM     91  C   UNL A   1      43.989  37.867  32.275  1.00  0.00     0.200 A 
ATOM     92  F   UNL A   1      43.492  37.239  34.496  1.00  0.00    -0.200 F 
ATOM     93  F   UNL A   1      44.348  39.092  32.686  1.00  0.00    -0.200 F 
ENDBRANCH  60  83
ENDBRANCH  34  35
ENDBRANCH  26  29
ENDBRANCH  24  25
ENDBRANCH   1  24
TORSDOF 12
ENDMDL
MODEL 2
REMARK VINA RESULT:     -12.4      3.496      8.983
REMARK SMILES C[C@@H]1CC[C@H]([N@@H+]2[C@@H](C(=O)NCCCCNC(=O)c3ccc(-c4c5nc(c(-c6c(F)c(F)c(F)c(F)c6F)c6ccc([nH]6)c(-c6c(F)c(F)c(F)c(F)c6F)c6nc(c(-c7c(F)c(F)c(F)c(F)c7F)c7ccc4[nH]7)C=C6)C=C5)cc3)C[C@H]3CCCC[C@H]32)C1
REMARK SMILES IDX 13 1 12 2 11 3 10 4 8 5 9 6 7 8 6 9 87 10 81 12 82 13 86 14
REMARK SMILES IDX 83 15 85 16 84 17 5 18 1 19 2 20 3 21 88 22 4 23 14 24 15 25
REMARK SMILES IDX 16 26 17 28 18 29 19 30 80 31 20 32 79 33 21 34 22 35 23 36
REMARK SMILES IDX 73 37 24 38 78 39 72 40 74 41 25 42 77 43 71 44 70 45 26 47
REMARK SMILES IDX 58 48 38 49 57 50 39 51 42 52 56 53 75 54 40 55 41 56 55 58
REMARK SMILES IDX 76 59 43 60 27 61 28 62 36 63 29 64 30 65 34 66 37 67 31 68
REMARK SMILES IDX 32 69 35 70 33 71 59 72 60 73 68 74 61 75 62 76 66 77 69 78
REMARK SMILES IDX 63 79 64 80 67 81 65 82 44 83 45 84 53 85 46 86 47 87 51 88
REMARK SMILES IDX 54 89 48 90 49 91 52 92 50 93
REMARK H PARENT 10 7 6 11 15 27 74 46 42 57
REMARK Flexibility Score: inf
ROOT
ATOM      1  C   UNL A   1      31.936  27.839  27.274  1.00  0.00     0.023 C 
ENDROOT
BRANCH   1   2
ATOM      2  C   UNL A   1      31.619  26.764  26.240  1.00  0.00     0.023 C 
BRANCH   2   3
ATOM      3  C   UNL A   1      32.238  25.397  26.499  1.00  0.00     0.116 C 
BRANCH   3   4
ATOM      4  N   UNL A   1      31.317  24.297  26.300  1.00  0.00    -0.351 N 
ATOM      5  C   UNL A   1      31.583  22.967  26.104  1.00  0.00     0.278 C 
ATOM      6  O   UNL A   1      30.603  22.225  26.002  1.00  0.00    -0.268 OA
ATOM      7  H   UNL A   1      30.363  24.540  26.306  1.00  0.00     0.163 HD
BRANCH   5   8
ATOM      8  C   UNL A   1      33.053  22.488  25.936  1.00  0.00     0.275 C 
ATOM      9  N   UNL A   1      33.517  22.717  24.534  1.00  0.00    -0.320 N 
ATOM     10  C   UNL A   1      33.599  21.405  23.879  1.00  0.00     0.188 C 
ATOM     11  H   UNL A   1      32.846  23.260  23.991  1.00  0.00     0.349 HD
ATOM     12  C   UNL A   1      33.257  20.983  26.183  1.00  0.00     0.085 C 
ATOM     13  C   UNL A   1      34.054  20.475  24.991  1.00  0.00     0.054 C 
ATOM     14  C   UNL A   1      32.234  20.998  23.289  1.00  0.00     0.065 C 
ATOM     15  C   UNL A   1      33.888  18.987  24.702  1.00  0.00     0.010 C 
ATOM     16  C   UNL A   1      32.222  19.524  22.892  1.00  0.00     0.006 C 
ATOM     17  C   UNL A   1      32.541  18.631  24.087  1.00  0.00     0.001 C 
BRANCH   9  18
ATOM     18  C   UNL A   1      34.671  23.628  24.437  1.00  0.00     0.185 C 
ATOM     19  C   UNL A   1      37.234  21.424  24.539  1.00  0.00     0.008 C 
ATOM     20  C   UNL A   1      37.032  22.906  24.234  1.00  0.00    -0.008 C 
ATOM     21  C   UNL A   1      36.912  23.745  25.502  1.00  0.00     0.009 C 
ATOM     22  C   UNL A   1      35.769  23.233  23.432  1.00  0.00     0.068 C 
ATOM     23  C   UNL A   1      35.425  23.999  25.729  1.00  0.00     0.065 C 
ENDBRANCH   9  18
ENDBRANCH   5   8
ENDBRANCH   3   4
ENDBRANCH   2   3
ENDBRANCH   1   2
BRANCH   1  24
ATOM     24  C   UNL A   1      33.317  28.471  27.165  1.00  0.00     0.116 C 
BRANCH  24  25
ATOM     25  N   UNL A   1      33.311  29.911  27.359  1.00  0.00    -0.352 N 
ATOM     26  C   UNL A   1      34.284  30.728  27.897  1.00  0.00     0.251 C 
ATOM     27  H   UNL A   1      32.493  30.371  27.064  1.00  0.00     0.163 HD
ATOM     28  O   UNL A   1      34.059  31.915  28.083  1.00  0.00    -0.269 OA
BRANCH  26  29
ATOM     29  C   UNL A   1      35.590  30.152  28.280  1.00  0.00     0.039 A 
ATOM     30  C   UNL A   1      36.629  30.156  27.348  1.00  0.00     0.014 A 
ATOM     31  C   UNL A   1      35.794  29.628  29.559  1.00  0.00     0.014 A 
ATOM     32  C   UNL A   1      37.897  29.704  27.723  1.00  0.00     0.010 A 
ATOM     33  C   UNL A   1      37.074  29.263  29.958  1.00  0.00     0.010 A 
ATOM     34  C   UNL A   1      38.137  29.288  29.042  1.00  0.00    -0.014 A 
BRANCH  34  35
ATOM     35  C   UNL A   1      39.487  28.850  29.482  1.00  0.00     0.031 A 
ATOM     36  C   UNL A   1      40.275  29.706  30.435  1.00  0.00     0.074 A 
ATOM     37  C   UNL A   1      40.029  27.726  28.974  1.00  0.00     0.049 A 
ATOM     38  N   UNL A   1      41.498  29.549  30.875  1.00  0.00    -0.248 NA
ATOM     39  C   UNL A   1      39.611  30.921  30.935  1.00  0.00     0.031 C 
ATOM     40  C   UNL A   1      39.388  26.838  28.004  1.00  0.00     0.029 A 
ATOM     41  N   UNL A   1      41.253  27.145  29.198  1.00  0.00    -0.354 N 
ATOM     42  C   UNL A   1      41.753  30.651  31.680  1.00  0.00     0.074 A 
ATOM     43  C   UNL A   1      40.583  31.499  31.622  1.00  0.00     0.031 C 
ATOM     44  C   UNL A   1      40.212  25.813  27.734  1.00  0.00     0.029 A 
ATOM     45  C   UNL A   1      41.452  25.989  28.484  1.00  0.00     0.049 A 
ATOM     46  H   UNL A   1      41.924  27.520  29.812  1.00  0.00     0.167 HD
ATOM     47  C   UNL A   1      42.852  30.919  32.424  1.00  0.00     0.037 A 
ATOM     48  C   UNL A   1      42.518  25.167  28.438  1.00  0.00     0.037 A 
ATOM     49  C   UNL A   1      44.000  30.056  32.508  1.00  0.00     0.049 A 
ATOM     50  C   UNL A   1      43.723  25.480  29.285  1.00  0.00     0.074 A 
ATOM     51  C   UNL A   1      45.141  30.208  33.275  1.00  0.00     0.029 A 
ATOM     52  N   UNL A   1      44.149  28.873  31.798  1.00  0.00    -0.354 N 
ATOM     53  N   UNL A   1      43.927  26.491  30.094  1.00  0.00    -0.248 NA
ATOM     54  C   UNL A   1      44.841  24.528  29.221  1.00  0.00     0.031 C 
ATOM     55  C   UNL A   1      45.999  29.138  33.000  1.00  0.00     0.029 A 
ATOM     56  C   UNL A   1      45.369  28.291  32.101  1.00  0.00     0.049 A 
ATOM     57  H   UNL A   1      43.486  28.503  31.172  1.00  0.00     0.167 HD
ATOM     58  C   UNL A   1      45.176  26.279  30.662  1.00  0.00     0.074 A 
ATOM     59  C   UNL A   1      45.680  25.038  30.113  1.00  0.00     0.031 C 
ATOM     60  C   UNL A   1      45.845  27.044  31.560  1.00  0.00     0.037 A 
BRANCH  47  61
ATOM     61  C   UNL A   1      42.859  32.196  33.215  1.00  0.00     0.064 A 
ATOM     62  C   UNL A   1      42.386  32.245  34.536  1.00  0.00     0.173 A 
ATOM     63  C   UNL A   1      43.365  33.378  32.656  1.00  0.00     0.173 A 
ATOM     64  F   UNL A   1      41.878  31.146  35.113  1.00  0.00    -0.203 F 
ATOM     65  C   UNL A   1      42.389  33.438  35.254  1.00  0.00     0.198 A 
ATOM     66  C   UNL A   1      43.396  34.562  33.389  1.00  0.00     0.198 A 
ATOM     67  F   UNL A   1      43.834  33.387  31.399  1.00  0.00    -0.203 F 
ATOM     68  F   UNL A   1      41.880  33.473  36.493  1.00  0.00    -0.200 F 
ATOM     69  C   UNL A   1      42.900  34.593  34.684  1.00  0.00     0.200 A 
ATOM     70  F   UNL A   1      43.904  35.674  32.840  1.00  0.00    -0.200 F 
ATOM     71  F   UNL A   1      42.908  35.739  35.378  1.00  0.00    -0.200 F 
ENDBRANCH  47  61
BRANCH  48  72
ATOM     72  C   UNL A   1      42.483  23.947  27.588  1.00  0.00     0.064 A 
ATOM     73  C   UNL A   1      42.019  22.728  28.103  1.00  0.00     0.173 A 
ATOM     74  C   UNL A   1      42.918  23.969  26.255  1.00  0.00     0.173 A 
ATOM     75  F   UNL A   1      41.611  22.651  29.378  1.00  0.00    -0.203 F 
ATOM     76  C   UNL A   1      42.015  21.572  27.325  1.00  0.00     0.198 A 
ATOM     77  C   UNL A   1      42.887  22.819  25.470  1.00  0.00     0.198 A 
ATOM     78  F   UNL A   1      43.365  25.111  25.713  1.00  0.00    -0.203 F 
ATOM     79  F   UNL A   1      41.613  20.410  27.858  1.00  0.00    -0.200 F 
ATOM     80  C   UNL A   1      42.444  21.620  26.008  1.00  0.00     0.200 A 
ATOM     81  F   UNL A   1      43.288  22.871  24.192  1.00  0.00    -0.200 F 
ATOM     82  F   UNL A   1      42.439  20.508  25.259  1.00  0.00    -0.200 F 
ENDBRANCH  48  72
BRANCH  60  83
ATOM     83  C   UNL A   1      47.169  26.533  32.050  1.00  0.00     0.064 A 
ATOM     84  C   UNL A   1      47.265  25.666  33.148  1.00  0.00     0.173 A 
ATOM     85  C   UNL A   1      48.352  26.883  31.383  1.00  0.00     0.173 A 
ATOM     86  F   UNL A   1      46.165  25.312  33.829  1.00  0.00    -0.203 F 
ATOM     87  C   UNL A   1      48.502  25.192  33.578  1.00  0.00     0.198 A 
ATOM     88  C   UNL A   1      49.583  26.383  31.796  1.00  0.00     0.198 A 
ATOM     89  F   UNL A   1      48.312  27.703  30.321  1.00  0.00    -0.203 F 
ATOM     90  F   UNL A   1      48.577  24.405  34.660  1.00  0.00    -0.200 F 
ATOM     91  C   UNL A   1      49.658  25.545  32.897  1.00  0.00     0.200 A 
ATOM     92  F   UNL A   1      50.697  26.712  31.127  1.00  0.00    -0.200 F 
ATOM     93  F   UNL A   1      50.847  25.081  33.308  1.00  0.00    -0.200 F 
ENDBRANCH  60  83
ENDBRANCH  34  35
ENDBRANCH  26  29
ENDBRANCH  24  25
ENDBRANCH   1  24
TORSDOF 12
ENDMDL
MODEL 3
REMARK VINA RESULT:     -12.4      4.066      7.368
REMARK SMILES C[C@@H]1CC[C@H]([N@@H+]2[C@@H](C(=O)NCCCCNC(=O)c3ccc(-c4c5nc(c(-c6c(F)c(F)c(F)c(F)c6F)c6ccc([nH]6)c(-c6c(F)c(F)c(F)c(F)c6F)c6nc(c(-c7c(F)c(F)c(F)c(F)c7F)c7ccc4[nH]7)C=C6)C=C5)cc3)C[C@H]3CCCC[C@H]32)C1
REMARK SMILES IDX 13 1 12 2 11 3 10 4 8 5 9 6 7 8 6 9 87 10 81 12 82 13 86 14
REMARK SMILES IDX 83 15 85 16 84 17 5 18 1 19 2 20 3 21 88 22 4 23 14 24 15 25
REMARK SMILES IDX 16 26 17 28 18 29 19 30 80 31 20 32 79 33 21 34 22 35 23 36
REMARK SMILES IDX 73 37 24 38 78 39 72 40 74 41 25 42 77 43 71 44 70 45 26 47
REMARK SMILES IDX 58 48 38 49 57 50 39 51 42 52 56 53 75 54 40 55 41 56 55 58
REMARK SMILES IDX 76 59 43 60 27 61 28 62 36 63 29 64 30 65 34 66 37 67 31 68
REMARK SMILES IDX 32 69 35 70 33 71 59 72 60 73 68 74 61 75 62 76 66 77 69 78
REMARK SMILES IDX 63 79 64 80 67 81 65 82 44 83 45 84 53 85 46 86 47 87 51 88
REMARK SMILES IDX 54 89 48 90 49 91 52 92 50 93
REMARK H PARENT 10 7 6 11 15 27 74 46 42 57
REMARK Flexibility Score: inf
ROOT
ATOM      1  C   UNL A   1      32.181  28.054  25.328  1.00  0.00     0.023 C 
ENDROOT
BRANCH   1   2
ATOM      2  C   UNL A   1      32.818  26.675  25.201  1.00  0.00     0.023 C 
BRANCH   2   3
ATOM      3  C   UNL A   1      32.626  25.746  26.392  1.00  0.00     0.116 C 
BRANCH   3   4
ATOM      4  N   UNL A   1      31.624  24.724  26.175  1.00  0.00    -0.351 N 
ATOM      5  C   UNL A   1      31.784  23.373  26.008  1.00  0.00     0.278 C 
ATOM      6  O   UNL A   1      30.749  22.714  25.881  1.00  0.00    -0.268 OA
ATOM      7  H   UNL A   1      30.694  25.046  26.142  1.00  0.00     0.163 HD
BRANCH   5   8
ATOM      8  C   UNL A   1      33.213  22.770  25.902  1.00  0.00     0.275 C 
ATOM      9  N   UNL A   1      33.731  22.904  24.507  1.00  0.00    -0.320 N 
ATOM     10  C   UNL A   1      33.723  21.565  23.905  1.00  0.00     0.188 C 
ATOM     11  H   UNL A   1      33.122  23.478  23.925  1.00  0.00     0.349 HD
ATOM     12  C   UNL A   1      33.286  21.264  26.212  1.00  0.00     0.085 C 
ATOM     13  C   UNL A   1      34.069  20.646  25.064  1.00  0.00     0.054 C 
ATOM     14  C   UNL A   1      32.345  21.246  23.291  1.00  0.00     0.065 C 
ATOM     15  C   UNL A   1      33.789  19.166  24.826  1.00  0.00     0.010 C 
ATOM     16  C   UNL A   1      32.222  19.764  22.949  1.00  0.00     0.006 C 
ATOM     17  C   UNL A   1      32.434  18.896  24.186  1.00  0.00     0.001 C 
BRANCH   9  18
ATOM     18  C   UNL A   1      34.958  23.714  24.410  1.00  0.00     0.185 C 
ATOM     19  C   UNL A   1      37.327  21.311  24.635  1.00  0.00     0.008 C 
ATOM     20  C   UNL A   1      37.255  22.794  24.283  1.00  0.00    -0.008 C 
ATOM     21  C   UNL A   1      37.179  23.679  25.522  1.00  0.00     0.009 C 
ATOM     22  C   UNL A   1      36.040  23.199  23.443  1.00  0.00     0.068 C 
ATOM     23  C   UNL A   1      35.714  24.062  25.708  1.00  0.00     0.065 C 
ENDBRANCH   9  18
ENDBRANCH   5   8
ENDBRANCH   3   4
ENDBRANCH   2   3
ENDBRANCH   1   2
BRANCH   1  24
ATOM     24  C   UNL A   1      33.146  29.231  25.289  1.00  0.00     0.116 C 
BRANCH  24  25
ATOM     25  N   UNL A   1      32.588  30.456  25.836  1.00  0.00    -0.352 N 
ATOM     26  C   UNL A   1      33.043  31.240  26.876  1.00  0.00     0.251 C 
ATOM     27  H   UNL A   1      31.764  30.772  25.402  1.00  0.00     0.163 HD
ATOM     28  O   UNL A   1      32.378  32.185  27.273  1.00  0.00    -0.269 OA
BRANCH  26  29
ATOM     29  C   UNL A   1      34.326  30.908  27.532  1.00  0.00     0.039 A 
ATOM     30  C   UNL A   1      35.273  31.918  27.711  1.00  0.00     0.014 A 
ATOM     31  C   UNL A   1      34.583  29.612  27.986  1.00  0.00     0.014 A 
ATOM     32  C   UNL A   1      36.449  31.646  28.415  1.00  0.00     0.010 A 
ATOM     33  C   UNL A   1      35.710  29.365  28.761  1.00  0.00     0.010 A 
ATOM     34  C   UNL A   1      36.659  30.376  28.977  1.00  0.00    -0.014 A 
BRANCH  34  35
ATOM     35  C   UNL A   1      37.877  30.073  29.772  1.00  0.00     0.031 A 
ATOM     36  C   UNL A   1      38.911  29.130  29.222  1.00  0.00     0.074 A 
ATOM     37  C   UNL A   1      38.019  30.587  31.009  1.00  0.00     0.049 A 
ATOM     38  N   UNL A   1      39.998  28.669  29.787  1.00  0.00    -0.248 NA
ATOM     39  C   UNL A   1      38.674  28.608  27.866  1.00  0.00     0.031 C 
ATOM     40  C   UNL A   1      37.063  31.472  31.675  1.00  0.00     0.029 A 
ATOM     41  N   UNL A   1      39.022  30.428  31.933  1.00  0.00    -0.354 N 
ATOM     42  C   UNL A   1      40.558  27.791  28.868  1.00  0.00     0.074 A 
ATOM     43  C   UNL A   1      39.662  27.737  27.734  1.00  0.00     0.031 C 
ATOM     44  C   UNL A   1      37.535  31.797  32.889  1.00  0.00     0.029 A 
ATOM     45  C   UNL A   1      38.809  31.117  33.102  1.00  0.00     0.049 A 
ATOM     46  H   UNL A   1      39.819  29.873  31.773  1.00  0.00     0.167 HD
ATOM     47  C   UNL A   1      41.726  27.113  28.948  1.00  0.00     0.037 A 
ATOM     48  C   UNL A   1      39.557  31.187  34.220  1.00  0.00     0.037 A 
ATOM     49  C   UNL A   1      42.633  27.196  30.063  1.00  0.00     0.049 A 
ATOM     50  C   UNL A   1      40.859  30.434  34.279  1.00  0.00     0.074 A 
ATOM     51  C   UNL A   1      43.868  26.594  30.219  1.00  0.00     0.029 A 
ATOM     52  N   UNL A   1      42.399  27.935  31.214  1.00  0.00    -0.354 N 
ATOM     53  N   UNL A   1      41.410  29.659  33.377  1.00  0.00    -0.248 NA
ATOM     54  C   UNL A   1      41.650  30.577  35.510  1.00  0.00     0.031 C 
ATOM     55  C   UNL A   1      44.364  26.935  31.481  1.00  0.00     0.029 A 
ATOM     56  C   UNL A   1      43.463  27.794  32.090  1.00  0.00     0.049 A 
ATOM     57  H   UNL A   1      41.596  28.480  31.383  1.00  0.00     0.167 HD
ATOM     58  C   UNL A   1      42.625  29.253  33.913  1.00  0.00     0.074 A 
ATOM     59  C   UNL A   1      42.736  29.875  35.216  1.00  0.00     0.031 C 
ATOM     60  C   UNL A   1      43.565  28.438  33.374  1.00  0.00     0.037 A 
BRANCH  47  61
ATOM     61  C   UNL A   1      42.095  26.227  27.793  1.00  0.00     0.064 A 
ATOM     62  C   UNL A   1      43.026  26.632  26.824  1.00  0.00     0.173 A 
ATOM     63  C   UNL A   1      41.530  24.950  27.665  1.00  0.00     0.173 A 
ATOM     64  F   UNL A   1      43.585  27.849  26.892  1.00  0.00    -0.203 F 
ATOM     65  C   UNL A   1      43.351  25.805  25.752  1.00  0.00     0.198 A 
ATOM     66  C   UNL A   1      41.881  24.113  26.609  1.00  0.00     0.198 A 
ATOM     67  F   UNL A   1      40.637  24.510  28.566  1.00  0.00    -0.203 F 
ATOM     68  F   UNL A   1      44.199  26.236  24.809  1.00  0.00    -0.200 F 
ATOM     69  C   UNL A   1      42.785  24.544  25.649  1.00  0.00     0.200 A 
ATOM     70  F   UNL A   1      41.343  22.889  26.519  1.00  0.00    -0.200 F 
ATOM     71  F   UNL A   1      43.102  23.746  24.620  1.00  0.00    -0.200 F 
ENDBRANCH  47  61
BRANCH  48  72
ATOM     72  C   UNL A   1      39.114  32.031  35.361  1.00  0.00     0.064 A 
ATOM     73  C   UNL A   1      39.445  33.392  35.417  1.00  0.00     0.173 A 
ATOM     74  C   UNL A   1      38.364  31.498  36.419  1.00  0.00     0.173 A 
ATOM     75  F   UNL A   1      40.178  33.944  34.439  1.00  0.00    -0.203 F 
ATOM     76  C   UNL A   1      39.065  34.183  36.500  1.00  0.00     0.198 A 
ATOM     77  C   UNL A   1      37.960  32.295  37.488  1.00  0.00     0.198 A 
ATOM     78  F   UNL A   1      38.017  30.203  36.411  1.00  0.00    -0.203 F 
ATOM     79  F   UNL A   1      39.437  35.469  36.551  1.00  0.00    -0.200 F 
ATOM     80  C   UNL A   1      38.317  33.635  37.531  1.00  0.00     0.200 A 
ATOM     81  F   UNL A   1      37.226  31.767  38.476  1.00  0.00    -0.200 F 
ATOM     82  F   UNL A   1      37.950  34.395  38.572  1.00  0.00    -0.200 F 
ENDBRANCH  48  72
BRANCH  60  83
ATOM     83  C   UNL A   1      44.822  28.219  34.165  1.00  0.00     0.064 A 
ATOM     84  C   UNL A   1      44.954  27.151  35.064  1.00  0.00     0.173 A 
ATOM     85  C   UNL A   1      45.926  29.067  33.986  1.00  0.00     0.173 A 
ATOM     86  F   UNL A   1      43.923  26.319  35.282  1.00  0.00    -0.203 F 
ATOM     87  C   UNL A   1      46.134  26.958  35.778  1.00  0.00     0.198 A 
ATOM     88  C   UNL A   1      47.114  28.853  34.677  1.00  0.00     0.198 A 
ATOM     89  F   UNL A   1      45.853  30.098  33.130  1.00  0.00    -0.203 F 
ATOM     90  F   UNL A   1      46.221  25.961  36.669  1.00  0.00    -0.200 F 
ATOM     91  C   UNL A   1      47.215  27.804  35.577  1.00  0.00     0.200 A 
ATOM     92  F   UNL A   1      48.162  29.662  34.471  1.00  0.00    -0.200 F 
ATOM     93  F   UNL A   1      48.352  27.612  36.259  1.00  0.00    -0.200 F 
ENDBRANCH  60  83
ENDBRANCH  34  35
ENDBRANCH  26  29
ENDBRANCH  24  25
ENDBRANCH   1  24
TORSDOF 12
ENDMDL
