MODEL 1
REMARK VINA RESULT:     -15.0      0.000      0.000
REMARK SMILES Cc1ccc([C@@H](C)Nc2ccc(N)cc2C(=O)NCCCCNC(=O)c2ccc(-c3c4nc(c(-c5c(F)c(F)c(F)c(F)c5F)c5ccc([nH]5)c(-c5c(F)c(F)c(F)c(F)c5F)c5nc(c(-c6c(F)c(F)c(F)c(F)c6F)c6ccc3[nH]6)C=C5)C=C4)cc2)cc1F
REMARK SMILES IDX 20 1 19 2 18 3 16 4 17 5 15 7 9 8 10 9 11 10 14 11 12 12
REMARK SMILES IDX 8 13 6 15 7 16 5 17 1 18 2 19 3 20 90 21 4 22 89 23 91 24
REMARK SMILES IDX 13 25 21 28 22 29 23 30 24 31 25 33 26 34 27 35 88 36 28 37
REMARK SMILES IDX 87 38 29 39 30 40 31 41 81 42 32 43 86 44 80 45 82 46 33 47
REMARK SMILES IDX 85 48 79 49 78 50 34 52 66 53 46 54 65 55 47 56 50 57 64 58
REMARK SMILES IDX 83 59 48 60 49 61 63 63 84 64 51 65 35 66 36 67 44 68 37 69
REMARK SMILES IDX 38 70 42 71 45 72 39 73 40 74 43 75 41 76 67 77 68 78 76 79
REMARK SMILES IDX 69 80 70 81 74 82 77 83 71 84 72 85 75 86 73 87 52 88 53 89
REMARK SMILES IDX 61 90 54 91 55 92 59 93 62 94 56 95 57 96 60 97 58 98
REMARK H PARENT 18 6 8 14 13 26 13 27 23 32 82 51 50 62
REMARK Flexibility Score: inf
ROOT
ATOM      1  C   UNL A   1      34.324  25.706  25.355  1.00  0.00     0.023 C 
ENDROOT
BRANCH   1   2
ATOM      2  C   UNL A   1      33.581  26.694  24.156  1.00  0.00     0.116 C 
BRANCH   2   3
ATOM      3  N   UNL A   1      33.003  26.093  22.959  1.00  0.00    -0.352 N 
ATOM      4  C   UNL A   1      31.925  26.483  22.203  1.00  0.00     0.253 C 
ATOM      5  O   UNL A   1      31.740  25.983  21.095  1.00  0.00    -0.269 OA
ATOM      6  H   UNL A   1      33.457  25.278  22.643  1.00  0.00     0.163 HD
BRANCH   4   7
ATOM      7  C   UNL A   1      30.902  27.358  22.803  1.00  0.00     0.065 A 
ATOM      8  C   UNL A   1      29.762  26.909  23.476  1.00  0.00     0.048 A 
ATOM      9  C   UNL A   1      28.645  27.759  23.371  1.00  0.00     0.028 A 
ATOM     10  C   UNL A   1      28.721  29.030  22.771  1.00  0.00     0.027 A 
ATOM     11  C   UNL A   1      31.028  28.689  22.358  1.00  0.00     0.041 A 
ATOM     12  C   UNL A   1      29.941  29.549  22.360  1.00  0.00     0.032 A 
BRANCH   8  13
ATOM     13  N   UNL A   1      29.610  25.721  24.174  1.00  0.00    -0.378 N 
ATOM     14  H   UNL A   1      28.962  25.094  23.780  1.00  0.00     0.161 HD
BRANCH  13  15
ATOM     15  C   UNL A   1      30.259  25.241  25.404  1.00  0.00     0.106 C 
ATOM     16  C   UNL A   1      30.780  26.353  26.305  1.00  0.00     0.036 C 
BRANCH  15  17
ATOM     17  C   UNL A   1      31.055  23.964  25.124  1.00  0.00    -0.023 A 
ATOM     18  C   UNL A   1      34.221  19.982  24.823  1.00  0.00     0.047 C 
ATOM     19  C   UNL A   1      33.064  20.934  24.921  1.00  0.00    -0.015 A 
ATOM     20  C   UNL A   1      32.926  21.827  26.468  1.00  0.00     0.007 A 
ATOM     21  C   UNL A   1      32.211  21.572  23.448  1.00  0.00     0.126 A 
ATOM     22  C   UNL A   1      31.895  23.307  26.584  1.00  0.00     0.006 A 
ATOM     23  C   UNL A   1      31.189  23.072  23.546  1.00  0.00     0.045 A 
ATOM     24  F   UNL A   1      32.403  20.975  22.266  1.00  0.00    -0.207 F 
ENDBRANCH  15  17
ENDBRANCH  13  15
ENDBRANCH   8  13
BRANCH  12  25
ATOM     25  N   UNL A   1      30.042  30.797  21.769  1.00  0.00    -0.399 N 
ATOM     26  H   UNL A   1      30.126  31.601  22.330  1.00  0.00     0.156 HD
ATOM     27  H   UNL A   1      30.030  30.879  20.789  1.00  0.00     0.156 HD
ENDBRANCH  12  25
ENDBRANCH   4   7
ENDBRANCH   2   3
ENDBRANCH   1   2
BRANCH   1  28
ATOM     28  C   UNL A   1      35.799  24.083  25.412  1.00  0.00     0.023 C 
BRANCH  28  29
ATOM     29  C   UNL A   1      37.391  23.928  25.239  1.00  0.00     0.116 C 
BRANCH  29  30
ATOM     30  N   UNL A   1      38.055  23.092  26.260  1.00  0.00    -0.352 N 
ATOM     31  C   UNL A   1      39.293  23.295  26.822  1.00  0.00     0.251 C 
ATOM     32  H   UNL A   1      37.556  22.303  26.574  1.00  0.00     0.163 HD
ATOM     33  O   UNL A   1      40.041  22.381  27.131  1.00  0.00    -0.269 OA
BRANCH  31  34
ATOM     34  C   UNL A   1      39.568  24.684  27.189  1.00  0.00     0.039 A 
ATOM     35  C   UNL A   1      40.141  25.633  26.345  1.00  0.00     0.014 A 
ATOM     36  C   UNL A   1      39.321  24.977  28.525  1.00  0.00     0.014 A 
ATOM     37  C   UNL A   1      40.502  26.846  26.912  1.00  0.00     0.010 A 
ATOM     38  C   UNL A   1      39.247  26.243  28.923  1.00  0.00     0.010 A 
ATOM     39  C   UNL A   1      40.071  27.090  28.218  1.00  0.00    -0.014 A 
BRANCH  39  40
ATOM     40  C   UNL A   1      40.384  28.210  29.064  1.00  0.00     0.031 A 
ATOM     41  C   UNL A   1      39.372  29.255  28.960  1.00  0.00     0.074 A 
ATOM     42  C   UNL A   1      41.357  27.919  29.969  1.00  0.00     0.049 A 
ATOM     43  N   UNL A   1      39.582  30.507  28.764  1.00  0.00    -0.248 NA
ATOM     44  C   UNL A   1      37.941  28.903  28.843  1.00  0.00     0.031 C 
ATOM     45  C   UNL A   1      41.775  28.511  31.224  1.00  0.00     0.029 A 
ATOM     46  N   UNL A   1      42.283  26.855  29.823  1.00  0.00    -0.354 N 
ATOM     47  C   UNL A   1      38.383  31.087  29.125  1.00  0.00     0.074 A 
ATOM     48  C   UNL A   1      37.376  30.110  28.802  1.00  0.00     0.031 C 
ATOM     49  C   UNL A   1      43.049  28.129  31.478  1.00  0.00     0.029 A 
ATOM     50  C   UNL A   1      43.495  27.282  30.381  1.00  0.00     0.049 A 
ATOM     51  H   UNL A   1      42.106  25.980  29.409  1.00  0.00     0.167 HD
ATOM     52  C   UNL A   1      38.397  32.019  30.126  1.00  0.00     0.037 A 
ATOM     53  C   UNL A   1      44.508  27.530  29.495  1.00  0.00     0.037 A 
ATOM     54  C   UNL A   1      39.750  32.093  30.696  1.00  0.00     0.049 A 
ATOM     55  C   UNL A   1      44.607  29.020  29.296  1.00  0.00     0.074 A 
ATOM     56  C   UNL A   1      40.304  31.622  31.876  1.00  0.00     0.029 A 
ATOM     57  N   UNL A   1      40.819  32.362  29.852  1.00  0.00    -0.354 N 
ATOM     58  N   UNL A   1      43.596  29.838  29.436  1.00  0.00    -0.248 NA
ATOM     59  C   UNL A   1      45.869  29.712  29.082  1.00  0.00     0.031 C 
ATOM     60  C   UNL A   1      41.721  31.598  31.714  1.00  0.00     0.029 A 
ATOM     61  C   UNL A   1      42.019  31.984  30.419  1.00  0.00     0.049 A 
ATOM     62  H   UNL A   1      40.733  32.774  28.962  1.00  0.00     0.167 HD
ATOM     63  C   UNL A   1      44.054  31.124  29.441  1.00  0.00     0.074 A 
ATOM     64  C   UNL A   1      45.480  30.994  29.189  1.00  0.00     0.031 C 
ATOM     65  C   UNL A   1      43.253  32.203  29.681  1.00  0.00     0.037 A 
BRANCH  52  66
ATOM     66  C   UNL A   1      37.190  32.640  30.790  1.00  0.00     0.064 A 
ATOM     67  C   UNL A   1      36.361  33.523  30.064  1.00  0.00     0.173 A 
ATOM     68  C   UNL A   1      36.732  32.341  32.090  1.00  0.00     0.173 A 
ATOM     69  F   UNL A   1      36.630  33.851  28.793  1.00  0.00    -0.203 F 
ATOM     70  C   UNL A   1      35.195  34.075  30.598  1.00  0.00     0.198 A 
ATOM     71  C   UNL A   1      35.580  32.920  32.636  1.00  0.00     0.198 A 
ATOM     72  F   UNL A   1      37.332  31.430  32.862  1.00  0.00    -0.203 F 
ATOM     73  F   UNL A   1      34.440  34.882  29.840  1.00  0.00    -0.200 F 
ATOM     74  C   UNL A   1      34.807  33.780  31.886  1.00  0.00     0.200 A 
ATOM     75  F   UNL A   1      35.210  32.608  33.886  1.00  0.00    -0.200 F 
ATOM     76  F   UNL A   1      33.677  34.292  32.390  1.00  0.00    -0.200 F 
ENDBRANCH  52  66
BRANCH  53  77
ATOM     77  C   UNL A   1      44.556  26.443  28.452  1.00  0.00     0.064 A 
ATOM     78  C   UNL A   1      44.236  26.853  27.135  1.00  0.00     0.173 A 
ATOM     79  C   UNL A   1      45.343  25.289  28.580  1.00  0.00     0.173 A 
ATOM     80  F   UNL A   1      43.452  27.927  26.942  1.00  0.00    -0.203 F 
ATOM     81  C   UNL A   1      44.866  26.296  26.023  1.00  0.00     0.198 A 
ATOM     82  C   UNL A   1      45.920  24.690  27.450  1.00  0.00     0.198 A 
ATOM     83  F   UNL A   1      45.657  24.811  29.792  1.00  0.00    -0.203 F 
ATOM     84  F   UNL A   1      44.714  26.859  24.815  1.00  0.00    -0.200 F 
ATOM     85  C   UNL A   1      45.737  25.237  26.187  1.00  0.00     0.200 A 
ATOM     86  F   UNL A   1      46.732  23.632  27.595  1.00  0.00    -0.200 F 
ATOM     87  F   UNL A   1      46.426  24.781  25.131  1.00  0.00    -0.200 F 
ENDBRANCH  53  77
BRANCH  65  88
ATOM     88  C   UNL A   1      43.579  33.612  29.258  1.00  0.00     0.064 A 
ATOM     89  C   UNL A   1      43.719  33.997  27.916  1.00  0.00     0.173 A 
ATOM     90  C   UNL A   1      43.551  34.672  30.198  1.00  0.00     0.173 A 
ATOM     91  F   UNL A   1      43.612  33.115  26.913  1.00  0.00    -0.203 F 
ATOM     92  C   UNL A   1      43.909  35.327  27.551  1.00  0.00     0.198 A 
ATOM     93  C   UNL A   1      43.632  36.005  29.818  1.00  0.00     0.198 A 
ATOM     94  F   UNL A   1      43.404  34.453  31.514  1.00  0.00    -0.203 F 
ATOM     95  F   UNL A   1      44.119  35.633  26.264  1.00  0.00    -0.200 F 
ATOM     96  C   UNL A   1      43.843  36.333  28.497  1.00  0.00     0.200 A 
ATOM     97  F   UNL A   1      43.478  36.968  30.739  1.00  0.00    -0.200 F 
ATOM     98  F   UNL A   1      43.965  37.614  28.133  1.00  0.00    -0.200 F 
ENDBRANCH  65  88
ENDBRANCH  39  40
ENDBRANCH  31  34
ENDBRANCH  29  30
ENDBRANCH  28  29
ENDBRANCH   1  28
TORSDOF 15
ENDMDL
MODEL 2
REMARK VINA RESULT:     -14.7      3.002      8.752
REMARK SMILES Cc1ccc([C@@H](C)Nc2ccc(N)cc2C(=O)NCCCCNC(=O)c2ccc(-c3c4nc(c(-c5c(F)c(F)c(F)c(F)c5F)c5ccc([nH]5)c(-c5c(F)c(F)c(F)c(F)c5F)c5nc(c(-c6c(F)c(F)c(F)c(F)c6F)c6ccc3[nH]6)C=C5)C=C4)cc2)cc1F
REMARK SMILES IDX 20 1 19 2 18 3 16 4 17 5 15 7 9 8 10 9 11 10 14 11 12 12
REMARK SMILES IDX 8 13 6 15 7 16 5 17 1 18 2 19 3 20 90 21 4 22 89 23 91 24
REMARK SMILES IDX 13 25 21 28 22 29 23 30 24 31 25 33 26 34 27 35 88 36 28 37
REMARK SMILES IDX 87 38 29 39 30 40 31 41 81 42 32 43 86 44 80 45 82 46 33 47
REMARK SMILES IDX 85 48 79 49 78 50 34 52 66 53 46 54 65 55 47 56 50 57 64 58
REMARK SMILES IDX 83 59 48 60 49 61 63 63 84 64 51 65 35 66 36 67 44 68 37 69
REMARK SMILES IDX 38 70 42 71 45 72 39 73 40 74 43 75 41 76 67 77 68 78 76 79
REMARK SMILES IDX 69 80 70 81 74 82 77 83 71 84 72 85 75 86 73 87 52 88 53 89
REMARK SMILES IDX 61 90 54 91 55 92 59 93 62 94 56 95 57 96 60 97 58 98
REMARK H PARENT 18 6 8 14 13 26 13 27 23 32 82 51 50 62
REMARK Flexibility Score: inf
ROOT
ATOM      1  C   UNL A   1      31.246  27.371  26.268  1.00  0.00     0.023 C 
ENDROOT
BRANCH   1   2
ATOM      2  C   UNL A   1      30.790  25.711  26.239  1.00  0.00     0.116 C 
BRANCH   2   3
ATOM      3  N   UNL A   1      30.131  25.146  25.066  1.00  0.00    -0.352 N 
ATOM      4  C   UNL A   1      30.631  24.862  23.819  1.00  0.00     0.253 C 
ATOM      5  O   UNL A   1      29.981  24.167  23.041  1.00  0.00    -0.269 OA
ATOM      6  H   UNL A   1      29.176  24.936  25.187  1.00  0.00     0.163 HD
BRANCH   4   7
ATOM      7  C   UNL A   1      31.856  25.542  23.361  1.00  0.00     0.065 A 
ATOM      8  C   UNL A   1      33.157  25.160  23.703  1.00  0.00     0.048 A 
ATOM      9  C   UNL A   1      34.082  26.219  23.769  1.00  0.00     0.028 A 
ATOM     10  C   UNL A   1      33.756  27.528  23.367  1.00  0.00     0.027 A 
ATOM     11  C   UNL A   1      31.574  26.803  22.799  1.00  0.00     0.041 A 
ATOM     12  C   UNL A   1      32.531  27.804  22.774  1.00  0.00     0.032 A 
BRANCH   8  13
ATOM     13  N   UNL A   1      33.603  23.888  24.025  1.00  0.00    -0.378 N 
ATOM     14  H   UNL A   1      34.139  23.451  23.324  1.00  0.00     0.161 HD
BRANCH  13  15
ATOM     15  C   UNL A   1      33.412  23.082  25.241  1.00  0.00     0.106 C 
ATOM     16  C   UNL A   1      33.728  23.826  26.532  1.00  0.00     0.036 C 
BRANCH  15  17
ATOM     17  C   UNL A   1      33.844  21.635  24.996  1.00  0.00    -0.023 A 
ATOM     18  C   UNL A   1      34.489  16.612  24.428  1.00  0.00     0.047 C 
ATOM     19  C   UNL A   1      34.416  18.106  24.304  1.00  0.00    -0.015 A 
ATOM     20  C   UNL A   1      32.765  18.793  24.197  1.00  0.00     0.007 A 
ATOM     21  C   UNL A   1      35.798  19.184  24.786  1.00  0.00     0.126 A 
ATOM     22  C   UNL A   1      32.484  20.554  24.497  1.00  0.00     0.006 A 
ATOM     23  C   UNL A   1      35.524  20.951  25.112  1.00  0.00     0.045 A 
ATOM     24  F   UNL A   1      37.010  18.653  24.978  1.00  0.00    -0.207 F 
ENDBRANCH  15  17
ENDBRANCH  13  15
ENDBRANCH   8  13
BRANCH  12  25
ATOM     25  N   UNL A   1      32.188  29.083  22.369  1.00  0.00    -0.399 N 
ATOM     26  H   UNL A   1      32.682  29.859  22.718  1.00  0.00     0.156 HD
ATOM     27  H   UNL A   1      31.450  29.215  21.731  1.00  0.00     0.156 HD
ENDBRANCH  12  25
ENDBRANCH   4   7
ENDBRANCH   2   3
ENDBRANCH   1   2
BRANCH   1  28
ATOM     28  C   UNL A   1      32.871  28.577  27.115  1.00  0.00     0.023 C 
BRANCH  28  29
ATOM     29  C   UNL A   1      34.383  28.962  26.724  1.00  0.00     0.116 C 
BRANCH  29  30
ATOM     30  N   UNL A   1      34.749  30.377  26.943  1.00  0.00    -0.352 N 
ATOM     31  C   UNL A   1      35.427  30.902  28.017  1.00  0.00     0.251 C 
ATOM     32  H   UNL A   1      34.477  31.013  26.243  1.00  0.00     0.163 HD
ATOM     33  O   UNL A   1      35.187  32.007  28.478  1.00  0.00    -0.269 OA
BRANCH  31  34
ATOM     34  C   UNL A   1      36.580  30.112  28.447  1.00  0.00     0.039 A 
ATOM     35  C   UNL A   1      36.637  29.355  29.615  1.00  0.00     0.014 A 
ATOM     36  C   UNL A   1      37.703  30.265  27.642  1.00  0.00     0.014 A 
ATOM     37  C   UNL A   1      37.869  28.821  29.961  1.00  0.00     0.010 A 
ATOM     38  C   UNL A   1      38.709  29.402  27.739  1.00  0.00     0.010 A 
ATOM     39  C   UNL A   1      38.888  28.905  29.010  1.00  0.00    -0.014 A 
BRANCH  39  40
ATOM     40  C   UNL A   1      40.267  28.523  29.148  1.00  0.00     0.031 A 
ATOM     41  C   UNL A   1      40.470  27.123  28.789  1.00  0.00     0.074 A 
ATOM     42  C   UNL A   1      41.092  29.597  29.279  1.00  0.00     0.049 A 
ATOM     43  N   UNL A   1      41.101  26.241  29.476  1.00  0.00    -0.248 NA
ATOM     44  C   UNL A   1      39.735  26.527  27.653  1.00  0.00     0.031 C 
ATOM     45  C   UNL A   1      42.514  29.805  29.090  1.00  0.00     0.029 A 
ATOM     46  N   UNL A   1      40.662  30.879  29.706  1.00  0.00    -0.354 N 
ATOM     47  C   UNL A   1      41.334  25.236  28.560  1.00  0.00     0.074 A 
ATOM     48  C   UNL A   1      40.218  25.284  27.652  1.00  0.00     0.031 C 
ATOM     49  C   UNL A   1      42.885  30.906  29.784  1.00  0.00     0.029 A 
ATOM     50  C   UNL A   1      41.706  31.438  30.454  1.00  0.00     0.049 A 
ATOM     51  H   UNL A   1      39.793  31.298  29.512  1.00  0.00     0.167 HD
ATOM     52  C   UNL A   1      42.631  24.873  28.321  1.00  0.00     0.037 A 
ATOM     53  C   UNL A   1      41.489  31.543  31.801  1.00  0.00     0.037 A 
ATOM     54  C   UNL A   1      43.527  25.782  29.050  1.00  0.00     0.049 A 
ATOM     55  C   UNL A   1      42.219  30.417  32.486  1.00  0.00     0.074 A 
ATOM     56  C   UNL A   1      44.327  26.841  28.650  1.00  0.00     0.029 A 
ATOM     57  N   UNL A   1      43.372  25.918  30.424  1.00  0.00    -0.354 N 
ATOM     58  N   UNL A   1      42.478  29.269  31.915  1.00  0.00    -0.248 NA
ATOM     59  C   UNL A   1      42.843  30.553  33.793  1.00  0.00     0.031 C 
ATOM     60  C   UNL A   1      44.631  27.620  29.806  1.00  0.00     0.029 A 
ATOM     61  C   UNL A   1      43.959  27.076  30.888  1.00  0.00     0.049 A 
ATOM     62  H   UNL A   1      42.903  25.267  30.995  1.00  0.00     0.167 HD
ATOM     63  C   UNL A   1      43.358  28.569  32.689  1.00  0.00     0.074 A 
ATOM     64  C   UNL A   1      43.535  29.403  33.867  1.00  0.00     0.031 C 
ATOM     65  C   UNL A   1      43.907  27.379  32.310  1.00  0.00     0.037 A 
BRANCH  52  66
ATOM     66  C   UNL A   1      43.114  23.932  27.242  1.00  0.00     0.064 A 
ATOM     67  C   UNL A   1      42.851  22.549  27.342  1.00  0.00     0.173 A 
ATOM     68  C   UNL A   1      43.748  24.324  26.044  1.00  0.00     0.173 A 
ATOM     69  F   UNL A   1      42.197  22.034  28.393  1.00  0.00    -0.203 F 
ATOM     70  C   UNL A   1      43.211  21.637  26.348  1.00  0.00     0.198 A 
ATOM     71  C   UNL A   1      44.136  23.405  25.062  1.00  0.00     0.198 A 
ATOM     72  F   UNL A   1      43.956  25.608  25.738  1.00  0.00    -0.203 F 
ATOM     73  F   UNL A   1      42.901  20.342  26.496  1.00  0.00    -0.200 F 
ATOM     74  C   UNL A   1      43.859  22.063  25.210  1.00  0.00     0.200 A 
ATOM     75  F   UNL A   1      44.753  23.841  23.954  1.00  0.00    -0.200 F 
ATOM     76  F   UNL A   1      44.185  21.193  24.246  1.00  0.00    -0.200 F 
ENDBRANCH  52  66
BRANCH  53  77
ATOM     77  C   UNL A   1      40.091  32.044  32.058  1.00  0.00     0.064 A 
ATOM     78  C   UNL A   1      39.211  31.104  32.650  1.00  0.00     0.173 A 
ATOM     79  C   UNL A   1      39.782  33.399  32.240  1.00  0.00     0.173 A 
ATOM     80  F   UNL A   1      39.427  29.789  32.480  1.00  0.00    -0.203 F 
ATOM     81  C   UNL A   1      38.236  31.494  33.566  1.00  0.00     0.198 A 
ATOM     82  C   UNL A   1      38.752  33.786  33.111  1.00  0.00     0.198 A 
ATOM     83  F   UNL A   1      40.540  34.351  31.680  1.00  0.00    -0.203 F 
ATOM     84  F   UNL A   1      37.577  30.567  34.277  1.00  0.00    -0.200 F 
ATOM     85  C   UNL A   1      38.032  32.835  33.822  1.00  0.00     0.200 A 
ATOM     86  F   UNL A   1      38.516  35.088  33.332  1.00  0.00    -0.200 F 
ATOM     87  F   UNL A   1      37.174  33.199  34.787  1.00  0.00    -0.200 F 
ENDBRANCH  53  77
BRANCH  65  88
ATOM     88  C   UNL A   1      44.491  26.370  33.265  1.00  0.00     0.064 A 
ATOM     89  C   UNL A   1      43.718  25.654  34.191  1.00  0.00     0.173 A 
ATOM     90  C   UNL A   1      45.834  25.940  33.127  1.00  0.00     0.173 A 
ATOM     91  F   UNL A   1      42.399  25.855  34.316  1.00  0.00    -0.203 F 
ATOM     92  C   UNL A   1      44.268  24.649  34.982  1.00  0.00     0.198 A 
ATOM     93  C   UNL A   1      46.347  24.864  33.841  1.00  0.00     0.198 A 
ATOM     94  F   UNL A   1      46.683  26.520  32.265  1.00  0.00    -0.203 F 
ATOM     95  F   UNL A   1      43.507  24.051  35.909  1.00  0.00    -0.200 F 
ATOM     96  C   UNL A   1      45.574  24.239  34.793  1.00  0.00     0.200 A 
ATOM     97  F   UNL A   1      47.587  24.426  33.580  1.00  0.00    -0.200 F 
ATOM     98  F   UNL A   1      46.078  23.231  35.513  1.00  0.00    -0.200 F 
ENDBRANCH  65  88
ENDBRANCH  39  40
ENDBRANCH  31  34
ENDBRANCH  29  30
ENDBRANCH  28  29
ENDBRANCH   1  28
TORSDOF 15
ENDMDL
MODEL 3
REMARK VINA RESULT:     -14.7      3.619      8.879
REMARK SMILES Cc1ccc([C@@H](C)Nc2ccc(N)cc2C(=O)NCCCCNC(=O)c2ccc(-c3c4nc(c(-c5c(F)c(F)c(F)c(F)c5F)c5ccc([nH]5)c(-c5c(F)c(F)c(F)c(F)c5F)c5nc(c(-c6c(F)c(F)c(F)c(F)c6F)c6ccc3[nH]6)C=C5)C=C4)cc2)cc1F
REMARK SMILES IDX 20 1 19 2 18 3 16 4 17 5 15 7 9 8 10 9 11 10 14 11 12 12
REMARK SMILES IDX 8 13 6 15 7 16 5 17 1 18 2 19 3 20 90 21 4 22 89 23 91 24
REMARK SMILES IDX 13 25 21 28 22 29 23 30 24 31 25 33 26 34 27 35 88 36 28 37
REMARK SMILES IDX 87 38 29 39 30 40 31 41 81 42 32 43 86 44 80 45 82 46 33 47
REMARK SMILES IDX 85 48 79 49 78 50 34 52 66 53 46 54 65 55 47 56 50 57 64 58
REMARK SMILES IDX 83 59 48 60 49 61 63 63 84 64 51 65 35 66 36 67 44 68 37 69
REMARK SMILES IDX 38 70 42 71 45 72 39 73 40 74 43 75 41 76 67 77 68 78 76 79
REMARK SMILES IDX 69 80 70 81 74 82 77 83 71 84 72 85 75 86 73 87 52 88 53 89
REMARK SMILES IDX 61 90 54 91 55 92 59 93 62 94 56 95 57 96 60 97 58 98
REMARK H PARENT 18 6 8 14 13 26 13 27 23 32 82 51 50 62
REMARK Flexibility Score: inf
ROOT
ATOM      1  C   UNL A   1      33.747  30.233  26.754  1.00  0.00     0.023 C 
ENDROOT
BRANCH   1   2
ATOM      2  C   UNL A   1      33.382  28.550  26.783  1.00  0.00     0.116 C 
BRANCH   2   3
ATOM      3  N   UNL A   1      33.798  27.686  25.683  1.00  0.00    -0.352 N 
ATOM      4  C   UNL A   1      33.241  27.498  24.443  1.00  0.00     0.253 C 
ATOM      5  O   UNL A   1      33.873  26.909  23.568  1.00  0.00    -0.269 OA
ATOM      6  H   UNL A   1      34.608  27.152  25.859  1.00  0.00     0.163 HD
BRANCH   4   7
ATOM      7  C   UNL A   1      31.823  27.842  24.230  1.00  0.00     0.065 A 
ATOM      8  C   UNL A   1      30.743  27.026  24.579  1.00  0.00     0.048 A 
ATOM      9  C   UNL A   1      29.613  27.160  23.749  1.00  0.00     0.028 A 
ATOM     10  C   UNL A   1      29.527  28.149  22.751  1.00  0.00     0.027 A 
ATOM     11  C   UNL A   1      31.677  28.937  23.355  1.00  0.00     0.041 A 
ATOM     12  C   UNL A   1      30.515  29.116  22.622  1.00  0.00     0.032 A 
BRANCH   8  13
ATOM     13  N   UNL A   1      30.691  26.089  25.599  1.00  0.00    -0.378 N 
ATOM     14  H   UNL A   1      30.500  26.462  26.490  1.00  0.00     0.161 HD
BRANCH  13  15
ATOM     15  C   UNL A   1      30.871  24.629  25.571  1.00  0.00     0.106 C 
ATOM     16  C   UNL A   1      30.151  23.895  26.694  1.00  0.00     0.036 C 
BRANCH  15  17
ATOM     17  C   UNL A   1      32.295  24.276  25.134  1.00  0.00    -0.023 A 
ATOM     18  C   UNL A   1      36.655  22.577  23.116  1.00  0.00     0.047 C 
ATOM     19  C   UNL A   1      35.497  23.361  23.661  1.00  0.00    -0.015 A 
ATOM     20  C   UNL A   1      34.003  23.320  22.675  1.00  0.00     0.007 A 
ATOM     21  C   UNL A   1      35.394  23.840  25.412  1.00  0.00     0.126 A 
ATOM     22  C   UNL A   1      32.418  23.815  23.390  1.00  0.00     0.006 A 
ATOM     23  C   UNL A   1      33.803  24.318  26.149  1.00  0.00     0.045 A 
ATOM     24  F   UNL A   1      36.485  23.762  26.181  1.00  0.00    -0.207 F 
ENDBRANCH  15  17
ENDBRANCH  13  15
ENDBRANCH   8  13
BRANCH  12  25
ATOM     25  N   UNL A   1      30.452  30.099  21.649  1.00  0.00    -0.399 N 
ATOM     26  H   UNL A   1      31.222  30.692  21.499  1.00  0.00     0.156 HD
ATOM     27  H   UNL A   1      29.636  30.204  21.109  1.00  0.00     0.156 HD
ENDBRANCH  12  25
ENDBRANCH   4   7
ENDBRANCH   2   3
ENDBRANCH   1   2
BRANCH   1  28
ATOM     28  C   UNL A   1      33.629  31.927  28.142  1.00  0.00     0.023 C 
BRANCH  28  29
ATOM     29  C   UNL A   1      34.653  32.943  28.855  1.00  0.00     0.116 C 
BRANCH  29  30
ATOM     30  N   UNL A   1      34.281  33.352  30.225  1.00  0.00    -0.352 N 
ATOM     31  C   UNL A   1      34.743  32.821  31.405  1.00  0.00     0.251 C 
ATOM     32  H   UNL A   1      33.629  34.087  30.302  1.00  0.00     0.163 HD
ATOM     33  O   UNL A   1      34.047  32.705  32.401  1.00  0.00    -0.269 OA
BRANCH  31  34
ATOM     34  C   UNL A   1      36.185  32.574  31.431  1.00  0.00     0.039 A 
ATOM     35  C   UNL A   1      37.155  33.471  30.990  1.00  0.00     0.014 A 
ATOM     36  C   UNL A   1      36.533  31.288  31.828  1.00  0.00     0.014 A 
ATOM     37  C   UNL A   1      38.458  33.004  30.912  1.00  0.00     0.010 A 
ATOM     38  C   UNL A   1      37.787  31.019  32.174  1.00  0.00     0.010 A 
ATOM     39  C   UNL A   1      38.720  31.754  31.478  1.00  0.00    -0.014 A 
BRANCH  39  40
ATOM     40  C   UNL A   1      39.946  31.004  31.449  1.00  0.00     0.031 A 
ATOM     41  C   UNL A   1      39.815  29.803  30.631  1.00  0.00     0.074 A 
ATOM     42  C   UNL A   1      41.002  31.718  31.923  1.00  0.00     0.049 A 
ATOM     43  N   UNL A   1      40.155  28.609  30.963  1.00  0.00    -0.248 NA
ATOM     44  C   UNL A   1      39.036  29.834  29.374  1.00  0.00     0.031 C 
ATOM     45  C   UNL A   1      42.440  31.600  31.787  1.00  0.00     0.029 A 
ATOM     46  N   UNL A   1      40.879  32.848  32.770  1.00  0.00    -0.354 N 
ATOM     47  C   UNL A   1      40.192  27.945  29.754  1.00  0.00     0.074 A 
ATOM     48  C   UNL A   1      39.190  28.582  28.939  1.00  0.00     0.031 C 
ATOM     49  C   UNL A   1      43.026  32.269  32.807  1.00  0.00     0.029 A 
ATOM     50  C   UNL A   1      41.974  32.833  33.643  1.00  0.00     0.049 A 
ATOM     51  H   UNL A   1      40.159  33.518  32.748  1.00  0.00     0.167 HD
ATOM     52  C   UNL A   1      41.370  27.359  29.380  1.00  0.00     0.037 A 
ATOM     53  C   UNL A   1      41.696  32.534  34.948  1.00  0.00     0.037 A 
ATOM     54  C   UNL A   1      42.412  27.706  30.357  1.00  0.00     0.049 A 
ATOM     55  C   UNL A   1      42.070  31.095  35.193  1.00  0.00     0.074 A 
ATOM     56  C   UNL A   1      43.478  28.590  30.326  1.00  0.00     0.029 A 
ATOM     57  N   UNL A   1      42.199  27.409  31.697  1.00  0.00    -0.354 N 
ATOM     58  N   UNL A   1      42.072  30.179  34.260  1.00  0.00    -0.248 NA
ATOM     59  C   UNL A   1      42.615  30.619  36.456  1.00  0.00     0.031 C 
ATOM     60  C   UNL A   1      43.886  28.831  31.672  1.00  0.00     0.029 A 
ATOM     61  C   UNL A   1      43.024  28.151  32.517  1.00  0.00     0.049 A 
ATOM     62  H   UNL A   1      41.543  26.751  32.022  1.00  0.00     0.167 HD
ATOM     63  C   UNL A   1      42.692  29.057  34.731  1.00  0.00     0.074 A 
ATOM     64  C   UNL A   1      42.989  29.373  36.119  1.00  0.00     0.031 C 
ATOM     65  C   UNL A   1      42.950  27.963  33.958  1.00  0.00     0.037 A 
BRANCH  52  66
ATOM     66  C   UNL A   1      41.676  26.742  28.035  1.00  0.00     0.064 A 
ATOM     67  C   UNL A   1      41.986  27.568  26.933  1.00  0.00     0.173 A 
ATOM     68  C   UNL A   1      41.782  25.359  27.779  1.00  0.00     0.173 A 
ATOM     69  F   UNL A   1      41.992  28.905  27.039  1.00  0.00    -0.203 F 
ATOM     70  C   UNL A   1      42.343  27.059  25.683  1.00  0.00     0.198 A 
ATOM     71  C   UNL A   1      42.110  24.848  26.517  1.00  0.00     0.198 A 
ATOM     72  F   UNL A   1      41.644  24.446  28.745  1.00  0.00    -0.203 F 
ATOM     73  F   UNL A   1      42.655  27.903  24.691  1.00  0.00    -0.200 F 
ATOM     74  C   UNL A   1      42.400  25.699  25.472  1.00  0.00     0.200 A 
ATOM     75  F   UNL A   1      42.175  23.521  26.336  1.00  0.00    -0.200 F 
ATOM     76  F   UNL A   1      42.764  25.210  24.280  1.00  0.00    -0.200 F 
ENDBRANCH  52  66
BRANCH  53  77
ATOM     77  C   UNL A   1      40.454  33.265  35.389  1.00  0.00     0.064 A 
ATOM     78  C   UNL A   1      39.340  32.441  35.686  1.00  0.00     0.173 A 
ATOM     79  C   UNL A   1      40.480  34.531  35.992  1.00  0.00     0.173 A 
ATOM     80  F   UNL A   1      39.233  31.232  35.110  1.00  0.00    -0.203 F 
ATOM     81  C   UNL A   1      38.446  32.761  36.705  1.00  0.00     0.198 A 
ATOM     82  C   UNL A   1      39.535  34.876  36.970  1.00  0.00     0.198 A 
ATOM     83  F   UNL A   1      41.478  35.386  35.733  1.00  0.00    -0.203 F 
ATOM     84  F   UNL A   1      37.543  31.857  37.112  1.00  0.00    -0.200 F 
ATOM     85  C   UNL A   1      38.567  33.965  37.371  1.00  0.00     0.200 A 
ATOM     86  F   UNL A   1      39.617  36.062  37.591  1.00  0.00    -0.200 F 
ATOM     87  F   UNL A   1      37.777  34.217  38.426  1.00  0.00    -0.200 F 
ENDBRANCH  53  77
BRANCH  65  88
ATOM     88  C   UNL A   1      43.193  26.578  34.499  1.00  0.00     0.064 A 
ATOM     89  C   UNL A   1      42.166  25.749  34.972  1.00  0.00     0.173 A 
ATOM     90  C   UNL A   1      44.461  25.962  34.360  1.00  0.00     0.173 A 
ATOM     91  F   UNL A   1      40.890  26.156  35.012  1.00  0.00    -0.203 F 
ATOM     92  C   UNL A   1      42.406  24.434  35.362  1.00  0.00     0.198 A 
ATOM     93  C   UNL A   1      44.671  24.619  34.647  1.00  0.00     0.198 A 
ATOM     94  F   UNL A   1      45.531  26.630  33.901  1.00  0.00    -0.203 F 
ATOM     95  F   UNL A   1      41.408  23.709  35.884  1.00  0.00    -0.200 F 
ATOM     96  C   UNL A   1      43.651  23.862  35.179  1.00  0.00     0.200 A 
ATOM     97  F   UNL A   1      45.861  24.062  34.380  1.00  0.00    -0.200 F 
ATOM     98  F   UNL A   1      43.862  22.580  35.498  1.00  0.00    -0.200 F 
ENDBRANCH  65  88
ENDBRANCH  39  40
ENDBRANCH  31  34
ENDBRANCH  29  30
ENDBRANCH  28  29
ENDBRANCH   1  28
TORSDOF 15
ENDMDL
