MODEL 1
REMARK VINA RESULT:     -12.4      0.000      0.000
REMARK SMILES Cc1nc(N2CCN(c3ccccc3)CC2)nc(OCC(=O)NCCCCNC(=O)c2ccc(-c3c4nc(c(-c5c(F)c(F)c(F)c(F)c5F)c5ccc([nH]5)c(-c5c(F)c(F)c(F)c(F)c5F)c5nc(c(-c6c(F)c(F)c(F)c(F)c6F)c6ccc3[nH]6)C=C5)C=C4)cc2)c1C
REMARK SMILES IDX 24 1 23 2 21 3 22 4 20 6 19 7 18 8 1 9 2 10 3 11 94 12 4 13
REMARK SMILES IDX 95 14 17 15 5 16 6 17 16 18 7 19 15 20 8 21 9 22 10 23 14 24
REMARK SMILES IDX 11 25 13 26 12 27 25 28 26 29 27 30 28 31 29 32 30 34 31 35
REMARK SMILES IDX 32 36 93 37 33 38 92 39 34 40 35 41 36 42 86 43 37 44 91 45
REMARK SMILES IDX 85 46 87 47 38 48 90 49 84 50 83 51 39 53 71 54 51 55 70 56
REMARK SMILES IDX 52 57 55 58 69 59 88 60 53 61 54 62 68 64 89 65 56 66 40 67
REMARK SMILES IDX 41 68 49 69 42 70 43 71 47 72 50 73 44 74 45 75 48 76 46 77
REMARK SMILES IDX 72 78 73 79 81 80 74 81 75 82 79 83 82 84 76 85 77 86 80 87
REMARK SMILES IDX 78 88 57 89 58 90 66 91 59 92 60 93 64 94 67 95 61 96 62 97
REMARK SMILES IDX 65 98 63 99
REMARK H PARENT 23 5 28 33 87 52 55 63
REMARK Flexibility Score: inf
ROOT
ATOM      1  C   UNL A   1      34.502  30.019  27.431  1.00  0.00     0.116 C 
ENDROOT
BRANCH   1   2
ATOM      2  N   UNL A   1      33.364  29.197  27.787  1.00  0.00    -0.353 N 
ATOM      3  C   UNL A   1      32.755  28.221  27.058  1.00  0.00     0.258 C 
ATOM      4  O   UNL A   1      31.894  27.535  27.615  1.00  0.00    -0.271 OA
ATOM      5  H   UNL A   1      32.979  29.366  28.676  1.00  0.00     0.163 HD
BRANCH   3   6
ATOM      6  C   UNL A   1      33.184  27.941  25.615  1.00  0.00     0.331 C 
BRANCH   6   7
ATOM      7  O   UNL A   1      33.789  26.731  25.243  1.00  0.00    -0.467 OA
BRANCH   7   8
ATOM      8  C   UNL A   1      33.476  26.013  24.140  1.00  0.00     0.221 A 
ATOM      9  C   UNL A   1      32.569  25.671  20.509  1.00  0.00     0.067 C 
ATOM     10  C   UNL A   1      32.935  25.406  21.945  1.00  0.00     0.050 A 
ATOM     11  N   UNL A   1      33.029  24.099  22.264  1.00  0.00    -0.218 NA
ATOM     12  C   UNL A   1      33.142  26.439  22.865  1.00  0.00     0.033 A 
ATOM     13  C   UNL A   1      33.271  23.786  23.535  1.00  0.00     0.229 A 
ATOM     14  C   UNL A   1      33.026  27.858  22.411  1.00  0.00     0.052 C 
ATOM     15  N   UNL A   1      33.483  24.709  24.475  1.00  0.00    -0.177 NA
BRANCH  13  16
ATOM     16  N   UNL A   1      33.369  22.470  23.912  1.00  0.00    -0.337 N 
ATOM     17  C   UNL A   1      34.684  21.930  24.251  1.00  0.00     0.141 C 
ATOM     18  C   UNL A   1      32.455  21.539  23.240  1.00  0.00     0.141 C 
ATOM     19  C   UNL A   1      34.502  20.673  25.133  1.00  0.00     0.138 C 
ATOM     20  C   UNL A   1      32.308  20.230  24.050  1.00  0.00     0.138 C 
ATOM     21  N   UNL A   1      33.630  19.704  24.449  1.00  0.00    -0.368 N 
BRANCH  21  22
ATOM     22  C   UNL A   1      33.718  18.358  24.757  1.00  0.00     0.037 A 
ATOM     23  C   UNL A   1      34.838  17.577  24.449  1.00  0.00     0.026 A 
ATOM     24  C   UNL A   1      32.631  17.730  25.378  1.00  0.00     0.026 A 
ATOM     25  C   UNL A   1      34.864  16.209  24.741  1.00  0.00     0.002 A 
ATOM     26  C   UNL A   1      32.643  16.361  25.656  1.00  0.00     0.002 A 
ATOM     27  C   UNL A   1      33.762  15.599  25.335  1.00  0.00     0.000 A 
ENDBRANCH  21  22
ENDBRANCH  13  16
ENDBRANCH   7   8
ENDBRANCH   6   7
ENDBRANCH   3   6
ENDBRANCH   1   2
BRANCH   1  28
ATOM     28  C   UNL A   1      34.471  31.391  28.098  1.00  0.00     0.023 C 
BRANCH  28  29
ATOM     29  C   UNL A   1      33.157  32.167  27.964  1.00  0.00     0.023 C 
BRANCH  29  30
ATOM     30  C   UNL A   1      33.236  33.514  27.251  1.00  0.00     0.116 C 
BRANCH  30  31
ATOM     31  N   UNL A   1      32.708  34.617  28.036  1.00  0.00    -0.352 N 
ATOM     32  C   UNL A   1      33.126  35.112  29.249  1.00  0.00     0.251 C 
ATOM     33  H   UNL A   1      31.936  35.080  27.639  1.00  0.00     0.163 HD
ATOM     34  O   UNL A   1      32.492  36.002  29.800  1.00  0.00    -0.269 OA
BRANCH  32  35
ATOM     35  C   UNL A   1      34.321  34.546  29.915  1.00  0.00     0.039 A 
ATOM     36  C   UNL A   1      34.145  33.827  31.101  1.00  0.00     0.014 A 
ATOM     37  C   UNL A   1      35.602  34.716  29.385  1.00  0.00     0.014 A 
ATOM     38  C   UNL A   1      35.242  33.220  31.716  1.00  0.00     0.010 A 
ATOM     39  C   UNL A   1      36.686  34.056  29.960  1.00  0.00     0.010 A 
ATOM     40  C   UNL A   1      36.515  33.298  31.130  1.00  0.00    -0.014 A 
BRANCH  40  41
ATOM     41  C   UNL A   1      37.677  32.596  31.731  1.00  0.00     0.031 A 
ATOM     42  C   UNL A   1      38.311  31.437  31.017  1.00  0.00     0.074 A 
ATOM     43  C   UNL A   1      38.140  32.980  32.936  1.00  0.00     0.049 A 
ATOM     44  N   UNL A   1      39.304  30.672  31.398  1.00  0.00    -0.248 NA
ATOM     45  C   UNL A   1      37.744  31.077  29.708  1.00  0.00     0.031 C 
ATOM     46  C   UNL A   1      37.597  34.076  33.738  1.00  0.00     0.029 A 
ATOM     47  N   UNL A   1      39.175  32.494  33.695  1.00  0.00    -0.354 N 
ATOM     48  C   UNL A   1      39.481  29.748  30.378  1.00  0.00     0.074 A 
ATOM     49  C   UNL A   1      38.455  30.005  29.389  1.00  0.00     0.031 C 
ATOM     50  C   UNL A   1      38.328  34.205  34.858  1.00  0.00     0.029 A 
ATOM     51  C   UNL A   1      39.364  33.177  34.871  1.00  0.00     0.049 A 
ATOM     52  H   UNL A   1      39.730  31.727  33.423  1.00  0.00     0.167 HD
ATOM     53  C   UNL A   1      40.432  28.792  30.259  1.00  0.00     0.037 A 
ATOM     54  C   UNL A   1      40.274  32.997  35.849  1.00  0.00     0.037 A 
ATOM     55  C   UNL A   1      41.458  28.542  31.236  1.00  0.00     0.049 A 
ATOM     56  C   UNL A   1      41.286  31.891  35.720  1.00  0.00     0.074 A 
ATOM     57  C   UNL A   1      42.478  27.607  31.197  1.00  0.00     0.029 A 
ATOM     58  N   UNL A   1      41.596  29.235  32.430  1.00  0.00    -0.354 N 
ATOM     59  N   UNL A   1      41.462  31.044  34.735  1.00  0.00    -0.248 NA
ATOM     60  C   UNL A   1      42.222  31.715  36.839  1.00  0.00     0.031 C 
ATOM     61  C   UNL A   1      43.209  27.709  32.384  1.00  0.00     0.029 A 
ATOM     62  C   UNL A   1      42.674  28.736  33.144  1.00  0.00     0.049 A 
ATOM     63  H   UNL A   1      41.014  29.971  32.727  1.00  0.00     0.167 HD
ATOM     64  C   UNL A   1      42.541  30.252  35.103  1.00  0.00     0.074 A 
ATOM     65  C   UNL A   1      42.989  30.727  36.396  1.00  0.00     0.031 C 
ATOM     66  C   UNL A   1      43.109  29.222  34.428  1.00  0.00     0.037 A 
BRANCH  53  67
ATOM     67  C   UNL A   1      40.418  27.954  29.014  1.00  0.00     0.064 A 
ATOM     68  C   UNL A   1      41.170  28.313  27.885  1.00  0.00     0.173 A 
ATOM     69  C   UNL A   1      39.681  26.761  28.959  1.00  0.00     0.173 A 
ATOM     70  F   UNL A   1      41.882  29.451  27.883  1.00  0.00    -0.203 F 
ATOM     71  C   UNL A   1      41.166  27.524  26.739  1.00  0.00     0.198 A 
ATOM     72  C   UNL A   1      39.702  25.959  27.821  1.00  0.00     0.198 A 
ATOM     73  F   UNL A   1      38.949  26.368  30.013  1.00  0.00    -0.203 F 
ATOM     74  F   UNL A   1      41.856  27.910  25.658  1.00  0.00    -0.200 F 
ATOM     75  C   UNL A   1      40.439  26.343  26.711  1.00  0.00     0.200 A 
ATOM     76  F   UNL A   1      39.009  24.811  27.799  1.00  0.00    -0.200 F 
ATOM     77  F   UNL A   1      40.442  25.580  25.610  1.00  0.00    -0.200 F 
ENDBRANCH  53  67
BRANCH  54  78
ATOM     78  C   UNL A   1      40.296  33.918  37.014  1.00  0.00     0.064 A 
ATOM     79  C   UNL A   1      41.110  35.060  37.002  1.00  0.00     0.173 A 
ATOM     80  C   UNL A   1      39.497  33.696  38.144  1.00  0.00     0.173 A 
ATOM     81  F   UNL A   1      41.908  35.301  35.952  1.00  0.00    -0.203 F 
ATOM     82  C   UNL A   1      41.128  35.941  38.080  1.00  0.00     0.198 A 
ATOM     83  C   UNL A   1      39.499  34.593  39.212  1.00  0.00     0.198 A 
ATOM     84  F   UNL A   1      38.700  32.619  38.203  1.00  0.00    -0.203 F 
ATOM     85  F   UNL A   1      41.937  37.009  38.056  1.00  0.00    -0.200 F 
ATOM     86  C   UNL A   1      40.316  35.712  39.180  1.00  0.00     0.200 A 
ATOM     87  F   UNL A   1      38.703  34.374  40.268  1.00  0.00    -0.200 F 
ATOM     88  F   UNL A   1      40.326  36.567  40.212  1.00  0.00    -0.200 F 
ENDBRANCH  54  78
BRANCH  66  89
ATOM     89  C   UNL A   1      44.290  28.545  35.059  1.00  0.00     0.064 A 
ATOM     90  C   UNL A   1      45.595  29.015  34.861  1.00  0.00     0.173 A 
ATOM     91  C   UNL A   1      44.105  27.461  35.933  1.00  0.00     0.173 A 
ATOM     92  F   UNL A   1      45.824  30.038  34.025  1.00  0.00    -0.203 F 
ATOM     93  C   UNL A   1      46.676  28.418  35.506  1.00  0.00     0.198 A 
ATOM     94  C   UNL A   1      45.184  26.885  36.596  1.00  0.00     0.198 A 
ATOM     95  F   UNL A   1      42.875  26.979  36.161  1.00  0.00    -0.203 F 
ATOM     96  F   UNL A   1      47.919  28.864  35.278  1.00  0.00    -0.200 F 
ATOM     97  C   UNL A   1      46.469  27.361  36.379  1.00  0.00     0.200 A 
ATOM     98  F   UNL A   1      44.981  25.874  37.451  1.00  0.00    -0.200 F 
ATOM     99  F   UNL A   1      47.508  26.800  37.013  1.00  0.00    -0.200 F 
ENDBRANCH  66  89
ENDBRANCH  40  41
ENDBRANCH  32  35
ENDBRANCH  30  31
ENDBRANCH  29  30
ENDBRANCH  28  29
ENDBRANCH   1  28
TORSDOF 15
ENDMDL
MODEL 2
REMARK VINA RESULT:     -12.2      4.934     11.214
REMARK SMILES Cc1nc(N2CCN(c3ccccc3)CC2)nc(OCC(=O)NCCCCNC(=O)c2ccc(-c3c4nc(c(-c5c(F)c(F)c(F)c(F)c5F)c5ccc([nH]5)c(-c5c(F)c(F)c(F)c(F)c5F)c5nc(c(-c6c(F)c(F)c(F)c(F)c6F)c6ccc3[nH]6)C=C5)C=C4)cc2)c1C
REMARK SMILES IDX 24 1 23 2 21 3 22 4 20 6 19 7 18 8 1 9 2 10 3 11 94 12 4 13
REMARK SMILES IDX 95 14 17 15 5 16 6 17 16 18 7 19 15 20 8 21 9 22 10 23 14 24
REMARK SMILES IDX 11 25 13 26 12 27 25 28 26 29 27 30 28 31 29 32 30 34 31 35
REMARK SMILES IDX 32 36 93 37 33 38 92 39 34 40 35 41 36 42 86 43 37 44 91 45
REMARK SMILES IDX 85 46 87 47 38 48 90 49 84 50 83 51 39 53 71 54 51 55 70 56
REMARK SMILES IDX 52 57 55 58 69 59 88 60 53 61 54 62 68 64 89 65 56 66 40 67
REMARK SMILES IDX 41 68 49 69 42 70 43 71 47 72 50 73 44 74 45 75 48 76 46 77
REMARK SMILES IDX 72 78 73 79 81 80 74 81 75 82 79 83 82 84 76 85 77 86 80 87
REMARK SMILES IDX 78 88 57 89 58 90 66 91 59 92 60 93 64 94 67 95 61 96 62 97
REMARK SMILES IDX 65 98 63 99
REMARK H PARENT 23 5 28 33 87 52 55 63
REMARK Flexibility Score: inf
ROOT
ATOM      1  C   UNL A   1      34.985  33.873  31.966  1.00  0.00     0.116 C 
ENDROOT
BRANCH   1   2
ATOM      2  N   UNL A   1      36.331  34.404  32.013  1.00  0.00    -0.353 N 
ATOM      3  C   UNL A   1      37.495  33.756  32.293  1.00  0.00     0.258 C 
ATOM      4  O   UNL A   1      38.553  34.369  32.125  1.00  0.00    -0.271 OA
ATOM      5  H   UNL A   1      36.416  35.365  31.816  1.00  0.00     0.163 HD
BRANCH   3   6
ATOM      6  C   UNL A   1      37.487  32.289  32.729  1.00  0.00     0.331 C 
BRANCH   6   7
ATOM      7  O   UNL A   1      37.396  31.917  34.079  1.00  0.00    -0.467 OA
BRANCH   7   8
ATOM      8  C   UNL A   1      38.434  31.872  34.945  1.00  0.00     0.221 A 
ATOM      9  C   UNL A   1      40.502  33.234  37.771  1.00  0.00     0.067 C 
ATOM     10  C   UNL A   1      39.929  32.380  36.672  1.00  0.00     0.050 A 
ATOM     11  N   UNL A   1      40.573  31.209  36.484  1.00  0.00    -0.218 NA
ATOM     12  C   UNL A   1      38.830  32.784  35.909  1.00  0.00     0.033 A 
ATOM     13  C   UNL A   1      40.173  30.436  35.477  1.00  0.00     0.229 A 
ATOM     14  C   UNL A   1      38.177  34.096  36.203  1.00  0.00     0.052 C 
ATOM     15  N   UNL A   1      39.132  30.746  34.702  1.00  0.00    -0.177 NA
BRANCH  13  16
ATOM     16  N   UNL A   1      40.800  29.239  35.239  1.00  0.00    -0.337 N 
ATOM     17  C   UNL A   1      41.736  28.723  36.235  1.00  0.00     0.141 C 
ATOM     18  C   UNL A   1      41.145  28.961  33.840  1.00  0.00     0.141 C 
ATOM     19  C   UNL A   1      41.888  27.196  36.045  1.00  0.00     0.138 C 
ATOM     20  C   UNL A   1      41.387  27.449  33.623  1.00  0.00     0.138 C 
ATOM     21  N   UNL A   1      42.287  26.903  34.659  1.00  0.00    -0.368 N 
BRANCH  21  22
ATOM     22  C   UNL A   1      42.963  25.730  34.368  1.00  0.00     0.037 A 
ATOM     23  C   UNL A   1      43.910  25.630  33.343  1.00  0.00     0.026 A 
ATOM     24  C   UNL A   1      42.672  24.577  35.109  1.00  0.00     0.026 A 
ATOM     25  C   UNL A   1      44.535  24.411  33.058  1.00  0.00     0.002 A 
ATOM     26  C   UNL A   1      43.279  23.353  34.817  1.00  0.00     0.002 A 
ATOM     27  C   UNL A   1      44.212  23.271  33.788  1.00  0.00     0.000 A 
ENDBRANCH  21  22
ENDBRANCH  13  16
ENDBRANCH   7   8
ENDBRANCH   6   7
ENDBRANCH   3   6
ENDBRANCH   1   2
BRANCH   1  28
ATOM     28  C   UNL A   1      34.662  33.199  30.635  1.00  0.00     0.023 C 
BRANCH  28  29
ATOM     29  C   UNL A   1      35.061  33.980  29.379  1.00  0.00     0.023 C 
BRANCH  29  30
ATOM     30  C   UNL A   1      35.330  33.153  28.125  1.00  0.00     0.116 C 
BRANCH  30  31
ATOM     31  N   UNL A   1      34.397  32.054  27.943  1.00  0.00    -0.352 N 
ATOM     32  C   UNL A   1      34.620  30.697  27.971  1.00  0.00     0.251 C 
ATOM     33  H   UNL A   1      33.465  32.322  27.775  1.00  0.00     0.163 HD
ATOM     34  O   UNL A   1      33.712  29.921  27.704  1.00  0.00    -0.269 OA
BRANCH  32  35
ATOM     35  C   UNL A   1      35.967  30.168  28.284  1.00  0.00     0.039 A 
ATOM     36  C   UNL A   1      36.903  30.077  27.250  1.00  0.00     0.014 A 
ATOM     37  C   UNL A   1      36.310  29.764  29.577  1.00  0.00     0.014 A 
ATOM     38  C   UNL A   1      38.204  29.649  27.526  1.00  0.00     0.010 A 
ATOM     39  C   UNL A   1      37.625  29.402  29.864  1.00  0.00     0.010 A 
ATOM     40  C   UNL A   1      38.585  29.344  28.842  1.00  0.00    -0.014 A 
BRANCH  40  41
ATOM     41  C   UNL A   1      39.983  28.960  29.163  1.00  0.00     0.031 A 
ATOM     42  C   UNL A   1      40.844  29.867  29.995  1.00  0.00     0.074 A 
ATOM     43  C   UNL A   1      40.489  27.811  28.676  1.00  0.00     0.049 A 
ATOM     44  N   UNL A   1      42.097  29.726  30.347  1.00  0.00    -0.248 NA
ATOM     45  C   UNL A   1      40.217  31.104  30.485  1.00  0.00     0.031 C 
ATOM     46  C   UNL A   1      39.762  26.857  27.839  1.00  0.00     0.029 A 
ATOM     47  N   UNL A   1      41.733  27.248  28.818  1.00  0.00    -0.354 N 
ATOM     48  C   UNL A   1      42.406  30.851  31.098  1.00  0.00     0.074 A 
ATOM     49  C   UNL A   1      41.231  31.696  31.101  1.00  0.00     0.031 C 
ATOM     50  C   UNL A   1      40.559  25.808  27.574  1.00  0.00     0.029 A 
ATOM     51  C   UNL A   1      41.864  26.035  28.188  1.00  0.00     0.049 A 
ATOM     52  H   UNL A   1      42.464  27.674  29.323  1.00  0.00     0.167 HD
ATOM     53  C   UNL A   1      43.555  31.140  31.754  1.00  0.00     0.037 A 
ATOM     54  C   UNL A   1      42.916  25.196  28.119  1.00  0.00     0.037 A 
ATOM     55  C   UNL A   1      44.721  30.297  31.759  1.00  0.00     0.049 A 
ATOM     56  C   UNL A   1      44.200  25.566  28.809  1.00  0.00     0.074 A 
ATOM     57  C   UNL A   1      45.926  30.495  32.409  1.00  0.00     0.029 A 
ATOM     58  N   UNL A   1      44.825  29.090  31.082  1.00  0.00    -0.354 N 
ATOM     59  N   UNL A   1      44.471  26.619  29.543  1.00  0.00    -0.248 NA
ATOM     60  C   UNL A   1      45.327  24.634  28.659  1.00  0.00     0.031 C 
ATOM     61  C   UNL A   1      46.773  29.428  32.094  1.00  0.00     0.029 A 
ATOM     62  C   UNL A   1      46.081  28.542  31.285  1.00  0.00     0.049 A 
ATOM     63  H   UNL A   1      44.112  28.684  30.539  1.00  0.00     0.167 HD
ATOM     64  C   UNL A   1      45.785  26.465  29.962  1.00  0.00     0.074 A 
ATOM     65  C   UNL A   1      46.256  25.211  29.410  1.00  0.00     0.031 C 
ATOM     66  C   UNL A   1      46.534  27.290  30.733  1.00  0.00     0.037 A 
BRANCH  53  67
ATOM     67  C   UNL A   1      43.600  32.419  32.538  1.00  0.00     0.064 A 
ATOM     68  C   UNL A   1      43.418  32.426  33.930  1.00  0.00     0.173 A 
ATOM     69  C   UNL A   1      43.868  33.642  31.904  1.00  0.00     0.173 A 
ATOM     70  F   UNL A   1      43.147  31.285  34.581  1.00  0.00    -0.203 F 
ATOM     71  C   UNL A   1      43.477  33.613  34.655  1.00  0.00     0.198 A 
ATOM     72  C   UNL A   1      43.955  34.823  32.637  1.00  0.00     0.198 A 
ATOM     73  F   UNL A   1      44.055  33.690  30.577  1.00  0.00    -0.203 F 
ATOM     74  F   UNL A   1      43.256  33.602  35.976  1.00  0.00    -0.200 F 
ATOM     75  C   UNL A   1      43.754  34.809  34.009  1.00  0.00     0.200 A 
ATOM     76  F   UNL A   1      44.234  35.977  32.014  1.00  0.00    -0.200 F 
ATOM     77  F   UNL A   1      43.819  35.949  34.709  1.00  0.00    -0.200 F 
ENDBRANCH  53  67
BRANCH  54  78
ATOM     78  C   UNL A   1      42.781  23.901  27.405  1.00  0.00     0.064 A 
ATOM     79  C   UNL A   1      43.166  23.785  26.062  1.00  0.00     0.173 A 
ATOM     80  C   UNL A   1      42.289  22.754  28.045  1.00  0.00     0.173 A 
ATOM     81  F   UNL A   1      43.621  24.861  25.402  1.00  0.00    -0.203 F 
ATOM     82  C   UNL A   1      43.061  22.573  25.385  1.00  0.00     0.198 A 
ATOM     83  C   UNL A   1      42.207  21.536  27.372  1.00  0.00     0.198 A 
ATOM     84  F   UNL A   1      41.909  22.812  29.330  1.00  0.00    -0.203 F 
ATOM     85  F   UNL A   1      43.410  22.497  24.093  1.00  0.00    -0.200 F 
ATOM     86  C   UNL A   1      42.590  21.447  26.043  1.00  0.00     0.200 A 
ATOM     87  F   UNL A   1      41.763  20.447  28.016  1.00  0.00    -0.200 F 
ATOM     88  F   UNL A   1      42.500  20.278  25.394  1.00  0.00    -0.200 F 
ENDBRANCH  54  78
BRANCH  66  89
ATOM     89  C   UNL A   1      47.937  26.864  31.048  1.00  0.00     0.064 A 
ATOM     90  C   UNL A   1      48.230  26.093  32.181  1.00  0.00     0.173 A 
ATOM     91  C   UNL A   1      48.987  27.165  30.167  1.00  0.00     0.173 A 
ATOM     92  F   UNL A   1      47.264  25.791  33.061  1.00  0.00    -0.203 F 
ATOM     93  C   UNL A   1      49.526  25.647  32.427  1.00  0.00     0.198 A 
ATOM     94  C   UNL A   1      50.276  26.695  30.401  1.00  0.00     0.198 A 
ATOM     95  F   UNL A   1      48.757  27.894  29.064  1.00  0.00    -0.203 F 
ATOM     96  F   UNL A   1      49.791  24.936  33.533  1.00  0.00    -0.200 F 
ATOM     97  C   UNL A   1      50.545  25.940  31.532  1.00  0.00     0.200 A 
ATOM     98  F   UNL A   1      51.256  26.966  29.528  1.00  0.00    -0.200 F 
ATOM     99  F   UNL A   1      51.789  25.495  31.761  1.00  0.00    -0.200 F 
ENDBRANCH  66  89
ENDBRANCH  40  41
ENDBRANCH  32  35
ENDBRANCH  30  31
ENDBRANCH  29  30
ENDBRANCH  28  29
ENDBRANCH   1  28
TORSDOF 15
ENDMDL
MODEL 3
REMARK VINA RESULT:     -12.1      4.936      9.011
REMARK SMILES Cc1nc(N2CCN(c3ccccc3)CC2)nc(OCC(=O)NCCCCNC(=O)c2ccc(-c3c4nc(c(-c5c(F)c(F)c(F)c(F)c5F)c5ccc([nH]5)c(-c5c(F)c(F)c(F)c(F)c5F)c5nc(c(-c6c(F)c(F)c(F)c(F)c6F)c6ccc3[nH]6)C=C5)C=C4)cc2)c1C
REMARK SMILES IDX 24 1 23 2 21 3 22 4 20 6 19 7 18 8 1 9 2 10 3 11 94 12 4 13
REMARK SMILES IDX 95 14 17 15 5 16 6 17 16 18 7 19 15 20 8 21 9 22 10 23 14 24
REMARK SMILES IDX 11 25 13 26 12 27 25 28 26 29 27 30 28 31 29 32 30 34 31 35
REMARK SMILES IDX 32 36 93 37 33 38 92 39 34 40 35 41 36 42 86 43 37 44 91 45
REMARK SMILES IDX 85 46 87 47 38 48 90 49 84 50 83 51 39 53 71 54 51 55 70 56
REMARK SMILES IDX 52 57 55 58 69 59 88 60 53 61 54 62 68 64 89 65 56 66 40 67
REMARK SMILES IDX 41 68 49 69 42 70 43 71 47 72 50 73 44 74 45 75 48 76 46 77
REMARK SMILES IDX 72 78 73 79 81 80 74 81 75 82 79 83 82 84 76 85 77 86 80 87
REMARK SMILES IDX 78 88 57 89 58 90 66 91 59 92 60 93 64 94 67 95 61 96 62 97
REMARK SMILES IDX 65 98 63 99
REMARK H PARENT 23 5 28 33 87 52 55 63
REMARK Flexibility Score: inf
ROOT
ATOM      1  C   UNL A   1      35.044  32.994  32.266  1.00  0.00     0.116 C 
ENDROOT
BRANCH   1   2
ATOM      2  N   UNL A   1      36.342  33.626  32.384  1.00  0.00    -0.353 N 
ATOM      3  C   UNL A   1      37.552  33.050  32.625  1.00  0.00     0.258 C 
ATOM      4  O   UNL A   1      38.558  33.758  32.530  1.00  0.00    -0.271 OA
ATOM      5  H   UNL A   1      36.350  34.604  32.274  1.00  0.00     0.163 HD
BRANCH   3   6
ATOM      6  C   UNL A   1      37.659  31.553  32.929  1.00  0.00     0.331 C 
BRANCH   6   7
ATOM      7  O   UNL A   1      37.729  31.066  34.243  1.00  0.00    -0.467 OA
BRANCH   7   8
ATOM      8  C   UNL A   1      38.819  31.139  35.041  1.00  0.00     0.221 A 
ATOM      9  C   UNL A   1      40.887  32.718  37.753  1.00  0.00     0.067 C 
ATOM     10  C   UNL A   1      40.350  31.809  36.680  1.00  0.00     0.050 A 
ATOM     11  N   UNL A   1      41.114  30.725  36.435  1.00  0.00    -0.218 NA
ATOM     12  C   UNL A   1      39.164  32.086  35.992  1.00  0.00     0.033 A 
ATOM     13  C   UNL A   1      40.744  29.917  35.444  1.00  0.00     0.229 A 
ATOM     14  C   UNL A   1      38.382  33.309  36.345  1.00  0.00     0.052 C 
ATOM     15  N   UNL A   1      39.628  30.106  34.739  1.00  0.00    -0.177 NA
BRANCH  13  16
ATOM     16  N   UNL A   1      41.492  28.803  35.150  1.00  0.00    -0.337 N 
ATOM     17  C   UNL A   1      41.462  28.273  33.788  1.00  0.00     0.141 C 
ATOM     18  C   UNL A   1      41.603  27.804  36.218  1.00  0.00     0.141 C 
ATOM     19  C   UNL A   1      42.727  27.416  33.551  1.00  0.00     0.138 C 
ATOM     20  C   UNL A   1      42.812  26.870  35.975  1.00  0.00     0.138 C 
ATOM     21  N   UNL A   1      42.825  26.373  34.584  1.00  0.00    -0.368 N 
BRANCH  21  22
ATOM     22  C   UNL A   1      43.528  25.209  34.326  1.00  0.00     0.037 A 
ATOM     23  C   UNL A   1      44.206  24.978  33.123  1.00  0.00     0.026 A 
ATOM     24  C   UNL A   1      43.547  24.196  35.294  1.00  0.00     0.026 A 
ATOM     25  C   UNL A   1      44.867  23.768  32.890  1.00  0.00     0.002 A 
ATOM     26  C   UNL A   1      44.190  22.979  35.061  1.00  0.00     0.002 A 
ATOM     27  C   UNL A   1      44.850  22.764  33.855  1.00  0.00     0.000 A 
ENDBRANCH  21  22
ENDBRANCH  13  16
ENDBRANCH   7   8
ENDBRANCH   6   7
ENDBRANCH   3   6
ENDBRANCH   1   2
BRANCH   1  28
ATOM     28  C   UNL A   1      34.788  32.423  30.874  1.00  0.00     0.023 C 
BRANCH  28  29
ATOM     29  C   UNL A   1      34.871  33.425  29.718  1.00  0.00     0.023 C 
BRANCH  29  30
ATOM     30  C   UNL A   1      35.193  32.847  28.343  1.00  0.00     0.116 C 
BRANCH  30  31
ATOM     31  N   UNL A   1      34.373  31.702  27.988  1.00  0.00    -0.352 N 
ATOM     32  C   UNL A   1      34.713  30.372  27.889  1.00  0.00     0.251 C 
ATOM     33  H   UNL A   1      33.432  31.909  27.788  1.00  0.00     0.163 HD
ATOM     34  O   UNL A   1      33.893  29.558  27.486  1.00  0.00    -0.269 OA
BRANCH  32  35
ATOM     35  C   UNL A   1      36.081  29.924  28.233  1.00  0.00     0.039 A 
ATOM     36  C   UNL A   1      37.091  30.077  27.278  1.00  0.00     0.014 A 
ATOM     37  C   UNL A   1      36.374  29.359  29.477  1.00  0.00     0.014 A 
ATOM     38  C   UNL A   1      38.406  29.730  27.596  1.00  0.00     0.010 A 
ATOM     39  C   UNL A   1      37.696  29.076  29.817  1.00  0.00     0.010 A 
ATOM     40  C   UNL A   1      38.725  29.262  28.881  1.00  0.00    -0.014 A 
BRANCH  40  41
ATOM     41  C   UNL A   1      40.129  28.960  29.257  1.00  0.00     0.031 A 
ATOM     42  C   UNL A   1      40.771  27.676  28.815  1.00  0.00     0.074 A 
ATOM     43  C   UNL A   1      40.815  29.826  30.028  1.00  0.00     0.049 A 
ATOM     44  N   UNL A   1      41.968  27.216  29.077  1.00  0.00    -0.248 NA
ATOM     45  C   UNL A   1      39.953  26.783  27.980  1.00  0.00     0.031 C 
ATOM     46  C   UNL A   1      40.297  31.095  30.539  1.00  0.00     0.029 A 
ATOM     47  N   UNL A   1      42.098  29.772  30.512  1.00  0.00    -0.354 N 
ATOM     48  C   UNL A   1      42.047  25.986  28.439  1.00  0.00     0.074 A 
ATOM     49  C   UNL A   1      40.757  25.741  27.829  1.00  0.00     0.031 C 
ATOM     50  C   UNL A   1      41.264  31.718  31.231  1.00  0.00     0.029 A 
ATOM     51  C   UNL A   1      42.456  30.875  31.247  1.00  0.00     0.049 A 
ATOM     52  H   UNL A   1      42.705  29.014  30.349  1.00  0.00     0.167 HD
ATOM     53  C   UNL A   1      43.108  25.150  28.342  1.00  0.00     0.037 A 
ATOM     54  C   UNL A   1      43.618  31.176  31.860  1.00  0.00     0.037 A 
ATOM     55  C   UNL A   1      44.393  25.398  28.940  1.00  0.00     0.049 A 
ATOM     56  C   UNL A   1      44.764  30.206  31.785  1.00  0.00     0.074 A 
ATOM     57  C   UNL A   1      45.535  24.619  28.882  1.00  0.00     0.029 A 
ATOM     58  N   UNL A   1      44.706  26.512  29.704  1.00  0.00    -0.354 N 
ATOM     59  N   UNL A   1      44.837  29.060  31.152  1.00  0.00    -0.248 NA
ATOM     60  C   UNL A   1      45.989  30.568  32.512  1.00  0.00     0.031 C 
ATOM     61  C   UNL A   1      46.528  25.243  29.644  1.00  0.00     0.029 A 
ATOM     62  C   UNL A   1      46.020  26.433  30.138  1.00  0.00     0.049 A 
ATOM     63  H   UNL A   1      44.087  27.250  29.908  1.00  0.00     0.167 HD
ATOM     64  C   UNL A   1      46.117  28.576  31.383  1.00  0.00     0.074 A 
ATOM     65  C   UNL A   1      46.794  29.559  32.204  1.00  0.00     0.031 C 
ATOM     66  C   UNL A   1      46.680  27.421  30.952  1.00  0.00     0.037 A 
BRANCH  53  67
ATOM     67  C   UNL A   1      42.927  23.893  27.542  1.00  0.00     0.064 A 
ATOM     68  C   UNL A   1      43.304  23.830  26.191  1.00  0.00     0.173 A 
ATOM     69  C   UNL A   1      42.411  22.731  28.135  1.00  0.00     0.173 A 
ATOM     70  F   UNL A   1      43.790  24.917  25.574  1.00  0.00    -0.203 F 
ATOM     71  C   UNL A   1      43.149  22.657  25.458  1.00  0.00     0.198 A 
ATOM     72  C   UNL A   1      42.285  21.552  27.406  1.00  0.00     0.198 A 
ATOM     73  F   UNL A   1      42.041  22.737  29.424  1.00  0.00    -0.203 F 
ATOM     74  F   UNL A   1      43.474  22.632  24.158  1.00  0.00    -0.200 F 
ATOM     75  C   UNL A   1      42.647  21.517  26.068  1.00  0.00     0.200 A 
ATOM     76  F   UNL A   1      41.812  20.446  28.000  1.00  0.00    -0.200 F 
ATOM     77  F   UNL A   1      42.507  20.386  25.364  1.00  0.00    -0.200 F 
ENDBRANCH  53  67
BRANCH  54  78
ATOM     78  C   UNL A   1      43.767  32.479  32.559  1.00  0.00     0.064 A 
ATOM     79  C   UNL A   1      43.644  32.555  33.954  1.00  0.00     0.173 A 
ATOM     80  C   UNL A   1      44.053  33.661  31.862  1.00  0.00     0.173 A 
ATOM     81  F   UNL A   1      43.348  31.454  34.660  1.00  0.00    -0.203 F 
ATOM     82  C   UNL A   1      43.798  33.766  34.624  1.00  0.00     0.198 A 
ATOM     83  C   UNL A   1      44.231  34.867  32.537  1.00  0.00     0.198 A 
ATOM     84  F   UNL A   1      44.182  33.640  30.527  1.00  0.00    -0.203 F 
ATOM     85  F   UNL A   1      43.647  33.817  35.955  1.00  0.00    -0.200 F 
ATOM     86  C   UNL A   1      44.100  34.919  33.916  1.00  0.00     0.200 A 
ATOM     87  F   UNL A   1      44.535  35.977  31.850  1.00  0.00    -0.200 F 
ATOM     88  F   UNL A   1      44.259  36.083  34.563  1.00  0.00    -0.200 F 
ENDBRANCH  54  78
BRANCH  66  89
ATOM     89  C   UNL A   1      48.105  27.155  31.341  1.00  0.00     0.064 A 
ATOM     90  C   UNL A   1      48.424  26.376  32.461  1.00  0.00     0.173 A 
ATOM     91  C   UNL A   1      49.160  27.623  30.541  1.00  0.00     0.173 A 
ATOM     92  F   UNL A   1      47.453  25.918  33.264  1.00  0.00    -0.203 F 
ATOM     93  C   UNL A   1      49.749  26.081  32.772  1.00  0.00     0.198 A 
ATOM     94  C   UNL A   1      50.481  27.303  30.840  1.00  0.00     0.198 A 
ATOM     95  F   UNL A   1      48.906  28.367  29.454  1.00  0.00    -0.203 F 
ATOM     96  F   UNL A   1      50.034  25.358  33.865  1.00  0.00    -0.200 F 
ATOM     97  C   UNL A   1      50.775  26.536  31.957  1.00  0.00     0.200 A 
ATOM     98  F   UNL A   1      51.469  27.731  30.042  1.00  0.00    -0.200 F 
ATOM     99  F   UNL A   1      52.048  26.237  32.248  1.00  0.00    -0.200 F 
ENDBRANCH  66  89
ENDBRANCH  40  41
ENDBRANCH  32  35
ENDBRANCH  30  31
ENDBRANCH  29  30
ENDBRANCH  28  29
ENDBRANCH   1  28
TORSDOF 15
ENDMDL
