MODEL 1
REMARK VINA RESULT:     -12.7      0.000      0.000
REMARK SMILES N#Cc1ccc(C(=O)NCCCCNC(=O)c2ccc(-c3c4nc(c(-c5c(F)c(F)c(F)c(F)c5F)c5ccc([nH]5)c(-c5c(F)c(F)c(F)c(F)c5F)c5nc(c(-c6c(F)c(F)c(F)c(F)c6F)c6ccc3[nH]6)C=C5)C=C4)cc2)nc1/C=C/c1ccc(O)c(Cl)c1
REMARK SMILES IDX 11 1 10 2 9 3 7 4 8 5 6 7 3 8 4 9 81 10 5 11 80 12 2 13 1 14
REMARK SMILES IDX 82 15 83 16 84 17 85 18 91 19 86 20 89 21 87 22 90 23 88 24
REMARK SMILES IDX 12 26 13 27 14 28 15 29 16 31 17 32 18 33 79 34 19 35 78 36
REMARK SMILES IDX 20 37 21 38 22 39 72 40 23 41 77 42 71 43 73 44 24 45 76 46
REMARK SMILES IDX 70 47 69 48 25 50 57 51 37 52 56 53 38 54 41 55 55 56 74 57
REMARK SMILES IDX 39 58 40 59 54 61 75 62 42 63 26 64 27 65 35 66 28 67 29 68
REMARK SMILES IDX 33 69 36 70 30 71 31 72 34 73 32 74 58 75 59 76 67 77 60 78
REMARK SMILES IDX 61 79 65 80 68 81 62 82 63 83 66 84 64 85 43 86 44 87 52 88
REMARK SMILES IDX 45 89 46 90 50 91 53 92 47 93 48 94 51 95 49 96
REMARK H PARENT 9 6 88 25 14 30 73 49 41 60
REMARK Flexibility Score: inf
ROOT
ATOM      1  C   UNL A   1      31.659  30.819  26.207  1.00  0.00     0.023 C 
ENDROOT
BRANCH   1   2
ATOM      2  C   UNL A   1      31.880  29.697  27.210  1.00  0.00     0.116 C 
BRANCH   2   3
ATOM      3  N   UNL A   1      33.273  29.460  27.540  1.00  0.00    -0.351 N 
ATOM      4  C   UNL A   1      34.301  28.818  26.873  1.00  0.00     0.269 C 
ATOM      5  O   UNL A   1      35.388  28.778  27.454  1.00  0.00    -0.268 OA
ATOM      6  H   UNL A   1      33.540  29.830  28.413  1.00  0.00     0.163 HD
BRANCH   4   7
ATOM      7  C   UNL A   1      34.145  28.157  25.525  1.00  0.00     0.128 A 
ATOM      8  C   UNL A   1      33.600  26.816  23.175  1.00  0.00     0.078 A 
ATOM      9  C   UNL A   1      33.861  28.183  23.147  1.00  0.00     0.024 A 
ATOM     10  C   UNL A   1      33.744  26.145  24.391  1.00  0.00     0.082 A 
ATOM     11  C   UNL A   1      34.221  28.838  24.321  1.00  0.00     0.035 A 
ATOM     12  N   UNL A   1      33.952  26.809  25.559  1.00  0.00    -0.242 NA
BRANCH   8  13
ATOM     13  C   UNL A   1      33.268  26.154  21.954  1.00  0.00     0.101 C 
ATOM     14  N   UNL A   1      32.991  25.599  20.970  1.00  0.00    -0.192 NA
ENDBRANCH   8  13
BRANCH  10  15
ATOM     15  C   UNL A   1      33.830  24.674  24.445  1.00  0.00     0.030 C 
ATOM     16  C   UNL A   1      34.540  23.973  25.345  1.00  0.00     0.010 C 
BRANCH  16  17
ATOM     17  C   UNL A   1      34.732  22.525  25.189  1.00  0.00    -0.024 A 
ATOM     18  C   UNL A   1      33.626  21.672  25.113  1.00  0.00     0.012 A 
ATOM     19  C   UNL A   1      36.025  21.974  25.147  1.00  0.00     0.032 A 
ATOM     20  C   UNL A   1      33.804  20.294  24.952  1.00  0.00     0.048 A 
ATOM     21  C   UNL A   1      36.201  20.602  24.984  1.00  0.00     0.083 A 
ATOM     22  C   UNL A   1      35.089  19.767  24.878  1.00  0.00     0.134 A 
ATOM     23  Cl  UNL A   1      37.796  19.953  24.908  1.00  0.00    -0.080 Cl
BRANCH  22  24
ATOM     24  O   UNL A   1      35.211  18.417  24.701  1.00  0.00    -0.506 OA
ATOM     25  H   UNL A   1      35.331  18.065  23.841  1.00  0.00     0.293 HD
ENDBRANCH  22  24
ENDBRANCH  16  17
ENDBRANCH  10  15
ENDBRANCH   4   7
ENDBRANCH   2   3
ENDBRANCH   1   2
BRANCH   1  26
ATOM     26  C   UNL A   1      31.374  32.190  26.799  1.00  0.00     0.023 C 
BRANCH  26  27
ATOM     27  C   UNL A   1      32.579  32.905  27.396  1.00  0.00     0.116 C 
BRANCH  27  28
ATOM     28  N   UNL A   1      32.342  34.317  27.677  1.00  0.00    -0.352 N 
ATOM     29  C   UNL A   1      32.977  35.137  28.582  1.00  0.00     0.251 C 
ATOM     30  H   UNL A   1      31.630  34.741  27.146  1.00  0.00     0.163 HD
ATOM     31  O   UNL A   1      32.576  36.278  28.779  1.00  0.00    -0.269 OA
BRANCH  29  32
ATOM     32  C   UNL A   1      34.126  34.608  29.342  1.00  0.00     0.039 A 
ATOM     33  C   UNL A   1      33.892  33.894  30.518  1.00  0.00     0.014 A 
ATOM     34  C   UNL A   1      35.424  34.756  28.848  1.00  0.00     0.014 A 
ATOM     35  C   UNL A   1      34.956  33.255  31.153  1.00  0.00     0.010 A 
ATOM     36  C   UNL A   1      36.461  34.031  29.421  1.00  0.00     0.010 A 
ATOM     37  C   UNL A   1      36.240  33.277  30.582  1.00  0.00    -0.014 A 
BRANCH  37  38
ATOM     38  C   UNL A   1      37.363  32.514  31.183  1.00  0.00     0.031 A 
ATOM     39  C   UNL A   1      37.870  32.873  32.553  1.00  0.00     0.074 A 
ATOM     40  C   UNL A   1      37.966  31.540  30.474  1.00  0.00     0.049 A 
ATOM     41  N   UNL A   1      38.865  32.357  33.229  1.00  0.00    -0.248 NA
ATOM     42  C   UNL A   1      37.188  33.980  33.241  1.00  0.00     0.031 C 
ATOM     43  C   UNL A   1      37.598  31.130  29.118  1.00  0.00     0.029 A 
ATOM     44  N   UNL A   1      39.018  30.718  30.794  1.00  0.00    -0.354 N 
ATOM     45  C   UNL A   1      38.931  33.082  34.412  1.00  0.00     0.074 A 
ATOM     46  C   UNL A   1      37.925  34.118  34.331  1.00  0.00     0.031 C 
ATOM     47  C   UNL A   1      38.383  30.111  28.738  1.00  0.00     0.029 A 
ATOM     48  C   UNL A   1      39.344  29.829  29.799  1.00  0.00     0.049 A 
ATOM     49  H   UNL A   1      39.494  30.762  31.654  1.00  0.00     0.167 HD
ATOM     50  C   UNL A   1      39.740  32.884  35.480  1.00  0.00     0.037 A 
ATOM     51  C   UNL A   1      40.314  28.896  29.747  1.00  0.00     0.037 A 
ATOM     52  C   UNL A   1      40.735  31.848  35.555  1.00  0.00     0.049 A 
ATOM     53  C   UNL A   1      41.228  28.723  30.931  1.00  0.00     0.074 A 
ATOM     54  C   UNL A   1      41.568  31.527  36.612  1.00  0.00     0.029 A 
ATOM     55  N   UNL A   1      41.046  30.973  34.522  1.00  0.00    -0.354 N 
ATOM     56  N   UNL A   1      41.229  29.359  32.077  1.00  0.00    -0.248 NA
ATOM     57  C   UNL A   1      42.272  27.695  30.815  1.00  0.00     0.031 C 
ATOM     58  C   UNL A   1      42.436  30.515  36.193  1.00  0.00     0.029 A 
ATOM     59  C   UNL A   1      42.087  30.141  34.904  1.00  0.00     0.049 A 
ATOM     60  H   UNL A   1      40.593  30.948  33.649  1.00  0.00     0.167 HD
ATOM     61  C   UNL A   1      42.247  28.789  32.831  1.00  0.00     0.074 A 
ATOM     62  C   UNL A   1      42.830  27.744  32.016  1.00  0.00     0.031 C 
ATOM     63  C   UNL A   1      42.659  29.101  34.085  1.00  0.00     0.037 A 
BRANCH  50  64
ATOM     64  C   UNL A   1      39.592  33.824  36.645  1.00  0.00     0.064 A 
ATOM     65  C   UNL A   1      40.233  35.074  36.679  1.00  0.00     0.173 A 
ATOM     66  C   UNL A   1      38.786  33.476  37.739  1.00  0.00     0.173 A 
ATOM     67  F   UNL A   1      41.024  35.455  35.665  1.00  0.00    -0.203 F 
ATOM     68  C   UNL A   1      40.106  35.917  37.780  1.00  0.00     0.198 A 
ATOM     69  C   UNL A   1      38.628  34.340  38.821  1.00  0.00     0.198 A 
ATOM     70  F   UNL A   1      38.144  32.298  37.761  1.00  0.00    -0.203 F 
ATOM     71  F   UNL A   1      40.785  37.072  37.819  1.00  0.00    -0.200 F 
ATOM     72  C   UNL A   1      39.299  35.552  38.847  1.00  0.00     0.200 A 
ATOM     73  F   UNL A   1      37.830  33.993  39.841  1.00  0.00    -0.200 F 
ATOM     74  F   UNL A   1      39.175  36.366  39.904  1.00  0.00    -0.200 F 
ENDBRANCH  50  64
BRANCH  51  75
ATOM     75  C   UNL A   1      40.459  28.040  28.538  1.00  0.00     0.064 A 
ATOM     76  C   UNL A   1      41.217  28.467  27.439  1.00  0.00     0.173 A 
ATOM     77  C   UNL A   1      39.843  26.782  28.455  1.00  0.00     0.173 A 
ATOM     78  F   UNL A   1      41.811  29.668  27.461  1.00  0.00    -0.203 F 
ATOM     79  C   UNL A   1      41.335  27.680  26.295  1.00  0.00     0.198 A 
ATOM     80  C   UNL A   1      39.990  25.981  27.325  1.00  0.00     0.198 A 
ATOM     81  F   UNL A   1      39.110  26.323  29.480  1.00  0.00    -0.203 F 
ATOM     82  F   UNL A   1      42.022  28.135  25.239  1.00  0.00    -0.200 F 
ATOM     83  C   UNL A   1      40.727  26.434  26.242  1.00  0.00     0.200 A 
ATOM     84  F   UNL A   1      39.417  24.770  27.286  1.00  0.00    -0.200 F 
ATOM     85  F   UNL A   1      40.846  25.675  25.144  1.00  0.00    -0.200 F 
ENDBRANCH  51  75
BRANCH  63  86
ATOM     86  C   UNL A   1      43.766  28.274  34.677  1.00  0.00     0.064 A 
ATOM     87  C   UNL A   1      45.110  28.671  34.611  1.00  0.00     0.173 A 
ATOM     88  C   UNL A   1      43.470  27.082  35.357  1.00  0.00     0.173 A 
ATOM     89  F   UNL A   1      45.451  29.795  33.963  1.00  0.00    -0.203 F 
ATOM     90  C   UNL A   1      46.117  27.890  35.173  1.00  0.00     0.198 A 
ATOM     91  C   UNL A   1      44.474  26.325  35.953  1.00  0.00     0.198 A 
ATOM     92  F   UNL A   1      42.201  26.658  35.461  1.00  0.00    -0.203 F 
ATOM     93  F   UNL A   1      47.399  28.258  35.042  1.00  0.00    -0.200 F 
ATOM     94  C   UNL A   1      45.797  26.723  35.851  1.00  0.00     0.200 A 
ATOM     95  F   UNL A   1      44.160  25.210  36.628  1.00  0.00    -0.200 F 
ATOM     96  F   UNL A   1      46.767  25.978  36.400  1.00  0.00    -0.200 F 
ENDBRANCH  63  86
ENDBRANCH  37  38
ENDBRANCH  29  32
ENDBRANCH  27  28
ENDBRANCH  26  27
ENDBRANCH   1  26
TORSDOF 15
ENDMDL
MODEL 2
REMARK VINA RESULT:     -12.7      0.550      1.743
REMARK SMILES N#Cc1ccc(C(=O)NCCCCNC(=O)c2ccc(-c3c4nc(c(-c5c(F)c(F)c(F)c(F)c5F)c5ccc([nH]5)c(-c5c(F)c(F)c(F)c(F)c5F)c5nc(c(-c6c(F)c(F)c(F)c(F)c6F)c6ccc3[nH]6)C=C5)C=C4)cc2)nc1/C=C/c1ccc(O)c(Cl)c1
REMARK SMILES IDX 11 1 10 2 9 3 7 4 8 5 6 7 3 8 4 9 81 10 5 11 80 12 2 13 1 14
REMARK SMILES IDX 82 15 83 16 84 17 85 18 91 19 86 20 89 21 87 22 90 23 88 24
REMARK SMILES IDX 12 26 13 27 14 28 15 29 16 31 17 32 18 33 79 34 19 35 78 36
REMARK SMILES IDX 20 37 21 38 22 39 72 40 23 41 77 42 71 43 73 44 24 45 76 46
REMARK SMILES IDX 70 47 69 48 25 50 57 51 37 52 56 53 38 54 41 55 55 56 74 57
REMARK SMILES IDX 39 58 40 59 54 61 75 62 42 63 26 64 27 65 35 66 28 67 29 68
REMARK SMILES IDX 33 69 36 70 30 71 31 72 34 73 32 74 58 75 59 76 67 77 60 78
REMARK SMILES IDX 61 79 65 80 68 81 62 82 63 83 66 84 64 85 43 86 44 87 52 88
REMARK SMILES IDX 45 89 46 90 50 91 53 92 47 93 48 94 51 95 49 96
REMARK H PARENT 9 6 88 25 14 30 73 49 41 60
REMARK Flexibility Score: inf
ROOT
ATOM      1  C   UNL A   1      31.626  30.805  26.164  1.00  0.00     0.023 C 
ENDROOT
BRANCH   1   2
ATOM      2  C   UNL A   1      31.842  29.622  27.097  1.00  0.00     0.116 C 
BRANCH   2   3
ATOM      3  N   UNL A   1      33.232  29.372  27.429  1.00  0.00    -0.351 N 
ATOM      4  C   UNL A   1      34.262  28.743  26.753  1.00  0.00     0.269 C 
ATOM      5  O   UNL A   1      35.345  28.684  27.339  1.00  0.00    -0.268 OA
ATOM      6  H   UNL A   1      33.494  29.720  28.311  1.00  0.00     0.163 HD
BRANCH   4   7
ATOM      7  C   UNL A   1      34.111  28.114  25.389  1.00  0.00     0.128 A 
ATOM      8  C   UNL A   1      33.591  26.810  23.012  1.00  0.00     0.078 A 
ATOM      9  C   UNL A   1      33.751  28.193  23.023  1.00  0.00     0.024 A 
ATOM     10  C   UNL A   1      33.822  26.114  24.201  1.00  0.00     0.082 A 
ATOM     11  C   UNL A   1      34.099  28.835  24.206  1.00  0.00     0.035 A 
ATOM     12  N   UNL A   1      34.018  26.754  25.384  1.00  0.00    -0.242 NA
BRANCH   8  13
ATOM     13  C   UNL A   1      33.269  26.163  21.780  1.00  0.00     0.101 C 
ATOM     14  N   UNL A   1      32.994  25.651  20.774  1.00  0.00    -0.192 NA
ENDBRANCH   8  13
BRANCH  10  15
ATOM     15  C   UNL A   1      34.016  24.652  24.203  1.00  0.00     0.030 C 
ATOM     16  C   UNL A   1      34.275  23.908  25.292  1.00  0.00     0.010 C 
BRANCH  16  17
ATOM     17  C   UNL A   1      34.660  22.496  25.164  1.00  0.00    -0.024 A 
ATOM     18  C   UNL A   1      36.012  22.136  25.127  1.00  0.00     0.012 A 
ATOM     19  C   UNL A   1      33.682  21.494  25.043  1.00  0.00     0.032 A 
ATOM     20  C   UNL A   1      36.384  20.792  25.018  1.00  0.00     0.048 A 
ATOM     21  C   UNL A   1      34.054  20.156  24.937  1.00  0.00     0.083 A 
ATOM     22  C   UNL A   1      35.405  19.809  24.934  1.00  0.00     0.134 A 
ATOM     23  Cl  UNL A   1      32.836  18.943  24.818  1.00  0.00    -0.080 Cl
BRANCH  22  24
ATOM     24  O   UNL A   1      35.818  18.508  24.848  1.00  0.00    -0.506 OA
ATOM     25  H   UNL A   1      35.186  17.817  24.819  1.00  0.00     0.293 HD
ENDBRANCH  22  24
ENDBRANCH  16  17
ENDBRANCH  10  15
ENDBRANCH   4   7
ENDBRANCH   2   3
ENDBRANCH   1   2
BRANCH   1  26
ATOM     26  C   UNL A   1      31.347  32.138  26.840  1.00  0.00     0.023 C 
BRANCH  26  27
ATOM     27  C   UNL A   1      32.576  32.885  27.342  1.00  0.00     0.116 C 
BRANCH  27  28
ATOM     28  N   UNL A   1      32.326  34.291  27.638  1.00  0.00    -0.352 N 
ATOM     29  C   UNL A   1      32.963  35.110  28.542  1.00  0.00     0.251 C 
ATOM     30  H   UNL A   1      31.602  34.712  27.121  1.00  0.00     0.163 HD
ATOM     31  O   UNL A   1      32.552  36.245  28.755  1.00  0.00    -0.269 OA
BRANCH  29  32
ATOM     32  C   UNL A   1      34.129  34.588  29.282  1.00  0.00     0.039 A 
ATOM     33  C   UNL A   1      33.927  33.967  30.516  1.00  0.00     0.014 A 
ATOM     34  C   UNL A   1      35.404  34.648  28.717  1.00  0.00     0.014 A 
ATOM     35  C   UNL A   1      34.998  33.330  31.143  1.00  0.00     0.010 A 
ATOM     36  C   UNL A   1      36.441  33.923  29.290  1.00  0.00     0.010 A 
ATOM     37  C   UNL A   1      36.251  33.260  30.511  1.00  0.00    -0.014 A 
BRANCH  37  38
ATOM     38  C   UNL A   1      37.373  32.495  31.111  1.00  0.00     0.031 A 
ATOM     39  C   UNL A   1      37.871  32.842  32.487  1.00  0.00     0.074 A 
ATOM     40  C   UNL A   1      37.984  31.530  30.395  1.00  0.00     0.049 A 
ATOM     41  N   UNL A   1      38.864  32.322  33.163  1.00  0.00    -0.248 NA
ATOM     42  C   UNL A   1      37.181  33.939  33.183  1.00  0.00     0.031 C 
ATOM     43  C   UNL A   1      37.625  31.134  29.033  1.00  0.00     0.029 A 
ATOM     44  N   UNL A   1      39.037  30.709  30.712  1.00  0.00    -0.354 N 
ATOM     45  C   UNL A   1      38.921  33.034  34.354  1.00  0.00     0.074 A 
ATOM     46  C   UNL A   1      37.912  34.068  34.278  1.00  0.00     0.031 C 
ATOM     47  C   UNL A   1      38.416  30.122  28.646  1.00  0.00     0.029 A 
ATOM     48  C   UNL A   1      39.372  29.832  29.710  1.00  0.00     0.049 A 
ATOM     49  H   UNL A   1      39.508  30.746  31.576  1.00  0.00     0.167 HD
ATOM     50  C   UNL A   1      39.725  32.829  35.425  1.00  0.00     0.037 A 
ATOM     51  C   UNL A   1      40.346  28.903  29.653  1.00  0.00     0.037 A 
ATOM     52  C   UNL A   1      40.723  31.796  35.494  1.00  0.00     0.049 A 
ATOM     53  C   UNL A   1      41.254  28.721  30.841  1.00  0.00     0.074 A 
ATOM     54  C   UNL A   1      41.552  31.467  36.552  1.00  0.00     0.029 A 
ATOM     55  N   UNL A   1      41.043  30.933  34.454  1.00  0.00    -0.354 N 
ATOM     56  N   UNL A   1      41.246  29.345  31.993  1.00  0.00    -0.248 NA
ATOM     57  C   UNL A   1      42.302  27.698  30.720  1.00  0.00     0.031 C 
ATOM     58  C   UNL A   1      42.426  30.462  36.127  1.00  0.00     0.029 A 
ATOM     59  C   UNL A   1      42.085  30.100  34.833  1.00  0.00     0.049 A 
ATOM     60  H   UNL A   1      40.595  30.915  33.578  1.00  0.00     0.167 HD
ATOM     61  C   UNL A   1      42.262  28.770  32.747  1.00  0.00     0.074 A 
ATOM     62  C   UNL A   1      42.853  27.736  31.924  1.00  0.00     0.031 C 
ATOM     63  C   UNL A   1      42.665  29.071  34.006  1.00  0.00     0.037 A 
BRANCH  50  64
ATOM     64  C   UNL A   1      39.567  33.756  36.598  1.00  0.00     0.064 A 
ATOM     65  C   UNL A   1      38.781  33.417  37.713  1.00  0.00     0.173 A 
ATOM     66  C   UNL A   1      40.224  34.995  36.618  1.00  0.00     0.173 A 
ATOM     67  F   UNL A   1      38.122  32.250  37.746  1.00  0.00    -0.203 F 
ATOM     68  C   UNL A   1      38.625  34.303  38.777  1.00  0.00     0.198 A 
ATOM     69  C   UNL A   1      40.100  35.860  37.702  1.00  0.00     0.198 A 
ATOM     70  F   UNL A   1      40.994  35.370  35.585  1.00  0.00    -0.203 F 
ATOM     71  F   UNL A   1      37.812  33.986  39.795  1.00  0.00    -0.200 F 
ATOM     72  C   UNL A   1      39.289  35.520  38.774  1.00  0.00     0.200 A 
ATOM     73  F   UNL A   1      40.759  37.026  37.705  1.00  0.00    -0.200 F 
ATOM     74  F   UNL A   1      39.141  36.368  39.800  1.00  0.00    -0.200 F 
ENDBRANCH  50  64
BRANCH  51  75
ATOM     75  C   UNL A   1      40.501  28.060  28.437  1.00  0.00     0.064 A 
ATOM     76  C   UNL A   1      39.889  26.802  28.349  1.00  0.00     0.173 A 
ATOM     77  C   UNL A   1      41.262  28.491  27.340  1.00  0.00     0.173 A 
ATOM     78  F   UNL A   1      39.165  26.336  29.377  1.00  0.00    -0.203 F 
ATOM     79  C   UNL A   1      40.052  25.998  27.223  1.00  0.00     0.198 A 
ATOM     80  C   UNL A   1      41.395  27.701  26.200  1.00  0.00     0.198 A 
ATOM     81  F   UNL A   1      41.865  29.689  27.368  1.00  0.00    -0.203 F 
ATOM     82  F   UNL A   1      39.499  24.778  27.188  1.00  0.00    -0.200 F 
ATOM     83  C   UNL A   1      40.799  26.451  26.146  1.00  0.00     0.200 A 
ATOM     84  F   UNL A   1      42.102  28.152  25.154  1.00  0.00    -0.200 F 
ATOM     85  F   UNL A   1      40.949  25.681  25.060  1.00  0.00    -0.200 F 
ENDBRANCH  51  75
BRANCH  63  86
ATOM     86  C   UNL A   1      43.772  28.242  34.596  1.00  0.00     0.064 A 
ATOM     87  C   UNL A   1      45.114  28.650  34.552  1.00  0.00     0.173 A 
ATOM     88  C   UNL A   1      43.478  27.035  35.252  1.00  0.00     0.173 A 
ATOM     89  F   UNL A   1      45.454  29.788  33.927  1.00  0.00    -0.203 F 
ATOM     90  C   UNL A   1      46.120  27.866  35.111  1.00  0.00     0.198 A 
ATOM     91  C   UNL A   1      44.481  26.276  35.846  1.00  0.00     0.198 A 
ATOM     92  F   UNL A   1      42.211  26.600  35.334  1.00  0.00    -0.203 F 
ATOM     93  F   UNL A   1      47.401  28.246  35.001  1.00  0.00    -0.200 F 
ATOM     94  C   UNL A   1      45.803  26.686  35.765  1.00  0.00     0.200 A 
ATOM     95  F   UNL A   1      44.169  25.147  36.497  1.00  0.00    -0.200 F 
ATOM     96  F   UNL A   1      46.772  25.938  36.312  1.00  0.00    -0.200 F 
ENDBRANCH  63  86
ENDBRANCH  37  38
ENDBRANCH  29  32
ENDBRANCH  27  28
ENDBRANCH  26  27
ENDBRANCH   1  26
TORSDOF 15
ENDMDL
MODEL 3
REMARK VINA RESULT:     -12.6      5.525     10.307
REMARK SMILES N#Cc1ccc(C(=O)NCCCCNC(=O)c2ccc(-c3c4nc(c(-c5c(F)c(F)c(F)c(F)c5F)c5ccc([nH]5)c(-c5c(F)c(F)c(F)c(F)c5F)c5nc(c(-c6c(F)c(F)c(F)c(F)c6F)c6ccc3[nH]6)C=C5)C=C4)cc2)nc1/C=C/c1ccc(O)c(Cl)c1
REMARK SMILES IDX 11 1 10 2 9 3 7 4 8 5 6 7 3 8 4 9 81 10 5 11 80 12 2 13 1 14
REMARK SMILES IDX 82 15 83 16 84 17 85 18 91 19 86 20 89 21 87 22 90 23 88 24
REMARK SMILES IDX 12 26 13 27 14 28 15 29 16 31 17 32 18 33 79 34 19 35 78 36
REMARK SMILES IDX 20 37 21 38 22 39 72 40 23 41 77 42 71 43 73 44 24 45 76 46
REMARK SMILES IDX 70 47 69 48 25 50 57 51 37 52 56 53 38 54 41 55 55 56 74 57
REMARK SMILES IDX 39 58 40 59 54 61 75 62 42 63 26 64 27 65 35 66 28 67 29 68
REMARK SMILES IDX 33 69 36 70 30 71 31 72 34 73 32 74 58 75 59 76 67 77 60 78
REMARK SMILES IDX 61 79 65 80 68 81 62 82 63 83 66 84 64 85 43 86 44 87 52 88
REMARK SMILES IDX 45 89 46 90 50 91 53 92 47 93 48 94 51 95 49 96
REMARK H PARENT 9 6 88 25 14 30 73 49 41 60
REMARK Flexibility Score: inf
ROOT
ATOM      1  C   UNL A   1      37.250  21.267  24.693  1.00  0.00     0.023 C 
ENDROOT
BRANCH   1   2
ATOM      2  C   UNL A   1      36.845  22.103  25.897  1.00  0.00     0.116 C 
BRANCH   2   3
ATOM      3  N   UNL A   1      35.585  21.708  26.500  1.00  0.00    -0.351 N 
ATOM      4  C   UNL A   1      34.266  21.928  26.149  1.00  0.00     0.269 C 
ATOM      5  O   UNL A   1      33.414  21.457  26.905  1.00  0.00    -0.268 OA
ATOM      6  H   UNL A   1      35.692  21.176  27.321  1.00  0.00     0.163 HD
BRANCH   4   7
ATOM      7  C   UNL A   1      33.839  22.725  24.941  1.00  0.00     0.128 A 
ATOM      8  C   UNL A   1      33.316  24.354  22.774  1.00  0.00     0.078 A 
ATOM      9  C   UNL A   1      33.289  22.970  22.622  1.00  0.00     0.024 A 
ATOM     10  C   UNL A   1      33.490  24.869  24.060  1.00  0.00     0.082 A 
ATOM     11  C   UNL A   1      33.467  22.154  23.734  1.00  0.00     0.035 A 
ATOM     12  N   UNL A   1      33.807  24.076  25.117  1.00  0.00    -0.242 NA
BRANCH   8  13
ATOM     13  C   UNL A   1      33.095  25.176  21.627  1.00  0.00     0.101 C 
ATOM     14  N   UNL A   1      32.913  25.829  20.683  1.00  0.00    -0.192 NA
ENDBRANCH   8  13
BRANCH  10  15
ATOM     15  C   UNL A   1      33.188  26.281  24.363  1.00  0.00     0.030 C 
ATOM     16  C   UNL A   1      33.599  26.942  25.458  1.00  0.00     0.010 C 
BRANCH  16  17
ATOM     17  C   UNL A   1      33.073  28.277  25.773  1.00  0.00    -0.024 A 
ATOM     18  C   UNL A   1      31.913  28.742  25.146  1.00  0.00     0.012 A 
ATOM     19  C   UNL A   1      33.744  29.115  26.680  1.00  0.00     0.032 A 
ATOM     20  C   UNL A   1      31.401  30.007  25.453  1.00  0.00     0.048 A 
ATOM     21  C   UNL A   1      33.231  30.374  26.986  1.00  0.00     0.083 A 
ATOM     22  C   UNL A   1      32.056  30.812  26.377  1.00  0.00     0.134 A 
ATOM     23  Cl  UNL A   1      34.057  31.374  28.122  1.00  0.00    -0.080 Cl
BRANCH  22  24
ATOM     24  O   UNL A   1      31.507  32.033  26.657  1.00  0.00    -0.506 OA
ATOM     25  H   UNL A   1      31.487  32.700  26.000  1.00  0.00     0.293 HD
ENDBRANCH  22  24
ENDBRANCH  16  17
ENDBRANCH  10  15
ENDBRANCH   4   7
ENDBRANCH   2   3
ENDBRANCH   1   2
BRANCH   1  26
ATOM     26  C   UNL A   1      38.109  20.048  24.991  1.00  0.00     0.023 C 
BRANCH  26  27
ATOM     27  C   UNL A   1      39.371  20.323  25.798  1.00  0.00     0.116 C 
BRANCH  27  28
ATOM     28  N   UNL A   1      40.271  19.179  25.886  1.00  0.00    -0.352 N 
ATOM     29  C   UNL A   1      41.629  19.162  26.111  1.00  0.00     0.251 C 
ATOM     30  H   UNL A   1      39.850  18.297  25.765  1.00  0.00     0.163 HD
ATOM     31  O   UNL A   1      42.262  18.115  26.038  1.00  0.00    -0.269 OA
BRANCH  29  32
ATOM     32  C   UNL A   1      42.320  20.432  26.407  1.00  0.00     0.039 A 
ATOM     33  C   UNL A   1      42.908  21.144  25.360  1.00  0.00     0.014 A 
ATOM     34  C   UNL A   1      42.318  20.949  27.704  1.00  0.00     0.014 A 
ATOM     35  C   UNL A   1      43.420  22.419  25.604  1.00  0.00     0.010 A 
ATOM     36  C   UNL A   1      42.730  22.258  27.920  1.00  0.00     0.010 A 
ATOM     37  C   UNL A   1      43.289  23.005  26.874  1.00  0.00    -0.014 A 
BRANCH  37  38
ATOM     38  C   UNL A   1      43.729  24.401  27.127  1.00  0.00     0.031 A 
ATOM     39  C   UNL A   1      42.741  25.426  27.609  1.00  0.00     0.074 A 
ATOM     40  C   UNL A   1      45.001  24.759  26.864  1.00  0.00     0.049 A 
ATOM     41  N   UNL A   1      42.920  26.702  27.845  1.00  0.00    -0.248 NA
ATOM     42  C   UNL A   1      41.362  24.964  27.827  1.00  0.00     0.031 C 
ATOM     43  C   UNL A   1      46.041  23.869  26.347  1.00  0.00     0.029 A 
ATOM     44  N   UNL A   1      45.636  25.969  26.992  1.00  0.00    -0.354 N 
ATOM     45  C   UNL A   1      41.678  27.191  28.228  1.00  0.00     0.074 A 
ATOM     46  C   UNL A   1      40.740  26.095  28.123  1.00  0.00     0.031 C 
ATOM     47  C   UNL A   1      47.191  24.551  26.239  1.00  0.00     0.029 A 
ATOM     48  C   UNL A   1      46.960  25.938  26.629  1.00  0.00     0.049 A 
ATOM     49  H   UNL A   1      45.185  26.784  27.314  1.00  0.00     0.167 HD
ATOM     50  C   UNL A   1      41.354  28.435  28.652  1.00  0.00     0.037 A 
ATOM     51  C   UNL A   1      47.882  26.920  26.605  1.00  0.00     0.037 A 
ATOM     52  C   UNL A   1      42.293  29.519  28.758  1.00  0.00     0.049 A 
ATOM     53  C   UNL A   1      47.488  28.305  27.043  1.00  0.00     0.074 A 
ATOM     54  C   UNL A   1      42.081  30.803  29.229  1.00  0.00     0.029 A 
ATOM     55  N   UNL A   1      43.625  29.454  28.369  1.00  0.00    -0.354 N 
ATOM     56  N   UNL A   1      46.330  28.738  27.480  1.00  0.00    -0.248 NA
ATOM     57  C   UNL A   1      48.532  29.337  26.990  1.00  0.00     0.031 C 
ATOM     58  C   UNL A   1      43.257  31.535  29.050  1.00  0.00     0.029 A 
ATOM     59  C   UNL A   1      44.233  30.686  28.551  1.00  0.00     0.049 A 
ATOM     60  H   UNL A   1      44.071  28.650  28.017  1.00  0.00     0.167 HD
ATOM     61  C   UNL A   1      46.514  30.080  27.786  1.00  0.00     0.074 A 
ATOM     62  C   UNL A   1      47.900  30.385  27.499  1.00  0.00     0.031 C 
ATOM     63  C   UNL A   1      45.615  30.978  28.264  1.00  0.00     0.037 A 
BRANCH  50  64
ATOM     64  C   UNL A   1      39.917  28.692  29.015  1.00  0.00     0.064 A 
ATOM     65  C   UNL A   1      39.431  28.491  30.317  1.00  0.00     0.173 A 
ATOM     66  C   UNL A   1      39.015  29.162  28.049  1.00  0.00     0.173 A 
ATOM     67  F   UNL A   1      40.246  28.033  31.280  1.00  0.00    -0.203 F 
ATOM     68  C   UNL A   1      38.090  28.707  30.625  1.00  0.00     0.198 A 
ATOM     69  C   UNL A   1      37.684  29.418  28.370  1.00  0.00     0.198 A 
ATOM     70  F   UNL A   1      39.422  29.380  26.789  1.00  0.00    -0.203 F 
ATOM     71  F   UNL A   1      37.636  28.438  31.857  1.00  0.00    -0.200 F 
ATOM     72  C   UNL A   1      37.219  29.176  29.654  1.00  0.00     0.200 A 
ATOM     73  F   UNL A   1      36.850  29.891  27.434  1.00  0.00    -0.200 F 
ATOM     74  F   UNL A   1      35.930  29.388  29.953  1.00  0.00    -0.200 F 
ENDBRANCH  50  64
BRANCH  51  75
ATOM     75  C   UNL A   1      49.274  26.623  26.170  1.00  0.00     0.064 A 
ATOM     76  C   UNL A   1      50.213  26.096  27.068  1.00  0.00     0.173 A 
ATOM     77  C   UNL A   1      49.696  26.862  24.854  1.00  0.00     0.173 A 
ATOM     78  F   UNL A   1      49.865  25.866  28.342  1.00  0.00    -0.203 F 
ATOM     79  C   UNL A   1      51.525  25.841  26.672  1.00  0.00     0.198 A 
ATOM     80  C   UNL A   1      50.997  26.573  24.450  1.00  0.00     0.198 A 
ATOM     81  F   UNL A   1      48.837  27.361  23.952  1.00  0.00    -0.203 F 
ATOM     82  F   UNL A   1      52.414  25.386  27.564  1.00  0.00    -0.200 F 
ATOM     83  C   UNL A   1      51.913  26.073  25.362  1.00  0.00     0.200 A 
ATOM     84  F   UNL A   1      51.363  26.782  23.177  1.00  0.00    -0.200 F 
ATOM     85  F   UNL A   1      53.173  25.821  24.980  1.00  0.00    -0.200 F 
ENDBRANCH  51  75
BRANCH  63  86
ATOM     86  C   UNL A   1      46.111  32.368  28.552  1.00  0.00     0.064 A 
ATOM     87  C   UNL A   1      46.051  33.394  27.598  1.00  0.00     0.173 A 
ATOM     88  C   UNL A   1      46.620  32.686  29.822  1.00  0.00     0.173 A 
ATOM     89  F   UNL A   1      45.586  33.143  26.364  1.00  0.00    -0.203 F 
ATOM     90  C   UNL A   1      46.512  34.675  27.892  1.00  0.00     0.198 A 
ATOM     91  C   UNL A   1      47.041  33.977  30.126  1.00  0.00     0.198 A 
ATOM     92  F   UNL A   1      46.693  31.747  30.778  1.00  0.00    -0.203 F 
ATOM     93  F   UNL A   1      46.501  35.622  26.944  1.00  0.00    -0.200 F 
ATOM     94  C   UNL A   1      46.997  34.968  29.157  1.00  0.00     0.200 A 
ATOM     95  F   UNL A   1      47.488  34.263  31.356  1.00  0.00    -0.200 F 
ATOM     96  F   UNL A   1      47.430  36.204  29.442  1.00  0.00    -0.200 F 
ENDBRANCH  63  86
ENDBRANCH  37  38
ENDBRANCH  29  32
ENDBRANCH  27  28
ENDBRANCH  26  27
ENDBRANCH   1  26
TORSDOF 15
ENDMDL
