MODEL 1
REMARK VINA RESULT:     -12.3      0.000      0.000
REMARK SMILES O=C(NCCCCNC(=O)[C@H]1CC[C@@H](CNC(=O)[C@@H]2CCC[NH2+]C2)O1)c1ccc(-c2c3nc(c(-c4c(F)c(F)c(F)c(F)c4F)c4ccc([nH]4)c(-c4c(F)c(F)c(F)c(F)c4F)c4nc(c(-c5c(F)c(F)c(F)c(F)c5F)c5ccc2[nH]5)C=C4)C=C3)cc1
REMARK SMILES IDX 6 1 5 2 4 3 3 4 1 5 2 6 26 8 27 9 88 10 28 11 87 12 29 13
REMARK SMILES IDX 30 14 31 15 81 16 32 17 86 18 80 19 82 20 33 21 85 22 79 23
REMARK SMILES IDX 78 24 34 26 66 27 46 28 65 29 47 30 50 31 64 32 83 33 48 34
REMARK SMILES IDX 49 35 63 37 84 38 51 39 35 40 36 41 44 42 37 43 38 44 42 45
REMARK SMILES IDX 45 46 39 47 40 48 43 49 41 50 67 51 68 52 76 53 69 54 70 55
REMARK SMILES IDX 74 56 77 57 71 58 72 59 75 60 73 61 52 62 53 63 61 64 54 65
REMARK SMILES IDX 55 66 59 67 62 68 56 69 57 70 60 71 58 72 7 73 8 74 9 75
REMARK SMILES IDX 10 77 11 78 12 79 25 80 13 81 14 82 15 83 16 84 17 85 18 87
REMARK SMILES IDX 19 88 20 89 24 90 21 91 23 92 22 93
REMARK H PARENT 3 7 82 25 50 36 8 76 16 86 23 94 23 95
REMARK Flexibility Score: inf
ROOT
ATOM      1  C   UNL A   1      31.398  31.139  25.997  1.00  0.00     0.023 C 
ENDROOT
BRANCH   1   2
ATOM      2  C   UNL A   1      31.336  32.590  26.503  1.00  0.00     0.023 C 
BRANCH   2   3
ATOM      3  C   UNL A   1      32.574  33.082  27.249  1.00  0.00     0.116 C 
BRANCH   3   4
ATOM      4  N   UNL A   1      32.433  34.452  27.708  1.00  0.00    -0.352 N 
ATOM      5  O   UNL A   1      32.697  36.236  29.049  1.00  0.00    -0.269 OA
ATOM      6  C   UNL A   1      33.075  35.110  28.720  1.00  0.00     0.251 C 
ATOM      7  H   UNL A   1      31.773  34.991  27.215  1.00  0.00     0.163 HD
BRANCH   6   8
ATOM      8  C   UNL A   1      34.203  34.482  29.437  1.00  0.00     0.039 A 
ATOM      9  C   UNL A   1      34.007  33.750  30.612  1.00  0.00     0.014 A 
ATOM     10  C   UNL A   1      35.480  34.585  28.879  1.00  0.00     0.014 A 
ATOM     11  C   UNL A   1      35.101  33.193  31.274  1.00  0.00     0.010 A 
ATOM     12  C   UNL A   1      36.567  33.985  29.514  1.00  0.00     0.010 A 
ATOM     13  C   UNL A   1      36.388  33.301  30.727  1.00  0.00    -0.014 A 
BRANCH  13  14
ATOM     14  C   UNL A   1      37.551  32.664  31.390  1.00  0.00     0.031 A 
ATOM     15  C   UNL A   1      38.250  31.503  30.747  1.00  0.00     0.074 A 
ATOM     16  C   UNL A   1      37.938  33.102  32.602  1.00  0.00     0.049 A 
ATOM     17  N   UNL A   1      39.210  30.750  31.220  1.00  0.00    -0.248 NA
ATOM     18  C   UNL A   1      37.802  31.132  29.397  1.00  0.00     0.031 C 
ATOM     19  C   UNL A   1      37.325  34.214  33.328  1.00  0.00     0.029 A 
ATOM     20  N   UNL A   1      38.922  32.652  33.444  1.00  0.00    -0.354 N 
ATOM     21  C   UNL A   1      39.466  29.802  30.239  1.00  0.00     0.074 A 
ATOM     22  C   UNL A   1      38.547  30.063  29.151  1.00  0.00     0.031 C 
ATOM     23  C   UNL A   1      37.944  34.358  34.510  1.00  0.00     0.029 A 
ATOM     24  C   UNL A   1      38.961  33.319  34.643  1.00  0.00     0.049 A 
ATOM     25  H   UNL A   1      39.539  31.920  33.211  1.00  0.00     0.167 HD
ATOM     26  C   UNL A   1      40.386  28.808  30.248  1.00  0.00     0.037 A 
ATOM     27  C   UNL A   1      39.709  33.098  35.740  1.00  0.00     0.037 A 
ATOM     28  C   UNL A   1      41.305  28.564  31.329  1.00  0.00     0.049 A 
ATOM     29  C   UNL A   1      40.708  31.977  35.736  1.00  0.00     0.074 A 
ATOM     30  C   UNL A   1      42.310  27.617  31.412  1.00  0.00     0.029 A 
ATOM     31  N   UNL A   1      41.324  29.272  32.523  1.00  0.00    -0.354 N 
ATOM     32  N   UNL A   1      40.972  31.113  34.788  1.00  0.00    -0.248 NA
ATOM     33  C   UNL A   1      41.514  31.802  36.952  1.00  0.00     0.031 C 
ATOM     34  C   UNL A   1      42.909  27.722  32.672  1.00  0.00     0.029 A 
ATOM     35  C   UNL A   1      42.308  28.765  33.358  1.00  0.00     0.049 A 
ATOM     36  H   UNL A   1      40.728  30.023  32.745  1.00  0.00     0.167 HD
ATOM     37  C   UNL A   1      41.986  30.303  35.281  1.00  0.00     0.074 A 
ATOM     38  C   UNL A   1      42.293  30.783  36.612  1.00  0.00     0.031 C 
ATOM     39  C   UNL A   1      42.606  29.259  34.679  1.00  0.00     0.037 A 
BRANCH  26  40
ATOM     40  C   UNL A   1      40.426  27.892  29.061  1.00  0.00     0.064 A 
ATOM     41  C   UNL A   1      39.669  26.712  29.011  1.00  0.00     0.173 A 
ATOM     42  C   UNL A   1      41.217  28.211  27.946  1.00  0.00     0.173 A 
ATOM     43  F   UNL A   1      38.905  26.356  30.055  1.00  0.00    -0.203 F 
ATOM     44  C   UNL A   1      39.727  25.871  27.903  1.00  0.00     0.198 A 
ATOM     45  C   UNL A   1      41.252  27.382  26.830  1.00  0.00     0.198 A 
ATOM     46  F   UNL A   1      41.956  29.332  27.940  1.00  0.00    -0.203 F 
ATOM     47  F   UNL A   1      39.033  24.724  27.898  1.00  0.00    -0.200 F 
ATOM     48  C   UNL A   1      40.514  26.208  26.812  1.00  0.00     0.200 A 
ATOM     49  F   UNL A   1      42.005  27.713  25.772  1.00  0.00    -0.200 F 
ATOM     50  F   UNL A   1      40.568  25.396  25.747  1.00  0.00    -0.200 F 
ENDBRANCH  26  40
BRANCH  27  51
ATOM     51  C   UNL A   1      39.521  33.968  36.927  1.00  0.00     0.064 A 
ATOM     52  C   UNL A   1      38.714  33.562  37.997  1.00  0.00     0.173 A 
ATOM     53  C   UNL A   1      40.194  35.194  37.039  1.00  0.00     0.173 A 
ATOM     54  F   UNL A   1      38.040  32.405  37.925  1.00  0.00    -0.203 F 
ATOM     55  C   UNL A   1      38.588  34.349  39.139  1.00  0.00     0.198 A 
ATOM     56  C   UNL A   1      40.084  35.969  38.191  1.00  0.00     0.198 A 
ATOM     57  F   UNL A   1      40.982  35.621  36.042  1.00  0.00    -0.203 F 
ATOM     58  F   UNL A   1      37.797  33.948  40.143  1.00  0.00    -0.200 F 
ATOM     59  C   UNL A   1      39.281  35.548  39.239  1.00  0.00     0.200 A 
ATOM     60  F   UNL A   1      40.769  37.117  38.290  1.00  0.00    -0.200 F 
ATOM     61  F   UNL A   1      39.174  36.294  40.346  1.00  0.00    -0.200 F 
ENDBRANCH  27  51
BRANCH  39  62
ATOM     62  C   UNL A   1      43.706  28.581  35.438  1.00  0.00     0.064 A 
ATOM     63  C   UNL A   1      45.040  28.996  35.324  1.00  0.00     0.173 A 
ATOM     64  C   UNL A   1      43.410  27.547  36.340  1.00  0.00     0.173 A 
ATOM     65  F   UNL A   1      45.373  29.970  34.463  1.00  0.00    -0.203 F 
ATOM     66  C   UNL A   1      46.041  28.394  36.081  1.00  0.00     0.198 A 
ATOM     67  C   UNL A   1      44.410  26.963  37.111  1.00  0.00     0.198 A 
ATOM     68  F   UNL A   1      42.147  27.119  36.485  1.00  0.00    -0.203 F 
ATOM     69  F   UNL A   1      47.314  28.786  35.938  1.00  0.00    -0.200 F 
ATOM     70  C   UNL A   1      45.725  27.385  36.979  1.00  0.00     0.200 A 
ATOM     71  F   UNL A   1      44.101  25.996  37.985  1.00  0.00    -0.200 F 
ATOM     72  F   UNL A   1      46.688  26.816  37.717  1.00  0.00    -0.200 F 
ENDBRANCH  39  62
ENDBRANCH  13  14
ENDBRANCH   6   8
ENDBRANCH   3   4
ENDBRANCH   2   3
ENDBRANCH   1   2
BRANCH   1  73
ATOM     73  C   UNL A   1      32.681  30.386  26.354  1.00  0.00     0.116 C 
BRANCH  73  74
ATOM     74  N   UNL A   1      32.399  29.344  27.311  1.00  0.00    -0.354 N 
ATOM     75  C   UNL A   1      31.770  28.159  27.081  1.00  0.00     0.249 C 
ATOM     76  H   UNL A   1      32.696  29.508  28.236  1.00  0.00     0.163 HD
ATOM     77  O   UNL A   1      31.117  27.707  28.019  1.00  0.00    -0.272 OA
BRANCH  75  78
ATOM     78  C   UNL A   1      31.955  27.418  25.743  1.00  0.00     0.207 C 
ATOM     79  C   UNL A   1      33.410  26.978  25.623  1.00  0.00     0.045 C 
ATOM     80  O   UNL A   1      31.153  26.228  25.651  1.00  0.00    -0.363 OA
ATOM     81  C   UNL A   1      33.366  25.551  26.121  1.00  0.00     0.037 C 
ATOM     82  C   UNL A   1      32.018  25.074  25.604  1.00  0.00     0.138 C 
BRANCH  82  83
ATOM     83  C   UNL A   1      31.365  23.878  26.330  1.00  0.00     0.147 C 
BRANCH  83  84
ATOM     84  N   UNL A   1      32.313  23.001  27.002  1.00  0.00    -0.353 N 
ATOM     85  C   UNL A   1      33.152  22.043  26.515  1.00  0.00     0.228 C 
ATOM     86  H   UNL A   1      32.357  23.121  27.978  1.00  0.00     0.163 HD
ATOM     87  O   UNL A   1      33.819  21.425  27.349  1.00  0.00    -0.275 OA
BRANCH  85  88
ATOM     88  C   UNL A   1      33.281  21.777  25.010  1.00  0.00     0.133 C 
ATOM     89  C   UNL A   1      32.287  20.749  24.477  1.00  0.00     0.025 C 
ATOM     90  C   UNL A   1      34.701  21.300  24.645  1.00  0.00     0.274 C 
ATOM     91  C   UNL A   1      32.613  19.341  24.964  1.00  0.00     0.062 C 
ATOM     92  N   UNL A   1      35.013  19.940  25.119  1.00  0.00    -0.346 N 
ATOM     93  C   UNL A   1      34.047  18.960  24.626  1.00  0.00     0.260 C 
ATOM     94  H   UNL A   1      35.944  19.682  24.789  1.00  0.00     0.346 HD
ATOM     95  H   UNL A   1      34.973  19.943  26.137  1.00  0.00     0.346 HD
ENDBRANCH  85  88
ENDBRANCH  83  84
ENDBRANCH  82  83
ENDBRANCH  75  78
ENDBRANCH  73  74
ENDBRANCH   1  73
TORSDOF 14
ENDMDL
MODEL 2
REMARK VINA RESULT:     -12.2      6.054     11.262
REMARK SMILES O=C(NCCCCNC(=O)[C@H]1CC[C@@H](CNC(=O)[C@@H]2CCC[NH2+]C2)O1)c1ccc(-c2c3nc(c(-c4c(F)c(F)c(F)c(F)c4F)c4ccc([nH]4)c(-c4c(F)c(F)c(F)c(F)c4F)c4nc(c(-c5c(F)c(F)c(F)c(F)c5F)c5ccc2[nH]5)C=C4)C=C3)cc1
REMARK SMILES IDX 6 1 5 2 4 3 3 4 1 5 2 6 26 8 27 9 88 10 28 11 87 12 29 13
REMARK SMILES IDX 30 14 31 15 81 16 32 17 86 18 80 19 82 20 33 21 85 22 79 23
REMARK SMILES IDX 78 24 34 26 66 27 46 28 65 29 47 30 50 31 64 32 83 33 48 34
REMARK SMILES IDX 49 35 63 37 84 38 51 39 35 40 36 41 44 42 37 43 38 44 42 45
REMARK SMILES IDX 45 46 39 47 40 48 43 49 41 50 67 51 68 52 76 53 69 54 70 55
REMARK SMILES IDX 74 56 77 57 71 58 72 59 75 60 73 61 52 62 53 63 61 64 54 65
REMARK SMILES IDX 55 66 59 67 62 68 56 69 57 70 60 71 58 72 7 73 8 74 9 75
REMARK SMILES IDX 10 77 11 78 12 79 25 80 13 81 14 82 15 83 16 84 17 85 18 87
REMARK SMILES IDX 19 88 20 89 24 90 21 91 23 92 22 93
REMARK H PARENT 3 7 82 25 50 36 8 76 16 86 23 94 23 95
REMARK Flexibility Score: inf
ROOT
ATOM      1  C   UNL A   1      37.139  20.523  24.963  1.00  0.00     0.023 C 
ENDROOT
BRANCH   1   2
ATOM      2  C   UNL A   1      38.350  19.577  24.994  1.00  0.00     0.023 C 
BRANCH   2   3
ATOM      3  C   UNL A   1      39.347  19.815  26.126  1.00  0.00     0.116 C 
BRANCH   3   4
ATOM      4  N   UNL A   1      40.488  18.921  26.053  1.00  0.00    -0.352 N 
ATOM      5  O   UNL A   1      42.639  18.304  25.848  1.00  0.00    -0.269 OA
ATOM      6  C   UNL A   1      41.826  19.202  26.076  1.00  0.00     0.251 C 
ATOM      7  H   UNL A   1      40.265  17.965  25.976  1.00  0.00     0.163 HD
BRANCH   6   8
ATOM      8  C   UNL A   1      42.310  20.569  26.352  1.00  0.00     0.039 A 
ATOM      9  C   UNL A   1      42.640  21.452  25.319  1.00  0.00     0.014 A 
ATOM     10  C   UNL A   1      42.375  20.991  27.683  1.00  0.00     0.014 A 
ATOM     11  C   UNL A   1      43.117  22.727  25.620  1.00  0.00     0.010 A 
ATOM     12  C   UNL A   1      42.805  22.284  27.983  1.00  0.00     0.010 A 
ATOM     13  C   UNL A   1      43.197  23.155  26.954  1.00  0.00    -0.014 A 
BRANCH  13  14
ATOM     14  C   UNL A   1      43.648  24.528  27.285  1.00  0.00     0.031 A 
ATOM     15  C   UNL A   1      42.667  25.551  27.777  1.00  0.00     0.074 A 
ATOM     16  C   UNL A   1      44.935  24.863  27.087  1.00  0.00     0.049 A 
ATOM     17  N   UNL A   1      42.849  26.825  28.013  1.00  0.00    -0.248 NA
ATOM     18  C   UNL A   1      41.296  25.081  28.024  1.00  0.00     0.031 C 
ATOM     19  C   UNL A   1      45.974  23.955  26.601  1.00  0.00     0.029 A 
ATOM     20  N   UNL A   1      45.583  26.061  27.247  1.00  0.00    -0.354 N 
ATOM     21  C   UNL A   1      41.614  27.315  28.413  1.00  0.00     0.074 A 
ATOM     22  C   UNL A   1      40.685  26.206  28.371  1.00  0.00     0.031 C 
ATOM     23  C   UNL A   1      47.130  24.629  26.498  1.00  0.00     0.029 A 
ATOM     24  C   UNL A   1      46.900  26.024  26.864  1.00  0.00     0.049 A 
ATOM     25  H   UNL A   1      45.145  26.869  27.601  1.00  0.00     0.167 HD
ATOM     26  C   UNL A   1      41.290  28.578  28.784  1.00  0.00     0.037 A 
ATOM     27  C   UNL A   1      47.813  27.009  26.783  1.00  0.00     0.037 A 
ATOM     28  C   UNL A   1      42.224  29.672  28.837  1.00  0.00     0.049 A 
ATOM     29  C   UNL A   1      47.427  28.405  27.179  1.00  0.00     0.074 A 
ATOM     30  C   UNL A   1      42.005  30.975  29.251  1.00  0.00     0.029 A 
ATOM     31  N   UNL A   1      43.555  29.592  28.455  1.00  0.00    -0.354 N 
ATOM     32  N   UNL A   1      46.268  28.851  27.596  1.00  0.00    -0.248 NA
ATOM     33  C   UNL A   1      48.472  29.433  27.096  1.00  0.00     0.031 C 
ATOM     34  C   UNL A   1      43.193  31.694  29.078  1.00  0.00     0.029 A 
ATOM     35  C   UNL A   1      44.164  30.829  28.599  1.00  0.00     0.049 A 
ATOM     36  H   UNL A   1      44.002  28.777  28.129  1.00  0.00     0.167 HD
ATOM     37  C   UNL A   1      46.446  30.205  27.844  1.00  0.00     0.074 A 
ATOM     38  C   UNL A   1      47.828  30.507  27.535  1.00  0.00     0.031 C 
ATOM     39  C   UNL A   1      45.544  31.112  28.293  1.00  0.00     0.037 A 
BRANCH  26  40
ATOM     40  C   UNL A   1      39.857  28.847  29.139  1.00  0.00     0.064 A 
ATOM     41  C   UNL A   1      38.917  29.238  28.173  1.00  0.00     0.173 A 
ATOM     42  C   UNL A   1      39.413  28.690  30.461  1.00  0.00     0.173 A 
ATOM     43  F   UNL A   1      39.294  29.412  26.898  1.00  0.00    -0.203 F 
ATOM     44  C   UNL A   1      37.594  29.492  28.525  1.00  0.00     0.198 A 
ATOM     45  C   UNL A   1      38.084  28.920  30.803  1.00  0.00     0.198 A 
ATOM     46  F   UNL A   1      40.270  28.313  31.422  1.00  0.00    -0.203 F 
ATOM     47  F   UNL A   1      36.725  29.912  27.595  1.00  0.00    -0.200 F 
ATOM     48  C   UNL A   1      37.177  29.328  29.837  1.00  0.00     0.200 A 
ATOM     49  F   UNL A   1      37.680  28.752  32.070  1.00  0.00    -0.200 F 
ATOM     50  F   UNL A   1      35.903  29.575  30.172  1.00  0.00    -0.200 F 
ENDBRANCH  26  40
BRANCH  27  51
ATOM     51  C   UNL A   1      49.178  26.689  26.298  1.00  0.00     0.064 A 
ATOM     52  C   UNL A   1      49.534  26.894  24.959  1.00  0.00     0.173 A 
ATOM     53  C   UNL A   1      50.169  26.230  27.179  1.00  0.00     0.173 A 
ATOM     54  F   UNL A   1      48.614  27.317  24.080  1.00  0.00    -0.203 F 
ATOM     55  C   UNL A   1      50.833  26.655  24.518  1.00  0.00     0.198 A 
ATOM     56  C   UNL A   1      51.473  26.011  26.740  1.00  0.00     0.198 A 
ATOM     57  F   UNL A   1      49.876  26.024  28.471  1.00  0.00    -0.203 F 
ATOM     58  F   UNL A   1      51.146  26.842  23.229  1.00  0.00    -0.200 F 
ATOM     59  C   UNL A   1      51.804  26.222  25.411  1.00  0.00     0.200 A 
ATOM     60  F   UNL A   1      52.411  25.611  27.610  1.00  0.00    -0.200 F 
ATOM     61  F   UNL A   1      53.057  26.011  24.989  1.00  0.00    -0.200 F 
ENDBRANCH  27  51
BRANCH  39  62
ATOM     62  C   UNL A   1      46.027  32.514  28.510  1.00  0.00     0.064 A 
ATOM     63  C   UNL A   1      46.600  32.912  29.726  1.00  0.00     0.173 A 
ATOM     64  C   UNL A   1      45.974  33.449  27.466  1.00  0.00     0.173 A 
ATOM     65  F   UNL A   1      46.658  32.056  30.757  1.00  0.00    -0.203 F 
ATOM     66  C   UNL A   1      47.097  34.202  29.891  1.00  0.00     0.198 A 
ATOM     67  C   UNL A   1      46.492  34.731  27.627  1.00  0.00     0.198 A 
ATOM     68  F   UNL A   1      45.438  33.113  26.284  1.00  0.00    -0.203 F 
ATOM     69  F   UNL A   1      47.617  34.572  31.069  1.00  0.00    -0.200 F 
ATOM     70  C   UNL A   1      47.051  35.107  28.840  1.00  0.00     0.200 A 
ATOM     71  F   UNL A   1      46.456  35.600  26.608  1.00  0.00    -0.200 F 
ATOM     72  F   UNL A   1      47.542  36.343  28.997  1.00  0.00    -0.200 F 
ENDBRANCH  39  62
ENDBRANCH  13  14
ENDBRANCH   6   8
ENDBRANCH   3   4
ENDBRANCH   2   3
ENDBRANCH   1   2
BRANCH   1  73
ATOM     73  C   UNL A   1      37.483  22.013  25.022  1.00  0.00     0.116 C 
BRANCH  73  74
ATOM     74  N   UNL A   1      37.029  22.678  23.825  1.00  0.00    -0.354 N 
ATOM     75  C   UNL A   1      35.799  23.215  23.595  1.00  0.00     0.249 C 
ATOM     76  H   UNL A   1      37.682  22.753  23.092  1.00  0.00     0.163 HD
ATOM     77  O   UNL A   1      35.412  23.187  22.429  1.00  0.00    -0.272 OA
BRANCH  75  78
ATOM     78  C   UNL A   1      35.007  23.882  24.735  1.00  0.00     0.207 C 
ATOM     79  C   UNL A   1      33.880  24.713  24.131  1.00  0.00     0.045 C 
ATOM     80  O   UNL A   1      34.391  22.927  25.616  1.00  0.00    -0.363 OA
ATOM     81  C   UNL A   1      32.701  23.769  24.199  1.00  0.00     0.037 C 
ATOM     82  C   UNL A   1      32.956  23.032  25.504  1.00  0.00     0.138 C 
BRANCH  82  83
ATOM     83  C   UNL A   1      32.296  21.647  25.674  1.00  0.00     0.147 C 
BRANCH  83  84
ATOM     84  N   UNL A   1      32.152  20.901  24.433  1.00  0.00    -0.353 N 
ATOM     85  C   UNL A   1      32.686  19.714  24.031  1.00  0.00     0.228 C 
ATOM     86  H   UNL A   1      31.565  21.328  23.768  1.00  0.00     0.163 HD
ATOM     87  O   UNL A   1      32.408  19.348  22.886  1.00  0.00    -0.275 OA
BRANCH  85  88
ATOM     88  C   UNL A   1      33.556  18.866  24.967  1.00  0.00     0.133 C 
ATOM     89  C   UNL A   1      34.655  18.085  24.250  1.00  0.00     0.025 C 
ATOM     90  C   UNL A   1      32.704  17.861  25.768  1.00  0.00     0.274 C 
ATOM     91  C   UNL A   1      34.085  16.946  23.411  1.00  0.00     0.062 C 
ATOM     92  N   UNL A   1      32.153  16.764  24.954  1.00  0.00    -0.346 N 
ATOM     93  C   UNL A   1      33.204  16.031  24.250  1.00  0.00     0.260 C 
ATOM     94  H   UNL A   1      31.653  16.118  25.566  1.00  0.00     0.346 HD
ATOM     95  H   UNL A   1      31.527  17.169  24.259  1.00  0.00     0.346 HD
ENDBRANCH  85  88
ENDBRANCH  83  84
ENDBRANCH  82  83
ENDBRANCH  75  78
ENDBRANCH  73  74
ENDBRANCH   1  73
TORSDOF 14
ENDMDL
MODEL 3
REMARK VINA RESULT:     -12.2      0.882      1.932
REMARK SMILES O=C(NCCCCNC(=O)[C@H]1CC[C@@H](CNC(=O)[C@@H]2CCC[NH2+]C2)O1)c1ccc(-c2c3nc(c(-c4c(F)c(F)c(F)c(F)c4F)c4ccc([nH]4)c(-c4c(F)c(F)c(F)c(F)c4F)c4nc(c(-c5c(F)c(F)c(F)c(F)c5F)c5ccc2[nH]5)C=C4)C=C3)cc1
REMARK SMILES IDX 6 1 5 2 4 3 3 4 1 5 2 6 26 8 27 9 88 10 28 11 87 12 29 13
REMARK SMILES IDX 30 14 31 15 81 16 32 17 86 18 80 19 82 20 33 21 85 22 79 23
REMARK SMILES IDX 78 24 34 26 66 27 46 28 65 29 47 30 50 31 64 32 83 33 48 34
REMARK SMILES IDX 49 35 63 37 84 38 51 39 35 40 36 41 44 42 37 43 38 44 42 45
REMARK SMILES IDX 45 46 39 47 40 48 43 49 41 50 67 51 68 52 76 53 69 54 70 55
REMARK SMILES IDX 74 56 77 57 71 58 72 59 75 60 73 61 52 62 53 63 61 64 54 65
REMARK SMILES IDX 55 66 59 67 62 68 56 69 57 70 60 71 58 72 7 73 8 74 9 75
REMARK SMILES IDX 10 77 11 78 12 79 25 80 13 81 14 82 15 83 16 84 17 85 18 87
REMARK SMILES IDX 19 88 20 89 24 90 21 91 23 92 22 93
REMARK H PARENT 3 7 82 25 50 36 8 76 16 86 23 94 23 95
REMARK Flexibility Score: inf
ROOT
ATOM      1  C   UNL A   1      31.433  30.794  26.080  1.00  0.00     0.023 C 
ENDROOT
BRANCH   1   2
ATOM      2  C   UNL A   1      31.374  32.271  26.501  1.00  0.00     0.023 C 
BRANCH   2   3
ATOM      3  C   UNL A   1      32.638  32.823  27.155  1.00  0.00     0.116 C 
BRANCH   3   4
ATOM      4  N   UNL A   1      32.457  34.174  27.655  1.00  0.00    -0.352 N 
ATOM      5  O   UNL A   1      32.667  35.923  29.049  1.00  0.00    -0.269 OA
ATOM      6  C   UNL A   1      33.077  34.819  28.689  1.00  0.00     0.251 C 
ATOM      7  H   UNL A   1      31.784  34.709  27.175  1.00  0.00     0.163 HD
BRANCH   6   8
ATOM      8  C   UNL A   1      34.220  34.201  29.392  1.00  0.00     0.039 A 
ATOM      9  C   UNL A   1      34.034  33.355  30.490  1.00  0.00     0.014 A 
ATOM     10  C   UNL A   1      35.505  34.433  28.894  1.00  0.00     0.014 A 
ATOM     11  C   UNL A   1      35.139  32.811  31.143  1.00  0.00     0.010 A 
ATOM     12  C   UNL A   1      36.608  33.848  29.517  1.00  0.00     0.010 A 
ATOM     13  C   UNL A   1      36.434  33.048  30.657  1.00  0.00    -0.014 A 
BRANCH  13  14
ATOM     14  C   UNL A   1      37.614  32.428  31.308  1.00  0.00     0.031 A 
ATOM     15  C   UNL A   1      38.323  31.278  30.656  1.00  0.00     0.074 A 
ATOM     16  C   UNL A   1      38.008  32.872  32.515  1.00  0.00     0.049 A 
ATOM     17  N   UNL A   1      39.299  30.540  31.118  1.00  0.00    -0.248 NA
ATOM     18  C   UNL A   1      37.865  30.901  29.310  1.00  0.00     0.031 C 
ATOM     19  C   UNL A   1      37.386  33.974  33.248  1.00  0.00     0.029 A 
ATOM     20  N   UNL A   1      39.007  32.436  33.346  1.00  0.00    -0.354 N 
ATOM     21  C   UNL A   1      39.558  29.596  30.133  1.00  0.00     0.074 A 
ATOM     22  C   UNL A   1      38.623  29.844  29.056  1.00  0.00     0.031 C 
ATOM     23  C   UNL A   1      38.016  34.127  34.424  1.00  0.00     0.029 A 
ATOM     24  C   UNL A   1      39.050  33.104  34.544  1.00  0.00     0.049 A 
ATOM     25  H   UNL A   1      39.633  31.714  33.106  1.00  0.00     0.167 HD
ATOM     26  C   UNL A   1      40.493  28.616  30.132  1.00  0.00     0.037 A 
ATOM     27  C   UNL A   1      39.813  32.894  35.633  1.00  0.00     0.037 A 
ATOM     28  C   UNL A   1      41.428  28.385  31.203  1.00  0.00     0.049 A 
ATOM     29  C   UNL A   1      40.829  31.788  35.617  1.00  0.00     0.074 A 
ATOM     30  C   UNL A   1      42.448  27.453  31.273  1.00  0.00     0.029 A 
ATOM     31  N   UNL A   1      41.450  29.093  32.396  1.00  0.00    -0.354 N 
ATOM     32  N   UNL A   1      41.095  30.927  34.666  1.00  0.00    -0.248 NA
ATOM     33  C   UNL A   1      41.651  31.624  36.823  1.00  0.00     0.031 C 
ATOM     34  C   UNL A   1      43.059  27.567  32.527  1.00  0.00     0.029 A 
ATOM     35  C   UNL A   1      42.450  28.601  33.220  1.00  0.00     0.049 A 
ATOM     36  H   UNL A   1      40.844  29.835  32.625  1.00  0.00     0.167 HD
ATOM     37  C   UNL A   1      42.126  30.132  35.147  1.00  0.00     0.074 A 
ATOM     38  C   UNL A   1      42.442  30.617  36.475  1.00  0.00     0.031 C 
ATOM     39  C   UNL A   1      42.755  29.098  34.538  1.00  0.00     0.037 A 
BRANCH  26  40
ATOM     40  C   UNL A   1      40.533  27.701  28.944  1.00  0.00     0.064 A 
ATOM     41  C   UNL A   1      39.723  26.559  28.862  1.00  0.00     0.173 A 
ATOM     42  C   UNL A   1      41.379  27.984  27.861  1.00  0.00     0.173 A 
ATOM     43  F   UNL A   1      38.904  26.238  29.875  1.00  0.00    -0.203 F 
ATOM     44  C   UNL A   1      39.782  25.717  27.754  1.00  0.00     0.198 A 
ATOM     45  C   UNL A   1      41.416  27.155  26.743  1.00  0.00     0.198 A 
ATOM     46  F   UNL A   1      42.171  29.067  27.885  1.00  0.00    -0.203 F 
ATOM     47  F   UNL A   1      39.034  24.605  27.719  1.00  0.00    -0.200 F 
ATOM     48  C   UNL A   1      40.624  26.018  26.694  1.00  0.00     0.200 A 
ATOM     49  F   UNL A   1      42.224  27.451  25.716  1.00  0.00    -0.200 F 
ATOM     50  F   UNL A   1      40.679  25.206  25.629  1.00  0.00    -0.200 F 
ENDBRANCH  26  40
BRANCH  27  51
ATOM     51  C   UNL A   1      39.626  33.760  36.822  1.00  0.00     0.064 A 
ATOM     52  C   UNL A   1      40.220  35.026  36.893  1.00  0.00     0.173 A 
ATOM     53  C   UNL A   1      38.799  33.362  37.884  1.00  0.00     0.173 A 
ATOM     54  F   UNL A   1      41.030  35.440  35.909  1.00  0.00    -0.203 F 
ATOM     55  C   UNL A   1      39.992  35.865  37.981  1.00  0.00     0.198 A 
ATOM     56  C   UNL A   1      38.555  34.211  38.960  1.00  0.00     0.198 A 
ATOM     57  F   UNL A   1      38.204  32.160  37.857  1.00  0.00    -0.203 F 
ATOM     58  F   UNL A   1      40.585  37.066  38.034  1.00  0.00    -0.200 F 
ATOM     59  C   UNL A   1      39.152  35.460  39.009  1.00  0.00     0.200 A 
ATOM     60  F   UNL A   1      37.729  33.822  39.942  1.00  0.00    -0.200 F 
ATOM     61  F   UNL A   1      38.918  36.276  40.045  1.00  0.00    -0.200 F 
ENDBRANCH  27  51
BRANCH  39  62
ATOM     62  C   UNL A   1      43.874  28.437  35.284  1.00  0.00     0.064 A 
ATOM     63  C   UNL A   1      43.646  27.339  36.126  1.00  0.00     0.173 A 
ATOM     64  C   UNL A   1      45.197  28.866  35.101  1.00  0.00     0.173 A 
ATOM     65  F   UNL A   1      42.396  26.903  36.343  1.00  0.00    -0.203 F 
ATOM     66  C   UNL A   1      44.704  26.698  36.765  1.00  0.00     0.198 A 
ATOM     67  C   UNL A   1      46.254  28.210  35.725  1.00  0.00     0.198 A 
ATOM     68  F   UNL A   1      45.464  29.910  34.303  1.00  0.00    -0.203 F 
ATOM     69  F   UNL A   1      44.463  25.668  37.587  1.00  0.00    -0.200 F 
ATOM     70  C   UNL A   1      46.007  27.128  36.557  1.00  0.00     0.200 A 
ATOM     71  F   UNL A   1      47.512  28.620  35.514  1.00  0.00    -0.200 F 
ATOM     72  F   UNL A   1      47.024  26.502  37.163  1.00  0.00    -0.200 F 
ENDBRANCH  39  62
ENDBRANCH  13  14
ENDBRANCH   6   8
ENDBRANCH   3   4
ENDBRANCH   2   3
ENDBRANCH   1   2
BRANCH   1  73
ATOM     73  C   UNL A   1      32.184  29.877  27.047  1.00  0.00     0.116 C 
BRANCH  73  74
ATOM     74  N   UNL A   1      32.919  28.874  26.315  1.00  0.00    -0.354 N 
ATOM     75  C   UNL A   1      32.681  27.534  26.284  1.00  0.00     0.249 C 
ATOM     76  H   UNL A   1      33.678  29.195  25.775  1.00  0.00     0.163 HD
ATOM     77  O   UNL A   1      33.668  26.818  26.135  1.00  0.00    -0.272 OA
BRANCH  75  78
ATOM     78  C   UNL A   1      31.241  26.990  26.351  1.00  0.00     0.207 C 
ATOM     79  C   UNL A   1      30.622  27.066  24.960  1.00  0.00     0.045 C 
ATOM     80  O   UNL A   1      31.187  25.611  26.754  1.00  0.00    -0.363 OA
ATOM     81  C   UNL A   1      30.856  25.675  24.417  1.00  0.00     0.037 C 
ATOM     82  C   UNL A   1      30.687  24.815  25.659  1.00  0.00     0.138 C 
BRANCH  82  83
ATOM     83  C   UNL A   1      31.356  23.423  25.652  1.00  0.00     0.147 C 
BRANCH  83  84
ATOM     84  N   UNL A   1      32.355  23.238  26.693  1.00  0.00    -0.353 N 
ATOM     85  C   UNL A   1      33.713  23.141  26.630  1.00  0.00     0.228 C 
ATOM     86  H   UNL A   1      31.986  23.172  27.604  1.00  0.00     0.163 HD
ATOM     87  O   UNL A   1      34.298  22.942  27.698  1.00  0.00    -0.275 OA
BRANCH  85  88
ATOM     88  C   UNL A   1      34.469  23.305  25.305  1.00  0.00     0.133 C 
ATOM     89  C   UNL A   1      34.476  22.050  24.438  1.00  0.00     0.025 C 
ATOM     90  C   UNL A   1      35.933  23.727  25.544  1.00  0.00     0.274 C 
ATOM     91  C   UNL A   1      35.348  20.951  25.038  1.00  0.00     0.062 C 
ATOM     92  N   UNL A   1      36.772  22.664  26.126  1.00  0.00    -0.346 N 
ATOM     93  C   UNL A   1      36.759  21.454  25.306  1.00  0.00     0.260 C 
ATOM     94  H   UNL A   1      37.731  23.004  26.199  1.00  0.00     0.346 HD
ATOM     95  H   UNL A   1      36.395  22.430  27.044  1.00  0.00     0.346 HD
ENDBRANCH  85  88
ENDBRANCH  83  84
ENDBRANCH  82  83
ENDBRANCH  75  78
ENDBRANCH  73  74
ENDBRANCH   1  73
TORSDOF 14
ENDMDL
