MODEL 1
REMARK VINA RESULT:     -12.0      0.000      0.000
REMARK SMILES CC[C@@H](C(=O)NCCCCNC(=O)c1ccc(-c2c3nc(c(-c4c(F)c(F)c(F)c(F)c4F)c4ccc([nH]4)c(-c4c(F)c(F)c(F)c(F)c4F)c4nc(c(-c5c(F)c(F)c(F)c(F)c5F)c5ccc2[nH]5)C=C4)C=C3)cc1)c1cc(Br)ccc1F
REMARK SMILES IDX 9 1 8 2 7 3 6 4 4 5 5 6 3 8 2 9 1 10 77 11 78 12 83 13 79 14
REMARK SMILES IDX 82 15 84 16 80 17 81 18 10 19 11 20 12 21 13 23 14 24 15 25
REMARK SMILES IDX 76 26 16 27 75 28 17 29 18 30 19 31 69 32 20 33 74 34 68 35
REMARK SMILES IDX 70 36 21 37 73 38 67 39 66 40 22 42 54 43 34 44 53 45 35 46
REMARK SMILES IDX 38 47 52 48 71 49 36 50 37 51 51 53 72 54 39 55 23 56 24 57
REMARK SMILES IDX 32 58 25 59 26 60 30 61 33 62 27 63 28 64 31 65 29 66 55 67
REMARK SMILES IDX 56 68 64 69 57 70 58 71 62 72 65 73 59 74 60 75 63 76 61 77
REMARK SMILES IDX 40 78 41 79 49 80 42 81 43 82 47 83 50 84 44 85 45 86 48 87
REMARK SMILES IDX 46 88
REMARK H PARENT 6 7 11 22 70 41 38 52
REMARK Flexibility Score: inf
ROOT
ATOM      1  C   UNL A   1      31.692  31.832  26.785  1.00  0.00     0.023 C 
ENDROOT
BRANCH   1   2
ATOM      2  C   UNL A   1      31.906  30.324  26.870  1.00  0.00     0.023 C 
BRANCH   2   3
ATOM      3  C   UNL A   1      33.353  29.862  26.673  1.00  0.00     0.116 C 
BRANCH   3   4
ATOM      4  N   UNL A   1      33.645  29.697  25.262  1.00  0.00    -0.356 N 
ATOM      5  C   UNL A   1      33.598  28.589  24.462  1.00  0.00     0.227 C 
ATOM      6  O   UNL A   1      34.128  28.691  23.352  1.00  0.00    -0.274 OA
ATOM      7  H   UNL A   1      33.924  30.522  24.803  1.00  0.00     0.163 HD
BRANCH   5   8
ATOM      8  C   UNL A   1      32.855  27.308  24.903  1.00  0.00     0.111 C 
BRANCH   8   9
ATOM      9  C   UNL A   1      33.586  26.026  24.446  1.00  0.00     0.015 C 
ATOM     10  C   UNL A   1      34.258  25.176  25.503  1.00  0.00     0.005 C 
ENDBRANCH   8   9
BRANCH   8  11
ATOM     11  C   UNL A   1      31.389  27.365  24.414  1.00  0.00     0.001 A 
ATOM     12  C   UNL A   1      30.966  28.473  23.650  1.00  0.00     0.023 A 
ATOM     13  C   UNL A   1      30.436  26.360  24.659  1.00  0.00     0.127 A 
ATOM     14  C   UNL A   1      29.658  28.547  23.155  1.00  0.00     0.018 A 
ATOM     15  C   UNL A   1      29.128  26.446  24.182  1.00  0.00     0.041 A 
ATOM     16  F   UNL A   1      30.736  25.262  25.364  1.00  0.00    -0.207 F 
ATOM     17  Br  UNL A   1      29.135  30.023  22.094  1.00  0.00    -0.051 Br
ATOM     18  C   UNL A   1      28.734  27.540  23.423  1.00  0.00     0.019 A 
ENDBRANCH   8  11
ENDBRANCH   5   8
ENDBRANCH   3   4
ENDBRANCH   2   3
ENDBRANCH   1   2
BRANCH   1  19
ATOM     19  C   UNL A   1      32.840  32.666  27.328  1.00  0.00     0.116 C 
BRANCH  19  20
ATOM     20  N   UNL A   1      32.459  34.040  27.628  1.00  0.00    -0.352 N 
ATOM     21  C   UNL A   1      32.984  34.904  28.559  1.00  0.00     0.251 C 
ATOM     22  H   UNL A   1      31.721  34.401  27.086  1.00  0.00     0.163 HD
ATOM     23  O   UNL A   1      32.465  35.997  28.758  1.00  0.00    -0.269 OA
BRANCH  21  24
ATOM     24  C   UNL A   1      34.158  34.488  29.353  1.00  0.00     0.039 A 
ATOM     25  C   UNL A   1      33.958  33.909  30.609  1.00  0.00     0.014 A 
ATOM     26  C   UNL A   1      35.448  34.622  28.834  1.00  0.00     0.014 A 
ATOM     27  C   UNL A   1      35.048  33.383  31.305  1.00  0.00     0.010 A 
ATOM     28  C   UNL A   1      36.515  34.017  29.484  1.00  0.00     0.010 A 
ATOM     29  C   UNL A   1      36.327  33.391  30.726  1.00  0.00    -0.014 A 
BRANCH  29  30
ATOM     30  C   UNL A   1      37.489  32.758  31.395  1.00  0.00     0.031 A 
ATOM     31  C   UNL A   1      38.196  31.611  30.731  1.00  0.00     0.074 A 
ATOM     32  C   UNL A   1      37.845  33.148  32.635  1.00  0.00     0.049 A 
ATOM     33  N   UNL A   1      39.146  30.840  31.196  1.00  0.00    -0.248 NA
ATOM     34  C   UNL A   1      37.748  31.257  29.374  1.00  0.00     0.031 C 
ATOM     35  C   UNL A   1      37.197  34.208  33.409  1.00  0.00     0.029 A 
ATOM     36  N   UNL A   1      38.830  32.683  33.470  1.00  0.00    -0.354 N 
ATOM     37  C   UNL A   1      39.384  29.897  30.205  1.00  0.00     0.074 A 
ATOM     38  C   UNL A   1      38.447  30.157  29.136  1.00  0.00     0.031 C 
ATOM     39  C   UNL A   1      37.814  34.327  34.596  1.00  0.00     0.029 A 
ATOM     40  C   UNL A   1      38.876  33.329  34.681  1.00  0.00     0.049 A 
ATOM     41  H   UNL A   1      39.447  31.956  33.224  1.00  0.00     0.167 HD
ATOM     42  C   UNL A   1      40.317  28.917  30.180  1.00  0.00     0.037 A 
ATOM     43  C   UNL A   1      39.679  33.130  35.744  1.00  0.00     0.037 A 
ATOM     44  C   UNL A   1      41.280  28.693  31.224  1.00  0.00     0.049 A 
ATOM     45  C   UNL A   1      40.731  32.056  35.677  1.00  0.00     0.074 A 
ATOM     46  C   UNL A   1      42.319  27.781  31.259  1.00  0.00     0.029 A 
ATOM     47  N   UNL A   1      41.325  29.399  32.417  1.00  0.00    -0.354 N 
ATOM     48  N   UNL A   1      40.992  31.214  34.706  1.00  0.00    -0.248 NA
ATOM     49  C   UNL A   1      41.601  31.906  36.851  1.00  0.00     0.031 C 
ATOM     50  C   UNL A   1      42.974  27.911  32.489  1.00  0.00     0.029 A 
ATOM     51  C   UNL A   1      42.365  28.931  33.204  1.00  0.00     0.049 A 
ATOM     52  H   UNL A   1      40.708  30.124  32.669  1.00  0.00     0.167 HD
ATOM     53  C   UNL A   1      42.068  30.455  35.140  1.00  0.00     0.074 A 
ATOM     54  C   UNL A   1      42.422  30.943  36.456  1.00  0.00     0.031 C 
ATOM     55  C   UNL A   1      42.708  29.441  34.506  1.00  0.00     0.037 A 
BRANCH  42  56
ATOM     56  C   UNL A   1      40.349  28.021  28.978  1.00  0.00     0.064 A 
ATOM     57  C   UNL A   1      41.113  28.340  27.844  1.00  0.00     0.173 A 
ATOM     58  C   UNL A   1      39.628  26.817  28.966  1.00  0.00     0.173 A 
ATOM     59  F   UNL A   1      41.808  29.485  27.800  1.00  0.00    -0.203 F 
ATOM     60  C   UNL A   1      41.131  27.501  26.734  1.00  0.00     0.198 A 
ATOM     61  C   UNL A   1      39.671  25.967  27.865  1.00  0.00     0.198 A 
ATOM     62  F   UNL A   1      38.884  26.465  30.026  1.00  0.00    -0.203 F 
ATOM     63  F   UNL A   1      41.827  27.851  25.643  1.00  0.00    -0.200 F 
ATOM     64  C   UNL A   1      40.416  26.313  26.747  1.00  0.00     0.200 A 
ATOM     65  F   UNL A   1      38.988  24.814  27.883  1.00  0.00    -0.200 F 
ATOM     66  F   UNL A   1      40.437  25.505  25.678  1.00  0.00    -0.200 F 
ENDBRANCH  42  56
BRANCH  43  67
ATOM     67  C   UNL A   1      39.543  33.988  36.949  1.00  0.00     0.064 A 
ATOM     68  C   UNL A   1      38.779  33.564  38.046  1.00  0.00     0.173 A 
ATOM     69  C   UNL A   1      40.166  35.241  37.032  1.00  0.00     0.173 A 
ATOM     70  F   UNL A   1      38.147  32.382  38.004  1.00  0.00    -0.203 F 
ATOM     71  C   UNL A   1      38.628  34.370  39.172  1.00  0.00     0.198 A 
ATOM     72  C   UNL A   1      40.036  36.035  38.170  1.00  0.00     0.198 A 
ATOM     73  F   UNL A   1      40.913  35.687  36.012  1.00  0.00    -0.203 F 
ATOM     74  F   UNL A   1      37.858  33.960  40.189  1.00  0.00    -0.200 F 
ATOM     75  C   UNL A   1      39.260  35.603  39.235  1.00  0.00     0.200 A 
ATOM     76  F   UNL A   1      40.658  37.220  38.232  1.00  0.00    -0.200 F 
ATOM     77  F   UNL A   1      39.117  36.377  40.319  1.00  0.00    -0.200 F 
ENDBRANCH  43  67
BRANCH  55  78
ATOM     78  C   UNL A   1      43.872  28.814  35.212  1.00  0.00     0.064 A 
ATOM     79  C   UNL A   1      43.702  27.738  36.093  1.00  0.00     0.173 A 
ATOM     80  C   UNL A   1      45.177  29.265  34.963  1.00  0.00     0.173 A 
ATOM     81  F   UNL A   1      42.472  27.284  36.374  1.00  0.00    -0.203 F 
ATOM     82  C   UNL A   1      44.797  27.146  36.715  1.00  0.00     0.198 A 
ATOM     83  C   UNL A   1      46.272  28.652  35.566  1.00  0.00     0.198 A 
ATOM     84  F   UNL A   1      45.391  30.288  34.122  1.00  0.00    -0.203 F 
ATOM     85  F   UNL A   1      44.610  26.142  37.584  1.00  0.00    -0.200 F 
ATOM     86  C   UNL A   1      46.081  27.597  36.444  1.00  0.00     0.200 A 
ATOM     87  F   UNL A   1      47.512  29.083  35.294  1.00  0.00    -0.200 F 
ATOM     88  F   UNL A   1      47.135  27.018  37.037  1.00  0.00    -0.200 F 
ENDBRANCH  55  78
ENDBRANCH  29  30
ENDBRANCH  21  24
ENDBRANCH  19  20
ENDBRANCH   1  19
TORSDOF 13
ENDMDL
MODEL 2
REMARK VINA RESULT:     -12.0      0.094      2.010
REMARK SMILES CC[C@@H](C(=O)NCCCCNC(=O)c1ccc(-c2c3nc(c(-c4c(F)c(F)c(F)c(F)c4F)c4ccc([nH]4)c(-c4c(F)c(F)c(F)c(F)c4F)c4nc(c(-c5c(F)c(F)c(F)c(F)c5F)c5ccc2[nH]5)C=C4)C=C3)cc1)c1cc(Br)ccc1F
REMARK SMILES IDX 9 1 8 2 7 3 6 4 4 5 5 6 3 8 2 9 1 10 77 11 78 12 83 13 79 14
REMARK SMILES IDX 82 15 84 16 80 17 81 18 10 19 11 20 12 21 13 23 14 24 15 25
REMARK SMILES IDX 76 26 16 27 75 28 17 29 18 30 19 31 69 32 20 33 74 34 68 35
REMARK SMILES IDX 70 36 21 37 73 38 67 39 66 40 22 42 54 43 34 44 53 45 35 46
REMARK SMILES IDX 38 47 52 48 71 49 36 50 37 51 51 53 72 54 39 55 23 56 24 57
REMARK SMILES IDX 32 58 25 59 26 60 30 61 33 62 27 63 28 64 31 65 29 66 55 67
REMARK SMILES IDX 56 68 64 69 57 70 58 71 62 72 65 73 59 74 60 75 63 76 61 77
REMARK SMILES IDX 40 78 41 79 49 80 42 81 43 82 47 83 50 84 44 85 45 86 48 87
REMARK SMILES IDX 46 88
REMARK H PARENT 6 7 11 22 70 41 38 52
REMARK Flexibility Score: inf
ROOT
ATOM      1  C   UNL A   1      31.690  31.826  26.760  1.00  0.00     0.023 C 
ENDROOT
BRANCH   1   2
ATOM      2  C   UNL A   1      31.883  30.316  26.851  1.00  0.00     0.023 C 
BRANCH   2   3
ATOM      3  C   UNL A   1      33.330  29.836  26.694  1.00  0.00     0.116 C 
BRANCH   3   4
ATOM      4  N   UNL A   1      33.663  29.680  25.291  1.00  0.00    -0.356 N 
ATOM      5  C   UNL A   1      33.672  28.571  24.491  1.00  0.00     0.227 C 
ATOM      6  O   UNL A   1      34.226  28.689  23.395  1.00  0.00    -0.274 OA
ATOM      7  H   UNL A   1      33.927  30.513  24.838  1.00  0.00     0.163 HD
BRANCH   5   8
ATOM      8  C   UNL A   1      32.958  27.267  24.915  1.00  0.00     0.111 C 
BRANCH   8   9
ATOM      9  C   UNL A   1      33.707  26.009  24.422  1.00  0.00     0.015 C 
ATOM     10  C   UNL A   1      34.311  25.089  25.463  1.00  0.00     0.005 C 
ENDBRANCH   8   9
BRANCH   8  11
ATOM     11  C   UNL A   1      31.486  27.306  24.444  1.00  0.00     0.001 A 
ATOM     12  C   UNL A   1      31.051  28.387  23.649  1.00  0.00     0.023 A 
ATOM     13  C   UNL A   1      30.538  26.309  24.735  1.00  0.00     0.127 A 
ATOM     14  C   UNL A   1      29.735  28.444  23.169  1.00  0.00     0.018 A 
ATOM     15  C   UNL A   1      29.223  26.377  24.273  1.00  0.00     0.041 A 
ATOM     16  F   UNL A   1      30.848  25.235  25.473  1.00  0.00    -0.207 F 
ATOM     17  Br  UNL A   1      29.196  29.882  22.066  1.00  0.00    -0.051 Br
ATOM     18  C   UNL A   1      28.817  27.445  23.484  1.00  0.00     0.019 A 
ENDBRANCH   8  11
ENDBRANCH   5   8
ENDBRANCH   3   4
ENDBRANCH   2   3
ENDBRANCH   1   2
BRANCH   1  19
ATOM     19  C   UNL A   1      32.828  32.646  27.344  1.00  0.00     0.116 C 
BRANCH  19  20
ATOM     20  N   UNL A   1      32.454  34.024  27.632  1.00  0.00    -0.352 N 
ATOM     21  C   UNL A   1      32.982  34.894  28.556  1.00  0.00     0.251 C 
ATOM     22  H   UNL A   1      31.718  34.384  27.085  1.00  0.00     0.163 HD
ATOM     23  O   UNL A   1      32.467  35.991  28.743  1.00  0.00    -0.269 OA
BRANCH  21  24
ATOM     24  C   UNL A   1      34.152  34.480  29.355  1.00  0.00     0.039 A 
ATOM     25  C   UNL A   1      33.947  33.894  30.607  1.00  0.00     0.014 A 
ATOM     26  C   UNL A   1      35.445  34.622  28.844  1.00  0.00     0.014 A 
ATOM     27  C   UNL A   1      35.034  33.369  31.307  1.00  0.00     0.010 A 
ATOM     28  C   UNL A   1      36.510  34.019  29.499  1.00  0.00     0.010 A 
ATOM     29  C   UNL A   1      36.316  33.386  30.737  1.00  0.00    -0.014 A 
BRANCH  29  30
ATOM     30  C   UNL A   1      37.478  32.754  31.410  1.00  0.00     0.031 A 
ATOM     31  C   UNL A   1      38.187  31.606  30.750  1.00  0.00     0.074 A 
ATOM     32  C   UNL A   1      37.830  33.147  32.650  1.00  0.00     0.049 A 
ATOM     33  N   UNL A   1      39.136  30.837  31.220  1.00  0.00    -0.248 NA
ATOM     34  C   UNL A   1      37.743  31.250  29.392  1.00  0.00     0.031 C 
ATOM     35  C   UNL A   1      37.179  34.208  33.421  1.00  0.00     0.029 A 
ATOM     36  N   UNL A   1      38.812  32.685  33.489  1.00  0.00    -0.354 N 
ATOM     37  C   UNL A   1      39.377  29.892  30.231  1.00  0.00     0.074 A 
ATOM     38  C   UNL A   1      38.443  30.150  29.159  1.00  0.00     0.031 C 
ATOM     39  C   UNL A   1      37.792  34.330  34.609  1.00  0.00     0.029 A 
ATOM     40  C   UNL A   1      38.855  33.333  34.699  1.00  0.00     0.049 A 
ATOM     41  H   UNL A   1      39.430  31.958  33.246  1.00  0.00     0.167 HD
ATOM     42  C   UNL A   1      40.311  28.913  30.211  1.00  0.00     0.037 A 
ATOM     43  C   UNL A   1      39.655  33.137  35.764  1.00  0.00     0.037 A 
ATOM     44  C   UNL A   1      41.271  28.692  31.258  1.00  0.00     0.049 A 
ATOM     45  C   UNL A   1      40.707  32.063  35.702  1.00  0.00     0.074 A 
ATOM     46  C   UNL A   1      42.311  27.780  31.297  1.00  0.00     0.029 A 
ATOM     47  N   UNL A   1      41.313  29.400  32.450  1.00  0.00    -0.354 N 
ATOM     48  N   UNL A   1      40.972  31.219  34.734  1.00  0.00    -0.248 NA
ATOM     49  C   UNL A   1      41.574  31.916  36.879  1.00  0.00     0.031 C 
ATOM     50  C   UNL A   1      42.962  27.913  32.529  1.00  0.00     0.029 A 
ATOM     51  C   UNL A   1      42.351  28.934  33.240  1.00  0.00     0.049 A 
ATOM     52  H   UNL A   1      40.694  30.125  32.698  1.00  0.00     0.167 HD
ATOM     53  C   UNL A   1      42.047  30.461  35.172  1.00  0.00     0.074 A 
ATOM     54  C   UNL A   1      42.397  30.953  36.489  1.00  0.00     0.031 C 
ATOM     55  C   UNL A   1      42.689  29.447  34.542  1.00  0.00     0.037 A 
BRANCH  42  56
ATOM     56  C   UNL A   1      40.347  28.015  29.010  1.00  0.00     0.064 A 
ATOM     57  C   UNL A   1      39.625  26.811  28.971  1.00  0.00     0.173 A 
ATOM     58  C   UNL A   1      41.091  28.371  27.875  1.00  0.00     0.173 A 
ATOM     59  F   UNL A   1      38.910  26.419  30.036  1.00  0.00    -0.203 F 
ATOM     60  C   UNL A   1      39.670  25.985  27.852  1.00  0.00     0.198 A 
ATOM     61  C   UNL A   1      41.110  27.556  26.746  1.00  0.00     0.198 A 
ATOM     62  F   UNL A   1      41.797  29.511  27.860  1.00  0.00    -0.203 F 
ATOM     63  F   UNL A   1      39.013  24.817  27.858  1.00  0.00    -0.200 F 
ATOM     64  C   UNL A   1      40.406  26.361  26.738  1.00  0.00     0.200 A 
ATOM     65  F   UNL A   1      41.814  27.925  25.668  1.00  0.00    -0.200 F 
ATOM     66  F   UNL A   1      40.445  25.566  25.661  1.00  0.00    -0.200 F 
ENDBRANCH  42  56
BRANCH  43  67
ATOM     67  C   UNL A   1      39.515  33.997  36.967  1.00  0.00     0.064 A 
ATOM     68  C   UNL A   1      40.149  35.245  37.033  1.00  0.00     0.173 A 
ATOM     69  C   UNL A   1      38.752  33.592  38.072  1.00  0.00     0.173 A 
ATOM     70  F   UNL A   1      40.907  35.665  36.010  1.00  0.00    -0.203 F 
ATOM     71  C   UNL A   1      40.041  36.049  38.166  1.00  0.00     0.198 A 
ATOM     72  C   UNL A   1      38.623  34.409  39.194  1.00  0.00     0.198 A 
ATOM     73  F   UNL A   1      38.121  32.410  38.055  1.00  0.00    -0.203 F 
ATOM     74  F   UNL A   1      40.692  37.219  38.219  1.00  0.00    -0.200 F 
ATOM     75  C   UNL A   1      39.274  35.632  39.243  1.00  0.00     0.200 A 
ATOM     76  F   UNL A   1      37.871  34.008  40.228  1.00  0.00    -0.200 F 
ATOM     77  F   UNL A   1      39.167  36.407  40.332  1.00  0.00    -0.200 F 
ENDBRANCH  43  67
BRANCH  55  78
ATOM     78  C   UNL A   1      43.852  28.822  35.252  1.00  0.00     0.064 A 
ATOM     79  C   UNL A   1      45.158  29.302  35.083  1.00  0.00     0.173 A 
ATOM     80  C   UNL A   1      43.648  27.765  36.151  1.00  0.00     0.173 A 
ATOM     81  F   UNL A   1      45.403  30.301  34.222  1.00  0.00    -0.203 F 
ATOM     82  C   UNL A   1      46.222  28.733  35.775  1.00  0.00     0.198 A 
ATOM     83  C   UNL A   1      44.712  27.215  36.861  1.00  0.00     0.198 A 
ATOM     84  F   UNL A   1      42.415  27.275  36.351  1.00  0.00    -0.203 F 
ATOM     85  F   UNL A   1      47.469  29.181  35.570  1.00  0.00    -0.200 F 
ATOM     86  C   UNL A   1      45.997  27.696  36.670  1.00  0.00     0.200 A 
ATOM     87  F   UNL A   1      44.490  26.222  37.734  1.00  0.00    -0.200 F 
ATOM     88  F   UNL A   1      47.023  27.156  37.343  1.00  0.00    -0.200 F 
ENDBRANCH  55  78
ENDBRANCH  29  30
ENDBRANCH  21  24
ENDBRANCH  19  20
ENDBRANCH   1  19
TORSDOF 13
ENDMDL
MODEL 3
REMARK VINA RESULT:     -11.8      6.552     11.777
REMARK SMILES CC[C@@H](C(=O)NCCCCNC(=O)c1ccc(-c2c3nc(c(-c4c(F)c(F)c(F)c(F)c4F)c4ccc([nH]4)c(-c4c(F)c(F)c(F)c(F)c4F)c4nc(c(-c5c(F)c(F)c(F)c(F)c5F)c5ccc2[nH]5)C=C4)C=C3)cc1)c1cc(Br)ccc1F
REMARK SMILES IDX 9 1 8 2 7 3 6 4 4 5 5 6 3 8 2 9 1 10 77 11 78 12 83 13 79 14
REMARK SMILES IDX 82 15 84 16 80 17 81 18 10 19 11 20 12 21 13 23 14 24 15 25
REMARK SMILES IDX 76 26 16 27 75 28 17 29 18 30 19 31 69 32 20 33 74 34 68 35
REMARK SMILES IDX 70 36 21 37 73 38 67 39 66 40 22 42 54 43 34 44 53 45 35 46
REMARK SMILES IDX 38 47 52 48 71 49 36 50 37 51 51 53 72 54 39 55 23 56 24 57
REMARK SMILES IDX 32 58 25 59 26 60 30 61 33 62 27 63 28 64 31 65 29 66 55 67
REMARK SMILES IDX 56 68 64 69 57 70 58 71 62 72 65 73 59 74 60 75 63 76 61 77
REMARK SMILES IDX 40 78 41 79 49 80 42 81 43 82 47 83 50 84 44 85 45 86 48 87
REMARK SMILES IDX 46 88
REMARK H PARENT 6 7 11 22 70 41 38 52
REMARK Flexibility Score: inf
ROOT
ATOM      1  C   UNL A   1      37.930  20.018  25.004  1.00  0.00     0.023 C 
ENDROOT
BRANCH   1   2
ATOM      2  C   UNL A   1      37.124  21.233  24.557  1.00  0.00     0.023 C 
BRANCH   2   3
ATOM      3  C   UNL A   1      36.668  22.161  25.688  1.00  0.00     0.116 C 
BRANCH   3   4
ATOM      4  N   UNL A   1      35.655  21.512  26.499  1.00  0.00    -0.356 N 
ATOM      5  C   UNL A   1      34.320  21.318  26.278  1.00  0.00     0.227 C 
ATOM      6  O   UNL A   1      33.653  20.943  27.246  1.00  0.00    -0.274 OA
ATOM      7  H   UNL A   1      35.986  21.151  27.353  1.00  0.00     0.163 HD
BRANCH   5   8
ATOM      8  C   UNL A   1      33.704  21.488  24.871  1.00  0.00     0.111 C 
BRANCH   8   9
ATOM      9  C   UNL A   1      32.445  22.383  24.893  1.00  0.00     0.015 C 
ATOM     10  C   UNL A   1      32.529  23.744  24.233  1.00  0.00     0.005 C 
ENDBRANCH   8   9
BRANCH   8  11
ATOM     11  C   UNL A   1      33.436  20.098  24.251  1.00  0.00     0.001 A 
ATOM     12  C   UNL A   1      34.120  18.976  24.765  1.00  0.00     0.023 A 
ATOM     13  C   UNL A   1      32.521  19.861  23.209  1.00  0.00     0.127 A 
ATOM     14  C   UNL A   1      33.879  17.692  24.259  1.00  0.00     0.018 A 
ATOM     15  C   UNL A   1      32.297  18.585  22.692  1.00  0.00     0.041 A 
ATOM     16  F   UNL A   1      31.811  20.854  22.656  1.00  0.00    -0.207 F 
ATOM     17  Br  UNL A   1      34.778  16.203  25.001  1.00  0.00    -0.051 Br
ATOM     18  C   UNL A   1      32.974  17.493  23.219  1.00  0.00     0.019 A 
ENDBRANCH   8  11
ENDBRANCH   5   8
ENDBRANCH   3   4
ENDBRANCH   2   3
ENDBRANCH   1   2
BRANCH   1  19
ATOM     19  C   UNL A   1      39.211  20.348  25.751  1.00  0.00     0.116 C 
BRANCH  19  20
ATOM     20  N   UNL A   1      40.114  19.211  25.872  1.00  0.00    -0.352 N 
ATOM     21  C   UNL A   1      41.465  19.197  26.126  1.00  0.00     0.251 C 
ATOM     22  H   UNL A   1      39.697  18.326  25.755  1.00  0.00     0.163 HD
ATOM     23  O   UNL A   1      42.096  18.146  26.082  1.00  0.00    -0.269 OA
BRANCH  21  24
ATOM     24  C   UNL A   1      42.162  20.467  26.411  1.00  0.00     0.039 A 
ATOM     25  C   UNL A   1      42.659  21.223  25.347  1.00  0.00     0.014 A 
ATOM     26  C   UNL A   1      42.277  20.932  27.724  1.00  0.00     0.014 A 
ATOM     27  C   UNL A   1      43.191  22.490  25.592  1.00  0.00     0.010 A 
ATOM     28  C   UNL A   1      42.721  22.227  27.955  1.00  0.00     0.010 A 
ATOM     29  C   UNL A   1      43.182  23.020  26.893  1.00  0.00    -0.014 A 
BRANCH  29  30
ATOM     30  C   UNL A   1      43.653  24.398  27.176  1.00  0.00     0.031 A 
ATOM     31  C   UNL A   1      42.685  25.423  27.693  1.00  0.00     0.074 A 
ATOM     32  C   UNL A   1      44.919  24.749  26.877  1.00  0.00     0.049 A 
ATOM     33  N   UNL A   1      42.859  26.706  27.885  1.00  0.00    -0.248 NA
ATOM     34  C   UNL A   1      41.325  24.950  28.001  1.00  0.00     0.031 C 
ATOM     35  C   UNL A   1      45.936  23.861  26.312  1.00  0.00     0.029 A 
ATOM     36  N   UNL A   1      45.562  25.957  26.990  1.00  0.00    -0.354 N 
ATOM     37  C   UNL A   1      41.628  27.194  28.303  1.00  0.00     0.074 A 
ATOM     38  C   UNL A   1      40.703  26.083  28.289  1.00  0.00     0.031 C 
ATOM     39  C   UNL A   1      47.078  24.546  26.148  1.00  0.00     0.029 A 
ATOM     40  C   UNL A   1      46.866  25.930  26.561  1.00  0.00     0.049 A 
ATOM     41  H   UNL A   1      45.129  26.766  27.347  1.00  0.00     0.167 HD
ATOM     42  C   UNL A   1      41.305  28.451  28.687  1.00  0.00     0.037 A 
ATOM     43  C   UNL A   1      47.783  26.914  26.500  1.00  0.00     0.037 A 
ATOM     44  C   UNL A   1      42.240  29.541  28.748  1.00  0.00     0.049 A 
ATOM     45  C   UNL A   1      47.408  28.295  26.964  1.00  0.00     0.074 A 
ATOM     46  C   UNL A   1      42.034  30.831  29.201  1.00  0.00     0.029 A 
ATOM     47  N   UNL A   1      43.566  29.463  28.349  1.00  0.00    -0.354 N 
ATOM     48  N   UNL A   1      46.259  28.730  27.423  1.00  0.00    -0.248 NA
ATOM     49  C   UNL A   1      48.457  29.322  26.907  1.00  0.00     0.031 C 
ATOM     50  C   UNL A   1      43.226  31.545  29.045  1.00  0.00     0.029 A 
ATOM     51  C   UNL A   1      44.187  30.688  28.530  1.00  0.00     0.049 A 
ATOM     52  H   UNL A   1      44.002  28.657  27.988  1.00  0.00     0.167 HD
ATOM     53  C   UNL A   1      46.453  30.068  27.731  1.00  0.00     0.074 A 
ATOM     54  C   UNL A   1      47.834  30.373  27.421  1.00  0.00     0.031 C 
ATOM     55  C   UNL A   1      45.566  30.966  28.226  1.00  0.00     0.037 A 
BRANCH  42  56
ATOM     56  C   UNL A   1      39.882  28.710  29.085  1.00  0.00     0.064 A 
ATOM     57  C   UNL A   1      38.924  29.137  28.152  1.00  0.00     0.173 A 
ATOM     58  C   UNL A   1      39.463  28.505  30.409  1.00  0.00     0.173 A 
ATOM     59  F   UNL A   1      39.277  29.361  26.878  1.00  0.00    -0.203 F 
ATOM     60  C   UNL A   1      37.608  29.377  28.536  1.00  0.00     0.198 A 
ATOM     61  C   UNL A   1      38.140  28.718  30.782  1.00  0.00     0.198 A 
ATOM     62  F   UNL A   1      40.339  28.095  31.339  1.00  0.00    -0.203 F 
ATOM     63  F   UNL A   1      36.724  29.833  27.638  1.00  0.00    -0.200 F 
ATOM     64  C   UNL A   1      37.215  29.161  29.848  1.00  0.00     0.200 A 
ATOM     65  F   UNL A   1      37.759  28.500  32.048  1.00  0.00    -0.200 F 
ATOM     66  F   UNL A   1      35.947  29.389  30.214  1.00  0.00    -0.200 F 
ENDBRANCH  42  56
BRANCH  43  67
ATOM     67  C   UNL A   1      49.154  26.623  26.008  1.00  0.00     0.064 A 
ATOM     68  C   UNL A   1      49.523  26.931  24.691  1.00  0.00     0.173 A 
ATOM     69  C   UNL A   1      50.120  26.034  26.837  1.00  0.00     0.173 A 
ATOM     70  F   UNL A   1      48.626  27.475  23.856  1.00  0.00    -0.203 F 
ATOM     71  C   UNL A   1      50.800  26.642  24.214  1.00  0.00     0.198 A 
ATOM     72  C   UNL A   1      51.405  25.770  26.367  1.00  0.00     0.198 A 
ATOM     73  F   UNL A   1      49.818  25.728  28.106  1.00  0.00    -0.203 F 
ATOM     74  F   UNL A   1      51.113  26.907  22.939  1.00  0.00    -0.200 F 
ATOM     75  C   UNL A   1      51.741  26.066  25.054  1.00  0.00     0.200 A 
ATOM     76  F   UNL A   1      52.316  25.224  27.184  1.00  0.00    -0.200 F 
ATOM     77  F   UNL A   1      52.970  25.791  24.597  1.00  0.00    -0.200 F 
ENDBRANCH  43  67
BRANCH  55  78
ATOM     78  C   UNL A   1      46.069  32.353  28.493  1.00  0.00     0.064 A 
ATOM     79  C   UNL A   1      45.987  33.362  27.522  1.00  0.00     0.173 A 
ATOM     80  C   UNL A   1      46.592  32.687  29.750  1.00  0.00     0.173 A 
ATOM     81  F   UNL A   1      45.509  33.084  26.301  1.00  0.00    -0.203 F 
ATOM     82  C   UNL A   1      46.427  34.652  27.797  1.00  0.00     0.198 A 
ATOM     83  C   UNL A   1      47.007  33.986  30.030  1.00  0.00     0.198 A 
ATOM     84  F   UNL A   1      46.685  31.758  30.713  1.00  0.00    -0.203 F 
ATOM     85  F   UNL A   1      46.375  35.594  26.843  1.00  0.00    -0.200 F 
ATOM     86  C   UNL A   1      46.929  34.966  29.052  1.00  0.00     0.200 A 
ATOM     87  F   UNL A   1      47.481  34.289  31.247  1.00  0.00    -0.200 F 
ATOM     88  F   UNL A   1      47.343  36.213  29.317  1.00  0.00    -0.200 F 
ENDBRANCH  55  78
ENDBRANCH  29  30
ENDBRANCH  21  24
ENDBRANCH  19  20
ENDBRANCH   1  19
TORSDOF 13
ENDMDL
