MODEL 1
REMARK VINA RESULT:     -12.0      0.000      0.000
REMARK SMILES CN(CC(=O)N[C@H]1C=C[C@H](C(=O)NCCCCNC(=O)c2ccc(-c3c4nc(c(-c5c(F)c(F)c(F)c(F)c5F)c5ccc([nH]5)c(-c5c(F)c(F)c(F)c(F)c5F)c5nc(c(-c6c(F)c(F)c(F)c(F)c6F)c6ccc3[nH]6)C=C5)C=C4)cc2)C1)C(=O)c1cccs1
REMARK SMILES IDX 14 1 13 2 11 3 12 4 10 6 7 7 8 8 84 9 9 10 6 11 4 12 5 13
REMARK SMILES IDX 3 15 2 16 1 17 85 18 86 19 87 20 88 21 91 22 89 23 90 24
REMARK SMILES IDX 15 25 16 26 17 27 18 28 19 29 20 31 21 32 22 33 83 34 23 35
REMARK SMILES IDX 82 36 24 37 25 38 26 39 76 40 27 41 81 42 75 43 77 44 28 45
REMARK SMILES IDX 80 46 74 47 73 48 29 50 61 51 41 52 60 53 42 54 45 55 59 56
REMARK SMILES IDX 78 57 43 58 44 59 58 61 79 62 46 63 30 64 31 65 39 66 32 67
REMARK SMILES IDX 33 68 37 69 40 70 34 71 35 72 38 73 36 74 62 75 63 76 71 77
REMARK SMILES IDX 64 78 65 79 69 80 72 81 66 82 67 83 70 84 68 85 47 86 48 87
REMARK SMILES IDX 56 88 49 89 50 90 54 91 57 92 51 93 52 94 55 95 53 96
REMARK H PARENT 13 5 6 14 18 30 77 49 45 60
REMARK Flexibility Score: inf
ROOT
ATOM      1  C   UNL A   1      32.659  29.829  26.327  1.00  0.00     0.116 C 
ENDROOT
BRANCH   1   2
ATOM      2  N   UNL A   1      33.156  29.026  25.230  1.00  0.00    -0.356 N 
ATOM      3  C   UNL A   1      32.501  28.070  24.511  1.00  0.00     0.227 C 
ATOM      4  O   UNL A   1      33.142  27.441  23.668  1.00  0.00    -0.274 OA
ATOM      5  H   UNL A   1      34.091  29.191  24.969  1.00  0.00     0.163 HD
BRANCH   3   6
ATOM      6  C   UNL A   1      30.998  27.858  24.746  1.00  0.00     0.103 C 
ATOM      7  C   UNL A   1      30.930  25.581  25.517  1.00  0.00     0.106 C 
ATOM      8  C   UNL A   1      30.425  25.669  24.114  1.00  0.00    -0.006 C 
ATOM      9  C   UNL A   1      30.730  27.018  26.004  1.00  0.00     0.047 C 
ATOM     10  C   UNL A   1      30.467  26.935  23.679  1.00  0.00    -0.016 C 
BRANCH   7  11
ATOM     11  N   UNL A   1      30.203  24.592  26.252  1.00  0.00    -0.348 N 
ATOM     12  C   UNL A   1      30.707  23.482  26.870  1.00  0.00     0.240 C 
ATOM     13  O   UNL A   1      29.947  22.863  27.622  1.00  0.00    -0.273 OA
ATOM     14  H   UNL A   1      29.231  24.726  26.322  1.00  0.00     0.164 HD
BRANCH  12  15
ATOM     15  C   UNL A   1      32.202  23.097  26.772  1.00  0.00     0.219 C 
BRANCH  15  16
ATOM     16  N   UNL A   1      32.652  22.388  25.563  1.00  0.00    -0.332 N 
ATOM     17  C   UNL A   1      31.895  21.221  25.122  1.00  0.00     0.147 C 
BRANCH  16  18
ATOM     18  C   UNL A   1      33.576  22.896  24.635  1.00  0.00     0.264 C 
ATOM     19  O   UNL A   1      33.180  23.352  23.560  1.00  0.00    -0.268 OA
BRANCH  18  20
ATOM     20  C   UNL A   1      34.982  22.924  24.994  1.00  0.00     0.092 A 
ATOM     21  C   UNL A   1      35.820  23.982  25.282  1.00  0.00     0.025 A 
ATOM     22  S   UNL A   1      35.788  21.419  25.175  1.00  0.00    -0.139 S 
ATOM     23  C   UNL A   1      37.151  23.555  25.575  1.00  0.00     0.012 A 
ATOM     24  C   UNL A   1      37.268  22.184  25.557  1.00  0.00     0.065 A 
ENDBRANCH  18  20
ENDBRANCH  16  18
ENDBRANCH  15  16
ENDBRANCH  12  15
ENDBRANCH   7  11
ENDBRANCH   3   6
ENDBRANCH   1   2
BRANCH   1  25
ATOM     25  C   UNL A   1      31.653  30.865  25.831  1.00  0.00     0.023 C 
BRANCH  25  26
ATOM     26  C   UNL A   1      31.407  32.022  26.804  1.00  0.00     0.023 C 
BRANCH  26  27
ATOM     27  C   UNL A   1      32.657  32.779  27.244  1.00  0.00     0.116 C 
BRANCH  27  28
ATOM     28  N   UNL A   1      32.383  34.164  27.598  1.00  0.00    -0.352 N 
ATOM     29  C   UNL A   1      32.970  34.947  28.561  1.00  0.00     0.251 C 
ATOM     30  H   UNL A   1      31.677  34.601  27.071  1.00  0.00     0.163 HD
ATOM     31  O   UNL A   1      32.508  36.056  28.817  1.00  0.00    -0.269 OA
BRANCH  29  32
ATOM     32  C   UNL A   1      34.138  34.443  29.315  1.00  0.00     0.039 A 
ATOM     33  C   UNL A   1      33.925  33.819  30.547  1.00  0.00     0.014 A 
ATOM     34  C   UNL A   1      35.433  34.577  28.811  1.00  0.00     0.014 A 
ATOM     35  C   UNL A   1      35.005  33.270  31.240  1.00  0.00     0.010 A 
ATOM     36  C   UNL A   1      36.497  33.963  29.465  1.00  0.00     0.010 A 
ATOM     37  C   UNL A   1      36.295  33.304  30.687  1.00  0.00    -0.014 A 
BRANCH  37  38
ATOM     38  C   UNL A   1      37.445  32.657  31.372  1.00  0.00     0.031 A 
ATOM     39  C   UNL A   1      38.158  31.502  30.726  1.00  0.00     0.074 A 
ATOM     40  C   UNL A   1      37.806  33.068  32.603  1.00  0.00     0.049 A 
ATOM     41  N   UNL A   1      39.132  30.762  31.193  1.00  0.00    -0.248 NA
ATOM     42  C   UNL A   1      37.697  31.107  29.386  1.00  0.00     0.031 C 
ATOM     43  C   UNL A   1      37.166  34.147  33.356  1.00  0.00     0.029 A 
ATOM     44  N   UNL A   1      38.793  32.617  33.444  1.00  0.00    -0.354 N 
ATOM     45  C   UNL A   1      39.389  29.812  30.215  1.00  0.00     0.074 A 
ATOM     46  C   UNL A   1      38.432  30.030  29.152  1.00  0.00     0.031 C 
ATOM     47  C   UNL A   1      37.789  34.291  34.536  1.00  0.00     0.029 A 
ATOM     48  C   UNL A   1      38.844  33.288  34.642  1.00  0.00     0.049 A 
ATOM     49  H   UNL A   1      39.406  31.883  33.212  1.00  0.00     0.167 HD
ATOM     50  C   UNL A   1      40.352  28.859  30.192  1.00  0.00     0.037 A 
ATOM     51  C   UNL A   1      39.644  33.106  35.711  1.00  0.00     0.037 A 
ATOM     52  C   UNL A   1      41.316  28.658  31.243  1.00  0.00     0.049 A 
ATOM     53  C   UNL A   1      40.695  32.028  35.668  1.00  0.00     0.074 A 
ATOM     54  C   UNL A   1      42.365  27.756  31.289  1.00  0.00     0.029 A 
ATOM     55  N   UNL A   1      41.345  29.365  32.435  1.00  0.00    -0.354 N 
ATOM     56  N   UNL A   1      40.974  31.181  34.707  1.00  0.00    -0.248 NA
ATOM     57  C   UNL A   1      41.547  31.887  36.857  1.00  0.00     0.031 C 
ATOM     58  C   UNL A   1      42.993  27.880  32.532  1.00  0.00     0.029 A 
ATOM     59  C   UNL A   1      42.378  28.902  33.235  1.00  0.00     0.049 A 
ATOM     60  H   UNL A   1      40.722  30.089  32.678  1.00  0.00     0.167 HD
ATOM     61  C   UNL A   1      42.051  30.431  35.160  1.00  0.00     0.074 A 
ATOM     62  C   UNL A   1      42.384  30.933  36.476  1.00  0.00     0.031 C 
ATOM     63  C   UNL A   1      42.706  29.419  34.540  1.00  0.00     0.037 A 
BRANCH  50  64
ATOM     64  C   UNL A   1      40.411  27.959  28.990  1.00  0.00     0.064 A 
ATOM     65  C   UNL A   1      39.709  26.745  28.942  1.00  0.00     0.173 A 
ATOM     66  C   UNL A   1      41.150  28.333  27.857  1.00  0.00     0.173 A 
ATOM     67  F   UNL A   1      38.995  26.335  30.002  1.00  0.00    -0.203 F 
ATOM     68  C   UNL A   1      39.770  25.924  27.819  1.00  0.00     0.198 A 
ATOM     69  C   UNL A   1      41.180  27.526  26.723  1.00  0.00     0.198 A 
ATOM     70  F   UNL A   1      41.834  29.487  27.846  1.00  0.00    -0.203 F 
ATOM     71  F   UNL A   1      39.135  24.744  27.818  1.00  0.00    -0.200 F 
ATOM     72  C   UNL A   1      40.499  26.319  26.708  1.00  0.00     0.200 A 
ATOM     73  F   UNL A   1      41.873  27.916  25.643  1.00  0.00    -0.200 F 
ATOM     74  F   UNL A   1      40.550  25.532  25.623  1.00  0.00    -0.200 F 
ENDBRANCH  50  64
BRANCH  51  75
ATOM     75  C   UNL A   1      39.499  33.979  36.907  1.00  0.00     0.064 A 
ATOM     76  C   UNL A   1      40.122  35.233  36.964  1.00  0.00     0.173 A 
ATOM     77  C   UNL A   1      38.747  33.573  38.020  1.00  0.00     0.173 A 
ATOM     78  F   UNL A   1      40.869  35.657  35.933  1.00  0.00    -0.203 F 
ATOM     79  C   UNL A   1      40.021  36.038  38.097  1.00  0.00     0.198 A 
ATOM     80  C   UNL A   1      38.620  34.393  39.140  1.00  0.00     0.198 A 
ATOM     81  F   UNL A   1      38.126  32.385  38.015  1.00  0.00    -0.203 F 
ATOM     82  F   UNL A   1      40.669  37.209  38.143  1.00  0.00    -0.200 F 
ATOM     83  C   UNL A   1      39.265  35.620  39.181  1.00  0.00     0.200 A 
ATOM     84  F   UNL A   1      37.875  33.992  40.180  1.00  0.00    -0.200 F 
ATOM     85  F   UNL A   1      39.165  36.395  40.270  1.00  0.00    -0.200 F 
ENDBRANCH  51  75
BRANCH  63  86
ATOM     86  C   UNL A   1      43.881  28.815  35.255  1.00  0.00     0.064 A 
ATOM     87  C   UNL A   1      45.186  29.293  35.072  1.00  0.00     0.173 A 
ATOM     88  C   UNL A   1      43.689  27.765  36.168  1.00  0.00     0.173 A 
ATOM     89  F   UNL A   1      45.427  30.285  34.199  1.00  0.00    -0.203 F 
ATOM     90  C   UNL A   1      46.260  28.725  35.754  1.00  0.00     0.198 A 
ATOM     91  C   UNL A   1      44.760  27.224  36.874  1.00  0.00     0.198 A 
ATOM     92  F   UNL A   1      42.460  27.276  36.386  1.00  0.00    -0.203 F 
ATOM     93  F   UNL A   1      47.505  29.164  35.524  1.00  0.00    -0.200 F 
ATOM     94  C   UNL A   1      46.044  27.698  36.661  1.00  0.00     0.200 A 
ATOM     95  F   UNL A   1      44.547  26.243  37.762  1.00  0.00    -0.200 F 
ATOM     96  F   UNL A   1      47.077  27.160  37.323  1.00  0.00    -0.200 F 
ENDBRANCH  63  86
ENDBRANCH  37  38
ENDBRANCH  29  32
ENDBRANCH  27  28
ENDBRANCH  26  27
ENDBRANCH  25  26
ENDBRANCH   1  25
TORSDOF 16
ENDMDL
MODEL 2
REMARK VINA RESULT:     -11.8      1.108      7.423
REMARK SMILES CN(CC(=O)N[C@H]1C=C[C@H](C(=O)NCCCCNC(=O)c2ccc(-c3c4nc(c(-c5c(F)c(F)c(F)c(F)c5F)c5ccc([nH]5)c(-c5c(F)c(F)c(F)c(F)c5F)c5nc(c(-c6c(F)c(F)c(F)c(F)c6F)c6ccc3[nH]6)C=C5)C=C4)cc2)C1)C(=O)c1cccs1
REMARK SMILES IDX 14 1 13 2 11 3 12 4 10 6 7 7 8 8 84 9 9 10 6 11 4 12 5 13
REMARK SMILES IDX 3 15 2 16 1 17 85 18 86 19 87 20 88 21 91 22 89 23 90 24
REMARK SMILES IDX 15 25 16 26 17 27 18 28 19 29 20 31 21 32 22 33 83 34 23 35
REMARK SMILES IDX 82 36 24 37 25 38 26 39 76 40 27 41 81 42 75 43 77 44 28 45
REMARK SMILES IDX 80 46 74 47 73 48 29 50 61 51 41 52 60 53 42 54 45 55 59 56
REMARK SMILES IDX 78 57 43 58 44 59 58 61 79 62 46 63 30 64 31 65 39 66 32 67
REMARK SMILES IDX 33 68 37 69 40 70 34 71 35 72 38 73 36 74 62 75 63 76 71 77
REMARK SMILES IDX 64 78 65 79 69 80 72 81 66 82 67 83 70 84 68 85 47 86 48 87
REMARK SMILES IDX 56 88 49 89 50 90 54 91 57 92 51 93 52 94 55 95 53 96
REMARK H PARENT 13 5 6 14 18 30 77 49 45 60
REMARK Flexibility Score: inf
ROOT
ATOM      1  C   UNL A   1      31.160  30.161  25.002  1.00  0.00     0.116 C 
ENDROOT
BRANCH   1   2
ATOM      2  N   UNL A   1      32.162  29.207  24.576  1.00  0.00    -0.356 N 
ATOM      3  C   UNL A   1      31.993  27.906  24.204  1.00  0.00     0.227 C 
ATOM      4  O   UNL A   1      33.001  27.241  23.957  1.00  0.00    -0.274 OA
ATOM      5  H   UNL A   1      33.088  29.542  24.552  1.00  0.00     0.163 HD
BRANCH   3   6
ATOM      6  C   UNL A   1      30.570  27.348  24.063  1.00  0.00     0.103 C 
ATOM      7  C   UNL A   1      30.739  25.248  25.221  1.00  0.00     0.106 C 
ATOM      8  C   UNL A   1      30.686  25.022  23.746  1.00  0.00    -0.006 C 
ATOM      9  C   UNL A   1      30.106  26.635  25.342  1.00  0.00     0.047 C 
ATOM     10  C   UNL A   1      30.598  26.191  23.097  1.00  0.00    -0.016 C 
BRANCH   7  11
ATOM     11  N   UNL A   1      30.043  24.208  25.915  1.00  0.00    -0.348 N 
ATOM     12  C   UNL A   1      30.554  23.340  26.837  1.00  0.00     0.240 C 
ATOM     13  O   UNL A   1      29.747  22.650  27.469  1.00  0.00    -0.273 OA
ATOM     14  H   UNL A   1      29.087  24.106  25.704  1.00  0.00     0.164 HD
BRANCH  12  15
ATOM     15  C   UNL A   1      32.057  23.324  27.204  1.00  0.00     0.219 C 
BRANCH  15  16
ATOM     16  N   UNL A   1      32.882  22.225  26.675  1.00  0.00    -0.332 N 
ATOM     17  C   UNL A   1      33.802  21.549  27.584  1.00  0.00     0.147 C 
BRANCH  16  18
ATOM     18  C   UNL A   1      32.663  21.581  25.446  1.00  0.00     0.264 C 
ATOM     19  O   UNL A   1      32.121  20.474  25.420  1.00  0.00    -0.268 OA
BRANCH  18  20
ATOM     20  C   UNL A   1      33.031  22.269  24.222  1.00  0.00     0.092 A 
ATOM     21  C   UNL A   1      34.002  23.220  23.977  1.00  0.00     0.025 A 
ATOM     22  S   UNL A   1      32.207  21.830  22.782  1.00  0.00    -0.139 S 
ATOM     23  C   UNL A   1      34.012  23.644  22.614  1.00  0.00     0.012 A 
ATOM     24  C   UNL A   1      33.089  22.962  21.854  1.00  0.00     0.065 A 
ENDBRANCH  18  20
ENDBRANCH  16  18
ENDBRANCH  15  16
ENDBRANCH  12  15
ENDBRANCH   7  11
ENDBRANCH   3   6
ENDBRANCH   1   2
BRANCH   1  25
ATOM     25  C   UNL A   1      31.463  30.680  26.405  1.00  0.00     0.023 C 
BRANCH  25  26
ATOM     26  C   UNL A   1      31.391  32.204  26.543  1.00  0.00     0.023 C 
BRANCH  26  27
ATOM     27  C   UNL A   1      32.642  32.865  27.114  1.00  0.00     0.116 C 
BRANCH  27  28
ATOM     28  N   UNL A   1      32.389  34.203  27.627  1.00  0.00    -0.352 N 
ATOM     29  C   UNL A   1      32.980  34.856  28.682  1.00  0.00     0.251 C 
ATOM     30  H   UNL A   1      31.696  34.713  27.150  1.00  0.00     0.163 HD
ATOM     31  O   UNL A   1      32.534  35.935  29.063  1.00  0.00    -0.269 OA
BRANCH  29  32
ATOM     32  C   UNL A   1      34.130  34.244  29.380  1.00  0.00     0.039 A 
ATOM     33  C   UNL A   1      33.886  33.390  30.459  1.00  0.00     0.014 A 
ATOM     34  C   UNL A   1      35.441  34.503  28.973  1.00  0.00     0.014 A 
ATOM     35  C   UNL A   1      34.953  32.744  31.085  1.00  0.00     0.010 A 
ATOM     36  C   UNL A   1      36.495  33.800  29.548  1.00  0.00     0.010 A 
ATOM     37  C   UNL A   1      36.264  32.914  30.611  1.00  0.00    -0.014 A 
BRANCH  37  38
ATOM     38  C   UNL A   1      37.403  32.175  31.213  1.00  0.00     0.031 A 
ATOM     39  C   UNL A   1      37.891  32.528  32.592  1.00  0.00     0.074 A 
ATOM     40  C   UNL A   1      38.040  31.229  30.496  1.00  0.00     0.049 A 
ATOM     41  N   UNL A   1      38.911  32.050  33.258  1.00  0.00    -0.248 NA
ATOM     42  C   UNL A   1      37.149  33.578  33.305  1.00  0.00     0.031 C 
ATOM     43  C   UNL A   1      37.693  30.824  29.133  1.00  0.00     0.029 A 
ATOM     44  N   UNL A   1      39.122  30.443  30.809  1.00  0.00    -0.354 N 
ATOM     45  C   UNL A   1      38.941  32.748  34.457  1.00  0.00     0.074 A 
ATOM     46  C   UNL A   1      37.873  33.723  34.405  1.00  0.00     0.031 C 
ATOM     47  C   UNL A   1      38.529  29.853  28.736  1.00  0.00     0.029 A 
ATOM     48  C   UNL A   1      39.497  29.594  29.797  1.00  0.00     0.049 A 
ATOM     49  H   UNL A   1      39.585  30.484  31.677  1.00  0.00     0.167 HD
ATOM     50  C   UNL A   1      39.767  32.576  35.517  1.00  0.00     0.037 A 
ATOM     51  C   UNL A   1      40.514  28.713  29.727  1.00  0.00     0.037 A 
ATOM     52  C   UNL A   1      40.817  31.592  35.573  1.00  0.00     0.049 A 
ATOM     53  C   UNL A   1      41.430  28.554  30.912  1.00  0.00     0.074 A 
ATOM     54  C   UNL A   1      41.672  31.302  36.622  1.00  0.00     0.029 A 
ATOM     55  N   UNL A   1      41.158  30.740  34.533  1.00  0.00    -0.354 N 
ATOM     56  N   UNL A   1      41.404  29.171  32.069  1.00  0.00    -0.248 NA
ATOM     57  C   UNL A   1      42.512  27.568  30.784  1.00  0.00     0.031 C 
ATOM     58  C   UNL A   1      42.566  30.314  36.198  1.00  0.00     0.029 A 
ATOM     59  C   UNL A   1      42.228  29.942  34.907  1.00  0.00     0.049 A 
ATOM     60  H   UNL A   1      40.707  30.708  33.658  1.00  0.00     0.167 HD
ATOM     61  C   UNL A   1      42.440  28.628  32.815  1.00  0.00     0.074 A 
ATOM     62  C   UNL A   1      43.068  27.620  31.986  1.00  0.00     0.031 C 
ATOM     63  C   UNL A   1      42.836  28.934  34.075  1.00  0.00     0.037 A 
BRANCH  50  64
ATOM     64  C   UNL A   1      39.570  33.474  36.705  1.00  0.00     0.064 A 
ATOM     65  C   UNL A   1      38.729  33.116  37.770  1.00  0.00     0.173 A 
ATOM     66  C   UNL A   1      40.260  34.693  36.799  1.00  0.00     0.173 A 
ATOM     67  F   UNL A   1      38.038  31.966  37.726  1.00  0.00    -0.203 F 
ATOM     68  C   UNL A   1      38.560  33.956  38.867  1.00  0.00     0.198 A 
ATOM     69  C   UNL A   1      40.116  35.515  37.914  1.00  0.00     0.198 A 
ATOM     70  F   UNL A   1      41.083  35.082  35.814  1.00  0.00    -0.203 F 
ATOM     71  F   UNL A   1      37.710  33.616  39.845  1.00  0.00    -0.200 F 
ATOM     72  C   UNL A   1      39.260  35.151  38.942  1.00  0.00     0.200 A 
ATOM     73  F   UNL A   1      40.805  36.663  37.992  1.00  0.00    -0.200 F 
ATOM     74  F   UNL A   1      39.103  35.956  40.003  1.00  0.00    -0.200 F 
ENDBRANCH  50  64
BRANCH  51  75
ATOM     75  C   UNL A   1      40.711  27.897  28.499  1.00  0.00     0.064 A 
ATOM     76  C   UNL A   1      40.092  26.648  28.358  1.00  0.00     0.173 A 
ATOM     77  C   UNL A   1      41.529  28.341  27.450  1.00  0.00     0.173 A 
ATOM     78  F   UNL A   1      39.316  26.170  29.343  1.00  0.00    -0.203 F 
ATOM     79  C   UNL A   1      40.302  25.862  27.227  1.00  0.00     0.198 A 
ATOM     80  C   UNL A   1      41.714  27.569  26.305  1.00  0.00     0.198 A 
ATOM     81  F   UNL A   1      42.141  29.532  27.533  1.00  0.00    -0.203 F 
ATOM     82  F   UNL A   1      39.739  24.650  27.141  1.00  0.00    -0.200 F 
ATOM     83  C   UNL A   1      41.108  26.326  26.199  1.00  0.00     0.200 A 
ATOM     84  F   UNL A   1      42.481  28.028  25.307  1.00  0.00    -0.200 F 
ATOM     85  F   UNL A   1      41.310  25.572  25.109  1.00  0.00    -0.200 F 
ENDBRANCH  51  75
BRANCH  63  86
ATOM     86  C   UNL A   1      43.972  28.141  34.656  1.00  0.00     0.064 A 
ATOM     87  C   UNL A   1      43.762  26.927  35.325  1.00  0.00     0.173 A 
ATOM     88  C   UNL A   1      45.295  28.587  34.505  1.00  0.00     0.173 A 
ATOM     89  F   UNL A   1      42.516  26.463  35.509  1.00  0.00    -0.203 F 
ATOM     90  C   UNL A   1      44.832  26.201  35.845  1.00  0.00     0.198 A 
ATOM     91  C   UNL A   1      46.363  27.842  34.997  1.00  0.00     0.198 A 
ATOM     92  F   UNL A   1      45.552  29.739  33.868  1.00  0.00    -0.203 F 
ATOM     93  F   UNL A   1      44.603  25.070  36.526  1.00  0.00    -0.200 F 
ATOM     94  C   UNL A   1      46.131  26.655  35.673  1.00  0.00     0.200 A 
ATOM     95  F   UNL A   1      47.619  28.275  34.814  1.00  0.00    -0.200 F 
ATOM     96  F   UNL A   1      47.159  25.952  36.167  1.00  0.00    -0.200 F 
ENDBRANCH  63  86
ENDBRANCH  37  38
ENDBRANCH  29  32
ENDBRANCH  27  28
ENDBRANCH  26  27
ENDBRANCH  25  26
ENDBRANCH   1  25
TORSDOF 16
ENDMDL
MODEL 3
REMARK VINA RESULT:     -11.8      5.343      9.776
REMARK SMILES CN(CC(=O)N[C@H]1C=C[C@H](C(=O)NCCCCNC(=O)c2ccc(-c3c4nc(c(-c5c(F)c(F)c(F)c(F)c5F)c5ccc([nH]5)c(-c5c(F)c(F)c(F)c(F)c5F)c5nc(c(-c6c(F)c(F)c(F)c(F)c6F)c6ccc3[nH]6)C=C5)C=C4)cc2)C1)C(=O)c1cccs1
REMARK SMILES IDX 14 1 13 2 11 3 12 4 10 6 7 7 8 8 84 9 9 10 6 11 4 12 5 13
REMARK SMILES IDX 3 15 2 16 1 17 85 18 86 19 87 20 88 21 91 22 89 23 90 24
REMARK SMILES IDX 15 25 16 26 17 27 18 28 19 29 20 31 21 32 22 33 83 34 23 35
REMARK SMILES IDX 82 36 24 37 25 38 26 39 76 40 27 41 81 42 75 43 77 44 28 45
REMARK SMILES IDX 80 46 74 47 73 48 29 50 61 51 41 52 60 53 42 54 45 55 59 56
REMARK SMILES IDX 78 57 43 58 44 59 58 61 79 62 46 63 30 64 31 65 39 66 32 67
REMARK SMILES IDX 33 68 37 69 40 70 34 71 35 72 38 73 36 74 62 75 63 76 71 77
REMARK SMILES IDX 64 78 65 79 69 80 72 81 66 82 67 83 70 84 68 85 47 86 48 87
REMARK SMILES IDX 56 88 49 89 50 90 54 91 57 92 51 93 52 94 55 95 53 96
REMARK H PARENT 13 5 6 14 18 30 77 49 45 60
REMARK Flexibility Score: inf
ROOT
ATOM      1  C   UNL A   1      36.940  21.977  25.223  1.00  0.00     0.116 C 
ENDROOT
BRANCH   1   2
ATOM      2  N   UNL A   1      35.854  22.639  25.917  1.00  0.00    -0.356 N 
ATOM      3  C   UNL A   1      34.551  22.760  25.535  1.00  0.00     0.227 C 
ATOM      4  O   UNL A   1      33.804  23.442  26.238  1.00  0.00    -0.274 OA
ATOM      5  H   UNL A   1      36.088  23.055  26.777  1.00  0.00     0.163 HD
BRANCH   3   6
ATOM      6  C   UNL A   1      34.065  22.008  24.287  1.00  0.00     0.103 C 
ATOM      7  C   UNL A   1      33.106  23.782  22.977  1.00  0.00     0.106 C 
ATOM      8  C   UNL A   1      32.028  22.939  23.576  1.00  0.00    -0.006 C 
ATOM      9  C   UNL A   1      34.296  22.821  23.004  1.00  0.00     0.047 C 
ATOM     10  C   UNL A   1      32.559  21.953  24.311  1.00  0.00    -0.016 C 
BRANCH   7  11
ATOM     11  N   UNL A   1      32.727  24.231  21.672  1.00  0.00    -0.348 N 
ATOM     12  C   UNL A   1      32.948  25.463  21.124  1.00  0.00     0.240 C 
ATOM     13  O   UNL A   1      32.725  25.588  19.915  1.00  0.00    -0.273 OA
ATOM     14  H   UNL A   1      32.255  23.580  21.106  1.00  0.00     0.164 HD
BRANCH  12  15
ATOM     15  C   UNL A   1      33.601  26.613  21.925  1.00  0.00     0.219 C 
BRANCH  15  16
ATOM     16  N   UNL A   1      32.713  27.607  22.550  1.00  0.00    -0.332 N 
ATOM     17  C   UNL A   1      33.169  28.990  22.632  1.00  0.00     0.147 C 
BRANCH  16  18
ATOM     18  C   UNL A   1      31.349  27.402  22.820  1.00  0.00     0.264 C 
ATOM     19  O   UNL A   1      30.499  27.764  22.004  1.00  0.00    -0.268 OA
BRANCH  18  20
ATOM     20  C   UNL A   1      30.977  26.709  24.040  1.00  0.00     0.092 A 
ATOM     21  C   UNL A   1      29.842  25.993  24.363  1.00  0.00     0.025 A 
ATOM     22  S   UNL A   1      32.121  26.678  25.320  1.00  0.00    -0.139 S 
ATOM     23  C   UNL A   1      29.883  25.484  25.696  1.00  0.00     0.012 A 
ATOM     24  C   UNL A   1      31.071  25.780  26.325  1.00  0.00     0.065 A 
ENDBRANCH  18  20
ENDBRANCH  16  18
ENDBRANCH  15  16
ENDBRANCH  12  15
ENDBRANCH   7  11
ENDBRANCH   3   6
ENDBRANCH   1   2
BRANCH   1  25
ATOM     25  C   UNL A   1      36.643  20.492  25.039  1.00  0.00     0.023 C 
BRANCH  25  26
ATOM     26  C   UNL A   1      37.888  19.601  24.986  1.00  0.00     0.023 C 
BRANCH  26  27
ATOM     27  C   UNL A   1      39.104  20.137  25.737  1.00  0.00     0.116 C 
BRANCH  27  28
ATOM     28  N   UNL A   1      40.162  19.147  25.878  1.00  0.00    -0.352 N 
ATOM     29  C   UNL A   1      41.500  19.335  26.124  1.00  0.00     0.251 C 
ATOM     30  H   UNL A   1      39.877  18.210  25.783  1.00  0.00     0.163 HD
ATOM     31  O   UNL A   1      42.274  18.383  26.066  1.00  0.00    -0.269 OA
BRANCH  29  32
ATOM     32  C   UNL A   1      42.014  20.687  26.426  1.00  0.00     0.039 A 
ATOM     33  C   UNL A   1      42.317  21.544  25.364  1.00  0.00     0.014 A 
ATOM     34  C   UNL A   1      42.193  21.113  27.744  1.00  0.00     0.014 A 
ATOM     35  C   UNL A   1      42.734  22.850  25.627  1.00  0.00     0.010 A 
ATOM     36  C   UNL A   1      42.534  22.437  28.003  1.00  0.00     0.010 A 
ATOM     37  C   UNL A   1      42.809  23.320  26.948  1.00  0.00    -0.014 A 
BRANCH  37  38
ATOM     38  C   UNL A   1      43.175  24.729  27.245  1.00  0.00     0.031 A 
ATOM     39  C   UNL A   1      44.578  25.214  27.005  1.00  0.00     0.074 A 
ATOM     40  C   UNL A   1      42.261  25.555  27.791  1.00  0.00     0.049 A 
ATOM     41  N   UNL A   1      45.108  26.382  27.267  1.00  0.00    -0.248 NA
ATOM     42  C   UNL A   1      45.519  24.249  26.416  1.00  0.00     0.031 C 
ATOM     43  C   UNL A   1      40.880  25.194  28.114  1.00  0.00     0.029 A 
ATOM     44  N   UNL A   1      42.361  26.867  28.183  1.00  0.00    -0.354 N 
ATOM     45  C   UNL A   1      46.440  26.286  26.890  1.00  0.00     0.074 A 
ATOM     46  C   UNL A   1      46.654  24.930  26.434  1.00  0.00     0.031 C 
ATOM     47  C   UNL A   1      40.255  26.262  28.633  1.00  0.00     0.029 A 
ATOM     48  C   UNL A   1      41.200  27.371  28.719  1.00  0.00     0.049 A 
ATOM     49  H   UNL A   1      43.185  27.397  28.089  1.00  0.00     0.167 HD
ATOM     50  C   UNL A   1      47.394  27.249  26.899  1.00  0.00     0.037 A 
ATOM     51  C   UNL A   1      40.932  28.587  29.234  1.00  0.00     0.037 A 
ATOM     52  C   UNL A   1      47.172  28.604  27.334  1.00  0.00     0.049 A 
ATOM     53  C   UNL A   1      42.014  29.634  29.248  1.00  0.00     0.074 A 
ATOM     54  C   UNL A   1      48.058  29.667  27.329  1.00  0.00     0.029 A 
ATOM     55  N   UNL A   1      45.980  29.081  27.858  1.00  0.00    -0.354 N 
ATOM     56  N   UNL A   1      43.252  29.552  28.823  1.00  0.00    -0.248 NA
ATOM     57  C   UNL A   1      41.658  30.945  29.808  1.00  0.00     0.031 C 
ATOM     58  C   UNL A   1      47.420  30.771  27.902  1.00  0.00     0.029 A 
ATOM     59  C   UNL A   1      46.115  30.416  28.204  1.00  0.00     0.049 A 
ATOM     60  H   UNL A   1      45.158  28.548  27.969  1.00  0.00     0.167 HD
ATOM     61  C   UNL A   1      43.811  30.805  29.032  1.00  0.00     0.074 A 
ATOM     62  C   UNL A   1      42.773  31.634  29.609  1.00  0.00     0.031 C 
ATOM     63  C   UNL A   1      45.070  31.233  28.768  1.00  0.00     0.037 A 
BRANCH  50  64
ATOM     64  C   UNL A   1      48.768  26.871  26.422  1.00  0.00     0.064 A 
ATOM     65  C   UNL A   1      49.724  26.318  27.287  1.00  0.00     0.173 A 
ATOM     66  C   UNL A   1      49.120  27.028  25.072  1.00  0.00     0.173 A 
ATOM     67  F   UNL A   1      49.442  26.156  28.590  1.00  0.00    -0.203 F 
ATOM     68  C   UNL A   1      50.991  25.969  26.829  1.00  0.00     0.198 A 
ATOM     69  C   UNL A   1      50.377  26.645  24.610  1.00  0.00     0.198 A 
ATOM     70  F   UNL A   1      48.243  27.544  24.199  1.00  0.00    -0.203 F 
ATOM     71  F   UNL A   1      51.905  25.495  27.687  1.00  0.00    -0.200 F 
ATOM     72  C   UNL A   1      51.314  26.125  25.489  1.00  0.00     0.200 A 
ATOM     73  F   UNL A   1      50.682  26.782  23.312  1.00  0.00    -0.200 F 
ATOM     74  F   UNL A   1      52.531  25.780  25.047  1.00  0.00    -0.200 F 
ENDBRANCH  50  64
BRANCH  51  75
ATOM     75  C   UNL A   1      39.574  28.890  29.760  1.00  0.00     0.064 A 
ATOM     76  C   UNL A   1      38.597  29.471  28.939  1.00  0.00     0.173 A 
ATOM     77  C   UNL A   1      39.229  28.619  31.092  1.00  0.00     0.173 A 
ATOM     78  F   UNL A   1      38.885  29.768  27.663  1.00  0.00    -0.203 F 
ATOM     79  C   UNL A   1      37.335  29.792  29.436  1.00  0.00     0.198 A 
ATOM     80  C   UNL A   1      37.957  28.911  31.580  1.00  0.00     0.198 A 
ATOM     81  F   UNL A   1      40.125  28.060  31.918  1.00  0.00    -0.203 F 
ATOM     82  F   UNL A   1      36.438  30.393  28.644  1.00  0.00    -0.200 F 
ATOM     83  C   UNL A   1      37.014  29.506  30.754  1.00  0.00     0.200 A 
ATOM     84  F   UNL A   1      37.645  28.619  32.850  1.00  0.00    -0.200 F 
ATOM     85  F   UNL A   1      35.801  29.813  31.232  1.00  0.00    -0.200 F 
ENDBRANCH  51  75
BRANCH  63  86
ATOM     86  C   UNL A   1      45.387  32.673  29.055  1.00  0.00     0.064 A 
ATOM     87  C   UNL A   1      45.939  33.080  30.279  1.00  0.00     0.173 A 
ATOM     88  C   UNL A   1      45.171  33.654  28.074  1.00  0.00     0.173 A 
ATOM     89  F   UNL A   1      46.152  32.184  31.256  1.00  0.00    -0.203 F 
ATOM     90  C   UNL A   1      46.237  34.419  30.520  1.00  0.00     0.198 A 
ATOM     91  C   UNL A   1      45.503  34.985  28.307  1.00  0.00     0.198 A 
ATOM     92  F   UNL A   1      44.653  33.317  26.885  1.00  0.00    -0.203 F 
ATOM     93  F   UNL A   1      46.715  34.792  31.715  1.00  0.00    -0.200 F 
ATOM     94  C   UNL A   1      46.027  35.369  29.531  1.00  0.00     0.200 A 
ATOM     95  F   UNL A   1      45.314  35.899  27.344  1.00  0.00    -0.200 F 
ATOM     96  F   UNL A   1      46.322  36.654  29.762  1.00  0.00    -0.200 F 
ENDBRANCH  63  86
ENDBRANCH  37  38
ENDBRANCH  29  32
ENDBRANCH  27  28
ENDBRANCH  26  27
ENDBRANCH  25  26
ENDBRANCH   1  25
TORSDOF 16
ENDMDL
