MODEL 1
REMARK VINA RESULT:     -13.2      0.000      0.000
REMARK SMILES Cc1nn(C)c(C)c1[C@H](C)N1C(=O)CC[C@@H](C(=O)NCCCCNC(=O)c2ccc(-c3c4nc(c(-c5c(F)c(F)c(F)c(F)c5F)c5ccc([nH]5)c(-c5c(F)c(F)c(F)c(F)c5F)c5nc(c(-c6c(F)c(F)c(F)c(F)c6F)c6ccc3[nH]6)C=C5)C=C4)cc2)[C@@H]1c1ccco1
REMARK SMILES IDX 21 1 20 2 19 3 17 4 18 5 16 7 11 8 12 9 90 10 13 11 14 12
REMARK SMILES IDX 15 13 9 14 10 15 8 16 1 17 2 18 3 19 4 20 6 21 5 22 7 23
REMARK SMILES IDX 91 24 92 25 95 26 93 27 94 28 22 29 23 30 24 31 25 32 26 34
REMARK SMILES IDX 27 35 28 36 89 37 29 38 88 39 30 40 31 41 32 42 82 43 33 44
REMARK SMILES IDX 87 45 81 46 83 47 34 48 86 49 80 50 79 51 35 53 67 54 47 55
REMARK SMILES IDX 66 56 48 57 51 58 65 59 84 60 49 61 50 62 64 64 85 65 52 66
REMARK SMILES IDX 36 67 37 68 45 69 38 70 39 71 43 72 46 73 40 74 41 75 44 76
REMARK SMILES IDX 42 77 68 78 69 79 77 80 70 81 71 82 75 83 78 84 72 85 73 86
REMARK SMILES IDX 76 87 74 88 53 89 54 90 62 91 55 92 56 93 60 94 63 95 57 96
REMARK SMILES IDX 58 97 61 98 59 99
REMARK H PARENT 19 6 24 33 83 52 51 63
REMARK Flexibility Score: inf
ROOT
ATOM      1  C   UNL A   1      31.697  30.906  26.116  1.00  0.00     0.023 C 
ENDROOT
BRANCH   1   2
ATOM      2  C   UNL A   1      32.417  29.915  27.029  1.00  0.00     0.116 C 
BRANCH   2   3
ATOM      3  N   UNL A   1      31.576  28.768  27.301  1.00  0.00    -0.356 N 
ATOM      4  C   UNL A   1      31.700  27.472  26.911  1.00  0.00     0.225 C 
ATOM      5  O   UNL A   1      30.708  26.760  27.069  1.00  0.00    -0.275 OA
ATOM      6  H   UNL A   1      30.788  28.958  27.857  1.00  0.00     0.163 HD
BRANCH   4   7
ATOM      7  C   UNL A   1      33.028  26.932  26.384  1.00  0.00     0.109 C 
ATOM      8  N   UNL A   1      32.092  25.708  24.376  1.00  0.00    -0.325 N 
ATOM      9  C   UNL A   1      32.083  26.912  23.671  1.00  0.00     0.223 C 
ATOM     10  C   UNL A   1      32.764  25.589  25.683  1.00  0.00     0.164 C 
ATOM     11  O   UNL A   1      31.389  27.090  22.665  1.00  0.00    -0.275 OA
ATOM     12  C   UNL A   1      32.946  28.068  24.139  1.00  0.00     0.101 C 
ATOM     13  C   UNL A   1      33.709  27.897  25.433  1.00  0.00     0.026 C 
BRANCH   8  14
ATOM     14  C   UNL A   1      31.284  24.588  23.792  1.00  0.00     0.117 C 
ATOM     15  C   UNL A   1      31.487  24.503  22.271  1.00  0.00     0.036 C 
BRANCH  14  16
ATOM     16  C   UNL A   1      31.432  23.239  24.506  1.00  0.00     0.018 A 
ATOM     17  C   UNL A   1      29.985  23.385  26.768  1.00  0.00     0.069 C 
ATOM     18  C   UNL A   1      30.857  22.758  25.737  1.00  0.00     0.065 A 
ATOM     19  N   UNL A   1      31.228  21.500  25.998  1.00  0.00    -0.178 NA
ATOM     20  N   UNL A   1      32.049  21.168  25.003  1.00  0.00    -0.272 N 
ATOM     21  C   UNL A   1      32.284  22.192  24.128  1.00  0.00     0.040 A 
ATOM     22  C   UNL A   1      32.556  19.816  24.978  1.00  0.00     0.174 C 
ATOM     23  C   UNL A   1      33.254  22.066  23.006  1.00  0.00     0.067 C 
ENDBRANCH  14  16
ENDBRANCH   8  14
BRANCH  10  24
ATOM     24  C   UNL A   1      34.006  24.747  25.618  1.00  0.00     0.127 A 
ATOM     25  C   UNL A   1      35.060  24.745  24.722  1.00  0.00     0.048 A 
ATOM     26  O   UNL A   1      34.222  23.811  26.586  1.00  0.00    -0.467 OA
ATOM     27  C   UNL A   1      35.978  23.775  25.184  1.00  0.00     0.042 A 
ATOM     28  C   UNL A   1      35.429  23.245  26.327  1.00  0.00     0.195 A 
ENDBRANCH  10  24
ENDBRANCH   4   7
ENDBRANCH   2   3
ENDBRANCH   1   2
BRANCH   1  29
ATOM     29  C   UNL A   1      31.432  32.278  26.749  1.00  0.00     0.023 C 
BRANCH  29  30
ATOM     30  C   UNL A   1      32.650  32.958  27.366  1.00  0.00     0.116 C 
BRANCH  30  31
ATOM     31  N   UNL A   1      32.402  34.345  27.722  1.00  0.00    -0.352 N 
ATOM     32  C   UNL A   1      33.004  35.118  28.683  1.00  0.00     0.251 C 
ATOM     33  H   UNL A   1      31.700  34.796  27.198  1.00  0.00     0.163 HD
ATOM     34  O   UNL A   1      32.562  36.234  28.942  1.00  0.00    -0.269 OA
BRANCH  32  35
ATOM     35  C   UNL A   1      34.168  34.595  29.427  1.00  0.00     0.039 A 
ATOM     36  C   UNL A   1      33.964  34.034  30.691  1.00  0.00     0.014 A 
ATOM     37  C   UNL A   1      35.453  34.647  28.881  1.00  0.00     0.014 A 
ATOM     38  C   UNL A   1      35.038  33.466  31.377  1.00  0.00     0.010 A 
ATOM     39  C   UNL A   1      36.507  34.012  29.531  1.00  0.00     0.010 A 
ATOM     40  C   UNL A   1      36.312  33.417  30.787  1.00  0.00    -0.014 A 
BRANCH  40  41
ATOM     41  C   UNL A   1      37.449  32.744  31.465  1.00  0.00     0.031 A 
ATOM     42  C   UNL A   1      38.142  31.583  30.810  1.00  0.00     0.074 A 
ATOM     43  C   UNL A   1      37.816  33.137  32.701  1.00  0.00     0.049 A 
ATOM     44  N   UNL A   1      39.111  30.829  31.267  1.00  0.00    -0.248 NA
ATOM     45  C   UNL A   1      37.662  31.197  29.475  1.00  0.00     0.031 C 
ATOM     46  C   UNL A   1      37.193  34.223  33.461  1.00  0.00     0.029 A 
ATOM     47  N   UNL A   1      38.794  32.665  33.539  1.00  0.00    -0.354 N 
ATOM     48  C   UNL A   1      39.344  29.876  30.285  1.00  0.00     0.074 A 
ATOM     49  C   UNL A   1      38.376  30.107  29.234  1.00  0.00     0.031 C 
ATOM     50  C   UNL A   1      37.823  34.351  34.639  1.00  0.00     0.029 A 
ATOM     51  C   UNL A   1      38.864  33.331  34.737  1.00  0.00     0.049 A 
ATOM     52  H   UNL A   1      39.391  31.918  33.302  1.00  0.00     0.167 HD
ATOM     53  C   UNL A   1      40.293  28.909  30.252  1.00  0.00     0.037 A 
ATOM     54  C   UNL A   1      39.670  33.138  35.798  1.00  0.00     0.037 A 
ATOM     55  C   UNL A   1      41.264  28.694  31.294  1.00  0.00     0.049 A 
ATOM     56  C   UNL A   1      40.702  32.043  35.746  1.00  0.00     0.074 A 
ATOM     57  C   UNL A   1      42.307  27.785  31.327  1.00  0.00     0.029 A 
ATOM     58  N   UNL A   1      41.304  29.391  32.493  1.00  0.00    -0.354 N 
ATOM     59  N   UNL A   1      40.965  31.197  34.780  1.00  0.00    -0.248 NA
ATOM     60  C   UNL A   1      41.551  31.880  36.933  1.00  0.00     0.031 C 
ATOM     61  C   UNL A   1      42.937  27.889  32.571  1.00  0.00     0.029 A 
ATOM     62  C   UNL A   1      42.332  28.909  33.288  1.00  0.00     0.049 A 
ATOM     63  H   UNL A   1      40.691  30.120  32.744  1.00  0.00     0.167 HD
ATOM     64  C   UNL A   1      42.029  30.425  35.227  1.00  0.00     0.074 A 
ATOM     65  C   UNL A   1      42.372  30.913  36.547  1.00  0.00     0.031 C 
ATOM     66  C   UNL A   1      42.668  29.406  34.599  1.00  0.00     0.037 A 
BRANCH  53  67
ATOM     67  C   UNL A   1      40.318  28.003  29.053  1.00  0.00     0.064 A 
ATOM     68  C   UNL A   1      39.597  26.799  29.017  1.00  0.00     0.173 A 
ATOM     69  C   UNL A   1      41.060  28.354  27.914  1.00  0.00     0.173 A 
ATOM     70  F   UNL A   1      38.879  26.410  30.081  1.00  0.00    -0.203 F 
ATOM     71  C   UNL A   1      39.651  25.963  27.905  1.00  0.00     0.198 A 
ATOM     72  C   UNL A   1      41.081  27.533  26.790  1.00  0.00     0.198 A 
ATOM     73  F   UNL A   1      41.762  29.496  27.889  1.00  0.00    -0.203 F 
ATOM     74  F   UNL A   1      39.007  24.788  27.921  1.00  0.00    -0.200 F 
ATOM     75  C   UNL A   1      40.388  26.333  26.790  1.00  0.00     0.200 A 
ATOM     76  F   UNL A   1      41.782  27.900  25.707  1.00  0.00    -0.200 F 
ATOM     77  F   UNL A   1      40.437  25.527  25.720  1.00  0.00    -0.200 F 
ENDBRANCH  53  67
BRANCH  54  78
ATOM     78  C   UNL A   1      39.554  34.021  36.988  1.00  0.00     0.064 A 
ATOM     79  C   UNL A   1      38.792  33.634  38.099  1.00  0.00     0.173 A 
ATOM     80  C   UNL A   1      40.202  35.264  37.044  1.00  0.00     0.173 A 
ATOM     81  F   UNL A   1      38.138  32.463  38.086  1.00  0.00    -0.203 F 
ATOM     82  C   UNL A   1      38.666  34.464  39.211  1.00  0.00     0.198 A 
ATOM     83  C   UNL A   1      40.101  36.079  38.169  1.00  0.00     0.198 A 
ATOM     84  F   UNL A   1      40.949  35.680  36.009  1.00  0.00    -0.203 F 
ATOM     85  F   UNL A   1      37.894  34.088  40.240  1.00  0.00    -0.200 F 
ATOM     86  C   UNL A   1      39.326  35.682  39.248  1.00  0.00     0.200 A 
ATOM     87  F   UNL A   1      40.754  37.249  38.208  1.00  0.00    -0.200 F 
ATOM     88  F   UNL A   1      39.211  36.476  40.321  1.00  0.00    -0.200 F 
ENDBRANCH  54  78
BRANCH  66  89
ATOM     89  C   UNL A   1      43.830  28.775  35.311  1.00  0.00     0.064 A 
ATOM     90  C   UNL A   1      45.148  29.213  35.113  1.00  0.00     0.173 A 
ATOM     91  C   UNL A   1      43.615  27.742  36.237  1.00  0.00     0.173 A 
ATOM     92  F   UNL A   1      45.410  30.187  34.228  1.00  0.00    -0.203 F 
ATOM     93  C   UNL A   1      46.209  28.621  35.793  1.00  0.00     0.198 A 
ATOM     94  C   UNL A   1      44.675  27.177  36.940  1.00  0.00     0.198 A 
ATOM     95  F   UNL A   1      42.375  27.289  36.470  1.00  0.00    -0.203 F 
ATOM     96  F   UNL A   1      47.465  29.019  35.547  1.00  0.00    -0.200 F 
ATOM     97  C   UNL A   1      45.971  27.610  36.712  1.00  0.00     0.200 A 
ATOM     98  F   UNL A   1      44.440  26.212  37.842  1.00  0.00    -0.200 F 
ATOM     99  F   UNL A   1      46.994  27.048  37.373  1.00  0.00    -0.200 F 
ENDBRANCH  66  89
ENDBRANCH  40  41
ENDBRANCH  32  35
ENDBRANCH  30  31
ENDBRANCH  29  30
ENDBRANCH   1  29
TORSDOF 14
ENDMDL
MODEL 2
REMARK VINA RESULT:     -13.1      5.160      9.695
REMARK SMILES Cc1nn(C)c(C)c1[C@H](C)N1C(=O)CC[C@@H](C(=O)NCCCCNC(=O)c2ccc(-c3c4nc(c(-c5c(F)c(F)c(F)c(F)c5F)c5ccc([nH]5)c(-c5c(F)c(F)c(F)c(F)c5F)c5nc(c(-c6c(F)c(F)c(F)c(F)c6F)c6ccc3[nH]6)C=C5)C=C4)cc2)[C@@H]1c1ccco1
REMARK SMILES IDX 21 1 20 2 19 3 17 4 18 5 16 7 11 8 12 9 90 10 13 11 14 12
REMARK SMILES IDX 15 13 9 14 10 15 8 16 1 17 2 18 3 19 4 20 6 21 5 22 7 23
REMARK SMILES IDX 91 24 92 25 95 26 93 27 94 28 22 29 23 30 24 31 25 32 26 34
REMARK SMILES IDX 27 35 28 36 89 37 29 38 88 39 30 40 31 41 32 42 82 43 33 44
REMARK SMILES IDX 87 45 81 46 83 47 34 48 86 49 80 50 79 51 35 53 67 54 47 55
REMARK SMILES IDX 66 56 48 57 51 58 65 59 84 60 49 61 50 62 64 64 85 65 52 66
REMARK SMILES IDX 36 67 37 68 45 69 38 70 39 71 43 72 46 73 40 74 41 75 44 76
REMARK SMILES IDX 42 77 68 78 69 79 77 80 70 81 71 82 75 83 78 84 72 85 73 86
REMARK SMILES IDX 76 87 74 88 53 89 54 90 62 91 55 92 56 93 60 94 63 95 57 96
REMARK SMILES IDX 58 97 61 98 59 99
REMARK H PARENT 19 6 24 33 83 52 51 63
REMARK Flexibility Score: inf
ROOT
ATOM      1  C   UNL A   1      36.834  20.497  25.008  1.00  0.00     0.023 C 
ENDROOT
BRANCH   1   2
ATOM      2  C   UNL A   1      37.015  21.801  24.232  1.00  0.00     0.116 C 
BRANCH   2   3
ATOM      3  N   UNL A   1      36.898  22.941  25.117  1.00  0.00    -0.356 N 
ATOM      4  C   UNL A   1      35.820  23.706  25.432  1.00  0.00     0.225 C 
ATOM      5  O   UNL A   1      36.057  24.767  26.010  1.00  0.00    -0.275 OA
ATOM      6  H   UNL A   1      37.735  23.205  25.562  1.00  0.00     0.163 HD
BRANCH   4   7
ATOM      7  C   UNL A   1      34.400  23.221  25.146  1.00  0.00     0.109 C 
ATOM      8  N   UNL A   1      33.284  25.493  25.165  1.00  0.00    -0.325 N 
ATOM      9  C   UNL A   1      33.690  25.681  23.844  1.00  0.00     0.223 C 
ATOM     10  C   UNL A   1      33.410  24.182  25.827  1.00  0.00     0.164 C 
ATOM     11  O   UNL A   1      33.757  26.798  23.320  1.00  0.00    -0.275 OA
ATOM     12  C   UNL A   1      34.077  24.486  22.994  1.00  0.00     0.101 C 
ATOM     13  C   UNL A   1      34.107  23.130  23.661  1.00  0.00     0.026 C 
BRANCH   8  14
ATOM     14  C   UNL A   1      32.830  26.716  25.904  1.00  0.00     0.117 C 
ATOM     15  C   UNL A   1      34.031  27.499  26.456  1.00  0.00     0.036 C 
BRANCH  14  16
ATOM     16  C   UNL A   1      31.821  27.593  25.152  1.00  0.00     0.018 A 
ATOM     17  C   UNL A   1      32.532  30.151  25.579  1.00  0.00     0.069 C 
ATOM     18  C   UNL A   1      31.737  29.025  25.015  1.00  0.00     0.065 A 
ATOM     19  N   UNL A   1      30.704  29.390  24.248  1.00  0.00    -0.178 NA
ATOM     20  N   UNL A   1      30.100  28.250  23.918  1.00  0.00    -0.272 N 
ATOM     21  C   UNL A   1      30.663  27.148  24.499  1.00  0.00     0.040 A 
ATOM     22  C   UNL A   1      28.975  28.326  23.015  1.00  0.00     0.174 C 
ATOM     23  C   UNL A   1      30.078  25.787  24.349  1.00  0.00     0.067 C 
ENDBRANCH  14  16
ENDBRANCH   8  14
BRANCH  10  24
ATOM     24  C   UNL A   1      32.080  23.526  26.065  1.00  0.00     0.127 A 
ATOM     25  C   UNL A   1      31.417  22.530  25.372  1.00  0.00     0.048 A 
ATOM     26  O   UNL A   1      31.342  23.903  27.148  1.00  0.00    -0.467 OA
ATOM     27  C   UNL A   1      30.225  22.270  26.083  1.00  0.00     0.042 A 
ATOM     28  C   UNL A   1      30.232  23.120  27.163  1.00  0.00     0.195 A 
ENDBRANCH  10  24
ENDBRANCH   4   7
ENDBRANCH   2   3
ENDBRANCH   1   2
BRANCH   1  29
ATOM     29  C   UNL A   1      38.061  19.575  24.996  1.00  0.00     0.023 C 
BRANCH  29  30
ATOM     30  C   UNL A   1      39.264  20.081  25.785  1.00  0.00     0.116 C 
BRANCH  30  31
ATOM     31  N   UNL A   1      40.333  19.100  25.873  1.00  0.00    -0.352 N 
ATOM     32  C   UNL A   1      41.670  19.289  26.118  1.00  0.00     0.251 C 
ATOM     33  H   UNL A   1      40.058  18.164  25.740  1.00  0.00     0.163 HD
ATOM     34  O   UNL A   1      42.454  18.350  26.012  1.00  0.00    -0.269 OA
BRANCH  32  35
ATOM     35  C   UNL A   1      42.171  20.632  26.479  1.00  0.00     0.039 A 
ATOM     36  C   UNL A   1      42.558  21.504  25.458  1.00  0.00     0.014 A 
ATOM     37  C   UNL A   1      42.250  21.033  27.815  1.00  0.00     0.014 A 
ATOM     38  C   UNL A   1      42.962  22.801  25.774  1.00  0.00     0.010 A 
ATOM     39  C   UNL A   1      42.578  22.350  28.122  1.00  0.00     0.010 A 
ATOM     40  C   UNL A   1      42.939  23.248  27.106  1.00  0.00    -0.014 A 
BRANCH  40  41
ATOM     41  C   UNL A   1      43.287  24.650  27.454  1.00  0.00     0.031 A 
ATOM     42  C   UNL A   1      44.724  25.086  27.494  1.00  0.00     0.074 A 
ATOM     43  C   UNL A   1      42.311  25.513  27.799  1.00  0.00     0.049 A 
ATOM     44  N   UNL A   1      45.230  26.246  27.832  1.00  0.00    -0.248 NA
ATOM     45  C   UNL A   1      45.730  24.076  27.133  1.00  0.00     0.031 C 
ATOM     46  C   UNL A   1      40.882  25.198  27.843  1.00  0.00     0.029 A 
ATOM     47  N   UNL A   1      42.373  26.827  28.187  1.00  0.00    -0.354 N 
ATOM     48  C   UNL A   1      46.607  26.099  27.739  1.00  0.00     0.074 A 
ATOM     49  C   UNL A   1      46.861  24.723  27.371  1.00  0.00     0.031 C 
ATOM     50  C   UNL A   1      40.202  26.296  28.207  1.00  0.00     0.029 A 
ATOM     51  C   UNL A   1      41.146  27.379  28.464  1.00  0.00     0.049 A 
ATOM     52  H   UNL A   1      43.217  27.329  28.258  1.00  0.00     0.167 HD
ATOM     53  C   UNL A   1      47.573  27.032  27.922  1.00  0.00     0.037 A 
ATOM     54  C   UNL A   1      40.820  28.616  28.886  1.00  0.00     0.037 A 
ATOM     55  C   UNL A   1      47.313  28.405  28.272  1.00  0.00     0.049 A 
ATOM     56  C   UNL A   1      41.912  29.629  29.103  1.00  0.00     0.074 A 
ATOM     57  C   UNL A   1      48.215  29.444  28.416  1.00  0.00     0.029 A 
ATOM     58  N   UNL A   1      46.056  28.927  28.544  1.00  0.00    -0.354 N 
ATOM     59  N   UNL A   1      43.206  29.501  28.937  1.00  0.00    -0.248 NA
ATOM     60  C   UNL A   1      41.496  30.960  29.563  1.00  0.00     0.031 C 
ATOM     61  C   UNL A   1      47.513  30.578  28.836  1.00  0.00     0.029 A 
ATOM     62  C   UNL A   1      46.164  30.266  28.888  1.00  0.00     0.049 A 
ATOM     63  H   UNL A   1      45.212  28.422  28.499  1.00  0.00     0.167 HD
ATOM     64  C   UNL A   1      43.755  30.741  29.239  1.00  0.00     0.074 A 
ATOM     65  C   UNL A   1      42.650  31.611  29.585  1.00  0.00     0.031 C 
ATOM     66  C   UNL A   1      45.056  31.124  29.226  1.00  0.00     0.037 A 
BRANCH  53  67
ATOM     67  C   UNL A   1      49.001  26.594  27.757  1.00  0.00     0.064 A 
ATOM     68  C   UNL A   1      49.815  26.285  28.858  1.00  0.00     0.173 A 
ATOM     69  C   UNL A   1      49.559  26.463  26.475  1.00  0.00     0.173 A 
ATOM     70  F   UNL A   1      49.336  26.402  30.106  1.00  0.00    -0.203 F 
ATOM     71  C   UNL A   1      51.142  25.903  28.685  1.00  0.00     0.198 A 
ATOM     72  C   UNL A   1      50.876  26.044  26.305  1.00  0.00     0.198 A 
ATOM     73  F   UNL A   1      48.827  26.737  25.386  1.00  0.00    -0.203 F 
ATOM     74  F   UNL A   1      51.917  25.676  29.755  1.00  0.00    -0.200 F 
ATOM     75  C   UNL A   1      51.670  25.776  27.409  1.00  0.00     0.200 A 
ATOM     76  F   UNL A   1      51.380  25.907  25.070  1.00  0.00    -0.200 F 
ATOM     77  F   UNL A   1      52.948  25.405  27.245  1.00  0.00    -0.200 F 
ENDBRANCH  53  67
BRANCH  54  78
ATOM     78  C   UNL A   1      39.393  28.974  29.100  1.00  0.00     0.064 A 
ATOM     79  C   UNL A   1      38.598  29.424  28.037  1.00  0.00     0.173 A 
ATOM     80  C   UNL A   1      38.795  28.874  30.364  1.00  0.00     0.173 A 
ATOM     81  F   UNL A   1      39.131  29.555  26.812  1.00  0.00    -0.203 F 
ATOM     82  C   UNL A   1      37.265  29.777  28.233  1.00  0.00     0.198 A 
ATOM     83  C   UNL A   1      37.453  29.198  30.553  1.00  0.00     0.198 A 
ATOM     84  F   UNL A   1      39.510  28.444  31.415  1.00  0.00    -0.203 F 
ATOM     85  F   UNL A   1      36.541  30.246  27.208  1.00  0.00    -0.200 F 
ATOM     86  C   UNL A   1      36.692  29.657  29.489  1.00  0.00     0.200 A 
ATOM     87  F   UNL A   1      36.898  29.066  31.766  1.00  0.00    -0.200 F 
ATOM     88  F   UNL A   1      35.407  29.990  29.676  1.00  0.00    -0.200 F 
ENDBRANCH  54  78
BRANCH  66  89
ATOM     89  C   UNL A   1      45.357  32.559  29.557  1.00  0.00     0.064 A 
ATOM     90  C   UNL A   1      45.352  33.563  28.577  1.00  0.00     0.173 A 
ATOM     91  C   UNL A   1      45.615  32.939  30.883  1.00  0.00     0.173 A 
ATOM     92  F   UNL A   1      45.125  33.251  27.291  1.00  0.00    -0.203 F 
ATOM     93  C   UNL A   1      45.622  34.888  28.908  1.00  0.00     0.198 A 
ATOM     94  C   UNL A   1      45.850  34.270  31.215  1.00  0.00     0.198 A 
ATOM     95  F   UNL A   1      45.626  32.021  31.861  1.00  0.00    -0.203 F 
ATOM     96  F   UNL A   1      45.665  35.821  27.947  1.00  0.00    -0.200 F 
ATOM     97  C   UNL A   1      45.862  35.242  30.227  1.00  0.00     0.200 A 
ATOM     98  F   UNL A   1      46.064  34.612  32.494  1.00  0.00    -0.200 F 
ATOM     99  F   UNL A   1      46.113  36.520  30.545  1.00  0.00    -0.200 F 
ENDBRANCH  66  89
ENDBRANCH  40  41
ENDBRANCH  32  35
ENDBRANCH  30  31
ENDBRANCH  29  30
ENDBRANCH   1  29
TORSDOF 14
ENDMDL
MODEL 3
REMARK VINA RESULT:     -13.0      5.493     10.864
REMARK SMILES Cc1nn(C)c(C)c1[C@H](C)N1C(=O)CC[C@@H](C(=O)NCCCCNC(=O)c2ccc(-c3c4nc(c(-c5c(F)c(F)c(F)c(F)c5F)c5ccc([nH]5)c(-c5c(F)c(F)c(F)c(F)c5F)c5nc(c(-c6c(F)c(F)c(F)c(F)c6F)c6ccc3[nH]6)C=C5)C=C4)cc2)[C@@H]1c1ccco1
REMARK SMILES IDX 21 1 20 2 19 3 17 4 18 5 16 7 11 8 12 9 90 10 13 11 14 12
REMARK SMILES IDX 15 13 9 14 10 15 8 16 1 17 2 18 3 19 4 20 6 21 5 22 7 23
REMARK SMILES IDX 91 24 92 25 95 26 93 27 94 28 22 29 23 30 24 31 25 32 26 34
REMARK SMILES IDX 27 35 28 36 89 37 29 38 88 39 30 40 31 41 32 42 82 43 33 44
REMARK SMILES IDX 87 45 81 46 83 47 34 48 86 49 80 50 79 51 35 53 67 54 47 55
REMARK SMILES IDX 66 56 48 57 51 58 65 59 84 60 49 61 50 62 64 64 85 65 52 66
REMARK SMILES IDX 36 67 37 68 45 69 38 70 39 71 43 72 46 73 40 74 41 75 44 76
REMARK SMILES IDX 42 77 68 78 69 79 77 80 70 81 71 82 75 83 78 84 72 85 73 86
REMARK SMILES IDX 76 87 74 88 53 89 54 90 62 91 55 92 56 93 60 94 63 95 57 96
REMARK SMILES IDX 58 97 61 98 59 99
REMARK H PARENT 19 6 24 33 83 52 51 63
REMARK Flexibility Score: inf
ROOT
ATOM      1  C   UNL A   1      36.963  20.660  24.995  1.00  0.00     0.023 C 
ENDROOT
BRANCH   1   2
ATOM      2  C   UNL A   1      37.293  22.097  24.593  1.00  0.00     0.116 C 
BRANCH   2   3
ATOM      3  N   UNL A   1      36.448  22.527  23.498  1.00  0.00    -0.356 N 
ATOM      4  C   UNL A   1      35.417  23.412  23.475  1.00  0.00     0.225 C 
ATOM      5  O   UNL A   1      34.710  23.397  22.467  1.00  0.00    -0.275 OA
ATOM      6  H   UNL A   1      36.654  22.112  22.631  1.00  0.00     0.163 HD
BRANCH   4   7
ATOM      7  C   UNL A   1      35.214  24.413  24.611  1.00  0.00     0.109 C 
ATOM      8  N   UNL A   1      32.690  24.247  24.725  1.00  0.00    -0.325 N 
ATOM      9  C   UNL A   1      32.821  23.099  25.505  1.00  0.00     0.223 C 
ATOM     10  C   UNL A   1      33.852  25.102  24.416  1.00  0.00     0.164 C 
ATOM     11  O   UNL A   1      31.909  22.276  25.638  1.00  0.00    -0.275 OA
ATOM     12  C   UNL A   1      34.126  22.819  26.227  1.00  0.00     0.101 C 
ATOM     13  C   UNL A   1      35.282  23.760  25.977  1.00  0.00     0.026 C 
BRANCH   8  14
ATOM     14  C   UNL A   1      31.339  24.495  24.124  1.00  0.00     0.117 C 
ATOM     15  C   UNL A   1      30.243  24.429  25.199  1.00  0.00     0.036 C 
BRANCH  14  16
ATOM     16  C   UNL A   1      31.244  25.736  23.227  1.00  0.00     0.018 A 
ATOM     17  C   UNL A   1      32.503  25.139  20.927  1.00  0.00     0.069 C 
ATOM     18  C   UNL A   1      31.720  25.966  21.886  1.00  0.00     0.065 A 
ATOM     19  N   UNL A   1      31.409  27.193  21.454  1.00  0.00    -0.178 NA
ATOM     20  N   UNL A   1      30.787  27.772  22.479  1.00  0.00    -0.272 N 
ATOM     21  C   UNL A   1      30.736  26.988  23.598  1.00  0.00     0.040 A 
ATOM     22  C   UNL A   1      30.260  29.101  22.276  1.00  0.00     0.174 C 
ATOM     23  C   UNL A   1      30.179  27.483  24.887  1.00  0.00     0.067 C 
ENDBRANCH  14  16
ENDBRANCH   8  14
BRANCH  10  24
ATOM     24  C   UNL A   1      33.797  26.426  25.121  1.00  0.00     0.127 A 
ATOM     25  C   UNL A   1      34.158  27.696  24.707  1.00  0.00     0.048 A 
ATOM     26  O   UNL A   1      33.295  26.481  26.387  1.00  0.00    -0.467 OA
ATOM     27  C   UNL A   1      33.835  28.572  25.766  1.00  0.00     0.042 A 
ATOM     28  C   UNL A   1      33.300  27.787  26.760  1.00  0.00     0.195 A 
ENDBRANCH  10  24
ENDBRANCH   4   7
ENDBRANCH   2   3
ENDBRANCH   1   2
BRANCH   1  29
ATOM     29  C   UNL A   1      38.158  19.699  24.959  1.00  0.00     0.023 C 
BRANCH  29  30
ATOM     30  C   UNL A   1      39.345  20.102  25.828  1.00  0.00     0.116 C 
BRANCH  30  31
ATOM     31  N   UNL A   1      40.356  19.062  25.918  1.00  0.00    -0.352 N 
ATOM     32  C   UNL A   1      41.708  19.178  26.127  1.00  0.00     0.251 C 
ATOM     33  H   UNL A   1      40.024  18.141  25.816  1.00  0.00     0.163 HD
ATOM     34  O   UNL A   1      42.433  18.193  26.028  1.00  0.00    -0.269 OA
BRANCH  32  35
ATOM     35  C   UNL A   1      42.294  20.498  26.442  1.00  0.00     0.039 A 
ATOM     36  C   UNL A   1      42.812  21.271  25.399  1.00  0.00     0.014 A 
ATOM     37  C   UNL A   1      42.327  20.975  27.755  1.00  0.00     0.014 A 
ATOM     38  C   UNL A   1      43.301  22.550  25.665  1.00  0.00     0.010 A 
ATOM     39  C   UNL A   1      42.742  22.279  28.006  1.00  0.00     0.010 A 
ATOM     40  C   UNL A   1      43.236  23.080  26.965  1.00  0.00    -0.014 A 
BRANCH  40  41
ATOM     41  C   UNL A   1      43.676  24.470  27.253  1.00  0.00     0.031 A 
ATOM     42  C   UNL A   1      42.682  25.497  27.717  1.00  0.00     0.074 A 
ATOM     43  C   UNL A   1      44.957  24.823  27.032  1.00  0.00     0.049 A 
ATOM     44  N   UNL A   1      42.859  26.772  27.962  1.00  0.00    -0.248 NA
ATOM     45  C   UNL A   1      41.298  25.037  27.905  1.00  0.00     0.031 C 
ATOM     46  C   UNL A   1      46.007  23.930  26.539  1.00  0.00     0.029 A 
ATOM     47  N   UNL A   1      45.593  26.029  27.185  1.00  0.00    -0.354 N 
ATOM     48  C   UNL A   1      41.611  27.265  28.315  1.00  0.00     0.074 A 
ATOM     49  C   UNL A   1      40.674  26.169  28.196  1.00  0.00     0.031 C 
ATOM     50  C   UNL A   1      47.160  24.610  26.459  1.00  0.00     0.029 A 
ATOM     51  C   UNL A   1      46.925  25.997  26.851  1.00  0.00     0.049 A 
ATOM     52  H   UNL A   1      45.138  26.841  27.506  1.00  0.00     0.167 HD
ATOM     53  C   UNL A   1      41.280  28.515  28.724  1.00  0.00     0.037 A 
ATOM     54  C   UNL A   1      47.849  26.976  26.853  1.00  0.00     0.037 A 
ATOM     55  C   UNL A   1      42.220  29.597  28.856  1.00  0.00     0.049 A 
ATOM     56  C   UNL A   1      47.452  28.360  27.290  1.00  0.00     0.074 A 
ATOM     57  C   UNL A   1      41.998  30.880  29.324  1.00  0.00     0.029 A 
ATOM     58  N   UNL A   1      43.562  29.526  28.510  1.00  0.00    -0.354 N 
ATOM     59  N   UNL A   1      46.285  28.798  27.697  1.00  0.00    -0.248 NA
ATOM     60  C   UNL A   1      48.503  29.386  27.271  1.00  0.00     0.031 C 
ATOM     61  C   UNL A   1      43.189  31.603  29.200  1.00  0.00     0.029 A 
ATOM     62  C   UNL A   1      44.172  30.753  28.721  1.00  0.00     0.049 A 
ATOM     63  H   UNL A   1      44.014  28.722  28.164  1.00  0.00     0.167 HD
ATOM     64  C   UNL A   1      46.469  30.138  28.014  1.00  0.00     0.074 A 
ATOM     65  C   UNL A   1      47.864  30.437  27.764  1.00  0.00     0.031 C 
ATOM     66  C   UNL A   1      45.563  31.038  28.474  1.00  0.00     0.037 A 
BRANCH  53  67
ATOM     67  C   UNL A   1      39.836  28.778  29.047  1.00  0.00     0.064 A 
ATOM     68  C   UNL A   1      39.316  28.583  30.336  1.00  0.00     0.173 A 
ATOM     69  C   UNL A   1      38.961  29.250  28.055  1.00  0.00     0.173 A 
ATOM     70  F   UNL A   1      40.104  28.124  31.320  1.00  0.00    -0.203 F 
ATOM     71  C   UNL A   1      37.970  28.810  30.610  1.00  0.00     0.198 A 
ATOM     72  C   UNL A   1      37.624  29.512  28.342  1.00  0.00     0.198 A 
ATOM     73  F   UNL A   1      39.403  29.461  26.807  1.00  0.00    -0.203 F 
ATOM     74  F   UNL A   1      37.485  28.555  31.833  1.00  0.00    -0.200 F 
ATOM     75  C   UNL A   1      37.126  29.281  29.615  1.00  0.00     0.200 A 
ATOM     76  F   UNL A   1      36.813  29.981  27.383  1.00  0.00    -0.200 F 
ATOM     77  F   UNL A   1      35.832  29.502  29.882  1.00  0.00    -0.200 F 
ENDBRANCH  53  67
BRANCH  54  78
ATOM     78  C   UNL A   1      49.250  26.674  26.457  1.00  0.00     0.064 A 
ATOM     79  C   UNL A   1      49.679  26.860  25.136  1.00  0.00     0.173 A 
ATOM     80  C   UNL A   1      50.188  26.197  27.386  1.00  0.00     0.173 A 
ATOM     81  F   UNL A   1      48.815  27.296  24.207  1.00  0.00    -0.203 F 
ATOM     82  C   UNL A   1      50.986  26.565  24.754  1.00  0.00     0.198 A 
ATOM     83  C   UNL A   1      51.502  25.931  27.009  1.00  0.00     0.198 A 
ATOM     84  F   UNL A   1      49.829  26.006  28.665  1.00  0.00    -0.203 F 
ATOM     85  F   UNL A   1      51.356  26.710  23.475  1.00  0.00    -0.200 F 
ATOM     86  C   UNL A   1      51.898  26.107  25.692  1.00  0.00     0.200 A 
ATOM     87  F   UNL A   1      52.385  25.504  27.923  1.00  0.00    -0.200 F 
ATOM     88  F   UNL A   1      53.157  25.829  25.326  1.00  0.00    -0.200 F 
ENDBRANCH  54  78
BRANCH  66  89
ATOM     89  C   UNL A   1      46.060  32.423  28.778  1.00  0.00     0.064 A 
ATOM     90  C   UNL A   1      46.027  33.449  27.822  1.00  0.00     0.173 A 
ATOM     91  C   UNL A   1      46.537  32.736  30.061  1.00  0.00     0.173 A 
ATOM     92  F   UNL A   1      45.594  33.198  26.577  1.00  0.00    -0.203 F 
ATOM     93  C   UNL A   1      46.482  34.729  28.130  1.00  0.00     0.198 A 
ATOM     94  C   UNL A   1      46.957  34.025  30.374  1.00  0.00     0.198 A 
ATOM     95  F   UNL A   1      46.583  31.796  31.015  1.00  0.00    -0.203 F 
ATOM     96  F   UNL A   1      46.492  35.679  27.184  1.00  0.00    -0.200 F 
ATOM     97  C   UNL A   1      46.937  35.018  29.407  1.00  0.00     0.200 A 
ATOM     98  F   UNL A   1      47.380  34.307  31.615  1.00  0.00    -0.200 F 
ATOM     99  F   UNL A   1      47.365  36.254  29.704  1.00  0.00    -0.200 F 
ENDBRANCH  66  89
ENDBRANCH  40  41
ENDBRANCH  32  35
ENDBRANCH  30  31
ENDBRANCH  29  30
ENDBRANCH   1  29
TORSDOF 14
ENDMDL
