MODEL 1
REMARK VINA RESULT:     -12.3      0.000      0.000
REMARK SMILES CC[C@](O)(C(=O)NCCCCNC(=O)c1ccc(-c2c3nc(c(-c4c(F)c(F)c(F)c(F)c4F)c4ccc([nH]4)c(-c4c(F)c(F)c(F)c(F)c4F)c4nc(c(-c5c(F)c(F)c(F)c(F)c5F)c5ccc2[nH]5)C=C4)C=C3)cc1)[C@@H]1CCc2ccc(OC)cc21
REMARK SMILES IDX 9 1 8 2 7 3 5 4 6 5 3 7 2 8 1 9 78 10 79 11 88 12 80 13
REMARK SMILES IDX 81 14 87 15 82 16 84 17 83 18 85 19 86 20 4 21 10 23 11 24
REMARK SMILES IDX 12 25 13 26 14 28 15 29 16 30 77 31 17 32 76 33 18 34 19 35
REMARK SMILES IDX 20 36 70 37 21 38 75 39 69 40 71 41 22 42 74 43 68 44 67 45
REMARK SMILES IDX 23 47 55 48 35 49 54 50 36 51 39 52 53 53 72 54 37 55 38 56
REMARK SMILES IDX 52 58 73 59 40 60 24 61 25 62 33 63 26 64 27 65 31 66 34 67
REMARK SMILES IDX 28 68 29 69 32 70 30 71 56 72 57 73 65 74 58 75 59 76 63 77
REMARK SMILES IDX 66 78 60 79 61 80 64 81 62 82 41 83 42 84 50 85 43 86 44 87
REMARK SMILES IDX 48 88 51 89 45 90 46 91 49 92 47 93
REMARK H PARENT 7 6 4 22 12 27 71 46 39 57
REMARK Flexibility Score: inf
ROOT
ATOM      1  C   UNL A   1      33.627  27.329  26.360  1.00  0.00     0.023 C 
ENDROOT
BRANCH   1   2
ATOM      2  C   UNL A   1      33.421  26.347  25.217  1.00  0.00     0.116 C 
BRANCH   2   3
ATOM      3  N   UNL A   1      33.887  26.808  23.917  1.00  0.00    -0.354 N 
ATOM      4  C   UNL A   1      33.132  27.104  22.801  1.00  0.00     0.252 C 
ATOM      5  O   UNL A   1      33.685  27.711  21.882  1.00  0.00    -0.272 OA
ATOM      6  H   UNL A   1      34.860  26.923  23.823  1.00  0.00     0.163 HD
BRANCH   4   7
ATOM      7  C   UNL A   1      31.654  26.594  22.708  1.00  0.00     0.149 C 
BRANCH   7   8
ATOM      8  C   UNL A   1      31.645  25.043  22.661  1.00  0.00     0.043 C 
ATOM      9  C   UNL A   1      32.814  24.410  21.919  1.00  0.00     0.007 C 
ENDBRANCH   7   8
BRANCH   7  10
ATOM     10  C   UNL A   1      30.794  27.220  23.866  1.00  0.00     0.061 C 
ATOM     11  C   UNL A   1      29.801  26.260  24.575  1.00  0.00     0.017 C 
ATOM     12  C   UNL A   1      29.826  28.299  23.432  1.00  0.00    -0.035 A 
ATOM     13  C   UNL A   1      28.424  26.424  23.895  1.00  0.00     0.036 C 
ATOM     14  C   UNL A   1      28.511  27.830  23.397  1.00  0.00    -0.044 A 
ATOM     15  C   UNL A   1      30.122  29.616  23.104  1.00  0.00     0.050 A 
ATOM     16  C   UNL A   1      27.487  28.625  22.914  1.00  0.00     0.008 A 
ATOM     17  C   UNL A   1      29.088  30.451  22.677  1.00  0.00     0.119 A 
ATOM     18  C   UNL A   1      27.786  29.940  22.544  1.00  0.00     0.047 A 
BRANCH  17  19
ATOM     19  O   UNL A   1      29.227  31.772  22.339  1.00  0.00    -0.497 OA
ATOM     20  C   UNL A   1      28.221  32.305  21.486  1.00  0.00     0.278 C 
ENDBRANCH  17  19
ENDBRANCH   7  10
BRANCH   7  21
ATOM     21  O   UNL A   1      31.180  27.125  21.446  1.00  0.00    -0.379 OA
ATOM     22  H   UNL A   1      30.505  26.534  21.079  1.00  0.00     0.212 HD
ENDBRANCH   7  21
ENDBRANCH   4   7
ENDBRANCH   2   3
ENDBRANCH   1   2
BRANCH   1  23
ATOM     23  C   UNL A   1      32.644  28.494  26.415  1.00  0.00     0.023 C 
BRANCH  23  24
ATOM     24  C   UNL A   1      33.088  29.778  25.723  1.00  0.00     0.116 C 
BRANCH  24  25
ATOM     25  N   UNL A   1      32.666  30.997  26.399  1.00  0.00    -0.352 N 
ATOM     26  C   UNL A   1      33.332  31.753  27.337  1.00  0.00     0.251 C 
ATOM     27  H   UNL A   1      31.772  31.328  26.150  1.00  0.00     0.163 HD
ATOM     28  O   UNL A   1      32.792  32.727  27.853  1.00  0.00    -0.269 OA
BRANCH  26  29
ATOM     29  C   UNL A   1      34.690  31.354  27.762  1.00  0.00     0.039 A 
ATOM     30  C   UNL A   1      35.684  32.333  27.847  1.00  0.00     0.014 A 
ATOM     31  C   UNL A   1      34.960  30.039  28.145  1.00  0.00     0.014 A 
ATOM     32  C   UNL A   1      36.914  32.017  28.428  1.00  0.00     0.010 A 
ATOM     33  C   UNL A   1      36.157  29.745  28.790  1.00  0.00     0.010 A 
ATOM     34  C   UNL A   1      37.135  30.737  28.961  1.00  0.00    -0.014 A 
BRANCH  34  35
ATOM     35  C   UNL A   1      38.355  30.421  29.749  1.00  0.00     0.031 A 
ATOM     36  C   UNL A   1      39.376  29.463  29.207  1.00  0.00     0.074 A 
ATOM     37  C   UNL A   1      38.480  30.906  31.000  1.00  0.00     0.049 A 
ATOM     38  N   UNL A   1      40.424  28.949  29.800  1.00  0.00    -0.248 NA
ATOM     39  C   UNL A   1      39.175  28.995  27.828  1.00  0.00     0.031 C 
ATOM     40  C   UNL A   1      37.529  31.803  31.662  1.00  0.00     0.029 A 
ATOM     41  N   UNL A   1      39.448  30.693  31.953  1.00  0.00    -0.354 N 
ATOM     42  C   UNL A   1      40.988  28.079  28.878  1.00  0.00     0.074 A 
ATOM     43  C   UNL A   1      40.149  28.106  27.699  1.00  0.00     0.031 C 
ATOM     44  C   UNL A   1      37.961  32.064  32.907  1.00  0.00     0.029 A 
ATOM     45  C   UNL A   1      39.194  31.323  33.148  1.00  0.00     0.049 A 
ATOM     46  H   UNL A   1      40.247  30.140  31.794  1.00  0.00     0.167 HD
ATOM     47  C   UNL A   1      42.115  27.337  28.999  1.00  0.00     0.037 A 
ATOM     48  C   UNL A   1      39.867  31.287  34.315  1.00  0.00     0.037 A 
ATOM     49  C   UNL A   1      42.972  27.348  30.155  1.00  0.00     0.049 A 
ATOM     50  C   UNL A   1      41.118  30.458  34.418  1.00  0.00     0.074 A 
ATOM     51  C   UNL A   1      44.190  26.716  30.329  1.00  0.00     0.029 A 
ATOM     52  N   UNL A   1      42.698  28.024  31.334  1.00  0.00    -0.354 N 
ATOM     53  N   UNL A   1      41.690  29.709  33.509  1.00  0.00    -0.248 NA
ATOM     54  C   UNL A   1      41.817  30.469  35.712  1.00  0.00     0.031 C 
ATOM     55  C   UNL A   1      44.632  26.969  31.631  1.00  0.00     0.029 A 
ATOM     56  C   UNL A   1      43.710  27.795  32.253  1.00  0.00     0.049 A 
ATOM     57  H   UNL A   1      41.904  28.582  31.495  1.00  0.00     0.167 HD
ATOM     58  C   UNL A   1      42.822  29.177  34.110  1.00  0.00     0.074 A 
ATOM     59  C   UNL A   1      42.868  29.701  35.459  1.00  0.00     0.031 C 
ATOM     60  C   UNL A   1      43.742  28.328  33.591  1.00  0.00     0.037 A 
BRANCH  47  61
ATOM     61  C   UNL A   1      42.495  26.450  27.852  1.00  0.00     0.064 A 
ATOM     62  C   UNL A   1      43.416  26.861  26.877  1.00  0.00     0.173 A 
ATOM     63  C   UNL A   1      41.975  25.150  27.760  1.00  0.00     0.173 A 
ATOM     64  F   UNL A   1      43.935  28.098  26.916  1.00  0.00    -0.203 F 
ATOM     65  C   UNL A   1      43.786  26.010  25.839  1.00  0.00     0.198 A 
ATOM     66  C   UNL A   1      42.367  24.293  26.735  1.00  0.00     0.198 A 
ATOM     67  F   UNL A   1      41.094  24.708  28.670  1.00  0.00    -0.203 F 
ATOM     68  F   UNL A   1      44.638  26.437  24.898  1.00  0.00    -0.200 F 
ATOM     69  C   UNL A   1      43.268  24.724  25.774  1.00  0.00     0.200 A 
ATOM     70  F   UNL A   1      41.875  23.047  26.680  1.00  0.00    -0.200 F 
ATOM     71  F   UNL A   1      43.634  23.904  24.780  1.00  0.00    -0.200 F 
ENDBRANCH  47  61
BRANCH  48  72
ATOM     72  C   UNL A   1      39.370  32.060  35.484  1.00  0.00     0.064 A 
ATOM     73  C   UNL A   1      39.777  33.385  35.696  1.00  0.00     0.173 A 
ATOM     74  C   UNL A   1      38.495  31.487  36.419  1.00  0.00     0.173 A 
ATOM     75  F   UNL A   1      40.631  33.967  34.843  1.00  0.00    -0.203 F 
ATOM     76  C   UNL A   1      39.343  34.100  36.811  1.00  0.00     0.198 A 
ATOM     77  C   UNL A   1      38.040  32.213  37.517  1.00  0.00     0.198 A 
ATOM     78  F   UNL A   1      38.074  30.224  36.259  1.00  0.00    -0.203 F 
ATOM     79  F   UNL A   1      39.784  35.349  37.015  1.00  0.00    -0.200 F 
ATOM     80  C   UNL A   1      38.472  33.516  37.717  1.00  0.00     0.200 A 
ATOM     81  F   UNL A   1      37.188  31.650  38.384  1.00  0.00    -0.200 F 
ATOM     82  F   UNL A   1      38.054  34.205  38.788  1.00  0.00    -0.200 F 
ENDBRANCH  48  72
BRANCH  60  83
ATOM     83  C   UNL A   1      44.886  27.925  34.473  1.00  0.00     0.064 A 
ATOM     84  C   UNL A   1      46.053  28.697  34.554  1.00  0.00     0.173 A 
ATOM     85  C   UNL A   1      44.789  26.786  35.286  1.00  0.00     0.173 A 
ATOM     86  F   UNL A   1      46.199  29.784  33.783  1.00  0.00    -0.203 F 
ATOM     87  C   UNL A   1      47.089  28.336  35.412  1.00  0.00     0.198 A 
ATOM     88  C   UNL A   1      45.816  26.443  36.161  1.00  0.00     0.198 A 
ATOM     89  F   UNL A   1      43.690  26.018  35.247  1.00  0.00    -0.203 F 
ATOM     90  F   UNL A   1      48.211  29.067  35.449  1.00  0.00    -0.200 F 
ATOM     91  C   UNL A   1      46.966  27.215  36.220  1.00  0.00     0.200 A 
ATOM     92  F   UNL A   1      45.690  25.368  36.950  1.00  0.00    -0.200 F 
ATOM     93  F   UNL A   1      47.959  26.876  37.053  1.00  0.00    -0.200 F 
ENDBRANCH  60  83
ENDBRANCH  34  35
ENDBRANCH  26  29
ENDBRANCH  24  25
ENDBRANCH  23  24
ENDBRANCH   1  23
TORSDOF 15
ENDMDL
MODEL 2
REMARK VINA RESULT:     -12.2      1.625      2.785
REMARK SMILES CC[C@](O)(C(=O)NCCCCNC(=O)c1ccc(-c2c3nc(c(-c4c(F)c(F)c(F)c(F)c4F)c4ccc([nH]4)c(-c4c(F)c(F)c(F)c(F)c4F)c4nc(c(-c5c(F)c(F)c(F)c(F)c5F)c5ccc2[nH]5)C=C4)C=C3)cc1)[C@@H]1CCc2ccc(OC)cc21
REMARK SMILES IDX 9 1 8 2 7 3 5 4 6 5 3 7 2 8 1 9 78 10 79 11 88 12 80 13
REMARK SMILES IDX 81 14 87 15 82 16 84 17 83 18 85 19 86 20 4 21 10 23 11 24
REMARK SMILES IDX 12 25 13 26 14 28 15 29 16 30 77 31 17 32 76 33 18 34 19 35
REMARK SMILES IDX 20 36 70 37 21 38 75 39 69 40 71 41 22 42 74 43 68 44 67 45
REMARK SMILES IDX 23 47 55 48 35 49 54 50 36 51 39 52 53 53 72 54 37 55 38 56
REMARK SMILES IDX 52 58 73 59 40 60 24 61 25 62 33 63 26 64 27 65 31 66 34 67
REMARK SMILES IDX 28 68 29 69 32 70 30 71 56 72 57 73 65 74 58 75 59 76 63 77
REMARK SMILES IDX 66 78 60 79 61 80 64 81 62 82 41 83 42 84 50 85 43 86 44 87
REMARK SMILES IDX 48 88 51 89 45 90 46 91 49 92 47 93
REMARK H PARENT 7 6 4 22 12 27 71 46 39 57
REMARK Flexibility Score: inf
ROOT
ATOM      1  C   UNL A   1      32.277  29.403  26.989  1.00  0.00     0.023 C 
ENDROOT
BRANCH   1   2
ATOM      2  C   UNL A   1      33.272  28.473  26.312  1.00  0.00     0.116 C 
BRANCH   2   3
ATOM      3  N   UNL A   1      33.753  28.926  25.014  1.00  0.00    -0.354 N 
ATOM      4  C   UNL A   1      33.221  28.655  23.770  1.00  0.00     0.252 C 
ATOM      5  O   UNL A   1      33.623  29.328  22.819  1.00  0.00    -0.272 OA
ATOM      6  H   UNL A   1      34.555  29.496  25.026  1.00  0.00     0.163 HD
BRANCH   4   7
ATOM      7  C   UNL A   1      32.210  27.471  23.601  1.00  0.00     0.149 C 
BRANCH   7   8
ATOM      8  C   UNL A   1      32.943  26.126  23.855  1.00  0.00     0.043 C 
ATOM      9  C   UNL A   1      33.641  25.530  22.641  1.00  0.00     0.007 C 
ENDBRANCH   7   8
BRANCH   7  10
ATOM     10  C   UNL A   1      30.945  27.709  24.505  1.00  0.00     0.061 C 
ATOM     11  C   UNL A   1      30.054  26.466  24.775  1.00  0.00     0.017 C 
ATOM     12  C   UNL A   1      29.903  28.634  23.915  1.00  0.00    -0.035 A 
ATOM     13  C   UNL A   1      28.916  26.469  23.732  1.00  0.00     0.036 C 
ATOM     14  C   UNL A   1      28.798  27.928  23.435  1.00  0.00    -0.044 A 
ATOM     15  C   UNL A   1      29.955  30.020  23.833  1.00  0.00     0.050 A 
ATOM     16  C   UNL A   1      27.785  28.578  22.751  1.00  0.00     0.008 A 
ATOM     17  C   UNL A   1      28.908  30.695  23.204  1.00  0.00     0.119 A 
ATOM     18  C   UNL A   1      27.851  29.969  22.630  1.00  0.00     0.047 A 
BRANCH  17  19
ATOM     19  O   UNL A   1      28.815  32.056  23.065  1.00  0.00    -0.497 OA
ATOM     20  C   UNL A   1      28.380  32.523  21.793  1.00  0.00     0.278 C 
ENDBRANCH  17  19
ENDBRANCH   7  10
BRANCH   7  21
ATOM     21  O   UNL A   1      31.804  27.554  22.213  1.00  0.00    -0.379 OA
ATOM     22  H   UNL A   1      32.581  27.730  21.659  1.00  0.00     0.212 HD
ENDBRANCH   7  21
ENDBRANCH   4   7
ENDBRANCH   2   3
ENDBRANCH   1   2
BRANCH   1  23
ATOM     23  C   UNL A   1      32.313  30.856  26.530  1.00  0.00     0.023 C 
BRANCH  23  24
ATOM     24  C   UNL A   1      33.230  31.785  27.321  1.00  0.00     0.116 C 
BRANCH  24  25
ATOM     25  N   UNL A   1      32.707  33.133  27.493  1.00  0.00    -0.352 N 
ATOM     26  C   UNL A   1      33.135  34.137  28.334  1.00  0.00     0.251 C 
ATOM     27  H   UNL A   1      31.935  33.361  26.926  1.00  0.00     0.163 HD
ATOM     28  O   UNL A   1      32.529  35.202  28.392  1.00  0.00    -0.269 OA
BRANCH  26  29
ATOM     29  C   UNL A   1      34.301  33.904  29.210  1.00  0.00     0.039 A 
ATOM     30  C   UNL A   1      34.107  33.256  30.433  1.00  0.00     0.014 A 
ATOM     31  C   UNL A   1      35.587  34.258  28.795  1.00  0.00     0.014 A 
ATOM     32  C   UNL A   1      35.214  32.857  31.185  1.00  0.00     0.010 A 
ATOM     33  C   UNL A   1      36.688  33.794  29.507  1.00  0.00     0.010 A 
ATOM     34  C   UNL A   1      36.512  33.067  30.695  1.00  0.00    -0.014 A 
BRANCH  34  35
ATOM     35  C   UNL A   1      37.704  32.492  31.373  1.00  0.00     0.031 A 
ATOM     36  C   UNL A   1      38.427  31.324  30.766  1.00  0.00     0.074 A 
ATOM     37  C   UNL A   1      38.058  32.948  32.591  1.00  0.00     0.049 A 
ATOM     38  N   UNL A   1      39.388  30.593  31.272  1.00  0.00    -0.248 NA
ATOM     39  C   UNL A   1      37.990  30.902  29.427  1.00  0.00     0.031 C 
ATOM     40  C   UNL A   1      37.401  34.040  33.312  1.00  0.00     0.029 A 
ATOM     41  N   UNL A   1      39.044  32.531  33.453  1.00  0.00    -0.354 N 
ATOM     42  C   UNL A   1      39.649  29.611  30.328  1.00  0.00     0.074 A 
ATOM     43  C   UNL A   1      38.724  29.815  29.234  1.00  0.00     0.031 C 
ATOM     44  C   UNL A   1      38.002  34.209  34.501  1.00  0.00     0.029 A 
ATOM     45  C   UNL A   1      39.057  33.212  34.647  1.00  0.00     0.049 A 
ATOM     46  H   UNL A   1      39.680  31.811  33.236  1.00  0.00     0.167 HD
ATOM     47  C   UNL A   1      40.589  28.636  30.364  1.00  0.00     0.037 A 
ATOM     48  C   UNL A   1      39.818  33.037  35.745  1.00  0.00     0.037 A 
ATOM     49  C   UNL A   1      41.538  28.464  31.432  1.00  0.00     0.049 A 
ATOM     50  C   UNL A   1      40.857  31.949  35.755  1.00  0.00     0.074 A 
ATOM     51  C   UNL A   1      42.596  27.576  31.509  1.00  0.00     0.029 A 
ATOM     52  N   UNL A   1      41.540  29.194  32.611  1.00  0.00    -0.354 N 
ATOM     53  N   UNL A   1      41.154  31.082  34.819  1.00  0.00    -0.248 NA
ATOM     54  C   UNL A   1      41.666  31.813  36.976  1.00  0.00     0.031 C 
ATOM     55  C   UNL A   1      43.210  27.735  32.755  1.00  0.00     0.029 A 
ATOM     56  C   UNL A   1      42.562  28.753  33.436  1.00  0.00     0.049 A 
ATOM     57  H   UNL A   1      40.910  29.919  32.829  1.00  0.00     0.167 HD
ATOM     58  C   UNL A   1      42.194  30.315  35.326  1.00  0.00     0.074 A 
ATOM     59  C   UNL A   1      42.489  30.827  36.647  1.00  0.00     0.031 C 
ATOM     60  C   UNL A   1      42.845  29.276  34.748  1.00  0.00     0.037 A 
BRANCH  47  61
ATOM     61  C   UNL A   1      40.646  27.676  29.214  1.00  0.00     0.064 A 
ATOM     62  C   UNL A   1      39.774  26.580  29.127  1.00  0.00     0.173 A 
ATOM     63  C   UNL A   1      41.544  27.888  28.158  1.00  0.00     0.173 A 
ATOM     64  F   UNL A   1      38.903  26.329  30.116  1.00  0.00    -0.203 F 
ATOM     65  C   UNL A   1      39.815  25.719  28.033  1.00  0.00     0.198 A 
ATOM     66  C   UNL A   1      41.564  27.040  27.054  1.00  0.00     0.198 A 
ATOM     67  F   UNL A   1      42.395  28.925  28.191  1.00  0.00    -0.203 F 
ATOM     68  F   UNL A   1      39.000  24.657  27.989  1.00  0.00    -0.200 F 
ATOM     69  C   UNL A   1      40.704  25.955  26.994  1.00  0.00     0.200 A 
ATOM     70  F   UNL A   1      42.415  27.276  26.045  1.00  0.00    -0.200 F 
ATOM     71  F   UNL A   1      40.734  25.131  25.938  1.00  0.00    -0.200 F 
ENDBRANCH  47  61
BRANCH  48  72
ATOM     72  C   UNL A   1      39.624  33.911  36.932  1.00  0.00     0.064 A 
ATOM     73  C   UNL A   1      38.817  33.501  38.003  1.00  0.00     0.173 A 
ATOM     74  C   UNL A   1      40.228  35.174  37.015  1.00  0.00     0.173 A 
ATOM     75  F   UNL A   1      38.201  32.311  37.960  1.00  0.00    -0.203 F 
ATOM     76  C   UNL A   1      38.604  34.332  39.102  1.00  0.00     0.198 A 
ATOM     77  C   UNL A   1      40.036  35.992  38.126  1.00  0.00     0.198 A 
ATOM     78  F   UNL A   1      41.011  35.611  36.019  1.00  0.00    -0.203 F 
ATOM     79  F   UNL A   1      37.790  33.936  40.089  1.00  0.00    -0.200 F 
ATOM     80  C   UNL A   1      39.217  35.574  39.164  1.00  0.00     0.200 A 
ATOM     81  F   UNL A   1      40.640  37.186  38.189  1.00  0.00    -0.200 F 
ATOM     82  F   UNL A   1      39.012  36.372  40.221  1.00  0.00    -0.200 F 
ENDBRANCH  48  72
BRANCH  60  83
ATOM     83  C   UNL A   1      43.952  28.634  35.529  1.00  0.00     0.064 A 
ATOM     84  C   UNL A   1      45.273  29.093  35.436  1.00  0.00     0.173 A 
ATOM     85  C   UNL A   1      43.678  27.587  36.421  1.00  0.00     0.173 A 
ATOM     86  F   UNL A   1      45.587  30.080  34.583  1.00  0.00    -0.203 F 
ATOM     87  C   UNL A   1      46.284  28.517  36.201  1.00  0.00     0.198 A 
ATOM     88  C   UNL A   1      44.687  27.032  37.204  1.00  0.00     0.198 A 
ATOM     89  F   UNL A   1      42.428  27.117  36.549  1.00  0.00    -0.203 F 
ATOM     90  F   UNL A   1      47.547  28.947  36.072  1.00  0.00    -0.200 F 
ATOM     91  C   UNL A   1      45.989  27.494  37.090  1.00  0.00     0.200 A 
ATOM     92  F   UNL A   1      44.397  26.053  38.071  1.00  0.00    -0.200 F 
ATOM     93  F   UNL A   1      46.961  26.951  37.835  1.00  0.00    -0.200 F 
ENDBRANCH  60  83
ENDBRANCH  34  35
ENDBRANCH  26  29
ENDBRANCH  24  25
ENDBRANCH  23  24
ENDBRANCH   1  23
TORSDOF 15
ENDMDL
MODEL 3
REMARK VINA RESULT:     -12.1      1.961      8.098
REMARK SMILES CC[C@](O)(C(=O)NCCCCNC(=O)c1ccc(-c2c3nc(c(-c4c(F)c(F)c(F)c(F)c4F)c4ccc([nH]4)c(-c4c(F)c(F)c(F)c(F)c4F)c4nc(c(-c5c(F)c(F)c(F)c(F)c5F)c5ccc2[nH]5)C=C4)C=C3)cc1)[C@@H]1CCc2ccc(OC)cc21
REMARK SMILES IDX 9 1 8 2 7 3 5 4 6 5 3 7 2 8 1 9 78 10 79 11 88 12 80 13
REMARK SMILES IDX 81 14 87 15 82 16 84 17 83 18 85 19 86 20 4 21 10 23 11 24
REMARK SMILES IDX 12 25 13 26 14 28 15 29 16 30 77 31 17 32 76 33 18 34 19 35
REMARK SMILES IDX 20 36 70 37 21 38 75 39 69 40 71 41 22 42 74 43 68 44 67 45
REMARK SMILES IDX 23 47 55 48 35 49 54 50 36 51 39 52 53 53 72 54 37 55 38 56
REMARK SMILES IDX 52 58 73 59 40 60 24 61 25 62 33 63 26 64 27 65 31 66 34 67
REMARK SMILES IDX 28 68 29 69 32 70 30 71 56 72 57 73 65 74 58 75 59 76 63 77
REMARK SMILES IDX 66 78 60 79 61 80 64 81 62 82 41 83 42 84 50 85 43 86 44 87
REMARK SMILES IDX 48 88 51 89 45 90 46 91 49 92 47 93
REMARK H PARENT 7 6 4 22 12 27 71 46 39 57
REMARK Flexibility Score: inf
ROOT
ATOM      1  C   UNL A   1      32.038  30.450  26.819  1.00  0.00     0.023 C 
ENDROOT
BRANCH   1   2
ATOM      2  C   UNL A   1      32.207  29.900  25.411  1.00  0.00     0.116 C 
BRANCH   2   3
ATOM      3  N   UNL A   1      30.997  29.898  24.602  1.00  0.00    -0.354 N 
ATOM      4  C   UNL A   1      30.579  28.938  23.703  1.00  0.00     0.252 C 
ATOM      5  O   UNL A   1      29.414  28.999  23.303  1.00  0.00    -0.272 OA
ATOM      6  H   UNL A   1      30.405  30.676  24.709  1.00  0.00     0.163 HD
BRANCH   4   7
ATOM      7  C   UNL A   1      31.601  27.878  23.170  1.00  0.00     0.149 C 
BRANCH   7   8
ATOM      8  C   UNL A   1      33.043  28.437  23.307  1.00  0.00     0.043 C 
ATOM      9  C   UNL A   1      33.917  28.288  22.070  1.00  0.00     0.007 C 
ENDBRANCH   7   8
BRANCH   7  10
ATOM     10  C   UNL A   1      31.363  26.495  23.879  1.00  0.00     0.061 C 
ATOM     11  C   UNL A   1      30.837  26.557  25.338  1.00  0.00     0.017 C 
ATOM     12  C   UNL A   1      32.610  25.668  24.102  1.00  0.00    -0.035 A 
ATOM     13  C   UNL A   1      32.057  26.470  26.281  1.00  0.00     0.036 C 
ATOM     14  C   UNL A   1      33.023  25.705  25.436  1.00  0.00    -0.044 A 
ATOM     15  C   UNL A   1      33.310  24.926  23.159  1.00  0.00     0.050 A 
ATOM     16  C   UNL A   1      34.209  25.110  25.828  1.00  0.00     0.008 A 
ATOM     17  C   UNL A   1      34.475  24.265  23.555  1.00  0.00     0.119 A 
ATOM     18  C   UNL A   1      34.940  24.395  24.874  1.00  0.00     0.047 A 
BRANCH  17  19
ATOM     19  O   UNL A   1      35.255  23.485  22.742  1.00  0.00    -0.497 OA
ATOM     20  C   UNL A   1      36.372  22.861  23.365  1.00  0.00     0.278 C 
ENDBRANCH  17  19
ENDBRANCH   7  10
BRANCH   7  21
ATOM     21  O   UNL A   1      31.261  27.739  21.768  1.00  0.00    -0.379 OA
ATOM     22  H   UNL A   1      31.388  28.590  21.319  1.00  0.00     0.212 HD
ENDBRANCH   7  21
ENDBRANCH   4   7
ENDBRANCH   2   3
ENDBRANCH   1   2
BRANCH   1  23
ATOM     23  C   UNL A   1      31.730  31.941  26.912  1.00  0.00     0.023 C 
BRANCH  23  24
ATOM     24  C   UNL A   1      32.892  32.840  27.321  1.00  0.00     0.116 C 
BRANCH  24  25
ATOM     25  N   UNL A   1      32.497  34.189  27.701  1.00  0.00    -0.352 N 
ATOM     26  C   UNL A   1      33.017  35.011  28.676  1.00  0.00     0.251 C 
ATOM     27  H   UNL A   1      31.748  34.569  27.187  1.00  0.00     0.163 HD
ATOM     28  O   UNL A   1      32.513  36.107  28.903  1.00  0.00    -0.269 OA
BRANCH  26  29
ATOM     29  C   UNL A   1      34.159  34.545  29.489  1.00  0.00     0.039 A 
ATOM     30  C   UNL A   1      33.909  33.998  30.750  1.00  0.00     0.014 A 
ATOM     31  C   UNL A   1      35.459  34.579  28.979  1.00  0.00     0.014 A 
ATOM     32  C   UNL A   1      34.946  33.378  31.451  1.00  0.00     0.010 A 
ATOM     33  C   UNL A   1      36.473  33.897  29.644  1.00  0.00     0.010 A 
ATOM     34  C   UNL A   1      36.220  33.268  30.873  1.00  0.00    -0.014 A 
BRANCH  34  35
ATOM     35  C   UNL A   1      37.294  32.456  31.504  1.00  0.00     0.031 A 
ATOM     36  C   UNL A   1      37.832  32.833  32.854  1.00  0.00     0.074 A 
ATOM     37  C   UNL A   1      37.862  31.452  30.807  1.00  0.00     0.049 A 
ATOM     38  N   UNL A   1      38.859  32.345  33.501  1.00  0.00    -0.248 NA
ATOM     39  C   UNL A   1      37.143  33.928  33.555  1.00  0.00     0.031 C 
ATOM     40  C   UNL A   1      37.468  31.022  29.463  1.00  0.00     0.029 A 
ATOM     41  N   UNL A   1      38.915  30.625  31.120  1.00  0.00    -0.354 N 
ATOM     42  C   UNL A   1      38.957  33.089  34.668  1.00  0.00     0.074 A 
ATOM     43  C   UNL A   1      37.907  34.085  34.627  1.00  0.00     0.031 C 
ATOM     44  C   UNL A   1      38.262  30.013  29.071  1.00  0.00     0.029 A 
ATOM     45  C   UNL A   1      39.248  29.751  30.113  1.00  0.00     0.049 A 
ATOM     46  H   UNL A   1      39.385  30.657  31.984  1.00  0.00     0.167 HD
ATOM     47  C   UNL A   1      39.833  32.942  35.690  1.00  0.00     0.037 A 
ATOM     48  C   UNL A   1      40.252  28.856  30.030  1.00  0.00     0.037 A 
ATOM     49  C   UNL A   1      40.845  31.921  35.750  1.00  0.00     0.049 A 
ATOM     50  C   UNL A   1      41.208  28.712  31.182  1.00  0.00     0.074 A 
ATOM     51  C   UNL A   1      41.708  31.624  36.790  1.00  0.00     0.029 A 
ATOM     52  N   UNL A   1      41.132  31.034  34.724  1.00  0.00    -0.354 N 
ATOM     53  N   UNL A   1      41.234  29.361  32.320  1.00  0.00    -0.248 NA
ATOM     54  C   UNL A   1      42.275  27.710  31.040  1.00  0.00     0.031 C 
ATOM     55  C   UNL A   1      42.550  30.588  36.376  1.00  0.00     0.029 A 
ATOM     56  C   UNL A   1      42.183  30.210  35.095  1.00  0.00     0.049 A 
ATOM     57  H   UNL A   1      40.660  30.995  33.861  1.00  0.00     0.167 HD
ATOM     58  C   UNL A   1      42.302  28.836  33.034  1.00  0.00     0.074 A 
ATOM     59  C   UNL A   1      42.890  27.801  32.211  1.00  0.00     0.031 C 
ATOM     60  C   UNL A   1      42.755  29.182  34.264  1.00  0.00     0.037 A 
BRANCH  47  61
ATOM     61  C   UNL A   1      39.739  33.905  36.836  1.00  0.00     0.064 A 
ATOM     62  C   UNL A   1      38.957  33.628  37.968  1.00  0.00     0.173 A 
ATOM     63  C   UNL A   1      40.486  35.092  36.826  1.00  0.00     0.173 A 
ATOM     64  F   UNL A   1      38.217  32.510  38.021  1.00  0.00    -0.203 F 
ATOM     65  C   UNL A   1      38.911  34.516  39.039  1.00  0.00     0.198 A 
ATOM     66  C   UNL A   1      40.457  35.964  37.911  1.00  0.00     0.198 A 
ATOM     67  F   UNL A   1      41.253  35.400  35.770  1.00  0.00    -0.203 F 
ATOM     68  F   UNL A   1      38.128  34.249  40.093  1.00  0.00    -0.200 F 
ATOM     69  C   UNL A   1      39.667  35.679  39.014  1.00  0.00     0.200 A 
ATOM     70  F   UNL A   1      41.198  37.082  37.890  1.00  0.00    -0.200 F 
ATOM     71  F   UNL A   1      39.629  36.526  40.051  1.00  0.00    -0.200 F 
ENDBRANCH  47  61
BRANCH  48  72
ATOM     72  C   UNL A   1      40.409  28.025  28.806  1.00  0.00     0.064 A 
ATOM     73  C   UNL A   1      41.187  28.472  27.729  1.00  0.00     0.173 A 
ATOM     74  C   UNL A   1      39.777  26.780  28.683  1.00  0.00     0.173 A 
ATOM     75  F   UNL A   1      41.792  29.667  27.791  1.00  0.00    -0.203 F 
ATOM     76  C   UNL A   1      41.308  27.714  26.566  1.00  0.00     0.198 A 
ATOM     77  C   UNL A   1      39.921  26.010  27.531  1.00  0.00     0.198 A 
ATOM     78  F   UNL A   1      39.025  26.306  29.687  1.00  0.00    -0.203 F 
ATOM     79  F   UNL A   1      42.018  28.186  25.532  1.00  0.00    -0.200 F 
ATOM     80  C   UNL A   1      40.679  26.482  26.470  1.00  0.00     0.200 A 
ATOM     81  F   UNL A   1      39.323  24.815  27.447  1.00  0.00    -0.200 F 
ATOM     82  F   UNL A   1      40.796  25.753  25.351  1.00  0.00    -0.200 F 
ENDBRANCH  48  72
BRANCH  60  83
ATOM     83  C   UNL A   1      43.932  28.426  34.804  1.00  0.00     0.064 A 
ATOM     84  C   UNL A   1      45.242  28.899  34.641  1.00  0.00     0.173 A 
ATOM     85  C   UNL A   1      43.742  27.247  35.541  1.00  0.00     0.173 A 
ATOM     86  F   UNL A   1      45.474  30.011  33.929  1.00  0.00    -0.203 F 
ATOM     87  C   UNL A   1      46.322  28.210  35.187  1.00  0.00     0.198 A 
ATOM     88  C   UNL A   1      44.822  26.576  36.107  1.00  0.00     0.198 A 
ATOM     89  F   UNL A   1      42.507  26.758  35.728  1.00  0.00    -0.203 F 
ATOM     90  F   UNL A   1      47.569  28.660  34.990  1.00  0.00    -0.200 F 
ATOM     91  C   UNL A   1      46.111  27.056  35.927  1.00  0.00     0.200 A 
ATOM     92  F   UNL A   1      44.616  25.469  36.832  1.00  0.00    -0.200 F 
ATOM     93  F   UNL A   1      47.151  26.402  36.462  1.00  0.00    -0.200 F 
ENDBRANCH  60  83
ENDBRANCH  34  35
ENDBRANCH  26  29
ENDBRANCH  24  25
ENDBRANCH  23  24
ENDBRANCH   1  23
TORSDOF 15
ENDMDL
