MODEL 1
REMARK VINA RESULT:     -11.9      0.000      0.000
REMARK SMILES CO[C@@H]1C[C@@H](C(=O)NCCCCNC(=O)c2ccc(-c3c4nc(c(-c5c(F)c(F)c(F)c(F)c5F)c5ccc([nH]5)c(-c5c(F)c(F)c(F)c(F)c5F)c5nc(c(-c6c(F)c(F)c(F)c(F)c6F)c6ccc3[nH]6)C=C5)C=C4)cc2)N(C(=O)CSc2cccs2)C1
REMARK SMILES IDX 9 1 8 2 6 3 7 4 5 6 3 7 4 8 89 9 79 10 2 11 1 12 80 13 81 14
REMARK SMILES IDX 82 15 83 16 84 17 85 18 88 19 86 20 87 21 10 22 11 23 12 24
REMARK SMILES IDX 13 25 14 26 15 28 16 29 17 30 78 31 18 32 77 33 19 34 20 35
REMARK SMILES IDX 21 36 71 37 22 38 76 39 70 40 72 41 23 42 75 43 69 44 68 45
REMARK SMILES IDX 24 47 56 48 36 49 55 50 37 51 40 52 54 53 73 54 38 55 39 56
REMARK SMILES IDX 53 58 74 59 41 60 25 61 26 62 34 63 27 64 28 65 32 66 35 67
REMARK SMILES IDX 29 68 30 69 33 70 31 71 57 72 58 73 66 74 59 75 60 76 64 77
REMARK SMILES IDX 67 78 61 79 62 80 65 81 63 82 42 83 43 84 51 85 44 86 45 87
REMARK SMILES IDX 49 88 52 89 46 90 47 91 50 92 48 93
REMARK H PARENT 8 5 13 27 72 46 40 57
REMARK Flexibility Score: inf
ROOT
ATOM      1  C   UNL A   1      33.494  29.756  26.478  1.00  0.00     0.116 C 
ENDROOT
BRANCH   1   2
ATOM      2  N   UNL A   1      33.623  29.670  25.035  1.00  0.00    -0.354 N 
ATOM      3  C   UNL A   1      33.704  28.526  24.284  1.00  0.00     0.242 C 
ATOM      4  O   UNL A   1      34.425  28.547  23.288  1.00  0.00    -0.273 OA
ATOM      5  H   UNL A   1      33.657  30.523  24.544  1.00  0.00     0.163 HD
BRANCH   3   6
ATOM      6  C   UNL A   1      32.884  27.291  24.712  1.00  0.00     0.177 C 
ATOM      7  C   UNL A   1      32.958  24.858  24.712  1.00  0.00     0.139 C 
ATOM      8  C   UNL A   1      33.830  26.089  24.892  1.00  0.00     0.069 C 
ATOM      9  C   UNL A   1      31.877  25.314  23.738  1.00  0.00     0.152 C 
ATOM     10  N   UNL A   1      31.878  26.775  23.762  1.00  0.00    -0.327 N 
BRANCH   7  11
ATOM     11  O   UNL A   1      32.488  24.291  25.935  1.00  0.00    -0.380 OA
ATOM     12  C   UNL A   1      31.108  23.982  26.043  1.00  0.00     0.195 C 
ENDBRANCH   7  11
BRANCH  10  13
ATOM     13  C   UNL A   1      30.834  27.416  23.122  1.00  0.00     0.233 C 
ATOM     14  O   UNL A   1      30.725  27.342  21.890  1.00  0.00    -0.274 OA
BRANCH  13  15
ATOM     15  C   UNL A   1      29.831  28.260  23.888  1.00  0.00     0.175 C 
BRANCH  15  16
ATOM     16  S   UNL A   1      28.315  28.537  22.940  1.00  0.00    -0.105 SA
BRANCH  16  17
ATOM     17  C   UNL A   1      28.368  30.273  22.683  1.00  0.00     0.060 A 
ATOM     18  C   UNL A   1      28.534  31.265  23.629  1.00  0.00     0.027 A 
ATOM     19  S   UNL A   1      28.184  30.928  21.112  1.00  0.00    -0.137 S 
ATOM     20  C   UNL A   1      28.546  32.568  23.051  1.00  0.00     0.013 A 
ATOM     21  C   UNL A   1      28.364  32.528  21.688  1.00  0.00     0.066 A 
ENDBRANCH  16  17
ENDBRANCH  15  16
ENDBRANCH  13  15
ENDBRANCH  10  13
ENDBRANCH   3   6
ENDBRANCH   1   2
BRANCH   1  22
ATOM     22  C   UNL A   1      32.051  30.136  26.839  1.00  0.00     0.023 C 
BRANCH  22  23
ATOM     23  C   UNL A   1      31.774  31.643  26.783  1.00  0.00     0.023 C 
BRANCH  23  24
ATOM     24  C   UNL A   1      32.886  32.506  27.364  1.00  0.00     0.116 C 
BRANCH  24  25
ATOM     25  N   UNL A   1      32.462  33.879  27.595  1.00  0.00    -0.352 N 
ATOM     26  C   UNL A   1      32.980  34.786  28.484  1.00  0.00     0.251 C 
ATOM     27  H   UNL A   1      31.709  34.195  27.046  1.00  0.00     0.163 HD
ATOM     28  O   UNL A   1      32.443  35.876  28.657  1.00  0.00    -0.269 OA
BRANCH  26  29
ATOM     29  C   UNL A   1      34.172  34.412  29.265  1.00  0.00     0.039 A 
ATOM     30  C   UNL A   1      33.997  33.803  30.509  1.00  0.00     0.014 A 
ATOM     31  C   UNL A   1      35.451  34.603  28.735  1.00  0.00     0.014 A 
ATOM     32  C   UNL A   1      35.107  33.309  31.193  1.00  0.00     0.010 A 
ATOM     33  C   UNL A   1      36.552  34.069  29.396  1.00  0.00     0.010 A 
ATOM     34  C   UNL A   1      36.384  33.401  30.619  1.00  0.00    -0.014 A 
BRANCH  34  35
ATOM     35  C   UNL A   1      37.559  32.757  31.253  1.00  0.00     0.031 A 
ATOM     36  C   UNL A   1      38.215  31.577  30.603  1.00  0.00     0.074 A 
ATOM     37  C   UNL A   1      37.959  33.177  32.468  1.00  0.00     0.049 A 
ATOM     38  N   UNL A   1      39.170  30.808  31.060  1.00  0.00    -0.248 NA
ATOM     39  C   UNL A   1      37.713  31.192  29.274  1.00  0.00     0.031 C 
ATOM     40  C   UNL A   1      37.358  34.280  33.222  1.00  0.00     0.029 A 
ATOM     41  N   UNL A   1      38.945  32.706  33.298  1.00  0.00    -0.354 N 
ATOM     42  C   UNL A   1      39.370  29.840  30.086  1.00  0.00     0.074 A 
ATOM     43  C   UNL A   1      38.418  30.097  29.027  1.00  0.00     0.031 C 
ATOM     44  C   UNL A   1      37.985  34.398  34.403  1.00  0.00     0.029 A 
ATOM     45  C   UNL A   1      39.005  33.360  34.505  1.00  0.00     0.049 A 
ATOM     46  H   UNL A   1      39.552  31.971  33.053  1.00  0.00     0.167 HD
ATOM     47  C   UNL A   1      40.280  28.837  30.076  1.00  0.00     0.037 A 
ATOM     48  C   UNL A   1      39.782  33.132  35.581  1.00  0.00     0.037 A 
ATOM     49  C   UNL A   1      41.249  28.612  31.114  1.00  0.00     0.049 A 
ATOM     50  C   UNL A   1      40.781  32.010  35.541  1.00  0.00     0.074 A 
ATOM     51  C   UNL A   1      42.289  27.700  31.140  1.00  0.00     0.029 A 
ATOM     52  N   UNL A   1      41.293  29.305  32.315  1.00  0.00    -0.354 N 
ATOM     53  N   UNL A   1      41.026  31.157  34.576  1.00  0.00    -0.248 NA
ATOM     54  C   UNL A   1      41.610  31.815  36.739  1.00  0.00     0.031 C 
ATOM     55  C   UNL A   1      42.936  27.809  32.375  1.00  0.00     0.029 A 
ATOM     56  C   UNL A   1      42.320  28.813  33.105  1.00  0.00     0.049 A 
ATOM     57  H   UNL A   1      40.686  30.036  32.568  1.00  0.00     0.167 HD
ATOM     58  C   UNL A   1      42.040  30.333  35.044  1.00  0.00     0.074 A 
ATOM     59  C   UNL A   1      42.380  30.799  36.372  1.00  0.00     0.031 C 
ATOM     60  C   UNL A   1      42.633  29.282  34.429  1.00  0.00     0.037 A 
BRANCH  47  61
ATOM     61  C   UNL A   1      40.278  27.906  28.903  1.00  0.00     0.064 A 
ATOM     62  C   UNL A   1      41.020  28.183  27.746  1.00  0.00     0.173 A 
ATOM     63  C   UNL A   1      39.574  26.694  28.960  1.00  0.00     0.173 A 
ATOM     64  F   UNL A   1      41.701  29.333  27.640  1.00  0.00    -0.203 F 
ATOM     65  C   UNL A   1      41.044  27.285  26.681  1.00  0.00     0.198 A 
ATOM     66  C   UNL A   1      39.619  25.789  27.903  1.00  0.00     0.198 A 
ATOM     67  F   UNL A   1      38.852  26.382  30.048  1.00  0.00    -0.203 F 
ATOM     68  F   UNL A   1      41.736  27.583  25.572  1.00  0.00    -0.200 F 
ATOM     69  C   UNL A   1      40.350  26.087  26.763  1.00  0.00     0.200 A 
ATOM     70  F   UNL A   1      38.955  24.628  27.987  1.00  0.00    -0.200 F 
ATOM     71  F   UNL A   1      40.384  25.221  25.742  1.00  0.00    -0.200 F 
ENDBRANCH  47  61
BRANCH  48  72
ATOM     72  C   UNL A   1      39.636  33.978  36.792  1.00  0.00     0.064 A 
ATOM     73  C   UNL A   1      38.824  33.574  37.859  1.00  0.00     0.173 A 
ATOM     74  C   UNL A   1      40.304  35.207  36.905  1.00  0.00     0.173 A 
ATOM     75  F   UNL A   1      38.150  32.417  37.786  1.00  0.00    -0.203 F 
ATOM     76  C   UNL A   1      38.672  34.374  38.990  1.00  0.00     0.198 A 
ATOM     77  C   UNL A   1      40.169  35.994  38.045  1.00  0.00     0.198 A 
ATOM     78  F   UNL A   1      41.096  35.635  35.911  1.00  0.00    -0.203 F 
ATOM     79  F   UNL A   1      37.859  33.983  39.980  1.00  0.00    -0.200 F 
ATOM     80  C   UNL A   1      39.349  35.582  39.084  1.00  0.00     0.200 A 
ATOM     81  F   UNL A   1      40.834  37.155  38.137  1.00  0.00    -0.200 F 
ATOM     82  F   UNL A   1      39.203  36.350  40.172  1.00  0.00    -0.200 F 
ENDBRANCH  48  72
BRANCH  60  83
ATOM     83  C   UNL A   1      43.707  28.562  35.187  1.00  0.00     0.064 A 
ATOM     84  C   UNL A   1      45.050  28.952  35.088  1.00  0.00     0.173 A 
ATOM     85  C   UNL A   1      43.386  27.509  36.055  1.00  0.00     0.173 A 
ATOM     86  F   UNL A   1      45.406  29.943  34.257  1.00  0.00    -0.203 F 
ATOM     87  C   UNL A   1      46.036  28.302  35.824  1.00  0.00     0.198 A 
ATOM     88  C   UNL A   1      44.372  26.877  36.807  1.00  0.00     0.198 A 
ATOM     89  F   UNL A   1      42.113  27.104  36.185  1.00  0.00    -0.203 F 
ATOM     90  F   UNL A   1      47.319  28.669  35.691  1.00  0.00    -0.200 F 
ATOM     91  C   UNL A   1      45.696  27.272  36.688  1.00  0.00     0.200 A 
ATOM     92  F   UNL A   1      44.041  25.888  37.648  1.00  0.00    -0.200 F 
ATOM     93  F   UNL A   1      46.647  26.655  37.403  1.00  0.00    -0.200 F 
ENDBRANCH  60  83
ENDBRANCH  34  35
ENDBRANCH  26  29
ENDBRANCH  24  25
ENDBRANCH  23  24
ENDBRANCH  22  23
ENDBRANCH   1  22
TORSDOF 16
ENDMDL
MODEL 2
REMARK VINA RESULT:     -11.6      5.812     11.092
REMARK SMILES CO[C@@H]1C[C@@H](C(=O)NCCCCNC(=O)c2ccc(-c3c4nc(c(-c5c(F)c(F)c(F)c(F)c5F)c5ccc([nH]5)c(-c5c(F)c(F)c(F)c(F)c5F)c5nc(c(-c6c(F)c(F)c(F)c(F)c6F)c6ccc3[nH]6)C=C5)C=C4)cc2)N(C(=O)CSc2cccs2)C1
REMARK SMILES IDX 9 1 8 2 6 3 7 4 5 6 3 7 4 8 89 9 79 10 2 11 1 12 80 13 81 14
REMARK SMILES IDX 82 15 83 16 84 17 85 18 88 19 86 20 87 21 10 22 11 23 12 24
REMARK SMILES IDX 13 25 14 26 15 28 16 29 17 30 78 31 18 32 77 33 19 34 20 35
REMARK SMILES IDX 21 36 71 37 22 38 76 39 70 40 72 41 23 42 75 43 69 44 68 45
REMARK SMILES IDX 24 47 56 48 36 49 55 50 37 51 40 52 54 53 73 54 38 55 39 56
REMARK SMILES IDX 53 58 74 59 41 60 25 61 26 62 34 63 27 64 28 65 32 66 35 67
REMARK SMILES IDX 29 68 30 69 33 70 31 71 57 72 58 73 66 74 59 75 60 76 64 77
REMARK SMILES IDX 67 78 61 79 62 80 65 81 63 82 42 83 43 84 51 85 44 86 45 87
REMARK SMILES IDX 49 88 52 89 46 90 47 91 50 92 48 93
REMARK H PARENT 8 5 13 27 72 46 40 57
REMARK Flexibility Score: inf
ROOT
ATOM      1  C   UNL A   1      36.846  22.646  25.697  1.00  0.00     0.116 C 
ENDROOT
BRANCH   1   2
ATOM      2  N   UNL A   1      35.970  23.660  25.140  1.00  0.00    -0.354 N 
ATOM      3  C   UNL A   1      34.722  23.464  24.607  1.00  0.00     0.242 C 
ATOM      4  O   UNL A   1      34.395  24.164  23.651  1.00  0.00    -0.273 OA
ATOM      5  H   UNL A   1      36.307  24.585  25.146  1.00  0.00     0.163 HD
BRANCH   3   6
ATOM      6  C   UNL A   1      33.797  22.402  25.237  1.00  0.00     0.177 C 
ATOM      7  C   UNL A   1      32.144  20.717  24.643  1.00  0.00     0.139 C 
ATOM      8  C   UNL A   1      33.453  21.335  24.181  1.00  0.00     0.069 C 
ATOM      9  C   UNL A   1      31.441  21.853  25.378  1.00  0.00     0.152 C 
ATOM     10  N   UNL A   1      32.467  22.842  25.702  1.00  0.00    -0.327 N 
BRANCH   7  11
ATOM     11  O   UNL A   1      32.300  19.505  25.381  1.00  0.00    -0.380 OA
ATOM     12  C   UNL A   1      32.687  18.337  24.676  1.00  0.00     0.195 C 
ENDBRANCH   7  11
BRANCH  10  13
ATOM     13  C   UNL A   1      32.107  23.862  26.563  1.00  0.00     0.233 C 
ATOM     14  O   UNL A   1      31.418  23.614  27.562  1.00  0.00    -0.274 OA
BRANCH  13  15
ATOM     15  C   UNL A   1      32.495  25.305  26.291  1.00  0.00     0.175 C 
BRANCH  15  16
ATOM     16  S   UNL A   1      31.220  26.186  25.357  1.00  0.00    -0.105 SA
BRANCH  16  17
ATOM     17  C   UNL A   1      31.551  27.855  25.789  1.00  0.00     0.060 A 
ATOM     18  C   UNL A   1      31.891  28.357  27.029  1.00  0.00     0.027 A 
ATOM     19  S   UNL A   1      31.451  29.096  24.615  1.00  0.00    -0.137 S 
ATOM     20  C   UNL A   1      32.105  29.766  27.003  1.00  0.00     0.013 A 
ATOM     21  C   UNL A   1      31.897  30.294  25.750  1.00  0.00     0.066 A 
ENDBRANCH  16  17
ENDBRANCH  15  16
ENDBRANCH  13  15
ENDBRANCH  10  13
ENDBRANCH   3   6
ENDBRANCH   1   2
BRANCH   1  22
ATOM     22  C   UNL A   1      37.393  21.765  24.566  1.00  0.00     0.023 C 
BRANCH  22  23
ATOM     23  C   UNL A   1      37.932  20.410  25.041  1.00  0.00     0.023 C 
BRANCH  23  24
ATOM     24  C   UNL A   1      39.113  20.506  25.997  1.00  0.00     0.116 C 
BRANCH  24  25
ATOM     25  N   UNL A   1      39.989  19.348  25.917  1.00  0.00    -0.352 N 
ATOM     26  C   UNL A   1      41.357  19.311  26.021  1.00  0.00     0.251 C 
ATOM     27  H   UNL A   1      39.546  18.481  25.768  1.00  0.00     0.163 HD
ATOM     28  O   UNL A   1      41.978  18.274  25.814  1.00  0.00    -0.269 OA
BRANCH  26  29
ATOM     29  C   UNL A   1      42.076  20.557  26.344  1.00  0.00     0.039 A 
ATOM     30  C   UNL A   1      42.498  21.380  25.298  1.00  0.00     0.014 A 
ATOM     31  C   UNL A   1      42.268  20.936  27.675  1.00  0.00     0.014 A 
ATOM     32  C   UNL A   1      43.045  22.629  25.586  1.00  0.00     0.010 A 
ATOM     33  C   UNL A   1      42.770  22.201  27.960  1.00  0.00     0.010 A 
ATOM     34  C   UNL A   1      43.144  23.063  26.918  1.00  0.00    -0.014 A 
BRANCH  34  35
ATOM     35  C   UNL A   1      43.584  24.439  27.246  1.00  0.00     0.031 A 
ATOM     36  C   UNL A   1      42.595  25.449  27.746  1.00  0.00     0.074 A 
ATOM     37  C   UNL A   1      44.856  24.798  26.988  1.00  0.00     0.049 A 
ATOM     38  N   UNL A   1      42.763  26.727  27.969  1.00  0.00    -0.248 NA
ATOM     39  C   UNL A   1      41.230  24.965  28.002  1.00  0.00     0.031 C 
ATOM     40  C   UNL A   1      45.891  23.915  26.447  1.00  0.00     0.029 A 
ATOM     41  N   UNL A   1      45.487  26.010  27.116  1.00  0.00    -0.354 N 
ATOM     42  C   UNL A   1      41.524  27.203  28.374  1.00  0.00     0.074 A 
ATOM     43  C   UNL A   1      40.605  26.085  28.335  1.00  0.00     0.031 C 
ATOM     44  C   UNL A   1      47.025  24.614  26.287  1.00  0.00     0.029 A 
ATOM     45  C   UNL A   1      46.790  25.999  26.678  1.00  0.00     0.049 A 
ATOM     46  H   UNL A   1      45.050  26.811  27.486  1.00  0.00     0.167 HD
ATOM     47  C   UNL A   1      41.192  28.459  28.756  1.00  0.00     0.037 A 
ATOM     48  C   UNL A   1      47.684  27.001  26.582  1.00  0.00     0.037 A 
ATOM     49  C   UNL A   1      42.120  29.555  28.830  1.00  0.00     0.049 A 
ATOM     50  C   UNL A   1      47.286  28.385  27.013  1.00  0.00     0.074 A 
ATOM     51  C   UNL A   1      41.909  30.831  29.319  1.00  0.00     0.029 A 
ATOM     52  N   UNL A   1      43.436  29.504  28.395  1.00  0.00    -0.354 N 
ATOM     53  N   UNL A   1      46.137  28.804  27.482  1.00  0.00    -0.248 NA
ATOM     54  C   UNL A   1      48.307  29.436  26.897  1.00  0.00     0.031 C 
ATOM     55  C   UNL A   1      43.084  31.569  29.139  1.00  0.00     0.029 A 
ATOM     56  C   UNL A   1      44.038  30.739  28.569  1.00  0.00     0.049 A 
ATOM     57  H   UNL A   1      43.876  28.709  28.018  1.00  0.00     0.167 HD
ATOM     58  C   UNL A   1      46.297  30.161  27.727  1.00  0.00     0.074 A 
ATOM     59  C   UNL A   1      47.661  30.492  27.373  1.00  0.00     0.031 C 
ATOM     60  C   UNL A   1      45.394  31.052  28.199  1.00  0.00     0.037 A 
BRANCH  47  61
ATOM     61  C   UNL A   1      39.766  28.719  29.133  1.00  0.00     0.064 A 
ATOM     62  C   UNL A   1      39.316  28.563  30.451  1.00  0.00     0.173 A 
ATOM     63  C   UNL A   1      38.854  29.188  28.175  1.00  0.00     0.173 A 
ATOM     64  F   UNL A   1      40.148  28.108  31.399  1.00  0.00    -0.203 F 
ATOM     65  C   UNL A   1      37.997  28.853  30.794  1.00  0.00     0.198 A 
ATOM     66  C   UNL A   1      37.543  29.497  28.527  1.00  0.00     0.198 A 
ATOM     67  F   UNL A   1      39.238  29.356  26.901  1.00  0.00    -0.203 F 
ATOM     68  F   UNL A   1      37.579  28.668  32.055  1.00  0.00    -0.200 F 
ATOM     69  C   UNL A   1      37.115  29.326  29.835  1.00  0.00     0.200 A 
ATOM     70  F   UNL A   1      36.694  29.962  27.601  1.00  0.00    -0.200 F 
ATOM     71  F   UNL A   1      35.850  29.614  30.170  1.00  0.00    -0.200 F 
ENDBRANCH  47  61
BRANCH  48  72
ATOM     72  C   UNL A   1      49.042  26.732  26.045  1.00  0.00     0.064 A 
ATOM     73  C   UNL A   1      49.344  26.970  24.699  1.00  0.00     0.173 A 
ATOM     74  C   UNL A   1      50.062  26.230  26.868  1.00  0.00     0.173 A 
ATOM     75  F   UNL A   1      48.394  27.429  23.871  1.00  0.00    -0.203 F 
ATOM     76  C   UNL A   1      50.613  26.703  24.189  1.00  0.00     0.198 A 
ATOM     77  C   UNL A   1      51.336  25.985  26.361  1.00  0.00     0.198 A 
ATOM     78  F   UNL A   1      49.823  25.990  28.165  1.00  0.00    -0.203 F 
ATOM     79  F   UNL A   1      50.865  26.902  22.888  1.00  0.00    -0.200 F 
ATOM     80  C   UNL A   1      51.609  26.215  25.022  1.00  0.00     0.200 A 
ATOM     81  F   UNL A   1      52.299  25.525  27.172  1.00  0.00    -0.200 F 
ATOM     82  F   UNL A   1      52.829  25.959  24.530  1.00  0.00    -0.200 F 
ENDBRANCH  48  72
BRANCH  60  83
ATOM     83  C   UNL A   1      45.849  32.471  28.356  1.00  0.00     0.064 A 
ATOM     84  C   UNL A   1      45.660  33.411  27.332  1.00  0.00     0.173 A 
ATOM     85  C   UNL A   1      46.433  32.906  29.553  1.00  0.00     0.173 A 
ATOM     86  F   UNL A   1      45.122  33.035  26.161  1.00  0.00    -0.203 F 
ATOM     87  C   UNL A   1      46.051  34.735  27.499  1.00  0.00     0.198 A 
ATOM     88  C   UNL A   1      46.801  34.238  29.726  1.00  0.00     0.198 A 
ATOM     89  F   UNL A   1      46.630  32.044  30.562  1.00  0.00    -0.203 F 
ATOM     90  F   UNL A   1      45.891  35.611  26.496  1.00  0.00    -0.200 F 
ATOM     91  C   UNL A   1      46.613  35.149  28.698  1.00  0.00     0.200 A 
ATOM     92  F   UNL A   1      47.336  34.639  30.888  1.00  0.00    -0.200 F 
ATOM     93  F   UNL A   1      46.980  36.428  28.859  1.00  0.00    -0.200 F 
ENDBRANCH  60  83
ENDBRANCH  34  35
ENDBRANCH  26  29
ENDBRANCH  24  25
ENDBRANCH  23  24
ENDBRANCH  22  23
ENDBRANCH   1  22
TORSDOF 16
ENDMDL
MODEL 3
REMARK VINA RESULT:     -11.6      5.897     11.047
REMARK SMILES CO[C@@H]1C[C@@H](C(=O)NCCCCNC(=O)c2ccc(-c3c4nc(c(-c5c(F)c(F)c(F)c(F)c5F)c5ccc([nH]5)c(-c5c(F)c(F)c(F)c(F)c5F)c5nc(c(-c6c(F)c(F)c(F)c(F)c6F)c6ccc3[nH]6)C=C5)C=C4)cc2)N(C(=O)CSc2cccs2)C1
REMARK SMILES IDX 9 1 8 2 6 3 7 4 5 6 3 7 4 8 89 9 79 10 2 11 1 12 80 13 81 14
REMARK SMILES IDX 82 15 83 16 84 17 85 18 88 19 86 20 87 21 10 22 11 23 12 24
REMARK SMILES IDX 13 25 14 26 15 28 16 29 17 30 78 31 18 32 77 33 19 34 20 35
REMARK SMILES IDX 21 36 71 37 22 38 76 39 70 40 72 41 23 42 75 43 69 44 68 45
REMARK SMILES IDX 24 47 56 48 36 49 55 50 37 51 40 52 54 53 73 54 38 55 39 56
REMARK SMILES IDX 53 58 74 59 41 60 25 61 26 62 34 63 27 64 28 65 32 66 35 67
REMARK SMILES IDX 29 68 30 69 33 70 31 71 57 72 58 73 66 74 59 75 60 76 64 77
REMARK SMILES IDX 67 78 61 79 62 80 65 81 63 82 42 83 43 84 51 85 44 86 45 87
REMARK SMILES IDX 49 88 52 89 46 90 47 91 50 92 48 93
REMARK H PARENT 8 5 13 27 72 46 40 57
REMARK Flexibility Score: inf
ROOT
ATOM      1  C   UNL A   1      36.895  22.533  25.748  1.00  0.00     0.116 C 
ENDROOT
BRANCH   1   2
ATOM      2  N   UNL A   1      36.031  23.587  25.250  1.00  0.00    -0.354 N 
ATOM      3  C   UNL A   1      34.770  23.439  24.732  1.00  0.00     0.242 C 
ATOM      4  O   UNL A   1      34.441  24.185  23.811  1.00  0.00    -0.273 OA
ATOM      5  H   UNL A   1      36.388  24.503  25.287  1.00  0.00     0.163 HD
BRANCH   3   6
ATOM      6  C   UNL A   1      33.834  22.370  25.334  1.00  0.00     0.177 C 
ATOM      7  C   UNL A   1      32.321  20.577  24.688  1.00  0.00     0.139 C 
ATOM      8  C   UNL A   1      33.641  21.231  24.317  1.00  0.00     0.069 C 
ATOM      9  C   UNL A   1      31.502  21.717  25.282  1.00  0.00     0.152 C 
ATOM     10  N   UNL A   1      32.447  22.772  25.642  1.00  0.00    -0.327 N 
BRANCH   7  11
ATOM     11  O   UNL A   1      32.455  19.417  25.511  1.00  0.00    -0.380 OA
ATOM     12  C   UNL A   1      32.575  18.155  24.875  1.00  0.00     0.195 C 
ENDBRANCH   7  11
BRANCH  10  13
ATOM     13  C   UNL A   1      31.961  23.820  26.401  1.00  0.00     0.233 C 
ATOM     14  O   UNL A   1      31.570  23.617  27.559  1.00  0.00    -0.274 OA
BRANCH  13  15
ATOM     15  C   UNL A   1      31.845  25.224  25.833  1.00  0.00     0.175 C 
BRANCH  15  16
ATOM     16  S   UNL A   1      30.126  25.786  25.761  1.00  0.00    -0.105 SA
BRANCH  16  17
ATOM     17  C   UNL A   1      30.212  27.038  24.534  1.00  0.00     0.060 A 
ATOM     18  C   UNL A   1      29.348  27.249  23.478  1.00  0.00     0.027 A 
ATOM     19  S   UNL A   1      31.489  28.177  24.538  1.00  0.00    -0.137 S 
ATOM     20  C   UNL A   1      29.721  28.377  22.690  1.00  0.00     0.013 A 
ATOM     21  C   UNL A   1      30.870  28.973  23.157  1.00  0.00     0.066 A 
ENDBRANCH  16  17
ENDBRANCH  15  16
ENDBRANCH  13  15
ENDBRANCH  10  13
ENDBRANCH   3   6
ENDBRANCH   1   2
BRANCH   1  22
ATOM     22  C   UNL A   1      37.375  21.667  24.574  1.00  0.00     0.023 C 
BRANCH  22  23
ATOM     23  C   UNL A   1      38.044  20.356  25.005  1.00  0.00     0.023 C 
BRANCH  23  24
ATOM     24  C   UNL A   1      39.272  20.540  25.886  1.00  0.00     0.116 C 
BRANCH  24  25
ATOM     25  N   UNL A   1      40.128  19.363  25.900  1.00  0.00    -0.352 N 
ATOM     26  C   UNL A   1      41.483  19.305  26.106  1.00  0.00     0.251 C 
ATOM     27  H   UNL A   1      39.679  18.502  25.740  1.00  0.00     0.163 HD
ATOM     28  O   UNL A   1      42.097  18.251  25.970  1.00  0.00    -0.269 OA
BRANCH  26  29
ATOM     29  C   UNL A   1      42.201  20.545  26.451  1.00  0.00     0.039 A 
ATOM     30  C   UNL A   1      42.749  21.313  25.421  1.00  0.00     0.014 A 
ATOM     31  C   UNL A   1      42.270  20.975  27.778  1.00  0.00     0.014 A 
ATOM     32  C   UNL A   1      43.300  22.560  25.714  1.00  0.00     0.010 A 
ATOM     33  C   UNL A   1      42.777  22.238  28.063  1.00  0.00     0.010 A 
ATOM     34  C   UNL A   1      43.278  23.046  27.030  1.00  0.00    -0.014 A 
BRANCH  34  35
ATOM     35  C   UNL A   1      43.722  24.424  27.348  1.00  0.00     0.031 A 
ATOM     36  C   UNL A   1      42.731  25.449  27.808  1.00  0.00     0.074 A 
ATOM     37  C   UNL A   1      45.003  24.768  27.113  1.00  0.00     0.049 A 
ATOM     38  N   UNL A   1      42.904  26.730  28.015  1.00  0.00    -0.248 NA
ATOM     39  C   UNL A   1      41.356  24.981  28.041  1.00  0.00     0.031 C 
ATOM     40  C   UNL A   1      46.042  23.868  26.610  1.00  0.00     0.029 A 
ATOM     41  N   UNL A   1      45.641  25.977  27.236  1.00  0.00    -0.354 N 
ATOM     42  C   UNL A   1      41.660  27.221  28.384  1.00  0.00     0.074 A 
ATOM     43  C   UNL A   1      40.733  26.111  28.342  1.00  0.00     0.031 C 
ATOM     44  C   UNL A   1      47.186  24.555  26.465  1.00  0.00     0.029 A 
ATOM     45  C   UNL A   1      46.953  25.948  26.829  1.00  0.00     0.049 A 
ATOM     46  H   UNL A   1      45.202  26.787  27.584  1.00  0.00     0.167 HD
ATOM     47  C   UNL A   1      41.330  28.486  28.739  1.00  0.00     0.037 A 
ATOM     48  C   UNL A   1      47.858  26.941  26.738  1.00  0.00     0.037 A 
ATOM     49  C   UNL A   1      42.265  29.575  28.816  1.00  0.00     0.049 A 
ATOM     50  C   UNL A   1      47.462  28.335  27.138  1.00  0.00     0.074 A 
ATOM     51  C   UNL A   1      42.054  30.861  29.280  1.00  0.00     0.029 A 
ATOM     52  N   UNL A   1      43.591  29.507  28.413  1.00  0.00    -0.354 N 
ATOM     53  N   UNL A   1      46.306  28.771  27.574  1.00  0.00    -0.248 NA
ATOM     54  C   UNL A   1      48.494  29.375  27.029  1.00  0.00     0.031 C 
ATOM     55  C   UNL A   1      43.240  31.586  29.117  1.00  0.00     0.029 A 
ATOM     56  C   UNL A   1      44.199  30.740  28.581  1.00  0.00     0.049 A 
ATOM     57  H   UNL A   1      44.033  28.703  28.058  1.00  0.00     0.167 HD
ATOM     58  C   UNL A   1      46.471  30.130  27.801  1.00  0.00     0.074 A 
ATOM     59  C   UNL A   1      47.847  30.445  27.473  1.00  0.00     0.031 C 
ATOM     60  C   UNL A   1      45.565  31.036  28.238  1.00  0.00     0.037 A 
BRANCH  47  61
ATOM     61  C   UNL A   1      39.898  28.764  29.078  1.00  0.00     0.064 A 
ATOM     62  C   UNL A   1      38.980  29.176  28.102  1.00  0.00     0.173 A 
ATOM     63  C   UNL A   1      39.426  28.557  30.383  1.00  0.00     0.173 A 
ATOM     64  F   UNL A   1      39.387  29.396  26.844  1.00  0.00    -0.203 F 
ATOM     65  C   UNL A   1      37.642  29.387  28.425  1.00  0.00     0.198 A 
ATOM     66  C   UNL A   1      38.083  28.748  30.697  1.00  0.00     0.198 A 
ATOM     67  F   UNL A   1      40.265  28.160  31.352  1.00  0.00    -0.203 F 
ATOM     68  F   UNL A   1      36.787  29.811  27.483  1.00  0.00    -0.200 F 
ATOM     69  C   UNL A   1      37.193  29.166  29.718  1.00  0.00     0.200 A 
ATOM     70  F   UNL A   1      37.649  28.526  31.944  1.00  0.00    -0.200 F 
ATOM     71  F   UNL A   1      35.903  29.359  30.023  1.00  0.00    -0.200 F 
ENDBRANCH  47  61
BRANCH  48  72
ATOM     72  C   UNL A   1      49.226  26.653  26.237  1.00  0.00     0.064 A 
ATOM     73  C   UNL A   1      50.215  26.154  27.093  1.00  0.00     0.173 A 
ATOM     74  C   UNL A   1      49.569  26.871  24.894  1.00  0.00     0.173 A 
ATOM     75  F   UNL A   1      49.938  25.951  28.390  1.00  0.00    -0.203 F 
ATOM     76  C   UNL A   1      51.504  25.898  26.630  1.00  0.00     0.198 A 
ATOM     77  C   UNL A   1      50.851  26.593  24.428  1.00  0.00     0.198 A 
ATOM     78  F   UNL A   1      48.655  27.344  24.035  1.00  0.00    -0.203 F 
ATOM     79  F   UNL A   1      52.443  25.459  27.478  1.00  0.00    -0.200 F 
ATOM     80  C   UNL A   1      51.820  26.114  25.296  1.00  0.00     0.200 A 
ATOM     81  F   UNL A   1      51.149  26.791  23.136  1.00  0.00    -0.200 F 
ATOM     82  F   UNL A   1      53.059  25.866  24.852  1.00  0.00    -0.200 F 
ENDBRANCH  48  72
BRANCH  60  83
ATOM     83  C   UNL A   1      46.029  32.454  28.383  1.00  0.00     0.064 A 
ATOM     84  C   UNL A   1      46.675  32.889  29.549  1.00  0.00     0.173 A 
ATOM     85  C   UNL A   1      45.870  33.369  27.333  1.00  0.00     0.173 A 
ATOM     86  F   UNL A   1      46.832  32.053  30.586  1.00  0.00    -0.203 F 
ATOM     87  C   UNL A   1      47.136  34.197  29.661  1.00  0.00     0.198 A 
ATOM     88  C   UNL A   1      46.354  34.670  27.440  1.00  0.00     0.198 A 
ATOM     89  F   UNL A   1      45.261  32.996  26.197  1.00  0.00    -0.203 F 
ATOM     90  F   UNL A   1      47.722  34.603  30.796  1.00  0.00    -0.200 F 
ATOM     91  C   UNL A   1      46.983  35.083  28.605  1.00  0.00     0.200 A 
ATOM     92  F   UNL A   1      46.213  35.522  26.416  1.00  0.00    -0.200 F 
ATOM     93  F   UNL A   1      47.437  36.339  28.713  1.00  0.00    -0.200 F 
ENDBRANCH  60  83
ENDBRANCH  34  35
ENDBRANCH  26  29
ENDBRANCH  24  25
ENDBRANCH  23  24
ENDBRANCH  22  23
ENDBRANCH   1  22
TORSDOF 16
ENDMDL
