MODEL 1
REMARK VINA RESULT:     -11.1      0.000      0.000
REMARK SMILES CC[C@H](C)C[C@@H](C)[NH2+]Cc1cc(C(=O)NCCCCNC(=O)c2ccc(-c3c4nc(c(-c5c(F)c(F)c(F)c(F)c5F)c5ccc([nH]5)c(-c5c(F)c(F)c(F)c(F)c5F)c5nc(c(-c6c(F)c(F)c(F)c(F)c6F)c6ccc3[nH]6)C=C5)C=C4)cc2)cs1
REMARK SMILES IDX 13 1 14 2 15 3 12 5 10 6 11 7 87 8 86 9 9 10 8 11 6 14 7 15
REMARK SMILES IDX 5 16 3 17 4 18 2 19 1 20 16 21 17 22 18 23 19 24 20 25 21 26
REMARK SMILES IDX 22 28 23 29 24 30 85 31 25 32 84 33 26 34 27 35 28 36 78 37
REMARK SMILES IDX 29 38 83 39 77 40 79 41 30 42 82 43 76 44 75 45 31 47 63 48
REMARK SMILES IDX 43 49 62 50 44 51 47 52 61 53 80 54 45 55 46 56 60 58 81 59
REMARK SMILES IDX 48 60 32 61 33 62 41 63 34 64 35 65 39 66 42 67 36 68 37 69
REMARK SMILES IDX 40 70 38 71 64 72 65 73 73 74 66 75 67 76 71 77 74 78 68 79
REMARK SMILES IDX 69 80 72 81 70 82 49 83 50 84 58 85 51 86 52 87 56 88 59 89
REMARK SMILES IDX 53 90 54 91 57 92 55 93
REMARK H PARENT 15 4 8 12 8 13 20 27 79 46 47 57
REMARK Flexibility Score: inf
ROOT
ATOM      1  C   UNL A   1      33.602  28.278  24.293  1.00  0.00     0.252 C 
ATOM      2  O   UNL A   1      33.853  28.393  23.092  1.00  0.00    -0.269 OA
ATOM      3  N   UNL A   1      33.681  29.417  25.063  1.00  0.00    -0.352 N 
ATOM      4  H   UNL A   1      33.837  30.240  24.545  1.00  0.00     0.163 HD
ENDROOT
BRANCH   1   5
ATOM      5  C   UNL A   1      33.308  26.974  24.888  1.00  0.00     0.051 A 
ATOM      6  C   UNL A   1      33.580  24.738  25.529  1.00  0.00     0.059 A 
ATOM      7  C   UNL A   1      34.207  25.958  25.353  1.00  0.00     0.035 A 
ATOM      8  S   UNL A   1      31.886  24.935  25.628  1.00  0.00    -0.142 S 
ATOM      9  C   UNL A   1      32.004  26.570  25.131  1.00  0.00     0.079 A 
BRANCH   6  10
ATOM     10  C   UNL A   1      34.223  23.383  25.585  1.00  0.00     0.308 C 
BRANCH  10  11
ATOM     11  N   UNL A   1      33.242  22.281  25.637  1.00  0.00    -0.340 N 
ATOM     12  H   UNL A   1      33.418  21.740  26.483  1.00  0.00     0.346 HD
ATOM     13  H   UNL A   1      32.320  22.716  25.621  1.00  0.00     0.346 HD
BRANCH  11  14
ATOM     14  C   UNL A   1      33.286  21.361  24.485  1.00  0.00     0.179 C 
ATOM     15  C   UNL A   1      33.045  22.139  23.182  1.00  0.00     0.075 C 
BRANCH  14  16
ATOM     16  C   UNL A   1      32.187  20.283  24.636  1.00  0.00     0.068 C 
BRANCH  16  17
ATOM     17  C   UNL A   1      32.682  18.849  24.294  1.00  0.00    -0.009 C 
ATOM     18  C   UNL A   1      32.305  18.486  22.853  1.00  0.00     0.008 C 
BRANCH  17  19
ATOM     19  C   UNL A   1      34.190  18.722  24.595  1.00  0.00    -0.000 C 
ATOM     20  C   UNL A   1      34.818  17.378  24.253  1.00  0.00     0.004 C 
ENDBRANCH  17  19
ENDBRANCH  16  17
ENDBRANCH  14  16
ENDBRANCH  11  14
ENDBRANCH  10  11
ENDBRANCH   6  10
ENDBRANCH   1   5
BRANCH   3  21
ATOM     21  C   UNL A   1      33.577  29.632  26.494  1.00  0.00     0.116 C 
BRANCH  21  22
ATOM     22  C   UNL A   1      32.182  30.057  26.940  1.00  0.00     0.023 C 
BRANCH  22  23
ATOM     23  C   UNL A   1      31.869  31.545  26.838  1.00  0.00     0.023 C 
BRANCH  23  24
ATOM     24  C   UNL A   1      32.913  32.487  27.430  1.00  0.00     0.116 C 
BRANCH  24  25
ATOM     25  N   UNL A   1      32.454  33.849  27.656  1.00  0.00    -0.352 N 
ATOM     26  C   UNL A   1      32.984  34.816  28.493  1.00  0.00     0.251 C 
ATOM     27  H   UNL A   1      31.659  34.120  27.144  1.00  0.00     0.163 HD
ATOM     28  O   UNL A   1      32.457  35.908  28.594  1.00  0.00    -0.269 OA
BRANCH  26  29
ATOM     29  C   UNL A   1      34.172  34.483  29.311  1.00  0.00     0.039 A 
ATOM     30  C   UNL A   1      33.981  33.956  30.591  1.00  0.00     0.014 A 
ATOM     31  C   UNL A   1      35.458  34.618  28.788  1.00  0.00     0.014 A 
ATOM     32  C   UNL A   1      35.077  33.462  31.303  1.00  0.00     0.010 A 
ATOM     33  C   UNL A   1      36.533  34.046  29.457  1.00  0.00     0.010 A 
ATOM     34  C   UNL A   1      36.353  33.450  30.716  1.00  0.00    -0.014 A 
BRANCH  34  35
ATOM     35  C   UNL A   1      37.516  32.810  31.382  1.00  0.00     0.031 A 
ATOM     36  C   UNL A   1      38.205  31.648  30.725  1.00  0.00     0.074 A 
ATOM     37  C   UNL A   1      37.882  33.205  32.617  1.00  0.00     0.049 A 
ATOM     38  N   UNL A   1      39.138  30.861  31.198  1.00  0.00    -0.248 NA
ATOM     39  C   UNL A   1      37.756  31.298  29.367  1.00  0.00     0.031 C 
ATOM     40  C   UNL A   1      37.252  34.281  33.386  1.00  0.00     0.029 A 
ATOM     41  N   UNL A   1      38.863  32.733  33.453  1.00  0.00    -0.354 N 
ATOM     42  C   UNL A   1      39.365  29.911  30.211  1.00  0.00     0.074 A 
ATOM     43  C   UNL A   1      38.438  30.186  29.134  1.00  0.00     0.031 C 
ATOM     44  C   UNL A   1      37.874  34.399  34.570  1.00  0.00     0.029 A 
ATOM     45  C   UNL A   1      38.919  33.385  34.662  1.00  0.00     0.049 A 
ATOM     46  H   UNL A   1      39.469  31.996  33.211  1.00  0.00     0.167 HD
ATOM     47  C   UNL A   1      40.282  28.916  30.192  1.00  0.00     0.037 A 
ATOM     48  C   UNL A   1      39.718  33.179  35.727  1.00  0.00     0.037 A 
ATOM     49  C   UNL A   1      41.233  28.674  31.244  1.00  0.00     0.049 A 
ATOM     50  C   UNL A   1      40.749  32.084  35.667  1.00  0.00     0.074 A 
ATOM     51  C   UNL A   1      42.246  27.732  31.293  1.00  0.00     0.029 A 
ATOM     52  N   UNL A   1      41.294  29.392  32.429  1.00  0.00    -0.354 N 
ATOM     53  N   UNL A   1      40.994  31.230  34.703  1.00  0.00    -0.248 NA
ATOM     54  C   UNL A   1      41.620  31.929  36.841  1.00  0.00     0.031 C 
ATOM     55  C   UNL A   1      42.901  27.860  32.522  1.00  0.00     0.029 A 
ATOM     56  C   UNL A   1      42.323  28.907  33.220  1.00  0.00     0.049 A 
ATOM     57  H   UNL A   1      40.695  30.134  32.672  1.00  0.00     0.167 HD
ATOM     58  C   UNL A   1      42.061  30.457  35.140  1.00  0.00     0.074 A 
ATOM     59  C   UNL A   1      42.427  30.953  36.451  1.00  0.00     0.031 C 
ATOM     60  C   UNL A   1      42.681  29.427  34.515  1.00  0.00     0.037 A 
BRANCH  47  61
ATOM     61  C   UNL A   1      40.312  28.023  28.986  1.00  0.00     0.064 A 
ATOM     62  C   UNL A   1      41.067  28.353  27.850  1.00  0.00     0.173 A 
ATOM     63  C   UNL A   1      39.610  26.809  28.978  1.00  0.00     0.173 A 
ATOM     64  F   UNL A   1      41.745  29.510  27.802  1.00  0.00    -0.203 F 
ATOM     65  C   UNL A   1      41.094  27.515  26.739  1.00  0.00     0.198 A 
ATOM     66  C   UNL A   1      39.662  25.959  27.876  1.00  0.00     0.198 A 
ATOM     67  F   UNL A   1      38.875  26.445  30.040  1.00  0.00    -0.203 F 
ATOM     68  F   UNL A   1      41.782  27.874  25.647  1.00  0.00    -0.200 F 
ATOM     69  C   UNL A   1      40.398  26.316  26.756  1.00  0.00     0.200 A 
ATOM     70  F   UNL A   1      38.998  24.795  27.899  1.00  0.00    -0.200 F 
ATOM     71  F   UNL A   1      40.431  25.506  25.689  1.00  0.00    -0.200 F 
ENDBRANCH  47  61
BRANCH  48  72
ATOM     72  C   UNL A   1      39.599  34.043  36.930  1.00  0.00     0.064 A 
ATOM     73  C   UNL A   1      40.268  35.273  36.999  1.00  0.00     0.173 A 
ATOM     74  C   UNL A   1      38.831  33.655  38.037  1.00  0.00     0.173 A 
ATOM     75  F   UNL A   1      41.032  35.677  35.973  1.00  0.00    -0.203 F 
ATOM     76  C   UNL A   1      40.196  36.070  38.140  1.00  0.00     0.198 A 
ATOM     77  C   UNL A   1      38.737  34.467  39.167  1.00  0.00     0.198 A 
ATOM     78  F   UNL A   1      38.166  32.491  38.020  1.00  0.00    -0.203 F 
ATOM     79  F   UNL A   1      40.886  37.217  38.198  1.00  0.00    -0.200 F 
ATOM     80  C   UNL A   1      39.427  35.668  39.221  1.00  0.00     0.200 A 
ATOM     81  F   UNL A   1      37.982  34.081  40.205  1.00  0.00    -0.200 F 
ATOM     82  F   UNL A   1      39.357  36.435  40.318  1.00  0.00    -0.200 F 
ENDBRANCH  48  72
BRANCH  60  83
ATOM     83  C   UNL A   1      43.842  28.794  35.221  1.00  0.00     0.064 A 
ATOM     84  C   UNL A   1      45.157  29.233  35.010  1.00  0.00     0.173 A 
ATOM     85  C   UNL A   1      43.631  27.764  36.150  1.00  0.00     0.173 A 
ATOM     86  F   UNL A   1      45.410  30.204  34.120  1.00  0.00    -0.203 F 
ATOM     87  C   UNL A   1      46.221  28.649  35.691  1.00  0.00     0.198 A 
ATOM     88  C   UNL A   1      44.694  27.202  36.848  1.00  0.00     0.198 A 
ATOM     89  F   UNL A   1      42.390  27.314  36.389  1.00  0.00    -0.203 F 
ATOM     90  F   UNL A   1      47.474  29.055  35.444  1.00  0.00    -0.200 F 
ATOM     91  C   UNL A   1      45.989  27.640  36.614  1.00  0.00     0.200 A 
ATOM     92  F   UNL A   1      44.467  26.235  37.748  1.00  0.00    -0.200 F 
ATOM     93  F   UNL A   1      47.015  27.085  37.273  1.00  0.00    -0.200 F 
ENDBRANCH  60  83
ENDBRANCH  34  35
ENDBRANCH  26  29
ENDBRANCH  24  25
ENDBRANCH  23  24
ENDBRANCH  22  23
ENDBRANCH  21  22
ENDBRANCH   3  21
TORSDOF 17
ENDMDL
MODEL 2
REMARK VINA RESULT:     -11.1      4.892     10.557
REMARK SMILES CC[C@H](C)C[C@@H](C)[NH2+]Cc1cc(C(=O)NCCCCNC(=O)c2ccc(-c3c4nc(c(-c5c(F)c(F)c(F)c(F)c5F)c5ccc([nH]5)c(-c5c(F)c(F)c(F)c(F)c5F)c5nc(c(-c6c(F)c(F)c(F)c(F)c6F)c6ccc3[nH]6)C=C5)C=C4)cc2)cs1
REMARK SMILES IDX 13 1 14 2 15 3 12 5 10 6 11 7 87 8 86 9 9 10 8 11 6 14 7 15
REMARK SMILES IDX 5 16 3 17 4 18 2 19 1 20 16 21 17 22 18 23 19 24 20 25 21 26
REMARK SMILES IDX 22 28 23 29 24 30 85 31 25 32 84 33 26 34 27 35 28 36 78 37
REMARK SMILES IDX 29 38 83 39 77 40 79 41 30 42 82 43 76 44 75 45 31 47 63 48
REMARK SMILES IDX 43 49 62 50 44 51 47 52 61 53 80 54 45 55 46 56 60 58 81 59
REMARK SMILES IDX 48 60 32 61 33 62 41 63 34 64 35 65 39 66 42 67 36 68 37 69
REMARK SMILES IDX 40 70 38 71 64 72 65 73 73 74 66 75 67 76 71 77 74 78 68 79
REMARK SMILES IDX 69 80 72 81 70 82 49 83 50 84 58 85 51 86 52 87 56 88 59 89
REMARK SMILES IDX 53 90 54 91 57 92 55 93
REMARK H PARENT 15 4 8 12 8 13 20 27 79 46 47 57
REMARK Flexibility Score: inf
ROOT
ATOM      1  C   UNL A   1      32.396  23.164  26.671  1.00  0.00     0.252 C 
ATOM      2  O   UNL A   1      31.319  23.310  27.250  1.00  0.00    -0.269 OA
ATOM      3  N   UNL A   1      33.227  22.168  27.132  1.00  0.00    -0.352 N 
ATOM      4  H   UNL A   1      32.823  21.599  27.827  1.00  0.00     0.163 HD
ENDROOT
BRANCH   1   5
ATOM      5  C   UNL A   1      32.807  24.062  25.591  1.00  0.00     0.051 A 
ATOM      6  C   UNL A   1      33.526  26.006  24.501  1.00  0.00     0.059 A 
ATOM      7  C   UNL A   1      33.640  25.228  25.638  1.00  0.00     0.035 A 
ATOM      8  S   UNL A   1      32.845  25.108  23.218  1.00  0.00    -0.142 S 
ATOM      9  C   UNL A   1      32.438  23.823  24.275  1.00  0.00     0.079 A 
BRANCH   6  10
ATOM     10  C   UNL A   1      33.882  27.456  24.350  1.00  0.00     0.308 C 
BRANCH  10  11
ATOM     11  N   UNL A   1      32.775  28.267  23.803  1.00  0.00    -0.340 N 
ATOM     12  H   UNL A   1      33.139  29.194  23.584  1.00  0.00     0.346 HD
ATOM     13  H   UNL A   1      32.428  27.767  22.986  1.00  0.00     0.346 HD
BRANCH  11  14
ATOM     14  C   UNL A   1      31.622  28.430  24.710  1.00  0.00     0.179 C 
ATOM     15  C   UNL A   1      30.314  28.415  23.903  1.00  0.00     0.075 C 
BRANCH  14  16
ATOM     16  C   UNL A   1      31.734  29.778  25.459  1.00  0.00     0.068 C 
BRANCH  16  17
ATOM     17  C   UNL A   1      32.052  29.615  26.972  1.00  0.00    -0.009 C 
ATOM     18  C   UNL A   1      31.894  28.151  27.395  1.00  0.00     0.008 C 
BRANCH  17  19
ATOM     19  C   UNL A   1      33.441  30.209  27.289  1.00  0.00    -0.000 C 
ATOM     20  C   UNL A   1      34.569  29.198  27.443  1.00  0.00     0.004 C 
ENDBRANCH  17  19
ENDBRANCH  16  17
ENDBRANCH  14  16
ENDBRANCH  11  14
ENDBRANCH  10  11
ENDBRANCH   6  10
ENDBRANCH   1   5
BRANCH   3  21
ATOM     21  C   UNL A   1      34.586  21.797  26.784  1.00  0.00     0.116 C 
BRANCH  21  22
ATOM     22  C   UNL A   1      34.705  21.166  25.401  1.00  0.00     0.023 C 
BRANCH  22  23
ATOM     23  C   UNL A   1      35.618  21.883  24.413  1.00  0.00     0.023 C 
BRANCH  23  24
ATOM     24  C   UNL A   1      36.995  22.273  24.941  1.00  0.00     0.116 C 
BRANCH  24  25
ATOM     25  N   UNL A   1      37.886  21.156  25.218  1.00  0.00    -0.352 N 
ATOM     26  C   UNL A   1      39.061  21.144  25.949  1.00  0.00     0.251 C 
ATOM     27  H   UNL A   1      37.616  20.292  24.833  1.00  0.00     0.163 HD
ATOM     28  O   UNL A   1      39.714  20.124  26.061  1.00  0.00    -0.269 OA
BRANCH  26  29
ATOM     29  C   UNL A   1      39.545  22.408  26.549  1.00  0.00     0.039 A 
ATOM     30  C   UNL A   1      40.534  22.349  27.534  1.00  0.00     0.014 A 
ATOM     31  C   UNL A   1      39.081  23.639  26.088  1.00  0.00     0.014 A 
ATOM     32  C   UNL A   1      41.136  23.529  27.977  1.00  0.00     0.010 A 
ATOM     33  C   UNL A   1      39.741  24.804  26.461  1.00  0.00     0.010 A 
ATOM     34  C   UNL A   1      40.784  24.760  27.400  1.00  0.00    -0.014 A 
BRANCH  34  35
ATOM     35  C   UNL A   1      41.495  26.018  27.744  1.00  0.00     0.031 A 
ATOM     36  C   UNL A   1      40.764  27.116  28.464  1.00  0.00     0.074 A 
ATOM     37  C   UNL A   1      42.758  26.213  27.317  1.00  0.00     0.049 A 
ATOM     38  N   UNL A   1      41.152  28.338  28.727  1.00  0.00    -0.248 NA
ATOM     39  C   UNL A   1      39.395  26.810  28.914  1.00  0.00     0.031 C 
ATOM     40  C   UNL A   1      43.555  25.249  26.555  1.00  0.00     0.029 A 
ATOM     41  N   UNL A   1      43.590  27.298  27.446  1.00  0.00    -0.354 N 
ATOM     42  C   UNL A   1      40.070  28.951  29.345  1.00  0.00     0.074 A 
ATOM     43  C   UNL A   1      38.992  27.986  29.370  1.00  0.00     0.031 C 
ATOM     44  C   UNL A   1      44.764  25.776  26.303  1.00  0.00     0.029 A 
ATOM     45  C   UNL A   1      44.816  27.128  26.849  1.00  0.00     0.049 A 
ATOM     46  H   UNL A   1      43.332  28.120  27.921  1.00  0.00     0.167 HD
ATOM     47  C   UNL A   1      39.991  30.197  29.866  1.00  0.00     0.037 A 
ATOM     48  C   UNL A   1      45.860  27.974  26.746  1.00  0.00     0.037 A 
ATOM     49  C   UNL A   1      41.079  31.138  29.881  1.00  0.00     0.049 A 
ATOM     50  C   UNL A   1      45.755  29.343  27.362  1.00  0.00     0.074 A 
ATOM     51  C   UNL A   1      41.122  32.402  30.442  1.00  0.00     0.029 A 
ATOM     52  N   UNL A   1      42.324  30.908  29.313  1.00  0.00    -0.354 N 
ATOM     53  N   UNL A   1      44.747  29.891  27.996  1.00  0.00    -0.248 NA
ATOM     54  C   UNL A   1      46.937  30.210  27.254  1.00  0.00     0.031 C 
ATOM     55  C   UNL A   1      42.383  32.950  30.188  1.00  0.00     0.029 A 
ATOM     56  C   UNL A   1      43.139  32.011  29.505  1.00  0.00     0.049 A 
ATOM     57  H   UNL A   1      42.588  30.084  28.844  1.00  0.00     0.167 HD
ATOM     58  C   UNL A   1      45.180  31.150  28.386  1.00  0.00     0.074 A 
ATOM     59  C   UNL A   1      46.548  31.282  27.930  1.00  0.00     0.031 C 
ATOM     60  C   UNL A   1      44.505  32.114  29.057  1.00  0.00     0.037 A 
BRANCH  47  61
ATOM     61  C   UNL A   1      38.686  30.610  30.483  1.00  0.00     0.064 A 
ATOM     62  C   UNL A   1      38.499  30.601  31.873  1.00  0.00     0.173 A 
ATOM     63  C   UNL A   1      37.625  31.052  29.680  1.00  0.00     0.173 A 
ATOM     64  F   UNL A   1      39.478  30.172  32.684  1.00  0.00    -0.203 F 
ATOM     65  C   UNL A   1      37.287  30.992  32.436  1.00  0.00     0.198 A 
ATOM     66  C   UNL A   1      36.424  31.471  30.248  1.00  0.00     0.198 A 
ATOM     67  F   UNL A   1      37.753  31.084  28.345  1.00  0.00    -0.203 F 
ATOM     68  F   UNL A   1      37.115  30.928  33.763  1.00  0.00    -0.200 F 
ATOM     69  C   UNL A   1      36.254  31.433  31.624  1.00  0.00     0.200 A 
ATOM     70  F   UNL A   1      35.430  31.908  29.462  1.00  0.00    -0.200 F 
ATOM     71  F   UNL A   1      35.091  31.817  32.167  1.00  0.00    -0.200 F 
ENDBRANCH  47  61
BRANCH  48  72
ATOM     72  C   UNL A   1      47.106  27.545  26.058  1.00  0.00     0.064 A 
ATOM     73  C   UNL A   1      48.169  26.988  26.783  1.00  0.00     0.173 A 
ATOM     74  C   UNL A   1      47.267  27.694  24.674  1.00  0.00     0.173 A 
ATOM     75  F   UNL A   1      48.070  26.846  28.113  1.00  0.00    -0.203 F 
ATOM     76  C   UNL A   1      49.357  26.622  26.153  1.00  0.00     0.198 A 
ATOM     77  C   UNL A   1      48.445  27.301  24.041  1.00  0.00     0.198 A 
ATOM     78  F   UNL A   1      46.277  28.215  23.934  1.00  0.00    -0.203 F 
ATOM     79  F   UNL A   1      50.375  26.140  26.877  1.00  0.00    -0.200 F 
ATOM     80  C   UNL A   1      49.492  26.775  24.782  1.00  0.00     0.200 A 
ATOM     81  F   UNL A   1      48.567  27.439  22.713  1.00  0.00    -0.200 F 
ATOM     82  F   UNL A   1      50.634  26.422  24.176  1.00  0.00    -0.200 F 
ENDBRANCH  48  72
BRANCH  60  83
ATOM     83  C   UNL A   1      45.246  33.377  29.376  1.00  0.00     0.064 A 
ATOM     84  C   UNL A   1      45.999  33.511  30.551  1.00  0.00     0.173 A 
ATOM     85  C   UNL A   1      45.237  34.451  28.473  1.00  0.00     0.173 A 
ATOM     86  F   UNL A   1      46.026  32.517  31.452  1.00  0.00    -0.203 F 
ATOM     87  C   UNL A   1      46.701  34.682  30.820  1.00  0.00     0.198 A 
ATOM     88  C   UNL A   1      45.961  35.610  28.733  1.00  0.00     0.198 A 
ATOM     89  F   UNL A   1      44.536  34.369  27.332  1.00  0.00    -0.203 F 
ATOM     90  F   UNL A   1      47.380  34.805  31.968  1.00  0.00    -0.200 F 
ATOM     91  C   UNL A   1      46.687  35.728  29.908  1.00  0.00     0.200 A 
ATOM     92  F   UNL A   1      45.957  36.614  27.845  1.00  0.00    -0.200 F 
ATOM     93  F   UNL A   1      47.369  36.851  30.166  1.00  0.00    -0.200 F 
ENDBRANCH  60  83
ENDBRANCH  34  35
ENDBRANCH  26  29
ENDBRANCH  24  25
ENDBRANCH  23  24
ENDBRANCH  22  23
ENDBRANCH  21  22
ENDBRANCH   3  21
TORSDOF 17
ENDMDL
MODEL 3
REMARK VINA RESULT:     -11.0      5.915     11.396
REMARK SMILES CC[C@H](C)C[C@@H](C)[NH2+]Cc1cc(C(=O)NCCCCNC(=O)c2ccc(-c3c4nc(c(-c5c(F)c(F)c(F)c(F)c5F)c5ccc([nH]5)c(-c5c(F)c(F)c(F)c(F)c5F)c5nc(c(-c6c(F)c(F)c(F)c(F)c6F)c6ccc3[nH]6)C=C5)C=C4)cc2)cs1
REMARK SMILES IDX 13 1 14 2 15 3 12 5 10 6 11 7 87 8 86 9 9 10 8 11 6 14 7 15
REMARK SMILES IDX 5 16 3 17 4 18 2 19 1 20 16 21 17 22 18 23 19 24 20 25 21 26
REMARK SMILES IDX 22 28 23 29 24 30 85 31 25 32 84 33 26 34 27 35 28 36 78 37
REMARK SMILES IDX 29 38 83 39 77 40 79 41 30 42 82 43 76 44 75 45 31 47 63 48
REMARK SMILES IDX 43 49 62 50 44 51 47 52 61 53 80 54 45 55 46 56 60 58 81 59
REMARK SMILES IDX 48 60 32 61 33 62 41 63 34 64 35 65 39 66 42 67 36 68 37 69
REMARK SMILES IDX 40 70 38 71 64 72 65 73 73 74 66 75 67 76 71 77 74 78 68 79
REMARK SMILES IDX 69 80 72 81 70 82 49 83 50 84 58 85 51 86 52 87 56 88 59 89
REMARK SMILES IDX 53 90 54 91 57 92 55 93
REMARK H PARENT 15 4 8 12 8 13 20 27 79 46 47 57
REMARK Flexibility Score: inf
ROOT
ATOM      1  C   UNL A   1      33.061  20.041  25.100  1.00  0.00     0.252 C 
ATOM      2  O   UNL A   1      32.326  19.082  25.340  1.00  0.00    -0.269 OA
ATOM      3  N   UNL A   1      34.419  19.810  25.114  1.00  0.00    -0.352 N 
ATOM      4  H   UNL A   1      34.662  18.862  25.219  1.00  0.00     0.163 HD
ENDROOT
BRANCH   1   5
ATOM      5  C   UNL A   1      32.518  21.383  24.886  1.00  0.00     0.051 A 
ATOM      6  C   UNL A   1      31.423  23.407  25.321  1.00  0.00     0.059 A 
ATOM      7  C   UNL A   1      32.243  22.420  25.837  1.00  0.00     0.035 A 
ATOM      8  S   UNL A   1      31.412  23.353  23.614  1.00  0.00    -0.142 S 
ATOM      9  C   UNL A   1      32.234  21.850  23.612  1.00  0.00     0.079 A 
BRANCH   6  10
ATOM     10  C   UNL A   1      30.591  24.393  26.087  1.00  0.00     0.308 C 
BRANCH  10  11
ATOM     11  N   UNL A   1      31.403  25.341  26.877  1.00  0.00    -0.340 N 
ATOM     12  H   UNL A   1      30.908  25.535  27.746  1.00  0.00     0.346 HD
ATOM     13  H   UNL A   1      32.309  24.894  27.020  1.00  0.00     0.346 HD
BRANCH  11  14
ATOM     14  C   UNL A   1      31.676  26.627  26.208  1.00  0.00     0.179 C 
ATOM     15  C   UNL A   1      31.624  27.773  27.232  1.00  0.00     0.075 C 
BRANCH  14  16
ATOM     16  C   UNL A   1      30.613  26.883  25.114  1.00  0.00     0.068 C 
BRANCH  16  17
ATOM     17  C   UNL A   1      31.199  27.527  23.826  1.00  0.00    -0.009 C 
ATOM     18  C   UNL A   1      30.967  29.042  23.837  1.00  0.00     0.008 C 
BRANCH  17  19
ATOM     19  C   UNL A   1      32.679  27.123  23.657  1.00  0.00    -0.000 C 
ATOM     20  C   UNL A   1      33.672  28.276  23.601  1.00  0.00     0.004 C 
ENDBRANCH  17  19
ENDBRANCH  16  17
ENDBRANCH  14  16
ENDBRANCH  11  14
ENDBRANCH  10  11
ENDBRANCH   6  10
ENDBRANCH   1   5
BRANCH   3  21
ATOM     21  C   UNL A   1      35.558  20.701  25.002  1.00  0.00     0.116 C 
BRANCH  21  22
ATOM     22  C   UNL A   1      36.897  19.972  25.001  1.00  0.00     0.023 C 
BRANCH  22  23
ATOM     23  C   UNL A   1      38.140  20.854  24.973  1.00  0.00     0.023 C 
BRANCH  23  24
ATOM     24  C   UNL A   1      39.127  20.650  26.119  1.00  0.00     0.116 C 
BRANCH  24  25
ATOM     25  N   UNL A   1      39.986  19.482  25.989  1.00  0.00    -0.352 N 
ATOM     26  C   UNL A   1      41.360  19.395  26.124  1.00  0.00     0.251 C 
ATOM     27  H   UNL A   1      39.526  18.638  25.775  1.00  0.00     0.163 HD
ATOM     28  O   UNL A   1      41.938  18.339  25.950  1.00  0.00    -0.269 OA
BRANCH  26  29
ATOM     29  C   UNL A   1      42.128  20.624  26.430  1.00  0.00     0.039 A 
ATOM     30  C   UNL A   1      42.607  21.398  25.370  1.00  0.00     0.014 A 
ATOM     31  C   UNL A   1      42.307  21.044  27.748  1.00  0.00     0.014 A 
ATOM     32  C   UNL A   1      43.167  22.651  25.631  1.00  0.00     0.010 A 
ATOM     33  C   UNL A   1      42.780  22.326  28.000  1.00  0.00     0.010 A 
ATOM     34  C   UNL A   1      43.204  23.148  26.944  1.00  0.00    -0.014 A 
BRANCH  34  35
ATOM     35  C   UNL A   1      43.665  24.527  27.247  1.00  0.00     0.031 A 
ATOM     36  C   UNL A   1      42.682  25.549  27.748  1.00  0.00     0.074 A 
ATOM     37  C   UNL A   1      44.934  24.886  26.973  1.00  0.00     0.049 A 
ATOM     38  N   UNL A   1      42.844  26.834  27.933  1.00  0.00    -0.248 NA
ATOM     39  C   UNL A   1      41.323  25.065  28.042  1.00  0.00     0.031 C 
ATOM     40  C   UNL A   1      45.967  24.004  26.427  1.00  0.00     0.029 A 
ATOM     41  N   UNL A   1      45.569  26.097  27.099  1.00  0.00    -0.354 N 
ATOM     42  C   UNL A   1      41.605  27.315  28.336  1.00  0.00     0.074 A 
ATOM     43  C   UNL A   1      40.688  26.195  28.318  1.00  0.00     0.031 C 
ATOM     44  C   UNL A   1      47.109  24.695  26.284  1.00  0.00     0.029 A 
ATOM     45  C   UNL A   1      46.881  26.078  26.690  1.00  0.00     0.049 A 
ATOM     46  H   UNL A   1      45.126  26.903  27.449  1.00  0.00     0.167 HD
ATOM     47  C   UNL A   1      41.268  28.570  28.712  1.00  0.00     0.037 A 
ATOM     48  C   UNL A   1      47.792  27.069  26.640  1.00  0.00     0.037 A 
ATOM     49  C   UNL A   1      42.192  29.670  28.774  1.00  0.00     0.049 A 
ATOM     50  C   UNL A   1      47.399  28.449  27.093  1.00  0.00     0.074 A 
ATOM     51  C   UNL A   1      41.966  30.966  29.203  1.00  0.00     0.029 A 
ATOM     52  N   UNL A   1      43.526  29.598  28.402  1.00  0.00    -0.354 N 
ATOM     53  N   UNL A   1      46.239  28.877  27.528  1.00  0.00    -0.248 NA
ATOM     54  C   UNL A   1      48.443  29.482  27.054  1.00  0.00     0.031 C 
ATOM     55  C   UNL A   1      43.156  31.687  29.063  1.00  0.00     0.029 A 
ATOM     56  C   UNL A   1      44.134  30.829  28.586  1.00  0.00     0.049 A 
ATOM     57  H   UNL A   1      43.975  28.791  28.060  1.00  0.00     0.167 HD
ATOM     58  C   UNL A   1      46.420  30.217  27.841  1.00  0.00     0.074 A 
ATOM     59  C   UNL A   1      47.807  30.529  27.558  1.00  0.00     0.031 C 
ATOM     60  C   UNL A   1      45.520  31.112  28.314  1.00  0.00     0.037 A 
BRANCH  47  61
ATOM     61  C   UNL A   1      39.841  28.817  29.105  1.00  0.00     0.064 A 
ATOM     62  C   UNL A   1      39.408  28.653  30.430  1.00  0.00     0.173 A 
ATOM     63  C   UNL A   1      38.904  29.255  28.158  1.00  0.00     0.173 A 
ATOM     64  F   UNL A   1      40.261  28.222  31.371  1.00  0.00    -0.203 F 
ATOM     65  C   UNL A   1      38.083  28.892  30.786  1.00  0.00     0.198 A 
ATOM     66  C   UNL A   1      37.586  29.521  28.523  1.00  0.00     0.198 A 
ATOM     67  F   UNL A   1      39.267  29.431  26.878  1.00  0.00    -0.203 F 
ATOM     68  F   UNL A   1      37.681  28.682  32.047  1.00  0.00    -0.200 F 
ATOM     69  C   UNL A   1      37.176  29.332  29.834  1.00  0.00     0.200 A 
ATOM     70  F   UNL A   1      36.714  29.957  27.604  1.00  0.00    -0.200 F 
ATOM     71  F   UNL A   1      35.903  29.569  30.180  1.00  0.00    -0.200 F 
ENDBRANCH  47  61
BRANCH  48  72
ATOM     72  C   UNL A   1      49.175  26.790  26.170  1.00  0.00     0.064 A 
ATOM     73  C   UNL A   1      49.532  26.995  24.830  1.00  0.00     0.173 A 
ATOM     74  C   UNL A   1      50.160  26.303  27.040  1.00  0.00     0.173 A 
ATOM     75  F   UNL A   1      48.617  27.440  23.955  1.00  0.00    -0.203 F 
ATOM     76  C   UNL A   1      50.814  26.698  24.371  1.00  0.00     0.198 A 
ATOM     77  C   UNL A   1      51.450  26.032  26.587  1.00  0.00     0.198 A 
ATOM     78  F   UNL A   1      49.873  26.096  28.333  1.00  0.00    -0.203 F 
ATOM     79  F   UNL A   1      51.112  26.856  23.075  1.00  0.00    -0.200 F 
ATOM     80  C   UNL A   1      51.773  26.221  25.251  1.00  0.00     0.200 A 
ATOM     81  F   UNL A   1      52.379  25.583  27.443  1.00  0.00    -0.200 F 
ATOM     82  F   UNL A   1      53.006  25.935  24.810  1.00  0.00    -0.200 F 
ENDBRANCH  48  72
BRANCH  60  83
ATOM     83  C   UNL A   1      46.013  32.499  28.597  1.00  0.00     0.064 A 
ATOM     84  C   UNL A   1      46.529  32.854  29.851  1.00  0.00     0.173 A 
ATOM     85  C   UNL A   1      46.008  33.472  27.586  1.00  0.00     0.173 A 
ATOM     86  F   UNL A   1      46.540  31.962  30.853  1.00  0.00    -0.203 F 
ATOM     87  C   UNL A   1      47.004  34.141  30.089  1.00  0.00     0.198 A 
ATOM     88  C   UNL A   1      46.509  34.749  27.820  1.00  0.00     0.198 A 
ATOM     89  F   UNL A   1      45.530  33.179  26.367  1.00  0.00    -0.203 F 
ATOM     90  F   UNL A   1      47.455  34.471  31.307  1.00  0.00    -0.200 F 
ATOM     91  C   UNL A   1      47.000  35.084  29.072  1.00  0.00     0.200 A 
ATOM     92  F   UNL A   1      46.515  35.656  26.833  1.00  0.00    -0.200 F 
ATOM     93  F   UNL A   1      47.465  36.320  29.302  1.00  0.00    -0.200 F 
ENDBRANCH  60  83
ENDBRANCH  34  35
ENDBRANCH  26  29
ENDBRANCH  24  25
ENDBRANCH  23  24
ENDBRANCH  22  23
ENDBRANCH  21  22
ENDBRANCH   3  21
TORSDOF 17
ENDMDL
