MODEL 1
REMARK VINA RESULT:     -12.5      0.000      0.000
REMARK SMILES COC(=O)c1cccc(-c2cnc(Cl)cc2C(=O)NCCCCNC(=O)c2ccc(-c3c4nc(c(-c5c(F)c(F)c(F)c(F)c5F)c5ccc([nH]5)c(-c5c(F)c(F)c(F)c(F)c5F)c5nc(c(-c6c(F)c(F)c(F)c(F)c6F)c6ccc3[nH]6)C=C5)C=C4)cc2)c1
REMARK SMILES IDX 21 1 20 2 19 3 17 4 18 5 16 7 10 8 11 9 12 10 15 11 13 12
REMARK SMILES IDX 14 13 9 14 5 15 6 16 90 17 7 18 8 19 3 20 4 21 2 22 1 23
REMARK SMILES IDX 22 24 23 25 24 26 25 27 26 29 27 30 28 31 89 32 29 33 88 34
REMARK SMILES IDX 30 35 31 36 32 37 82 38 33 39 87 40 81 41 83 42 34 43 86 44
REMARK SMILES IDX 80 45 79 46 35 48 67 49 47 50 66 51 48 52 51 53 65 54 84 55
REMARK SMILES IDX 49 56 50 57 64 59 85 60 52 61 36 62 37 63 45 64 38 65 39 66
REMARK SMILES IDX 43 67 46 68 40 69 41 70 44 71 42 72 68 73 69 74 77 75 70 76
REMARK SMILES IDX 71 77 75 78 78 79 72 80 73 81 76 82 74 83 53 84 54 85 62 86
REMARK SMILES IDX 55 87 56 88 60 89 63 90 57 91 58 92 61 93 59 94
REMARK H PARENT 19 6 24 28 83 47 51 58
REMARK Flexibility Score: inf
ROOT
ATOM      1  C   UNL A   1      31.268  30.780  25.382  1.00  0.00     0.023 C 
ENDROOT
BRANCH   1   2
ATOM      2  C   UNL A   1      32.359  29.774  25.749  1.00  0.00     0.116 C 
BRANCH   2   3
ATOM      3  N   UNL A   1      31.803  28.667  26.499  1.00  0.00    -0.352 N 
ATOM      4  C   UNL A   1      31.721  27.308  26.357  1.00  0.00     0.252 C 
ATOM      5  O   UNL A   1      31.142  26.765  27.298  1.00  0.00    -0.269 OA
ATOM      6  H   UNL A   1      31.371  28.973  27.330  1.00  0.00     0.163 HD
BRANCH   4   7
ATOM      7  C   UNL A   1      32.293  26.492  25.223  1.00  0.00     0.052 A 
ATOM      8  C   UNL A   1      31.532  26.265  24.042  1.00  0.00     0.013 A 
ATOM      9  C   UNL A   1      32.066  25.373  23.101  1.00  0.00     0.122 A 
ATOM     10  N   UNL A   1      33.248  24.734  23.216  1.00  0.00    -0.244 NA
ATOM     11  C   UNL A   1      33.561  25.909  25.297  1.00  0.00     0.055 A 
ATOM     12  C   UNL A   1      33.967  25.038  24.303  1.00  0.00     0.129 A 
ATOM     13  Cl  UNL A   1      35.484  24.241  24.402  1.00  0.00    -0.062 Cl
BRANCH   8  14
ATOM     14  C   UNL A   1      30.261  26.928  23.702  1.00  0.00    -0.015 A 
ATOM     15  C   UNL A   1      29.060  28.828  22.742  1.00  0.00     0.060 A 
ATOM     16  C   UNL A   1      27.845  28.258  23.134  1.00  0.00     0.016 A 
ATOM     17  C   UNL A   1      30.258  28.147  22.996  1.00  0.00     0.024 A 
ATOM     18  C   UNL A   1      27.828  27.022  23.779  1.00  0.00     0.002 A 
ATOM     19  C   UNL A   1      29.026  26.365  24.066  1.00  0.00     0.009 A 
BRANCH  15  20
ATOM     20  C   UNL A   1      29.042  30.178  22.120  1.00  0.00     0.337 C 
ATOM     21  O   UNL A   1      29.265  30.379  20.938  1.00  0.00    -0.246 OA
BRANCH  20  22
ATOM     22  O   UNL A   1      28.771  31.126  23.053  1.00  0.00    -0.465 OA
ATOM     23  C   UNL A   1      28.504  32.422  22.512  1.00  0.00     0.282 C 
ENDBRANCH  20  22
ENDBRANCH  15  20
ENDBRANCH   8  14
ENDBRANCH   4   7
ENDBRANCH   2   3
ENDBRANCH   1   2
BRANCH   1  24
ATOM     24  C   UNL A   1      31.063  31.886  26.426  1.00  0.00     0.023 C 
BRANCH  24  25
ATOM     25  C   UNL A   1      32.343  32.543  26.933  1.00  0.00     0.116 C 
BRANCH  25  26
ATOM     26  N   UNL A   1      32.143  33.895  27.437  1.00  0.00    -0.352 N 
ATOM     27  C   UNL A   1      32.916  34.579  28.345  1.00  0.00     0.251 C 
ATOM     28  H   UNL A   1      31.360  34.376  27.084  1.00  0.00     0.163 HD
ATOM     29  O   UNL A   1      32.583  35.684  28.755  1.00  0.00    -0.269 OA
BRANCH  27  30
ATOM     30  C   UNL A   1      34.142  33.933  28.848  1.00  0.00     0.039 A 
ATOM     31  C   UNL A   1      35.385  34.441  28.464  1.00  0.00     0.014 A 
ATOM     32  C   UNL A   1      34.048  32.880  29.760  1.00  0.00     0.014 A 
ATOM     33  C   UNL A   1      36.543  33.936  29.057  1.00  0.00     0.010 A 
ATOM     34  C   UNL A   1      35.196  32.427  30.396  1.00  0.00     0.010 A 
ATOM     35  C   UNL A   1      36.454  32.952  30.054  1.00  0.00    -0.014 A 
BRANCH  35  36
ATOM     36  C   UNL A   1      37.653  32.427  30.753  1.00  0.00     0.031 A 
ATOM     37  C   UNL A   1      38.437  31.309  30.123  1.00  0.00     0.074 A 
ATOM     38  C   UNL A   1      37.968  32.871  31.985  1.00  0.00     0.049 A 
ATOM     39  N   UNL A   1      39.388  30.572  30.634  1.00  0.00    -0.248 NA
ATOM     40  C   UNL A   1      38.073  30.948  28.743  1.00  0.00     0.031 C 
ATOM     41  C   UNL A   1      37.264  33.929  32.712  1.00  0.00     0.029 A 
ATOM     42  N   UNL A   1      38.946  32.464  32.859  1.00  0.00    -0.354 N 
ATOM     43  C   UNL A   1      39.708  29.642  29.656  1.00  0.00     0.074 A 
ATOM     44  C   UNL A   1      38.827  29.880  28.534  1.00  0.00     0.031 C 
ATOM     45  C   UNL A   1      37.833  34.086  33.920  1.00  0.00     0.029 A 
ATOM     46  C   UNL A   1      38.908  33.110  34.072  1.00  0.00     0.049 A 
ATOM     47  H   UNL A   1      39.612  31.773  32.638  1.00  0.00     0.167 HD
ATOM     48  C   UNL A   1      40.663  28.683  29.688  1.00  0.00     0.037 A 
ATOM     49  C   UNL A   1      39.642  32.918  35.185  1.00  0.00     0.037 A 
ATOM     50  C   UNL A   1      41.568  28.485  30.787  1.00  0.00     0.049 A 
ATOM     51  C   UNL A   1      40.704  31.848  35.187  1.00  0.00     0.074 A 
ATOM     52  C   UNL A   1      42.617  27.589  30.887  1.00  0.00     0.029 A 
ATOM     53  N   UNL A   1      41.535  29.202  31.974  1.00  0.00    -0.354 N 
ATOM     54  N   UNL A   1      41.039  31.013  34.234  1.00  0.00    -0.248 NA
ATOM     55  C   UNL A   1      41.495  31.696  36.418  1.00  0.00     0.031 C 
ATOM     56  C   UNL A   1      43.192  27.732  32.152  1.00  0.00     0.029 A 
ATOM     57  C   UNL A   1      42.537  28.756  32.818  1.00  0.00     0.049 A 
ATOM     58  H   UNL A   1      40.895  29.920  32.185  1.00  0.00     0.167 HD
ATOM     59  C   UNL A   1      42.104  30.273  34.731  1.00  0.00     0.074 A 
ATOM     60  C   UNL A   1      42.361  30.755  36.070  1.00  0.00     0.031 C 
ATOM     61  C   UNL A   1      42.807  29.282  34.130  1.00  0.00     0.037 A 
BRANCH  48  62
ATOM     62  C   UNL A   1      40.788  27.773  28.503  1.00  0.00     0.064 A 
ATOM     63  C   UNL A   1      40.071  26.570  28.420  1.00  0.00     0.173 A 
ATOM     64  C   UNL A   1      41.581  28.144  27.406  1.00  0.00     0.173 A 
ATOM     65  F   UNL A   1      39.309  26.166  29.447  1.00  0.00    -0.203 F 
ATOM     66  C   UNL A   1      40.156  25.764  27.287  1.00  0.00     0.198 A 
ATOM     67  C   UNL A   1      41.639  27.350  26.264  1.00  0.00     0.198 A 
ATOM     68  F   UNL A   1      42.283  29.286  27.434  1.00  0.00    -0.203 F 
ATOM     69  F   UNL A   1      39.489  24.602  27.243  1.00  0.00    -0.200 F 
ATOM     70  C   UNL A   1      40.930  26.159  26.207  1.00  0.00     0.200 A 
ATOM     71  F   UNL A   1      42.376  27.741  25.216  1.00  0.00    -0.200 F 
ATOM     72  F   UNL A   1      40.995  25.392  25.111  1.00  0.00    -0.200 F 
ENDBRANCH  48  62
BRANCH  49  73
ATOM     73  C   UNL A   1      39.407  33.748  36.397  1.00  0.00     0.064 A 
ATOM     74  C   UNL A   1      40.025  34.998  36.546  1.00  0.00     0.173 A 
ATOM     75  C   UNL A   1      38.596  33.295  37.450  1.00  0.00     0.173 A 
ATOM     76  F   UNL A   1      40.826  35.467  35.577  1.00  0.00    -0.203 F 
ATOM     77  C   UNL A   1      39.875  35.745  37.712  1.00  0.00     0.198 A 
ATOM     78  C   UNL A   1      38.421  34.057  38.603  1.00  0.00     0.198 A 
ATOM     79  F   UNL A   1      37.976  32.110  37.357  1.00  0.00    -0.203 F 
ATOM     80  F   UNL A   1      40.530  36.904  37.853  1.00  0.00    -0.200 F 
ATOM     81  C   UNL A   1      39.070  35.275  38.740  1.00  0.00     0.200 A 
ATOM     82  F   UNL A   1      37.630  33.607  39.586  1.00  0.00    -0.200 F 
ATOM     83  F   UNL A   1      38.931  35.989  39.865  1.00  0.00    -0.200 F 
ENDBRANCH  49  73
BRANCH  61  84
ATOM     84  C   UNL A   1      43.974  28.703  34.872  1.00  0.00     0.064 A 
ATOM     85  C   UNL A   1      45.240  29.304  34.848  1.00  0.00     0.173 A 
ATOM     86  C   UNL A   1      43.794  27.578  35.691  1.00  0.00     0.173 A 
ATOM     87  F   UNL A   1      45.464  30.375  34.070  1.00  0.00    -0.203 F 
ATOM     88  C   UNL A   1      46.286  28.793  35.609  1.00  0.00     0.198 A 
ATOM     89  C   UNL A   1      44.834  27.087  36.473  1.00  0.00     0.198 A 
ATOM     90  F   UNL A   1      42.598  26.971  35.755  1.00  0.00    -0.203 F 
ATOM     91  F   UNL A   1      47.498  29.365  35.549  1.00  0.00    -0.200 F 
ATOM     92  C   UNL A   1      46.080  27.693  36.430  1.00  0.00     0.200 A 
ATOM     93  F   UNL A   1      44.628  26.035  37.277  1.00  0.00    -0.200 F 
ATOM     94  F   UNL A   1      47.085  27.217  37.178  1.00  0.00    -0.200 F 
ENDBRANCH  61  84
ENDBRANCH  35  36
ENDBRANCH  27  30
ENDBRANCH  25  26
ENDBRANCH  24  25
ENDBRANCH   1  24
TORSDOF 14
ENDMDL
MODEL 2
REMARK VINA RESULT:     -12.5      2.983      4.721
REMARK SMILES COC(=O)c1cccc(-c2cnc(Cl)cc2C(=O)NCCCCNC(=O)c2ccc(-c3c4nc(c(-c5c(F)c(F)c(F)c(F)c5F)c5ccc([nH]5)c(-c5c(F)c(F)c(F)c(F)c5F)c5nc(c(-c6c(F)c(F)c(F)c(F)c6F)c6ccc3[nH]6)C=C5)C=C4)cc2)c1
REMARK SMILES IDX 21 1 20 2 19 3 17 4 18 5 16 7 10 8 11 9 12 10 15 11 13 12
REMARK SMILES IDX 14 13 9 14 5 15 6 16 90 17 7 18 8 19 3 20 4 21 2 22 1 23
REMARK SMILES IDX 22 24 23 25 24 26 25 27 26 29 27 30 28 31 89 32 29 33 88 34
REMARK SMILES IDX 30 35 31 36 32 37 82 38 33 39 87 40 81 41 83 42 34 43 86 44
REMARK SMILES IDX 80 45 79 46 35 48 67 49 47 50 66 51 48 52 51 53 65 54 84 55
REMARK SMILES IDX 49 56 50 57 64 59 85 60 52 61 36 62 37 63 45 64 38 65 39 66
REMARK SMILES IDX 43 67 46 68 40 69 41 70 44 71 42 72 68 73 69 74 77 75 70 76
REMARK SMILES IDX 71 77 75 78 78 79 72 80 73 81 76 82 74 83 53 84 54 85 62 86
REMARK SMILES IDX 55 87 56 88 60 89 63 90 57 91 58 92 61 93 59 94
REMARK H PARENT 19 6 24 28 83 47 51 58
REMARK Flexibility Score: inf
ROOT
ATOM      1  C   UNL A   1      33.225  26.544  25.827  1.00  0.00     0.023 C 
ENDROOT
BRANCH   1   2
ATOM      2  C   UNL A   1      32.581  25.217  25.426  1.00  0.00     0.116 C 
BRANCH   2   3
ATOM      3  N   UNL A   1      32.803  24.212  26.444  1.00  0.00    -0.352 N 
ATOM      4  C   UNL A   1      33.790  23.320  26.766  1.00  0.00     0.252 C 
ATOM      5  O   UNL A   1      33.524  22.656  27.769  1.00  0.00    -0.269 OA
ATOM      6  H   UNL A   1      32.044  24.156  27.070  1.00  0.00     0.163 HD
BRANCH   4   7
ATOM      7  C   UNL A   1      35.105  23.144  26.047  1.00  0.00     0.052 A 
ATOM      8  C   UNL A   1      35.218  22.228  24.963  1.00  0.00     0.013 A 
ATOM      9  C   UNL A   1      36.503  22.005  24.447  1.00  0.00     0.122 A 
ATOM     10  N   UNL A   1      37.630  22.606  24.878  1.00  0.00    -0.244 NA
ATOM     11  C   UNL A   1      36.256  23.839  26.428  1.00  0.00     0.055 A 
ATOM     12  C   UNL A   1      37.468  23.519  25.843  1.00  0.00     0.129 A 
ATOM     13  Cl  UNL A   1      38.914  24.294  26.344  1.00  0.00    -0.062 Cl
BRANCH   8  14
ATOM     14  C   UNL A   1      34.095  21.537  24.306  1.00  0.00    -0.015 A 
ATOM     15  C   UNL A   1      32.766  19.513  23.969  1.00  0.00     0.060 A 
ATOM     16  C   UNL A   1      32.017  20.168  22.986  1.00  0.00     0.016 A 
ATOM     17  C   UNL A   1      33.777  20.208  24.646  1.00  0.00     0.024 A 
ATOM     18  C   UNL A   1      32.280  21.503  22.681  1.00  0.00     0.002 A 
ATOM     19  C   UNL A   1      33.314  22.180  23.331  1.00  0.00     0.009 A 
BRANCH  15  20
ATOM     20  C   UNL A   1      32.503  18.071  24.217  1.00  0.00     0.337 C 
ATOM     21  O   UNL A   1      32.097  17.633  25.280  1.00  0.00    -0.246 OA
BRANCH  20  22
ATOM     22  O   UNL A   1      32.803  17.338  23.114  1.00  0.00    -0.465 OA
ATOM     23  C   UNL A   1      34.126  16.799  23.110  1.00  0.00     0.282 C 
ENDBRANCH  20  22
ENDBRANCH  15  20
ENDBRANCH   8  14
ENDBRANCH   4   7
ENDBRANCH   2   3
ENDBRANCH   1   2
BRANCH   1  24
ATOM     24  C   UNL A   1      32.817  27.728  24.939  1.00  0.00     0.023 C 
BRANCH  24  25
ATOM     25  C   UNL A   1      33.618  29.008  25.158  1.00  0.00     0.116 C 
BRANCH  25  26
ATOM     26  N   UNL A   1      32.849  30.076  25.782  1.00  0.00    -0.352 N 
ATOM     27  C   UNL A   1      33.206  30.853  26.858  1.00  0.00     0.251 C 
ATOM     28  H   UNL A   1      31.968  30.263  25.384  1.00  0.00     0.163 HD
ATOM     29  O   UNL A   1      32.423  31.660  27.344  1.00  0.00    -0.269 OA
BRANCH  27  30
ATOM     30  C   UNL A   1      34.546  30.665  27.443  1.00  0.00     0.039 A 
ATOM     31  C   UNL A   1      35.369  31.778  27.630  1.00  0.00     0.014 A 
ATOM     32  C   UNL A   1      34.943  29.399  27.877  1.00  0.00     0.014 A 
ATOM     33  C   UNL A   1      36.571  31.631  28.324  1.00  0.00     0.010 A 
ATOM     34  C   UNL A   1      36.106  29.269  28.624  1.00  0.00     0.010 A 
ATOM     35  C   UNL A   1      36.929  30.385  28.858  1.00  0.00    -0.014 A 
BRANCH  35  36
ATOM     36  C   UNL A   1      38.168  30.194  29.653  1.00  0.00     0.031 A 
ATOM     37  C   UNL A   1      39.248  29.292  29.121  1.00  0.00     0.074 A 
ATOM     38  C   UNL A   1      38.275  30.732  30.883  1.00  0.00     0.049 A 
ATOM     39  N   UNL A   1      40.313  28.830  29.720  1.00  0.00    -0.248 NA
ATOM     40  C   UNL A   1      39.084  28.818  27.736  1.00  0.00     0.031 C 
ATOM     41  C   UNL A   1      37.281  31.598  31.520  1.00  0.00     0.029 A 
ATOM     42  N   UNL A   1      39.258  30.604  31.833  1.00  0.00    -0.354 N 
ATOM     43  C   UNL A   1      40.922  27.985  28.804  1.00  0.00     0.074 A 
ATOM     44  C   UNL A   1      40.092  27.968  27.620  1.00  0.00     0.031 C 
ATOM     45  C   UNL A   1      37.705  31.921  32.753  1.00  0.00     0.029 A 
ATOM     46  C   UNL A   1      38.975  31.250  33.012  1.00  0.00     0.049 A 
ATOM     47  H   UNL A   1      40.089  30.097  31.683  1.00  0.00     0.167 HD
ATOM     48  C   UNL A   1      42.081  27.297  28.935  1.00  0.00     0.037 A 
ATOM     49  C   UNL A   1      39.652  31.275  34.177  1.00  0.00     0.037 A 
ATOM     50  C   UNL A   1      42.926  27.359  30.096  1.00  0.00     0.049 A 
ATOM     51  C   UNL A   1      40.944  30.505  34.290  1.00  0.00     0.074 A 
ATOM     52  C   UNL A   1      44.154  26.757  30.299  1.00  0.00     0.029 A 
ATOM     53  N   UNL A   1      42.632  28.074  31.248  1.00  0.00    -0.354 N 
ATOM     54  N   UNL A   1      41.543  29.758  33.395  1.00  0.00    -0.248 NA
ATOM     55  C   UNL A   1      41.658  30.585  35.573  1.00  0.00     0.031 C 
ATOM     56  C   UNL A   1      44.584  27.070  31.591  1.00  0.00     0.029 A 
ATOM     57  C   UNL A   1      43.651  27.913  32.172  1.00  0.00     0.049 A 
ATOM     58  H   UNL A   1      41.820  28.613  31.389  1.00  0.00     0.167 HD
ATOM     59  C   UNL A   1      42.719  29.320  33.988  1.00  0.00     0.074 A 
ATOM     60  C   UNL A   1      42.753  29.883  35.320  1.00  0.00     0.031 C 
ATOM     61  C   UNL A   1      43.687  28.522  33.475  1.00  0.00     0.037 A 
BRANCH  48  62
ATOM     62  C   UNL A   1      42.512  26.418  27.799  1.00  0.00     0.064 A 
ATOM     63  C   UNL A   1      43.379  26.882  26.799  1.00  0.00     0.173 A 
ATOM     64  C   UNL A   1      42.108  25.075  27.750  1.00  0.00     0.173 A 
ATOM     65  F   UNL A   1      43.783  28.161  26.795  1.00  0.00    -0.203 F 
ATOM     66  C   UNL A   1      43.815  26.037  25.782  1.00  0.00     0.198 A 
ATOM     67  C   UNL A   1      42.570  24.226  26.749  1.00  0.00     0.198 A 
ATOM     68  F   UNL A   1      41.283  24.582  28.685  1.00  0.00    -0.203 F 
ATOM     69  F   UNL A   1      44.615  26.510  24.816  1.00  0.00    -0.200 F 
ATOM     70  C   UNL A   1      43.419  24.707  25.763  1.00  0.00     0.200 A 
ATOM     71  F   UNL A   1      42.198  22.938  26.741  1.00  0.00    -0.200 F 
ATOM     72  F   UNL A   1      43.854  23.891  24.794  1.00  0.00    -0.200 F 
ENDBRANCH  48  62
BRANCH  49  73
ATOM     73  C   UNL A   1      39.133  32.049  35.336  1.00  0.00     0.064 A 
ATOM     74  C   UNL A   1      39.426  33.412  35.482  1.00  0.00     0.173 A 
ATOM     75  C   UNL A   1      38.371  31.437  36.344  1.00  0.00     0.173 A 
ATOM     76  F   UNL A   1      40.167  34.040  34.556  1.00  0.00    -0.203 F 
ATOM     77  C   UNL A   1      39.011  34.125  36.605  1.00  0.00     0.198 A 
ATOM     78  C   UNL A   1      37.930  32.158  37.452  1.00  0.00     0.198 A 
ATOM     79  F   UNL A   1      38.057  30.137  36.252  1.00  0.00    -0.203 F 
ATOM     80  F   UNL A   1      39.362  35.410  36.748  1.00  0.00    -0.200 F 
ATOM     81  C   UNL A   1      38.261  33.498  37.589  1.00  0.00     0.200 A 
ATOM     82  F   UNL A   1      37.192  31.553  38.391  1.00  0.00    -0.200 F 
ATOM     83  F   UNL A   1      37.869  34.181  38.673  1.00  0.00    -0.200 F 
ENDBRANCH  49  73
BRANCH  61  84
ATOM     84  C   UNL A   1      44.906  28.272  34.312  1.00  0.00     0.064 A 
ATOM     85  C   UNL A   1      46.004  29.142  34.301  1.00  0.00     0.173 A 
ATOM     86  C   UNL A   1      44.931  27.189  35.205  1.00  0.00     0.173 A 
ATOM     87  F   UNL A   1      46.031  30.184  33.455  1.00  0.00    -0.203 F 
ATOM     88  C   UNL A   1      47.088  28.932  35.147  1.00  0.00     0.198 A 
ATOM     89  C   UNL A   1      46.003  26.999  36.070  1.00  0.00     0.198 A 
ATOM     90  F   UNL A   1      43.899  26.333  35.259  1.00  0.00    -0.203 F 
ATOM     91  F   UNL A   1      48.143  29.759  35.099  1.00  0.00    -0.200 F 
ATOM     92  C   UNL A   1      47.082  27.868  36.038  1.00  0.00     0.200 A 
ATOM     93  F   UNL A   1      45.987  25.981  36.941  1.00  0.00    -0.200 F 
ATOM     94  F   UNL A   1      48.119  27.681  36.867  1.00  0.00    -0.200 F 
ENDBRANCH  61  84
ENDBRANCH  35  36
ENDBRANCH  27  30
ENDBRANCH  25  26
ENDBRANCH  24  25
ENDBRANCH   1  24
TORSDOF 14
ENDMDL
MODEL 3
REMARK VINA RESULT:     -12.4      0.513      2.068
REMARK SMILES COC(=O)c1cccc(-c2cnc(Cl)cc2C(=O)NCCCCNC(=O)c2ccc(-c3c4nc(c(-c5c(F)c(F)c(F)c(F)c5F)c5ccc([nH]5)c(-c5c(F)c(F)c(F)c(F)c5F)c5nc(c(-c6c(F)c(F)c(F)c(F)c6F)c6ccc3[nH]6)C=C5)C=C4)cc2)c1
REMARK SMILES IDX 21 1 20 2 19 3 17 4 18 5 16 7 10 8 11 9 12 10 15 11 13 12
REMARK SMILES IDX 14 13 9 14 5 15 6 16 90 17 7 18 8 19 3 20 4 21 2 22 1 23
REMARK SMILES IDX 22 24 23 25 24 26 25 27 26 29 27 30 28 31 89 32 29 33 88 34
REMARK SMILES IDX 30 35 31 36 32 37 82 38 33 39 87 40 81 41 83 42 34 43 86 44
REMARK SMILES IDX 80 45 79 46 35 48 67 49 47 50 66 51 48 52 51 53 65 54 84 55
REMARK SMILES IDX 49 56 50 57 64 59 85 60 52 61 36 62 37 63 45 64 38 65 39 66
REMARK SMILES IDX 43 67 46 68 40 69 41 70 44 71 42 72 68 73 69 74 77 75 70 76
REMARK SMILES IDX 71 77 75 78 78 79 72 80 73 81 76 82 74 83 53 84 54 85 62 86
REMARK SMILES IDX 55 87 56 88 60 89 63 90 57 91 58 92 61 93 59 94
REMARK H PARENT 19 6 24 28 83 47 51 58
REMARK Flexibility Score: inf
ROOT
ATOM      1  C   UNL A   1      32.243  30.443  25.900  1.00  0.00     0.023 C 
ENDROOT
BRANCH   1   2
ATOM      2  C   UNL A   1      33.057  29.373  26.629  1.00  0.00     0.116 C 
BRANCH   2   3
ATOM      3  N   UNL A   1      32.205  28.284  27.055  1.00  0.00    -0.352 N 
ATOM      4  C   UNL A   1      31.962  26.995  26.661  1.00  0.00     0.252 C 
ATOM      5  O   UNL A   1      31.127  26.430  27.368  1.00  0.00    -0.269 OA
ATOM      6  H   UNL A   1      31.655  28.536  27.833  1.00  0.00     0.163 HD
BRANCH   4   7
ATOM      7  C   UNL A   1      32.638  26.265  25.525  1.00  0.00     0.052 A 
ATOM      8  C   UNL A   1      31.962  26.074  24.287  1.00  0.00     0.013 A 
ATOM      9  C   UNL A   1      32.590  25.256  23.337  1.00  0.00     0.122 A 
ATOM     10  N   UNL A   1      33.789  24.659  23.495  1.00  0.00    -0.244 NA
ATOM     11  C   UNL A   1      33.922  25.729  25.650  1.00  0.00     0.055 A 
ATOM     12  C   UNL A   1      34.426  24.931  24.640  1.00  0.00     0.129 A 
ATOM     13  Cl  UNL A   1      35.965  24.188  24.795  1.00  0.00    -0.062 Cl
BRANCH   8  14
ATOM     14  C   UNL A   1      30.687  26.705  23.901  1.00  0.00    -0.015 A 
ATOM     15  C   UNL A   1      29.469  28.607  22.967  1.00  0.00     0.060 A 
ATOM     16  C   UNL A   1      28.257  27.970  23.249  1.00  0.00     0.016 A 
ATOM     17  C   UNL A   1      30.676  27.960  23.262  1.00  0.00     0.024 A 
ATOM     18  C   UNL A   1      28.252  26.700  23.826  1.00  0.00     0.002 A 
ATOM     19  C   UNL A   1      29.457  26.075  24.154  1.00  0.00     0.009 A 
BRANCH  15  20
ATOM     20  C   UNL A   1      29.433  29.987  22.417  1.00  0.00     0.337 C 
ATOM     21  O   UNL A   1      29.587  30.246  21.235  1.00  0.00    -0.246 OA
BRANCH  20  22
ATOM     22  O   UNL A   1      29.232  30.889  23.412  1.00  0.00    -0.465 OA
ATOM     23  C   UNL A   1      28.216  31.854  23.132  1.00  0.00     0.282 C 
ENDBRANCH  20  22
ENDBRANCH  15  20
ENDBRANCH   8  14
ENDBRANCH   4   7
ENDBRANCH   2   3
ENDBRANCH   1   2
BRANCH   1  24
ATOM     24  C   UNL A   1      31.773  31.591  26.803  1.00  0.00     0.023 C 
BRANCH  24  25
ATOM     25  C   UNL A   1      32.884  32.490  27.340  1.00  0.00     0.116 C 
BRANCH  25  26
ATOM     26  N   UNL A   1      32.454  33.858  27.593  1.00  0.00    -0.352 N 
ATOM     27  C   UNL A   1      32.990  34.759  28.482  1.00  0.00     0.251 C 
ATOM     28  H   UNL A   1      31.686  34.175  27.064  1.00  0.00     0.163 HD
ATOM     29  O   UNL A   1      32.473  35.854  28.665  1.00  0.00    -0.269 OA
BRANCH  27  30
ATOM     30  C   UNL A   1      34.187  34.361  29.245  1.00  0.00     0.039 A 
ATOM     31  C   UNL A   1      34.028  33.674  30.450  1.00  0.00     0.014 A 
ATOM     32  C   UNL A   1      35.458  34.598  28.718  1.00  0.00     0.014 A 
ATOM     33  C   UNL A   1      35.152  33.158  31.097  1.00  0.00     0.010 A 
ATOM     34  C   UNL A   1      36.566  34.026  29.328  1.00  0.00     0.010 A 
ATOM     35  C   UNL A   1      36.424  33.298  30.522  1.00  0.00    -0.014 A 
BRANCH  35  36
ATOM     36  C   UNL A   1      37.639  32.715  31.143  1.00  0.00     0.031 A 
ATOM     37  C   UNL A   1      38.338  31.575  30.456  1.00  0.00     0.074 A 
ATOM     38  C   UNL A   1      38.045  33.129  32.359  1.00  0.00     0.049 A 
ATOM     39  N   UNL A   1      39.286  30.793  30.901  1.00  0.00    -0.248 NA
ATOM     40  C   UNL A   1      37.878  31.248  29.095  1.00  0.00     0.031 C 
ATOM     41  C   UNL A   1      37.429  34.205  33.138  1.00  0.00     0.029 A 
ATOM     42  N   UNL A   1      39.054  32.671  33.169  1.00  0.00    -0.354 N 
ATOM     43  C   UNL A   1      39.509  29.864  29.895  1.00  0.00     0.074 A 
ATOM     44  C   UNL A   1      38.575  30.153  28.830  1.00  0.00     0.031 C 
ATOM     45  C   UNL A   1      38.073  34.322  34.312  1.00  0.00     0.029 A 
ATOM     46  C   UNL A   1      39.114  33.302  34.388  1.00  0.00     0.049 A 
ATOM     47  H   UNL A   1      39.677  31.957  32.901  1.00  0.00     0.167 HD
ATOM     48  C   UNL A   1      40.424  28.866  29.860  1.00  0.00     0.037 A 
ATOM     49  C   UNL A   1      39.904  33.065  35.454  1.00  0.00     0.037 A 
ATOM     50  C   UNL A   1      41.384  28.618  30.901  1.00  0.00     0.049 A 
ATOM     51  C   UNL A   1      40.920  31.953  35.381  1.00  0.00     0.074 A 
ATOM     52  C   UNL A   1      42.399  27.679  30.928  1.00  0.00     0.029 A 
ATOM     53  N   UNL A   1      41.450  29.319  32.096  1.00  0.00    -0.354 N 
ATOM     54  N   UNL A   1      41.163  31.118  34.400  1.00  0.00    -0.248 NA
ATOM     55  C   UNL A   1      41.774  31.752  36.561  1.00  0.00     0.031 C 
ATOM     56  C   UNL A   1      43.052  27.781  32.159  1.00  0.00     0.029 A 
ATOM     57  C   UNL A   1      42.481  28.822  32.874  1.00  0.00     0.049 A 
ATOM     58  H   UNL A   1      40.854  30.059  32.352  1.00  0.00     0.167 HD
ATOM     59  C   UNL A   1      42.224  30.329  34.825  1.00  0.00     0.074 A 
ATOM     60  C   UNL A   1      42.579  30.782  36.152  1.00  0.00     0.031 C 
ATOM     61  C   UNL A   1      42.849  29.319  34.173  1.00  0.00     0.037 A 
BRANCH  48  62
ATOM     62  C   UNL A   1      40.442  27.968  28.659  1.00  0.00     0.064 A 
ATOM     63  C   UNL A   1      41.191  28.283  27.516  1.00  0.00     0.173 A 
ATOM     64  C   UNL A   1      39.757  26.743  28.681  1.00  0.00     0.173 A 
ATOM     65  F   UNL A   1      41.853  29.447  27.441  1.00  0.00    -0.203 F 
ATOM     66  C   UNL A   1      41.242  27.411  26.432  1.00  0.00     0.198 A 
ATOM     67  C   UNL A   1      39.835  25.861  27.608  1.00  0.00     0.198 A 
ATOM     68  F   UNL A   1      39.030  26.394  29.753  1.00  0.00    -0.203 F 
ATOM     69  F   UNL A   1      41.935  27.747  25.335  1.00  0.00    -0.200 F 
ATOM     70  C   UNL A   1      40.573  26.196  26.482  1.00  0.00     0.200 A 
ATOM     71  F   UNL A   1      39.200  24.682  27.665  1.00  0.00    -0.200 F 
ATOM     72  F   UNL A   1      40.638  25.351  25.446  1.00  0.00    -0.200 F 
ENDBRANCH  48  62
BRANCH  49  73
ATOM     73  C   UNL A   1      39.775  33.887  36.687  1.00  0.00     0.064 A 
ATOM     74  C   UNL A   1      38.942  33.482  37.740  1.00  0.00     0.173 A 
ATOM     75  C   UNL A   1      40.444  35.114  36.823  1.00  0.00     0.173 A 
ATOM     76  F   UNL A   1      38.265  32.327  37.650  1.00  0.00    -0.203 F 
ATOM     77  C   UNL A   1      38.753  34.285  38.863  1.00  0.00     0.198 A 
ATOM     78  C   UNL A   1      40.279  35.902  37.961  1.00  0.00     0.198 A 
ATOM     79  F   UNL A   1      41.258  35.547  35.850  1.00  0.00    -0.203 F 
ATOM     80  F   UNL A   1      37.901  33.902  39.822  1.00  0.00    -0.200 F 
ATOM     81  C   UNL A   1      39.424  35.494  38.974  1.00  0.00     0.200 A 
ATOM     82  F   UNL A   1      40.941  37.061  38.071  1.00  0.00    -0.200 F 
ATOM     83  F   UNL A   1      39.237  36.270  40.050  1.00  0.00    -0.200 F 
ENDBRANCH  49  73
BRANCH  61  84
ATOM     84  C   UNL A   1      44.033  28.683  34.838  1.00  0.00     0.064 A 
ATOM     85  C   UNL A   1      43.907  27.538  35.637  1.00  0.00     0.173 A 
ATOM     86  C   UNL A   1      45.322  29.179  34.595  1.00  0.00     0.173 A 
ATOM     87  F   UNL A   1      42.694  27.034  35.909  1.00  0.00    -0.203 F 
ATOM     88  C   UNL A   1      45.031  26.920  36.178  1.00  0.00     0.198 A 
ATOM     89  C   UNL A   1      46.445  28.541  35.112  1.00  0.00     0.198 A 
ATOM     90  F   UNL A   1      45.496  30.268  33.829  1.00  0.00    -0.203 F 
ATOM     91  F   UNL A   1      44.887  25.843  36.964  1.00  0.00    -0.200 F 
ATOM     92  C   UNL A   1      46.299  27.414  35.905  1.00  0.00     0.200 A 
ATOM     93  F   UNL A   1      47.669  29.011  34.834  1.00  0.00    -0.200 F 
ATOM     94  F   UNL A   1      47.380  26.803  36.410  1.00  0.00    -0.200 F 
ENDBRANCH  61  84
ENDBRANCH  35  36
ENDBRANCH  27  30
ENDBRANCH  25  26
ENDBRANCH  24  25
ENDBRANCH   1  24
TORSDOF 14
ENDMDL
