MODEL 1
REMARK VINA RESULT:     -13.2      0.000      0.000
REMARK SMILES O=C(NCCCCNC(=O)[C@H]1C[N@H+](Cc2ccc(Cl)c(Cl)c2)CC12CCCCC2)c1ccc(-c2c3nc(c(-c4c(F)c(F)c(F)c(F)c4F)c4ccc([nH]4)c(-c4c(F)c(F)c(F)c(F)c4F)c4nc(c(-c5c(F)c(F)c(F)c(F)c5F)c5ccc2[nH]5)C=C4)C=C3)cc1
REMARK SMILES IDX 5 1 4 2 3 3 1 4 2 5 30 7 31 8 92 9 32 10 91 11 33 12 34 13
REMARK SMILES IDX 35 14 85 15 36 16 90 17 84 18 86 19 37 20 89 21 83 22 82 23
REMARK SMILES IDX 38 25 70 26 50 27 69 28 51 29 54 30 68 31 87 32 52 33 53 34
REMARK SMILES IDX 67 36 88 37 55 38 39 39 40 40 48 41 41 42 42 43 46 44 49 45
REMARK SMILES IDX 43 46 44 47 47 48 45 49 71 50 72 51 80 52 73 53 74 54 78 55
REMARK SMILES IDX 81 56 75 57 76 58 79 59 77 60 56 61 57 62 65 63 58 64 59 65
REMARK SMILES IDX 63 66 66 67 60 68 61 69 64 70 62 71 6 72 7 73 8 74 9 75
REMARK SMILES IDX 10 77 11 78 12 79 24 80 13 81 23 82 25 83 29 84 26 86 28 87
REMARK SMILES IDX 27 88 14 89 15 90 16 91 22 92 17 93 20 94 18 95 21 96 19 97
REMARK H PARENT 3 6 86 24 54 35 8 76 13 85
REMARK Flexibility Score: inf
ROOT
ATOM      1  C   UNL A   1      31.508  32.305  26.841  1.00  0.00     0.023 C 
ENDROOT
BRANCH   1   2
ATOM      2  C   UNL A   1      32.721  33.001  27.441  1.00  0.00     0.116 C 
BRANCH   2   3
ATOM      3  N   UNL A   1      32.461  34.383  27.820  1.00  0.00    -0.352 N 
ATOM      4  O   UNL A   1      32.720  36.257  29.066  1.00  0.00    -0.269 OA
ATOM      5  C   UNL A   1      33.102  35.130  28.777  1.00  0.00     0.251 C 
ATOM      6  H   UNL A   1      31.737  34.836  27.331  1.00  0.00     0.163 HD
BRANCH   5   7
ATOM      7  C   UNL A   1      34.246  34.524  29.479  1.00  0.00     0.039 A 
ATOM      8  C   UNL A   1      35.523  34.591  28.914  1.00  0.00     0.014 A 
ATOM      9  C   UNL A   1      34.021  33.826  30.666  1.00  0.00     0.014 A 
ATOM     10  C   UNL A   1      36.555  33.853  29.475  1.00  0.00     0.010 A 
ATOM     11  C   UNL A   1      35.077  33.144  31.267  1.00  0.00     0.010 A 
ATOM     12  C   UNL A   1      36.344  33.132  30.661  1.00  0.00    -0.014 A 
BRANCH  12  13
ATOM     13  C   UNL A   1      37.482  32.429  31.297  1.00  0.00     0.031 A 
ATOM     14  C   UNL A   1      38.175  31.292  30.608  1.00  0.00     0.074 A 
ATOM     15  C   UNL A   1      37.876  32.836  32.517  1.00  0.00     0.049 A 
ATOM     16  N   UNL A   1      39.165  30.551  31.037  1.00  0.00    -0.248 NA
ATOM     17  C   UNL A   1      37.693  30.932  29.267  1.00  0.00     0.031 C 
ATOM     18  C   UNL A   1      37.254  33.920  33.281  1.00  0.00     0.029 A 
ATOM     19  N   UNL A   1      38.886  32.392  33.327  1.00  0.00    -0.354 N 
ATOM     20  C   UNL A   1      39.409  29.623  30.035  1.00  0.00     0.074 A 
ATOM     21  C   UNL A   1      38.452  29.881  28.980  1.00  0.00     0.031 C 
ATOM     22  C   UNL A   1      37.909  34.072  34.438  1.00  0.00     0.029 A 
ATOM     23  C   UNL A   1      38.957  33.061  34.524  1.00  0.00     0.049 A 
ATOM     24  H   UNL A   1      39.501  31.665  33.078  1.00  0.00     0.167 HD
ATOM     25  C   UNL A   1      40.349  28.648  30.004  1.00  0.00     0.037 A 
ATOM     26  C   UNL A   1      39.758  32.864  35.585  1.00  0.00     0.037 A 
ATOM     27  C   UNL A   1      41.308  28.415  31.055  1.00  0.00     0.049 A 
ATOM     28  C   UNL A   1      40.787  31.776  35.525  1.00  0.00     0.074 A 
ATOM     29  C   UNL A   1      42.339  27.493  31.095  1.00  0.00     0.029 A 
ATOM     30  N   UNL A   1      41.346  29.109  32.256  1.00  0.00    -0.354 N 
ATOM     31  N   UNL A   1      41.036  30.931  34.555  1.00  0.00    -0.248 NA
ATOM     32  C   UNL A   1      41.643  31.611  36.705  1.00  0.00     0.031 C 
ATOM     33  C   UNL A   1      42.973  27.598  32.339  1.00  0.00     0.029 A 
ATOM     34  C   UNL A   1      42.366  28.617  33.057  1.00  0.00     0.049 A 
ATOM     35  H   UNL A   1      40.739  29.844  32.504  1.00  0.00     0.167 HD
ATOM     36  C   UNL A   1      42.081  30.136  35.001  1.00  0.00     0.074 A 
ATOM     37  C   UNL A   1      42.432  30.616  36.323  1.00  0.00     0.031 C 
ATOM     38  C   UNL A   1      42.691  29.102  34.375  1.00  0.00     0.037 A 
BRANCH  25  39
ATOM     39  C   UNL A   1      40.376  27.743  28.808  1.00  0.00     0.064 A 
ATOM     40  C   UNL A   1      39.641  26.548  28.766  1.00  0.00     0.173 A 
ATOM     41  C   UNL A   1      41.117  28.095  27.669  1.00  0.00     0.173 A 
ATOM     42  F   UNL A   1      38.924  26.159  29.832  1.00  0.00    -0.203 F 
ATOM     43  C   UNL A   1      39.669  25.728  27.641  1.00  0.00     0.198 A 
ATOM     44  C   UNL A   1      41.122  27.285  26.536  1.00  0.00     0.198 A 
ATOM     45  F   UNL A   1      41.833  29.230  27.652  1.00  0.00    -0.203 F 
ATOM     46  F   UNL A   1      38.994  24.570  27.641  1.00  0.00    -0.200 F 
ATOM     47  C   UNL A   1      40.404  26.099  26.525  1.00  0.00     0.200 A 
ATOM     48  F   UNL A   1      41.826  27.651  25.454  1.00  0.00    -0.200 F 
ATOM     49  F   UNL A   1      40.426  25.310  25.442  1.00  0.00    -0.200 F 
ENDBRANCH  25  39
BRANCH  26  50
ATOM     50  C   UNL A   1      39.590  33.720  36.785  1.00  0.00     0.064 A 
ATOM     51  C   UNL A   1      40.209  34.972  36.871  1.00  0.00     0.173 A 
ATOM     52  C   UNL A   1      38.757  33.325  37.842  1.00  0.00     0.173 A 
ATOM     53  F   UNL A   1      41.025  35.386  35.890  1.00  0.00    -0.203 F 
ATOM     54  C   UNL A   1      40.002  35.800  37.973  1.00  0.00     0.198 A 
ATOM     55  C   UNL A   1      38.529  34.164  38.929  1.00  0.00     0.198 A 
ATOM     56  F   UNL A   1      38.133  32.139  37.798  1.00  0.00    -0.203 F 
ATOM     57  F   UNL A   1      40.623  36.985  38.043  1.00  0.00    -0.200 F 
ATOM     58  C   UNL A   1      39.155  35.399  38.995  1.00  0.00     0.200 A 
ATOM     59  F   UNL A   1      37.693  33.781  39.905  1.00  0.00    -0.200 F 
ATOM     60  F   UNL A   1      38.941  36.203  40.046  1.00  0.00    -0.200 F 
ENDBRANCH  26  50
BRANCH  38  61
ATOM     61  C   UNL A   1      43.806  28.425  35.114  1.00  0.00     0.064 A 
ATOM     62  C   UNL A   1      45.126  28.892  35.033  1.00  0.00     0.173 A 
ATOM     63  C   UNL A   1      43.546  27.318  35.935  1.00  0.00     0.173 A 
ATOM     64  F   UNL A   1      45.424  29.937  34.245  1.00  0.00    -0.203 F 
ATOM     65  C   UNL A   1      46.150  28.262  35.732  1.00  0.00     0.198 A 
ATOM     66  C   UNL A   1      44.568  26.706  36.652  1.00  0.00     0.198 A 
ATOM     67  F   UNL A   1      42.299  26.837  36.046  1.00  0.00    -0.203 F 
ATOM     68  F   UNL A   1      47.411  28.697  35.607  1.00  0.00    -0.200 F 
ATOM     69  C   UNL A   1      45.870  27.174  36.546  1.00  0.00     0.200 A 
ATOM     70  F   UNL A   1      44.295  25.660  37.445  1.00  0.00    -0.200 F 
ATOM     71  F   UNL A   1      46.857  26.570  37.222  1.00  0.00    -0.200 F 
ENDBRANCH  38  61
ENDBRANCH  12  13
ENDBRANCH   5   7
ENDBRANCH   2   3
ENDBRANCH   1   2
BRANCH   1  72
ATOM     72  C   UNL A   1      31.787  30.926  26.246  1.00  0.00     0.023 C 
BRANCH  72  73
ATOM     73  C   UNL A   1      32.650  30.030  27.126  1.00  0.00     0.116 C 
BRANCH  73  74
ATOM     74  N   UNL A   1      31.946  28.832  27.542  1.00  0.00    -0.356 N 
ATOM     75  C   UNL A   1      31.926  27.580  27.018  1.00  0.00     0.229 C 
ATOM     76  H   UNL A   1      31.386  28.947  28.344  1.00  0.00     0.163 HD
ATOM     77  O   UNL A   1      31.266  26.731  27.627  1.00  0.00    -0.275 OA
BRANCH  75  78
ATOM     78  C   UNL A   1      32.678  27.194  25.755  1.00  0.00     0.145 C 
ATOM     79  C   UNL A   1      33.185  25.754  25.773  1.00  0.00     0.276 C 
ATOM     80  C   UNL A   1      31.996  27.447  24.376  1.00  0.00     0.037 C 
ATOM     81  N   UNL A   1      33.115  25.267  24.405  1.00  0.00    -0.330 N 
ATOM     82  C   UNL A   1      32.140  26.074  23.668  1.00  0.00     0.270 C 
ATOM     83  C   UNL A   1      30.521  27.922  24.439  1.00  0.00     0.014 C 
ATOM     84  C   UNL A   1      32.767  28.577  23.637  1.00  0.00     0.014 C 
ATOM     85  H   UNL A   1      32.755  24.313  24.417  1.00  0.00     0.348 HD
ATOM     86  C   UNL A   1      29.920  28.294  23.082  1.00  0.00     0.001 C 
ATOM     87  C   UNL A   1      32.208  28.913  22.255  1.00  0.00     0.001 C 
ATOM     88  C   UNL A   1      30.751  29.337  22.350  1.00  0.00     0.000 C 
BRANCH  81  89
ATOM     89  C   UNL A   1      34.386  24.949  23.753  1.00  0.00     0.299 C 
BRANCH  89  90
ATOM     90  C   UNL A   1      35.081  23.681  24.198  1.00  0.00     0.008 A 
ATOM     91  C   UNL A   1      36.468  23.649  24.416  1.00  0.00     0.011 A 
ATOM     92  C   UNL A   1      34.352  22.491  24.349  1.00  0.00     0.031 A 
ATOM     93  C   UNL A   1      37.123  22.443  24.674  1.00  0.00     0.022 A 
ATOM     94  C   UNL A   1      35.004  21.282  24.623  1.00  0.00     0.060 A 
ATOM     95  C   UNL A   1      36.395  21.255  24.760  1.00  0.00     0.059 A 
ATOM     96  Cl  UNL A   1      34.036  19.855  24.722  1.00  0.00    -0.083 Cl
ATOM     97  Cl  UNL A   1      37.278  19.790  25.004  1.00  0.00    -0.083 Cl
ENDBRANCH  89  90
ENDBRANCH  81  89
ENDBRANCH  75  78
ENDBRANCH  73  74
ENDBRANCH  72  73
ENDBRANCH   1  72
TORSDOF 13
ENDMDL
MODEL 2
REMARK VINA RESULT:     -13.1      0.264      1.936
REMARK SMILES O=C(NCCCCNC(=O)[C@H]1C[N@H+](Cc2ccc(Cl)c(Cl)c2)CC12CCCCC2)c1ccc(-c2c3nc(c(-c4c(F)c(F)c(F)c(F)c4F)c4ccc([nH]4)c(-c4c(F)c(F)c(F)c(F)c4F)c4nc(c(-c5c(F)c(F)c(F)c(F)c5F)c5ccc2[nH]5)C=C4)C=C3)cc1
REMARK SMILES IDX 5 1 4 2 3 3 1 4 2 5 30 7 31 8 92 9 32 10 91 11 33 12 34 13
REMARK SMILES IDX 35 14 85 15 36 16 90 17 84 18 86 19 37 20 89 21 83 22 82 23
REMARK SMILES IDX 38 25 70 26 50 27 69 28 51 29 54 30 68 31 87 32 52 33 53 34
REMARK SMILES IDX 67 36 88 37 55 38 39 39 40 40 48 41 41 42 42 43 46 44 49 45
REMARK SMILES IDX 43 46 44 47 47 48 45 49 71 50 72 51 80 52 73 53 74 54 78 55
REMARK SMILES IDX 81 56 75 57 76 58 79 59 77 60 56 61 57 62 65 63 58 64 59 65
REMARK SMILES IDX 63 66 66 67 60 68 61 69 64 70 62 71 6 72 7 73 8 74 9 75
REMARK SMILES IDX 10 77 11 78 12 79 24 80 13 81 23 82 25 83 29 84 26 86 28 87
REMARK SMILES IDX 27 88 14 89 15 90 16 91 22 92 17 93 20 94 18 95 21 96 19 97
REMARK H PARENT 3 6 86 24 54 35 8 76 13 85
REMARK Flexibility Score: inf
ROOT
ATOM      1  C   UNL A   1      31.450  32.139  26.704  1.00  0.00     0.023 C 
ENDROOT
BRANCH   1   2
ATOM      2  C   UNL A   1      32.645  32.886  27.278  1.00  0.00     0.116 C 
BRANCH   2   3
ATOM      3  N   UNL A   1      32.338  34.260  27.651  1.00  0.00    -0.352 N 
ATOM      4  O   UNL A   1      32.531  36.146  28.890  1.00  0.00    -0.269 OA
ATOM      5  C   UNL A   1      32.951  35.032  28.606  1.00  0.00     0.251 C 
ATOM      6  H   UNL A   1      31.600  34.687  27.158  1.00  0.00     0.163 HD
BRANCH   5   7
ATOM      7  C   UNL A   1      34.114  34.468  29.313  1.00  0.00     0.039 A 
ATOM      8  C   UNL A   1      35.397  34.640  28.787  1.00  0.00     0.014 A 
ATOM      9  C   UNL A   1      33.904  33.704  30.462  1.00  0.00     0.014 A 
ATOM     10  C   UNL A   1      36.460  33.942  29.343  1.00  0.00     0.010 A 
ATOM     11  C   UNL A   1      34.986  33.063  31.062  1.00  0.00     0.010 A 
ATOM     12  C   UNL A   1      36.266  33.157  30.491  1.00  0.00    -0.014 A 
BRANCH  12  13
ATOM     13  C   UNL A   1      37.430  32.498  31.127  1.00  0.00     0.031 A 
ATOM     14  C   UNL A   1      38.167  31.390  30.438  1.00  0.00     0.074 A 
ATOM     15  C   UNL A   1      37.807  32.919  32.348  1.00  0.00     0.049 A 
ATOM     16  N   UNL A   1      39.185  30.688  30.868  1.00  0.00    -0.248 NA
ATOM     17  C   UNL A   1      37.700  31.012  29.096  1.00  0.00     0.031 C 
ATOM     18  C   UNL A   1      37.143  33.978  33.112  1.00  0.00     0.029 A 
ATOM     19  N   UNL A   1      38.833  32.515  33.158  1.00  0.00    -0.354 N 
ATOM     20  C   UNL A   1      39.465  29.771  29.865  1.00  0.00     0.074 A 
ATOM     21  C   UNL A   1      38.499  29.992  28.810  1.00  0.00     0.031 C 
ATOM     22  C   UNL A   1      37.791  34.155  34.270  1.00  0.00     0.029 A 
ATOM     23  C   UNL A   1      38.877  33.185  34.355  1.00  0.00     0.049 A 
ATOM     24  H   UNL A   1      39.476  31.813  32.909  1.00  0.00     0.167 HD
ATOM     25  C   UNL A   1      40.443  28.833  29.833  1.00  0.00     0.037 A 
ATOM     26  C   UNL A   1      39.684  33.018  35.417  1.00  0.00     0.037 A 
ATOM     27  C   UNL A   1      41.409  28.637  30.885  1.00  0.00     0.049 A 
ATOM     28  C   UNL A   1      40.755  31.972  35.357  1.00  0.00     0.074 A 
ATOM     29  C   UNL A   1      42.476  27.755  30.925  1.00  0.00     0.029 A 
ATOM     30  N   UNL A   1      41.420  29.331  32.087  1.00  0.00    -0.354 N 
ATOM     31  N   UNL A   1      41.037  31.138  34.387  1.00  0.00    -0.248 NA
ATOM     32  C   UNL A   1      41.616  31.839  36.538  1.00  0.00     0.031 C 
ATOM     33  C   UNL A   1      43.104  27.884  32.169  1.00  0.00     0.029 A 
ATOM     34  C   UNL A   1      42.458  28.878  32.888  1.00  0.00     0.049 A 
ATOM     35  H   UNL A   1      40.784  30.041  32.335  1.00  0.00     0.167 HD
ATOM     36  C   UNL A   1      42.112  30.384  34.833  1.00  0.00     0.074 A 
ATOM     37  C   UNL A   1      42.444  30.876  36.155  1.00  0.00     0.031 C 
ATOM     38  C   UNL A   1      42.762  29.374  34.206  1.00  0.00     0.037 A 
BRANCH  25  39
ATOM     39  C   UNL A   1      40.505  27.931  28.637  1.00  0.00     0.064 A 
ATOM     40  C   UNL A   1      41.255  28.261  27.497  1.00  0.00     0.173 A 
ATOM     41  C   UNL A   1      39.835  26.697  28.644  1.00  0.00     0.173 A 
ATOM     42  F   UNL A   1      41.905  29.433  27.434  1.00  0.00    -0.203 F 
ATOM     43  C   UNL A   1      41.311  27.403  26.402  1.00  0.00     0.198 A 
ATOM     44  C   UNL A   1      39.914  25.830  27.557  1.00  0.00     0.198 A 
ATOM     45  F   UNL A   1      39.108  26.329  29.710  1.00  0.00    -0.203 F 
ATOM     46  F   UNL A   1      41.998  27.759  25.308  1.00  0.00    -0.200 F 
ATOM     47  C   UNL A   1      40.645  26.186  26.434  1.00  0.00     0.200 A 
ATOM     48  F   UNL A   1      39.278  24.650  27.594  1.00  0.00    -0.200 F 
ATOM     49  F   UNL A   1      40.703  25.360  25.380  1.00  0.00    -0.200 F 
ENDBRANCH  25  39
BRANCH  26  50
ATOM     50  C   UNL A   1      39.482  33.867  36.617  1.00  0.00     0.064 A 
ATOM     51  C   UNL A   1      38.721  33.417  37.701  1.00  0.00     0.173 A 
ATOM     52  C   UNL A   1      40.101  35.123  36.724  1.00  0.00     0.173 A 
ATOM     53  F   UNL A   1      38.101  32.230  37.638  1.00  0.00    -0.203 F 
ATOM     54  C   UNL A   1      38.583  34.192  38.851  1.00  0.00     0.198 A 
ATOM     55  C   UNL A   1      39.984  35.883  37.884  1.00  0.00     0.198 A 
ATOM     56  F   UNL A   1      40.850  35.590  35.715  1.00  0.00    -0.203 F 
ATOM     57  F   UNL A   1      37.831  33.750  39.868  1.00  0.00    -0.200 F 
ATOM     58  C   UNL A   1      39.223  35.419  38.945  1.00  0.00     0.200 A 
ATOM     59  F   UNL A   1      40.622  37.059  37.978  1.00  0.00    -0.200 F 
ATOM     60  F   UNL A   1      39.105  36.155  40.058  1.00  0.00    -0.200 F 
ENDBRANCH  26  50
BRANCH  38  61
ATOM     61  C   UNL A   1      43.902  28.741  34.946  1.00  0.00     0.064 A 
ATOM     62  C   UNL A   1      43.709  27.616  35.761  1.00  0.00     0.173 A 
ATOM     63  C   UNL A   1      45.204  29.244  34.811  1.00  0.00     0.173 A 
ATOM     64  F   UNL A   1      42.477  27.113  35.934  1.00  0.00    -0.203 F 
ATOM     65  C   UNL A   1      44.776  27.031  36.434  1.00  0.00     0.198 A 
ATOM     66  C   UNL A   1      46.273  28.640  35.466  1.00  0.00     0.198 A 
ATOM     67  F   UNL A   1      45.439  30.316  34.040  1.00  0.00    -0.203 F 
ATOM     68  F   UNL A   1      44.563  25.984  37.243  1.00  0.00    -0.200 F 
ATOM     69  C   UNL A   1      46.058  27.539  36.280  1.00  0.00     0.200 A 
ATOM     70  F   UNL A   1      47.512  29.126  35.310  1.00  0.00    -0.200 F 
ATOM     71  F   UNL A   1      47.086  26.970  36.926  1.00  0.00    -0.200 F 
ENDBRANCH  38  61
ENDBRANCH  12  13
ENDBRANCH   5   7
ENDBRANCH   2   3
ENDBRANCH   1   2
BRANCH   1  72
ATOM     72  C   UNL A   1      31.767  30.753  26.145  1.00  0.00     0.023 C 
BRANCH  72  73
ATOM     73  C   UNL A   1      32.546  29.858  27.100  1.00  0.00     0.116 C 
BRANCH  73  74
ATOM     74  N   UNL A   1      31.805  28.664  27.458  1.00  0.00    -0.356 N 
ATOM     75  C   UNL A   1      31.773  27.430  26.894  1.00  0.00     0.229 C 
ATOM     76  H   UNL A   1      31.225  28.767  28.247  1.00  0.00     0.163 HD
ATOM     77  O   UNL A   1      31.077  26.578  27.456  1.00  0.00    -0.275 OA
BRANCH  75  78
ATOM     78  C   UNL A   1      32.552  27.067  25.640  1.00  0.00     0.145 C 
ATOM     79  C   UNL A   1      33.073  25.632  25.651  1.00  0.00     0.276 C 
ATOM     80  C   UNL A   1      31.894  27.331  24.252  1.00  0.00     0.037 C 
ATOM     81  N   UNL A   1      33.033  25.161  24.275  1.00  0.00    -0.330 N 
ATOM     82  C   UNL A   1      32.065  25.968  23.530  1.00  0.00     0.270 C 
ATOM     83  C   UNL A   1      30.413  27.791  24.292  1.00  0.00     0.014 C 
ATOM     84  C   UNL A   1      32.669  28.477  23.541  1.00  0.00     0.014 C 
ATOM     85  H   UNL A   1      32.683  24.204  24.268  1.00  0.00     0.348 HD
ATOM     86  C   UNL A   1      29.835  28.174  22.928  1.00  0.00     0.001 C 
ATOM     87  C   UNL A   1      32.132  28.825  22.153  1.00  0.00     0.001 C 
ATOM     88  C   UNL A   1      30.670  29.234  22.225  1.00  0.00     0.000 C 
BRANCH  81  89
ATOM     89  C   UNL A   1      34.319  24.863  23.644  1.00  0.00     0.299 C 
BRANCH  89  90
ATOM     90  C   UNL A   1      35.038  23.618  24.116  1.00  0.00     0.008 A 
ATOM     91  C   UNL A   1      36.424  23.618  24.339  1.00  0.00     0.011 A 
ATOM     92  C   UNL A   1      34.332  22.418  24.288  1.00  0.00     0.031 A 
ATOM     93  C   UNL A   1      37.102  22.430  24.622  1.00  0.00     0.022 A 
ATOM     94  C   UNL A   1      35.006  21.227  24.589  1.00  0.00     0.060 A 
ATOM     95  C   UNL A   1      36.397  21.230  24.730  1.00  0.00     0.059 A 
ATOM     96  Cl  UNL A   1      34.066  19.784  24.713  1.00  0.00    -0.083 Cl
ATOM     97  Cl  UNL A   1      37.307  19.788  25.006  1.00  0.00    -0.083 Cl
ENDBRANCH  89  90
ENDBRANCH  81  89
ENDBRANCH  75  78
ENDBRANCH  73  74
ENDBRANCH  72  73
ENDBRANCH   1  72
TORSDOF 13
ENDMDL
MODEL 3
REMARK VINA RESULT:     -13.0      0.394      7.286
REMARK SMILES O=C(NCCCCNC(=O)[C@H]1C[N@H+](Cc2ccc(Cl)c(Cl)c2)CC12CCCCC2)c1ccc(-c2c3nc(c(-c4c(F)c(F)c(F)c(F)c4F)c4ccc([nH]4)c(-c4c(F)c(F)c(F)c(F)c4F)c4nc(c(-c5c(F)c(F)c(F)c(F)c5F)c5ccc2[nH]5)C=C4)C=C3)cc1
REMARK SMILES IDX 5 1 4 2 3 3 1 4 2 5 30 7 31 8 92 9 32 10 91 11 33 12 34 13
REMARK SMILES IDX 35 14 85 15 36 16 90 17 84 18 86 19 37 20 89 21 83 22 82 23
REMARK SMILES IDX 38 25 70 26 50 27 69 28 51 29 54 30 68 31 87 32 52 33 53 34
REMARK SMILES IDX 67 36 88 37 55 38 39 39 40 40 48 41 41 42 42 43 46 44 49 45
REMARK SMILES IDX 43 46 44 47 47 48 45 49 71 50 72 51 80 52 73 53 74 54 78 55
REMARK SMILES IDX 81 56 75 57 76 58 79 59 77 60 56 61 57 62 65 63 58 64 59 65
REMARK SMILES IDX 63 66 66 67 60 68 61 69 64 70 62 71 6 72 7 73 8 74 9 75
REMARK SMILES IDX 10 77 11 78 12 79 24 80 13 81 23 82 25 83 29 84 26 86 28 87
REMARK SMILES IDX 27 88 14 89 15 90 16 91 22 92 17 93 20 94 18 95 21 96 19 97
REMARK H PARENT 3 6 86 24 54 35 8 76 13 85
REMARK Flexibility Score: inf
ROOT
ATOM      1  C   UNL A   1      31.506  32.073  26.836  1.00  0.00     0.023 C 
ENDROOT
BRANCH   1   2
ATOM      2  C   UNL A   1      32.739  32.843  27.289  1.00  0.00     0.116 C 
BRANCH   2   3
ATOM      3  N   UNL A   1      32.447  34.213  27.686  1.00  0.00    -0.352 N 
ATOM      4  O   UNL A   1      32.642  36.067  28.972  1.00  0.00    -0.269 OA
ATOM      5  C   UNL A   1      33.050  34.952  28.672  1.00  0.00     0.251 C 
ATOM      6  H   UNL A   1      31.728  34.664  27.186  1.00  0.00     0.163 HD
BRANCH   5   7
ATOM      7  C   UNL A   1      34.186  34.352  29.393  1.00  0.00     0.039 A 
ATOM      8  C   UNL A   1      35.491  34.592  28.956  1.00  0.00     0.014 A 
ATOM      9  C   UNL A   1      33.932  33.488  30.459  1.00  0.00     0.014 A 
ATOM     10  C   UNL A   1      36.539  33.870  29.510  1.00  0.00     0.010 A 
ATOM     11  C   UNL A   1      34.995  32.819  31.063  1.00  0.00     0.010 A 
ATOM     12  C   UNL A   1      36.301  32.985  30.575  1.00  0.00    -0.014 A 
BRANCH  12  13
ATOM     13  C   UNL A   1      37.444  32.297  31.217  1.00  0.00     0.031 A 
ATOM     14  C   UNL A   1      37.910  32.680  32.589  1.00  0.00     0.074 A 
ATOM     15  C   UNL A   1      38.060  31.317  30.531  1.00  0.00     0.049 A 
ATOM     16  N   UNL A   1      38.913  32.200  33.281  1.00  0.00    -0.248 NA
ATOM     17  C   UNL A   1      37.163  33.745  33.273  1.00  0.00     0.031 C 
ATOM     18  C   UNL A   1      37.695  30.882  29.180  1.00  0.00     0.029 A 
ATOM     19  N   UNL A   1      39.114  30.513  30.868  1.00  0.00    -0.354 N 
ATOM     20  C   UNL A   1      38.934  32.918  34.468  1.00  0.00     0.074 A 
ATOM     21  C   UNL A   1      37.854  33.880  34.399  1.00  0.00     0.031 C 
ATOM     22  C   UNL A   1      38.498  29.875  28.813  1.00  0.00     0.029 A 
ATOM     23  C   UNL A   1      39.468  29.634  29.875  1.00  0.00     0.049 A 
ATOM     24  H   UNL A   1      39.575  30.559  31.737  1.00  0.00     0.167 HD
ATOM     25  C   UNL A   1      39.779  32.779  35.518  1.00  0.00     0.037 A 
ATOM     26  C   UNL A   1      40.479  28.751  29.813  1.00  0.00     0.037 A 
ATOM     27  C   UNL A   1      40.838  31.804  35.580  1.00  0.00     0.049 A 
ATOM     28  C   UNL A   1      41.402  28.621  30.987  1.00  0.00     0.074 A 
ATOM     29  C   UNL A   1      41.712  31.542  36.622  1.00  0.00     0.029 A 
ATOM     30  N   UNL A   1      41.171  30.933  34.552  1.00  0.00    -0.354 N 
ATOM     31  N   UNL A   1      41.387  29.276  32.122  1.00  0.00    -0.248 NA
ATOM     32  C   UNL A   1      42.482  27.634  30.873  1.00  0.00     0.031 C 
ATOM     33  C   UNL A   1      42.602  30.545  36.207  1.00  0.00     0.029 A 
ATOM     34  C   UNL A   1      42.255  30.152  34.924  1.00  0.00     0.049 A 
ATOM     35  H   UNL A   1      40.706  30.878  33.686  1.00  0.00     0.167 HD
ATOM     36  C   UNL A   1      42.449  28.779  32.862  1.00  0.00     0.074 A 
ATOM     37  C   UNL A   1      43.074  27.751  32.053  1.00  0.00     0.031 C 
ATOM     38  C   UNL A   1      42.869  29.143  34.097  1.00  0.00     0.037 A 
BRANCH  25  39
ATOM     39  C   UNL A   1      39.611  33.718  36.677  1.00  0.00     0.064 A 
ATOM     40  C   UNL A   1      40.210  34.987  36.696  1.00  0.00     0.173 A 
ATOM     41  C   UNL A   1      38.807  33.358  37.769  1.00  0.00     0.173 A 
ATOM     42  F   UNL A   1      40.999  35.375  35.681  1.00  0.00    -0.203 F 
ATOM     43  C   UNL A   1      40.032  35.848  37.775  1.00  0.00     0.198 A 
ATOM     44  C   UNL A   1      38.609  34.233  38.835  1.00  0.00     0.198 A 
ATOM     45  F   UNL A   1      38.205  32.159  37.800  1.00  0.00    -0.203 F 
ATOM     46  F   UNL A   1      40.650  37.038  37.790  1.00  0.00    -0.200 F 
ATOM     47  C   UNL A   1      39.227  35.474  38.841  1.00  0.00     0.200 A 
ATOM     48  F   UNL A   1      37.823  33.873  39.860  1.00  0.00    -0.200 F 
ATOM     49  F   UNL A   1      39.054  36.306  39.877  1.00  0.00    -0.200 F 
ENDBRANCH  25  39
BRANCH  26  50
ATOM     50  C   UNL A   1      40.657  27.942  28.582  1.00  0.00     0.064 A 
ATOM     51  C   UNL A   1      40.024  26.704  28.433  1.00  0.00     0.173 A 
ATOM     52  C   UNL A   1      41.419  28.425  27.506  1.00  0.00     0.173 A 
ATOM     53  F   UNL A   1      39.297  26.197  29.440  1.00  0.00    -0.203 F 
ATOM     54  C   UNL A   1      40.145  25.974  27.252  1.00  0.00     0.198 A 
ATOM     55  C   UNL A   1      41.517  27.708  26.317  1.00  0.00     0.198 A 
ATOM     56  F   UNL A   1      42.035  29.612  27.599  1.00  0.00    -0.203 F 
ATOM     57  F   UNL A   1      39.547  24.781  27.140  1.00  0.00    -0.200 F 
ATOM     58  C   UNL A   1      40.883  26.482  26.192  1.00  0.00     0.200 A 
ATOM     59  F   UNL A   1      42.214  28.212  25.289  1.00  0.00    -0.200 F 
ATOM     60  F   UNL A   1      40.983  25.788  25.050  1.00  0.00    -0.200 F 
ENDBRANCH  26  50
BRANCH  38  61
ATOM     61  C   UNL A   1      44.060  28.418  34.648  1.00  0.00     0.064 A 
ATOM     62  C   UNL A   1      45.361  28.915  34.478  1.00  0.00     0.173 A 
ATOM     63  C   UNL A   1      43.896  27.233  35.380  1.00  0.00     0.173 A 
ATOM     64  F   UNL A   1      45.567  30.036  33.769  1.00  0.00    -0.203 F 
ATOM     65  C   UNL A   1      46.457  28.238  35.004  1.00  0.00     0.198 A 
ATOM     66  C   UNL A   1      44.992  26.573  35.925  1.00  0.00     0.198 A 
ATOM     67  F   UNL A   1      42.671  26.721  35.571  1.00  0.00    -0.203 F 
ATOM     68  F   UNL A   1      47.695  28.707  34.793  1.00  0.00    -0.200 F 
ATOM     69  C   UNL A   1      46.272  27.073  35.732  1.00  0.00     0.200 A 
ATOM     70  F   UNL A   1      44.811  25.452  36.636  1.00  0.00    -0.200 F 
ATOM     71  F   UNL A   1      47.329  26.425  36.241  1.00  0.00    -0.200 F 
ENDBRANCH  38  61
ENDBRANCH  12  13
ENDBRANCH   5   7
ENDBRANCH   2   3
ENDBRANCH   1   2
BRANCH   1  72
ATOM     72  C   UNL A   1      31.793  30.708  26.213  1.00  0.00     0.023 C 
BRANCH  72  73
ATOM     73  C   UNL A   1      32.576  29.763  27.115  1.00  0.00     0.116 C 
BRANCH  73  74
ATOM     74  N   UNL A   1      31.818  28.572  27.449  1.00  0.00    -0.356 N 
ATOM     75  C   UNL A   1      31.772  27.349  26.862  1.00  0.00     0.229 C 
ATOM     76  H   UNL A   1      31.237  28.668  28.238  1.00  0.00     0.163 HD
ATOM     77  O   UNL A   1      31.063  26.496  27.407  1.00  0.00    -0.275 OA
BRANCH  75  78
ATOM     78  C   UNL A   1      32.551  26.999  25.605  1.00  0.00     0.145 C 
ATOM     79  C   UNL A   1      33.055  25.558  25.592  1.00  0.00     0.276 C 
ATOM     80  C   UNL A   1      31.900  27.294  24.219  1.00  0.00     0.037 C 
ATOM     81  N   UNL A   1      33.014  25.112  24.209  1.00  0.00    -0.330 N 
ATOM     82  C   UNL A   1      32.058  25.942  23.475  1.00  0.00     0.270 C 
ATOM     83  C   UNL A   1      30.425  27.770  24.264  1.00  0.00     0.014 C 
ATOM     84  C   UNL A   1      32.690  28.443  23.531  1.00  0.00     0.014 C 
ATOM     85  H   UNL A   1      32.653  24.158  24.184  1.00  0.00     0.348 HD
ATOM     86  C   UNL A   1      29.855  28.184  22.905  1.00  0.00     0.001 C 
ATOM     87  C   UNL A   1      32.162  28.822  22.148  1.00  0.00     0.001 C 
ATOM     88  C   UNL A   1      30.704  29.246  22.223  1.00  0.00     0.000 C 
BRANCH  81  89
ATOM     89  C   UNL A   1      34.299  24.810  23.576  1.00  0.00     0.299 C 
BRANCH  89  90
ATOM     90  C   UNL A   1      35.021  23.571  24.058  1.00  0.00     0.008 A 
ATOM     91  C   UNL A   1      36.414  23.562  24.234  1.00  0.00     0.011 A 
ATOM     92  C   UNL A   1      34.310  22.382  24.286  1.00  0.00     0.031 A 
ATOM     93  C   UNL A   1      37.090  22.375  24.526  1.00  0.00     0.022 A 
ATOM     94  C   UNL A   1      34.982  21.194  24.596  1.00  0.00     0.060 A 
ATOM     95  C   UNL A   1      36.378  21.186  24.691  1.00  0.00     0.059 A 
ATOM     96  Cl  UNL A   1      34.034  19.764  24.791  1.00  0.00    -0.083 Cl
ATOM     97  Cl  UNL A   1      37.283  19.742  24.975  1.00  0.00    -0.083 Cl
ENDBRANCH  89  90
ENDBRANCH  81  89
ENDBRANCH  75  78
ENDBRANCH  73  74
ENDBRANCH  72  73
ENDBRANCH   1  72
TORSDOF 13
ENDMDL
