MODEL 1
REMARK VINA RESULT:     -12.7      0.000      0.000
REMARK SMILES Cc1ccc([C@H](CC(=O)NCCCCNC(=O)c2ccc(-c3c4nc(c(-c5c(F)c(F)c(F)c(F)c5F)c5ccc([nH]5)c(-c5c(F)c(F)c(F)c(F)c5F)c5nc(c(-c6c(F)c(F)c(F)c(F)c6F)c6ccc3[nH]6)C=C5)C=C4)cc2)NC(=O)C(F)(F)F)cc1
REMARK SMILES IDX 12 1 11 2 10 3 8 4 9 5 7 7 6 8 5 9 1 10 2 11 3 12 89 13 4 14
REMARK SMILES IDX 88 15 81 16 82 17 83 19 84 20 85 21 86 22 87 23 13 24 14 25
REMARK SMILES IDX 15 26 16 27 17 29 18 30 19 31 80 32 20 33 79 34 21 35 22 36
REMARK SMILES IDX 23 37 73 38 24 39 78 40 72 41 74 42 25 43 77 44 71 45 70 46
REMARK SMILES IDX 26 48 58 49 38 50 57 51 39 52 42 53 56 54 75 55 40 56 41 57
REMARK SMILES IDX 55 59 76 60 43 61 27 62 28 63 36 64 29 65 30 66 34 67 37 68
REMARK SMILES IDX 31 69 32 70 35 71 33 72 59 73 60 74 68 75 61 76 62 77 66 78
REMARK SMILES IDX 69 79 63 80 64 81 67 82 65 83 44 84 45 85 53 86 46 87 47 88
REMARK SMILES IDX 51 89 54 90 48 91 49 92 52 93 50 94
REMARK H PARENT 10 6 81 18 15 28 74 47 42 58
REMARK Flexibility Score: inf
ROOT
ATOM      1  C   UNL A   1      33.675  28.417  26.819  1.00  0.00     0.023 C 
ENDROOT
BRANCH   1   2
ATOM      2  C   UNL A   1      33.722  28.567  25.288  1.00  0.00     0.116 C 
BRANCH   2   3
ATOM      3  N   UNL A   1      32.607  27.936  24.598  1.00  0.00    -0.356 N 
ATOM      4  C   UNL A   1      32.526  26.771  23.896  1.00  0.00     0.222 C 
ATOM      5  O   UNL A   1      31.440  26.454  23.408  1.00  0.00    -0.275 OA
ATOM      6  H   UNL A   1      31.762  28.440  24.648  1.00  0.00     0.163 HD
BRANCH   4   7
ATOM      7  C   UNL A   1      33.737  25.890  23.730  1.00  0.00     0.129 C 
BRANCH   7   8
ATOM      8  C   UNL A   1      33.580  24.561  24.476  1.00  0.00     0.122 C 
BRANCH   8   9
ATOM      9  C   UNL A   1      34.948  23.931  24.678  1.00  0.00    -0.025 A 
ATOM     10  C   UNL A   1      38.653  21.880  25.548  1.00  0.00     0.044 C 
ATOM     11  C   UNL A   1      37.385  22.612  25.223  1.00  0.00    -0.051 A 
ATOM     12  C   UNL A   1      36.831  23.487  26.160  1.00  0.00     0.004 A 
ATOM     13  C   UNL A   1      36.721  22.407  24.009  1.00  0.00     0.004 A 
ATOM     14  C   UNL A   1      35.631  24.144  25.887  1.00  0.00     0.006 A 
ATOM     15  C   UNL A   1      35.512  23.056  23.740  1.00  0.00     0.006 A 
ENDBRANCH   8   9
BRANCH   8  16
ATOM     16  N   UNL A   1      32.861  24.700  25.738  1.00  0.00    -0.341 N 
ATOM     17  C   UNL A   1      31.785  23.960  26.187  1.00  0.00     0.326 C 
ATOM     18  H   UNL A   1      33.182  25.408  26.343  1.00  0.00     0.164 HD
ATOM     19  O   UNL A   1      31.347  24.229  27.311  1.00  0.00    -0.265 OA
BRANCH  17  20
ATOM     20  C   UNL A   1      31.187  22.846  25.296  1.00  0.00     0.471 C 
ATOM     21  F   UNL A   1      32.120  21.919  24.938  1.00  0.00    -0.162 F 
ATOM     22  F   UNL A   1      30.201  22.149  25.934  1.00  0.00    -0.162 F 
ATOM     23  F   UNL A   1      30.641  23.304  24.137  1.00  0.00    -0.162 F 
ENDBRANCH  17  20
ENDBRANCH   8  16
ENDBRANCH   7   8
ENDBRANCH   4   7
ENDBRANCH   2   3
ENDBRANCH   1   2
BRANCH   1  24
ATOM     24  C   UNL A   1      33.225  29.657  27.597  1.00  0.00     0.023 C 
BRANCH  24  25
ATOM     25  C   UNL A   1      33.966  30.919  27.193  1.00  0.00     0.116 C 
BRANCH  25  26
ATOM     26  N   UNL A   1      34.467  31.708  28.311  1.00  0.00    -0.352 N 
ATOM     27  C   UNL A   1      35.475  31.404  29.212  1.00  0.00     0.251 C 
ATOM     28  H   UNL A   1      34.027  32.578  28.446  1.00  0.00     0.163 HD
ATOM     29  O   UNL A   1      35.726  32.152  30.142  1.00  0.00    -0.269 OA
BRANCH  27  30
ATOM     30  C   UNL A   1      36.332  30.222  28.953  1.00  0.00     0.039 A 
ATOM     31  C   UNL A   1      36.665  29.399  30.036  1.00  0.00     0.014 A 
ATOM     32  C   UNL A   1      36.971  30.062  27.727  1.00  0.00     0.014 A 
ATOM     33  C   UNL A   1      37.806  28.604  29.959  1.00  0.00     0.010 A 
ATOM     34  C   UNL A   1      38.163  29.366  27.688  1.00  0.00     0.010 A 
ATOM     35  C   UNL A   1      38.616  28.691  28.827  1.00  0.00    -0.014 A 
BRANCH  35  36
ATOM     36  C   UNL A   1      39.992  28.206  28.781  1.00  0.00     0.031 A 
ATOM     37  C   UNL A   1      40.280  26.786  28.488  1.00  0.00     0.074 A 
ATOM     38  C   UNL A   1      41.010  29.086  28.912  1.00  0.00     0.049 A 
ATOM     39  N   UNL A   1      41.402  26.203  28.747  1.00  0.00    -0.248 NA
ATOM     40  C   UNL A   1      39.291  25.893  27.897  1.00  0.00     0.031 C 
ATOM     41  C   UNL A   1      42.426  28.858  28.631  1.00  0.00     0.029 A 
ATOM     42  N   UNL A   1      40.983  30.336  29.554  1.00  0.00    -0.354 N 
ATOM     43  C   UNL A   1      41.377  24.955  28.170  1.00  0.00     0.074 A 
ATOM     44  C   UNL A   1      40.029  24.801  27.672  1.00  0.00     0.031 C 
ATOM     45  C   UNL A   1      43.152  29.724  29.354  1.00  0.00     0.029 A 
ATOM     46  C   UNL A   1      42.230  30.435  30.221  1.00  0.00     0.049 A 
ATOM     47  H   UNL A   1      40.256  31.000  29.542  1.00  0.00     0.167 HD
ATOM     48  C   UNL A   1      42.529  24.229  28.096  1.00  0.00     0.037 A 
ATOM     49  C   UNL A   1      42.292  30.470  31.584  1.00  0.00     0.037 A 
ATOM     50  C   UNL A   1      43.631  24.893  28.784  1.00  0.00     0.049 A 
ATOM     51  C   UNL A   1      43.064  29.328  32.213  1.00  0.00     0.074 A 
ATOM     52  C   UNL A   1      44.675  25.709  28.382  1.00  0.00     0.029 A 
ATOM     53  N   UNL A   1      43.577  24.992  30.162  1.00  0.00    -0.354 N 
ATOM     54  N   UNL A   1      43.537  28.309  31.554  1.00  0.00    -0.248 NA
ATOM     55  C   UNL A   1      43.264  29.200  33.659  1.00  0.00     0.031 C 
ATOM     56  C   UNL A   1      45.227  26.326  29.541  1.00  0.00     0.029 A 
ATOM     57  C   UNL A   1      44.520  25.880  30.641  1.00  0.00     0.049 A 
ATOM     58  H   UNL A   1      42.947  24.493  30.729  1.00  0.00     0.167 HD
ATOM     59  C   UNL A   1      44.038  27.395  32.440  1.00  0.00     0.074 A 
ATOM     60  C   UNL A   1      43.848  27.994  33.746  1.00  0.00     0.031 C 
ATOM     61  C   UNL A   1      44.537  26.188  32.057  1.00  0.00     0.037 A 
BRANCH  48  62
ATOM     62  C   UNL A   1      42.707  23.008  27.227  1.00  0.00     0.064 A 
ATOM     63  C   UNL A   1      42.027  21.807  27.527  1.00  0.00     0.173 A 
ATOM     64  C   UNL A   1      43.561  22.940  26.111  1.00  0.00     0.173 A 
ATOM     65  F   UNL A   1      41.107  21.748  28.499  1.00  0.00    -0.203 F 
ATOM     66  C   UNL A   1      42.272  20.615  26.841  1.00  0.00     0.198 A 
ATOM     67  C   UNL A   1      43.856  21.734  25.467  1.00  0.00     0.198 A 
ATOM     68  F   UNL A   1      44.091  24.044  25.574  1.00  0.00    -0.203 F 
ATOM     69  F   UNL A   1      41.594  19.506  27.171  1.00  0.00    -0.200 F 
ATOM     70  C   UNL A   1      43.218  20.569  25.839  1.00  0.00     0.200 A 
ATOM     71  F   UNL A   1      44.762  21.713  24.479  1.00  0.00    -0.200 F 
ATOM     72  F   UNL A   1      43.494  19.415  25.216  1.00  0.00    -0.200 F 
ENDBRANCH  48  62
BRANCH  49  73
ATOM     73  C   UNL A   1      41.110  31.132  32.199  1.00  0.00     0.064 A 
ATOM     74  C   UNL A   1      41.018  32.537  32.134  1.00  0.00     0.173 A 
ATOM     75  C   UNL A   1      39.944  30.421  32.502  1.00  0.00     0.173 A 
ATOM     76  F   UNL A   1      42.106  33.269  31.843  1.00  0.00    -0.203 F 
ATOM     77  C   UNL A   1      39.791  33.188  32.234  1.00  0.00     0.198 A 
ATOM     78  C   UNL A   1      38.720  31.079  32.629  1.00  0.00     0.198 A 
ATOM     79  F   UNL A   1      39.959  29.081  32.557  1.00  0.00    -0.203 F 
ATOM     80  F   UNL A   1      39.718  34.511  32.033  1.00  0.00    -0.200 F 
ATOM     81  C   UNL A   1      38.639  32.454  32.456  1.00  0.00     0.200 A 
ATOM     82  F   UNL A   1      37.601  30.366  32.817  1.00  0.00    -0.200 F 
ATOM     83  F   UNL A   1      37.445  33.062  32.458  1.00  0.00    -0.200 F 
ENDBRANCH  49  73
BRANCH  61  84
ATOM     84  C   UNL A   1      45.094  25.201  33.029  1.00  0.00     0.064 A 
ATOM     85  C   UNL A   1      46.476  25.015  33.180  1.00  0.00     0.173 A 
ATOM     86  C   UNL A   1      44.253  24.330  33.747  1.00  0.00     0.173 A 
ATOM     87  F   UNL A   1      47.345  25.785  32.507  1.00  0.00    -0.203 F 
ATOM     88  C   UNL A   1      46.988  24.027  34.021  1.00  0.00     0.198 A 
ATOM     89  C   UNL A   1      44.768  23.315  34.551  1.00  0.00     0.198 A 
ATOM     90  F   UNL A   1      42.919  24.459  33.698  1.00  0.00    -0.203 F 
ATOM     91  F   UNL A   1      48.314  23.906  34.173  1.00  0.00    -0.200 F 
ATOM     92  C   UNL A   1      46.135  23.169  34.695  1.00  0.00     0.200 A 
ATOM     93  F   UNL A   1      43.931  22.483  35.187  1.00  0.00    -0.200 F 
ATOM     94  F   UNL A   1      46.628  22.206  35.483  1.00  0.00    -0.200 F 
ENDBRANCH  61  84
ENDBRANCH  35  36
ENDBRANCH  27  30
ENDBRANCH  25  26
ENDBRANCH  24  25
ENDBRANCH   1  24
TORSDOF 15
ENDMDL
MODEL 2
REMARK VINA RESULT:     -12.6      3.453      9.813
REMARK SMILES Cc1ccc([C@H](CC(=O)NCCCCNC(=O)c2ccc(-c3c4nc(c(-c5c(F)c(F)c(F)c(F)c5F)c5ccc([nH]5)c(-c5c(F)c(F)c(F)c(F)c5F)c5nc(c(-c6c(F)c(F)c(F)c(F)c6F)c6ccc3[nH]6)C=C5)C=C4)cc2)NC(=O)C(F)(F)F)cc1
REMARK SMILES IDX 12 1 11 2 10 3 8 4 9 5 7 7 6 8 5 9 1 10 2 11 3 12 89 13 4 14
REMARK SMILES IDX 88 15 81 16 82 17 83 19 84 20 85 21 86 22 87 23 13 24 14 25
REMARK SMILES IDX 15 26 16 27 17 29 18 30 19 31 80 32 20 33 79 34 21 35 22 36
REMARK SMILES IDX 23 37 73 38 24 39 78 40 72 41 74 42 25 43 77 44 71 45 70 46
REMARK SMILES IDX 26 48 58 49 38 50 57 51 39 52 42 53 56 54 75 55 40 56 41 57
REMARK SMILES IDX 55 59 76 60 43 61 27 62 28 63 36 64 29 65 30 66 34 67 37 68
REMARK SMILES IDX 31 69 32 70 35 71 33 72 59 73 60 74 68 75 61 76 62 77 66 78
REMARK SMILES IDX 69 79 63 80 64 81 67 82 65 83 44 84 45 85 53 86 46 87 47 88
REMARK SMILES IDX 51 89 54 90 48 91 49 92 52 93 50 94
REMARK H PARENT 10 6 81 18 15 28 74 47 42 58
REMARK Flexibility Score: inf
ROOT
ATOM      1  C   UNL A   1      37.304  21.489  24.597  1.00  0.00     0.023 C 
ENDROOT
BRANCH   1   2
ATOM      2  C   UNL A   1      35.952  20.813  24.886  1.00  0.00     0.116 C 
BRANCH   2   3
ATOM      3  N   UNL A   1      35.333  21.239  26.133  1.00  0.00    -0.356 N 
ATOM      4  C   UNL A   1      34.928  22.467  26.563  1.00  0.00     0.222 C 
ATOM      5  O   UNL A   1      34.416  22.558  27.679  1.00  0.00    -0.275 OA
ATOM      6  H   UNL A   1      35.181  20.512  26.779  1.00  0.00     0.163 HD
BRANCH   4   7
ATOM      7  C   UNL A   1      35.096  23.681  25.685  1.00  0.00     0.129 C 
BRANCH   7   8
ATOM      8  C   UNL A   1      33.783  24.073  25.001  1.00  0.00     0.122 C 
BRANCH   8   9
ATOM      9  C   UNL A   1      33.238  25.338  25.643  1.00  0.00    -0.025 A 
ATOM     10  C   UNL A   1      31.714  29.121  27.079  1.00  0.00     0.044 C 
ATOM     11  C   UNL A   1      32.240  27.795  26.613  1.00  0.00    -0.051 A 
ATOM     12  C   UNL A   1      33.584  27.671  26.257  1.00  0.00     0.004 A 
ATOM     13  C   UNL A   1      31.399  26.684  26.493  1.00  0.00     0.004 A 
ATOM     14  C   UNL A   1      34.078  26.455  25.785  1.00  0.00     0.006 A 
ATOM     15  C   UNL A   1      31.891  25.468  26.008  1.00  0.00     0.006 A 
ENDBRANCH   8   9
BRANCH   8  16
ATOM     16  N   UNL A   1      33.918  24.221  23.555  1.00  0.00    -0.341 N 
ATOM     17  C   UNL A   1      33.311  23.472  22.567  1.00  0.00     0.326 C 
ATOM     18  H   UNL A   1      34.516  24.941  23.248  1.00  0.00     0.164 HD
ATOM     19  O   UNL A   1      33.545  23.792  21.396  1.00  0.00    -0.265 OA
BRANCH  17  20
ATOM     20  C   UNL A   1      32.380  22.297  22.947  1.00  0.00     0.471 C 
ATOM     21  F   UNL A   1      32.949  21.468  23.867  1.00  0.00    -0.162 F 
ATOM     22  F   UNL A   1      31.212  22.726  23.509  1.00  0.00    -0.162 F 
ATOM     23  F   UNL A   1      32.029  21.512  21.893  1.00  0.00    -0.162 F 
ENDBRANCH  17  20
ENDBRANCH   8  16
ENDBRANCH   7   8
ENDBRANCH   4   7
ENDBRANCH   2   3
ENDBRANCH   1   2
BRANCH   1  24
ATOM     24  C   UNL A   1      38.324  21.455  25.738  1.00  0.00     0.023 C 
BRANCH  24  25
ATOM     25  C   UNL A   1      38.808  22.834  26.151  1.00  0.00     0.116 C 
BRANCH  25  26
ATOM     26  N   UNL A   1      40.254  22.945  26.298  1.00  0.00    -0.352 N 
ATOM     27  C   UNL A   1      41.024  24.073  26.534  1.00  0.00     0.251 C 
ATOM     28  H   UNL A   1      40.754  22.101  26.218  1.00  0.00     0.163 HD
ATOM     29  O   UNL A   1      42.241  24.002  26.561  1.00  0.00    -0.269 OA
BRANCH  27  30
ATOM     30  C   UNL A   1      40.341  25.343  26.885  1.00  0.00     0.039 A 
ATOM     31  C   UNL A   1      40.756  26.513  26.238  1.00  0.00     0.014 A 
ATOM     32  C   UNL A   1      39.484  25.410  27.978  1.00  0.00     0.014 A 
ATOM     33  C   UNL A   1      40.517  27.745  26.844  1.00  0.00     0.010 A 
ATOM     34  C   UNL A   1      39.346  26.615  28.638  1.00  0.00     0.010 A 
ATOM     35  C   UNL A   1      39.922  27.773  28.105  1.00  0.00    -0.014 A 
BRANCH  35  36
ATOM     36  C   UNL A   1      39.953  28.938  28.985  1.00  0.00     0.031 A 
ATOM     37  C   UNL A   1      38.899  29.970  28.906  1.00  0.00     0.074 A 
ATOM     38  C   UNL A   1      40.904  29.019  29.944  1.00  0.00     0.049 A 
ATOM     39  N   UNL A   1      39.010  31.162  29.386  1.00  0.00    -0.248 NA
ATOM     40  C   UNL A   1      37.625  29.736  28.238  1.00  0.00     0.031 C 
ATOM     41  C   UNL A   1      40.950  29.941  31.077  1.00  0.00     0.029 A 
ATOM     42  N   UNL A   1      42.166  28.400  29.952  1.00  0.00    -0.354 N 
ATOM     43  C   UNL A   1      37.781  31.773  29.303  1.00  0.00     0.074 A 
ATOM     44  C   UNL A   1      36.956  30.849  28.557  1.00  0.00     0.031 C 
ATOM     45  C   UNL A   1      42.226  30.082  31.465  1.00  0.00     0.029 A 
ATOM     46  C   UNL A   1      43.046  29.365  30.505  1.00  0.00     0.049 A 
ATOM     47  H   UNL A   1      42.391  27.493  29.642  1.00  0.00     0.167 HD
ATOM     48  C   UNL A   1      37.573  32.952  29.955  1.00  0.00     0.037 A 
ATOM     49  C   UNL A   1      44.045  29.911  29.752  1.00  0.00     0.037 A 
ATOM     50  C   UNL A   1      38.797  33.449  30.574  1.00  0.00     0.049 A 
ATOM     51  C   UNL A   1      43.955  31.412  29.573  1.00  0.00     0.074 A 
ATOM     52  C   UNL A   1      39.337  33.382  31.847  1.00  0.00     0.029 A 
ATOM     53  N   UNL A   1      39.817  33.886  29.749  1.00  0.00    -0.354 N 
ATOM     54  N   UNL A   1      42.955  32.143  29.978  1.00  0.00    -0.248 NA
ATOM     55  C   UNL A   1      44.943  32.188  28.819  1.00  0.00     0.031 C 
ATOM     56  C   UNL A   1      40.709  33.756  31.767  1.00  0.00     0.029 A 
ATOM     57  C   UNL A   1      40.996  34.052  30.448  1.00  0.00     0.049 A 
ATOM     58  H   UNL A   1      39.715  34.058  28.785  1.00  0.00     0.167 HD
ATOM     59  C   UNL A   1      43.119  33.422  29.521  1.00  0.00     0.074 A 
ATOM     60  C   UNL A   1      44.378  33.406  28.802  1.00  0.00     0.031 C 
ATOM     61  C   UNL A   1      42.199  34.404  29.721  1.00  0.00     0.037 A 
BRANCH  48  62
ATOM     62  C   UNL A   1      36.212  33.556  30.202  1.00  0.00     0.064 A 
ATOM     63  C   UNL A   1      35.447  34.067  29.131  1.00  0.00     0.173 A 
ATOM     64  C   UNL A   1      35.621  33.699  31.470  1.00  0.00     0.173 A 
ATOM     65  F   UNL A   1      35.836  33.914  27.858  1.00  0.00    -0.203 F 
ATOM     66  C   UNL A   1      34.253  34.764  29.328  1.00  0.00     0.198 A 
ATOM     67  C   UNL A   1      34.460  34.452  31.675  1.00  0.00     0.198 A 
ATOM     68  F   UNL A   1      36.114  33.068  32.542  1.00  0.00    -0.203 F 
ATOM     69  F   UNL A   1      33.570  35.226  28.270  1.00  0.00    -0.200 F 
ATOM     70  C   UNL A   1      33.781  34.993  30.603  1.00  0.00     0.200 A 
ATOM     71  F   UNL A   1      34.004  34.645  32.921  1.00  0.00    -0.200 F 
ATOM     72  F   UNL A   1      32.664  35.708  30.798  1.00  0.00    -0.200 F 
ENDBRANCH  48  62
BRANCH  49  73
ATOM     73  C   UNL A   1      44.583  28.967  28.735  1.00  0.00     0.064 A 
ATOM     74  C   UNL A   1      45.377  27.889  29.174  1.00  0.00     0.173 A 
ATOM     75  C   UNL A   1      44.048  28.895  27.445  1.00  0.00     0.173 A 
ATOM     76  F   UNL A   1      45.913  27.905  30.406  1.00  0.00    -0.203 F 
ATOM     77  C   UNL A   1      45.516  26.734  28.407  1.00  0.00     0.198 A 
ATOM     78  C   UNL A   1      44.212  27.747  26.669  1.00  0.00     0.198 A 
ATOM     79  F   UNL A   1      43.266  29.878  26.975  1.00  0.00    -0.203 F 
ATOM     80  F   UNL A   1      46.165  25.674  28.909  1.00  0.00    -0.200 F 
ATOM     81  C   UNL A   1      44.911  26.656  27.165  1.00  0.00     0.200 A 
ATOM     82  F   UNL A   1      43.604  27.660  25.478  1.00  0.00    -0.200 F 
ATOM     83  F   UNL A   1      44.961  25.514  26.465  1.00  0.00    -0.200 F 
ENDBRANCH  49  73
BRANCH  61  84
ATOM     84  C   UNL A   1      42.392  35.801  29.229  1.00  0.00     0.064 A 
ATOM     85  C   UNL A   1      41.836  36.238  28.018  1.00  0.00     0.173 A 
ATOM     86  C   UNL A   1      43.240  36.701  29.901  1.00  0.00     0.173 A 
ATOM     87  F   UNL A   1      41.041  35.430  27.301  1.00  0.00    -0.203 F 
ATOM     88  C   UNL A   1      42.097  37.515  27.518  1.00  0.00     0.198 A 
ATOM     89  C   UNL A   1      43.534  37.958  29.378  1.00  0.00     0.198 A 
ATOM     90  F   UNL A   1      43.783  36.387  31.087  1.00  0.00    -0.203 F 
ATOM     91  F   UNL A   1      41.516  37.914  26.379  1.00  0.00    -0.200 F 
ATOM     92  C   UNL A   1      42.956  38.368  28.191  1.00  0.00     0.200 A 
ATOM     93  F   UNL A   1      44.378  38.769  30.032  1.00  0.00    -0.200 F 
ATOM     94  F   UNL A   1      43.224  39.584  27.698  1.00  0.00    -0.200 F 
ENDBRANCH  61  84
ENDBRANCH  35  36
ENDBRANCH  27  30
ENDBRANCH  25  26
ENDBRANCH  24  25
ENDBRANCH   1  24
TORSDOF 15
ENDMDL
MODEL 3
REMARK VINA RESULT:     -12.6      3.575      9.665
REMARK SMILES Cc1ccc([C@H](CC(=O)NCCCCNC(=O)c2ccc(-c3c4nc(c(-c5c(F)c(F)c(F)c(F)c5F)c5ccc([nH]5)c(-c5c(F)c(F)c(F)c(F)c5F)c5nc(c(-c6c(F)c(F)c(F)c(F)c6F)c6ccc3[nH]6)C=C5)C=C4)cc2)NC(=O)C(F)(F)F)cc1
REMARK SMILES IDX 12 1 11 2 10 3 8 4 9 5 7 7 6 8 5 9 1 10 2 11 3 12 89 13 4 14
REMARK SMILES IDX 88 15 81 16 82 17 83 19 84 20 85 21 86 22 87 23 13 24 14 25
REMARK SMILES IDX 15 26 16 27 17 29 18 30 19 31 80 32 20 33 79 34 21 35 22 36
REMARK SMILES IDX 23 37 73 38 24 39 78 40 72 41 74 42 25 43 77 44 71 45 70 46
REMARK SMILES IDX 26 48 58 49 38 50 57 51 39 52 42 53 56 54 75 55 40 56 41 57
REMARK SMILES IDX 55 59 76 60 43 61 27 62 28 63 36 64 29 65 30 66 34 67 37 68
REMARK SMILES IDX 31 69 32 70 35 71 33 72 59 73 60 74 68 75 61 76 62 77 66 78
REMARK SMILES IDX 69 79 63 80 64 81 67 82 65 83 44 84 45 85 53 86 46 87 47 88
REMARK SMILES IDX 51 89 54 90 48 91 49 92 52 93 50 94
REMARK H PARENT 10 6 81 18 15 28 74 47 42 58
REMARK Flexibility Score: inf
ROOT
ATOM      1  C   UNL A   1      37.356  21.576  24.519  1.00  0.00     0.023 C 
ENDROOT
BRANCH   1   2
ATOM      2  C   UNL A   1      36.966  23.030  24.195  1.00  0.00     0.116 C 
BRANCH   2   3
ATOM      3  N   UNL A   1      35.839  23.149  23.281  1.00  0.00    -0.356 N 
ATOM      4  C   UNL A   1      34.495  23.079  23.496  1.00  0.00     0.222 C 
ATOM      5  O   UNL A   1      33.739  23.224  22.535  1.00  0.00    -0.275 OA
ATOM      6  H   UNL A   1      36.093  23.307  22.343  1.00  0.00     0.163 HD
BRANCH   4   7
ATOM      7  C   UNL A   1      33.952  22.838  24.881  1.00  0.00     0.129 C 
BRANCH   7   8
ATOM      8  C   UNL A   1      32.659  22.016  24.849  1.00  0.00     0.122 C 
BRANCH   8   9
ATOM      9  C   UNL A   1      32.991  20.567  24.532  1.00  0.00    -0.025 A 
ATOM     10  C   UNL A   1      34.055  16.582  23.236  1.00  0.00     0.044 C 
ATOM     11  C   UNL A   1      33.676  17.951  23.717  1.00  0.00    -0.051 A 
ATOM     12  C   UNL A   1      32.540  18.577  23.200  1.00  0.00     0.004 A 
ATOM     13  C   UNL A   1      34.462  18.634  24.651  1.00  0.00     0.004 A 
ATOM     14  C   UNL A   1      32.199  19.866  23.608  1.00  0.00     0.006 A 
ATOM     15  C   UNL A   1      34.127  19.930  25.052  1.00  0.00     0.006 A 
ENDBRANCH   8   9
BRANCH   8  16
ATOM     16  N   UNL A   1      31.882  22.131  26.079  1.00  0.00    -0.341 N 
ATOM     17  C   UNL A   1      31.000  23.132  26.433  1.00  0.00     0.326 C 
ATOM     18  H   UNL A   1      32.004  21.408  26.737  1.00  0.00     0.164 HD
ATOM     19  O   UNL A   1      30.421  23.013  27.518  1.00  0.00    -0.265 OA
BRANCH  17  20
ATOM     20  C   UNL A   1      30.764  24.328  25.481  1.00  0.00     0.471 C 
ATOM     21  F   UNL A   1      29.808  25.178  25.952  1.00  0.00    -0.162 F 
ATOM     22  F   UNL A   1      31.887  25.089  25.321  1.00  0.00    -0.162 F 
ATOM     23  F   UNL A   1      30.369  23.965  24.231  1.00  0.00    -0.162 F 
ENDBRANCH  17  20
ENDBRANCH   8  16
ENDBRANCH   7   8
ENDBRANCH   4   7
ENDBRANCH   2   3
ENDBRANCH   1   2
BRANCH   1  24
ATOM     24  C   UNL A   1      38.433  21.399  25.592  1.00  0.00     0.023 C 
BRANCH  24  25
ATOM     25  C   UNL A   1      38.890  22.711  26.205  1.00  0.00     0.116 C 
BRANCH  25  26
ATOM     26  N   UNL A   1      40.336  22.853  26.315  1.00  0.00    -0.352 N 
ATOM     27  C   UNL A   1      41.088  23.998  26.528  1.00  0.00     0.251 C 
ATOM     28  H   UNL A   1      40.852  22.019  26.224  1.00  0.00     0.163 HD
ATOM     29  O   UNL A   1      42.307  23.953  26.524  1.00  0.00    -0.269 OA
BRANCH  27  30
ATOM     30  C   UNL A   1      40.388  25.254  26.893  1.00  0.00     0.039 A 
ATOM     31  C   UNL A   1      40.776  26.434  26.247  1.00  0.00     0.014 A 
ATOM     32  C   UNL A   1      39.541  25.301  27.995  1.00  0.00     0.014 A 
ATOM     33  C   UNL A   1      40.523  27.659  26.863  1.00  0.00     0.010 A 
ATOM     34  C   UNL A   1      39.390  26.500  28.663  1.00  0.00     0.010 A 
ATOM     35  C   UNL A   1      39.941  27.671  28.130  1.00  0.00    -0.014 A 
BRANCH  35  36
ATOM     36  C   UNL A   1      39.962  28.831  29.016  1.00  0.00     0.031 A 
ATOM     37  C   UNL A   1      38.914  29.868  28.923  1.00  0.00     0.074 A 
ATOM     38  C   UNL A   1      40.897  28.904  29.991  1.00  0.00     0.049 A 
ATOM     39  N   UNL A   1      39.022  31.058  29.410  1.00  0.00    -0.248 NA
ATOM     40  C   UNL A   1      37.650  29.644  28.232  1.00  0.00     0.031 C 
ATOM     41  C   UNL A   1      40.927  29.820  31.129  1.00  0.00     0.029 A 
ATOM     42  N   UNL A   1      42.155  28.279  30.018  1.00  0.00    -0.354 N 
ATOM     43  C   UNL A   1      37.797  31.674  29.308  1.00  0.00     0.074 A 
ATOM     44  C   UNL A   1      36.981  30.758  28.544  1.00  0.00     0.031 C 
ATOM     45  C   UNL A   1      42.197  29.954  31.539  1.00  0.00     0.029 A 
ATOM     46  C   UNL A   1      43.029  29.238  30.591  1.00  0.00     0.049 A 
ATOM     47  H   UNL A   1      42.382  27.373  29.708  1.00  0.00     0.167 HD
ATOM     48  C   UNL A   1      37.583  32.852  29.963  1.00  0.00     0.037 A 
ATOM     49  C   UNL A   1      44.044  29.783  29.858  1.00  0.00     0.037 A 
ATOM     50  C   UNL A   1      38.799  33.341  30.605  1.00  0.00     0.049 A 
ATOM     51  C   UNL A   1      43.964  31.285  29.683  1.00  0.00     0.074 A 
ATOM     52  C   UNL A   1      39.316  33.266  31.887  1.00  0.00     0.029 A 
ATOM     53  N   UNL A   1      39.834  33.776  29.799  1.00  0.00    -0.354 N 
ATOM     54  N   UNL A   1      42.960  32.019  30.074  1.00  0.00    -0.248 NA
ATOM     55  C   UNL A   1      44.969  32.060  28.951  1.00  0.00     0.031 C 
ATOM     56  C   UNL A   1      40.691  33.633  31.832  1.00  0.00     0.029 A 
ATOM     57  C   UNL A   1      41.002  33.934  30.519  1.00  0.00     0.049 A 
ATOM     58  H   UNL A   1      39.750  33.953  28.835  1.00  0.00     0.167 HD
ATOM     59  C   UNL A   1      43.138  33.299  29.626  1.00  0.00     0.074 A 
ATOM     60  C   UNL A   1      44.409  33.280  28.929  1.00  0.00     0.031 C 
ATOM     61  C   UNL A   1      42.219  34.284  29.815  1.00  0.00     0.037 A 
BRANCH  48  62
ATOM     62  C   UNL A   1      36.221  33.460  30.189  1.00  0.00     0.064 A 
ATOM     63  C   UNL A   1      35.475  33.975  29.106  1.00  0.00     0.173 A 
ATOM     64  C   UNL A   1      35.610  33.605  31.448  1.00  0.00     0.173 A 
ATOM     65  F   UNL A   1      35.883  33.821  27.839  1.00  0.00    -0.203 F 
ATOM     66  C   UNL A   1      34.280  34.676  29.285  1.00  0.00     0.198 A 
ATOM     67  C   UNL A   1      34.450  34.363  31.634  1.00  0.00     0.198 A 
ATOM     68  F   UNL A   1      36.085  32.972  32.527  1.00  0.00    -0.203 F 
ATOM     69  F   UNL A   1      33.615  35.141  28.217  1.00  0.00    -0.200 F 
ATOM     70  C   UNL A   1      33.789  34.907  30.553  1.00  0.00     0.200 A 
ATOM     71  F   UNL A   1      33.975  34.557  32.873  1.00  0.00    -0.200 F 
ATOM     72  F   UNL A   1      32.672  35.626  30.730  1.00  0.00    -0.200 F 
ENDBRANCH  48  62
BRANCH  49  73
ATOM     73  C   UNL A   1      44.596  28.841  28.846  1.00  0.00     0.064 A 
ATOM     74  C   UNL A   1      45.387  27.764  29.292  1.00  0.00     0.173 A 
ATOM     75  C   UNL A   1      44.075  28.769  27.550  1.00  0.00     0.173 A 
ATOM     76  F   UNL A   1      45.909  27.781  30.530  1.00  0.00    -0.203 F 
ATOM     77  C   UNL A   1      45.537  26.611  28.526  1.00  0.00     0.198 A 
ATOM     78  C   UNL A   1      44.251  27.622  26.774  1.00  0.00     0.198 A 
ATOM     79  F   UNL A   1      43.297  29.751  27.072  1.00  0.00    -0.203 F 
ATOM     80  F   UNL A   1      46.183  25.551  29.034  1.00  0.00    -0.200 F 
ATOM     81  C   UNL A   1      44.947  26.532  27.277  1.00  0.00     0.200 A 
ATOM     82  F   UNL A   1      43.656  27.535  25.576  1.00  0.00    -0.200 F 
ATOM     83  F   UNL A   1      45.006  25.391  26.577  1.00  0.00    -0.200 F 
ENDBRANCH  49  73
BRANCH  61  84
ATOM     84  C   UNL A   1      42.426  35.682  29.333  1.00  0.00     0.064 A 
ATOM     85  C   UNL A   1      41.867  36.137  28.130  1.00  0.00     0.173 A 
ATOM     86  C   UNL A   1      43.292  36.566  30.005  1.00  0.00     0.173 A 
ATOM     87  F   UNL A   1      41.056  35.345  27.412  1.00  0.00    -0.203 F 
ATOM     88  C   UNL A   1      42.141  37.414  27.638  1.00  0.00     0.198 A 
ATOM     89  C   UNL A   1      43.598  37.823  29.490  1.00  0.00     0.198 A 
ATOM     90  F   UNL A   1      43.839  36.234  31.184  1.00  0.00    -0.203 F 
ATOM     91  F   UNL A   1      41.556  37.830  26.507  1.00  0.00    -0.200 F 
ATOM     92  C   UNL A   1      43.016  38.250  28.311  1.00  0.00     0.200 A 
ATOM     93  F   UNL A   1      44.458  38.617  30.144  1.00  0.00    -0.200 F 
ATOM     94  F   UNL A   1      43.296  39.466  27.826  1.00  0.00    -0.200 F 
ENDBRANCH  61  84
ENDBRANCH  35  36
ENDBRANCH  27  30
ENDBRANCH  25  26
ENDBRANCH  24  25
ENDBRANCH   1  24
TORSDOF 15
ENDMDL
