MODEL 1
REMARK VINA RESULT:     -13.5      0.000      0.000
REMARK SMILES Cc1ccc(NC(=O)CNC(=O)C(C)(C)C)c(C(=O)NCCCCNC(=O)c2ccc(-c3c4nc(c(-c5c(F)c(F)c(F)c(F)c5F)c5ccc([nH]5)c(-c5c(F)c(F)c(F)c(F)c5F)c5nc(c(-c6c(F)c(F)c(F)c(F)c6F)c6ccc3[nH]6)C=C5)C=C4)cc2)c1
REMARK SMILES IDX 21 1 20 2 18 3 19 4 17 6 1 7 2 8 3 9 91 10 4 11 5 12 6 13
REMARK SMILES IDX 7 14 8 16 9 17 10 18 11 19 12 21 13 22 14 23 15 24 16 25
REMARK SMILES IDX 22 26 23 27 24 28 25 29 26 30 27 32 28 33 29 34 90 35 30 36
REMARK SMILES IDX 89 37 31 38 32 39 33 40 83 41 34 42 88 43 82 44 84 45 35 46
REMARK SMILES IDX 87 47 81 48 80 49 36 51 68 52 48 53 67 54 49 55 52 56 66 57
REMARK SMILES IDX 85 58 50 59 51 60 65 62 86 63 53 64 37 65 38 66 46 67 39 68
REMARK SMILES IDX 40 69 44 70 47 71 41 72 42 73 45 74 43 75 69 76 70 77 78 78
REMARK SMILES IDX 71 79 72 80 76 81 79 82 73 83 74 84 77 85 75 86 54 87 55 88
REMARK SMILES IDX 63 89 56 90 57 91 61 92 64 93 58 94 59 95 62 96 60 97
REMARK H PARENT 20 5 6 15 10 20 25 31 84 50 52 61
REMARK Flexibility Score: inf
ROOT
ATOM      1  C   UNL A   1      31.887  27.769  26.378  1.00  0.00     0.116 C 
ENDROOT
BRANCH   1   2
ATOM      2  N   UNL A   1      31.322  26.506  26.852  1.00  0.00    -0.352 N 
ATOM      3  C   UNL A   1      31.306  25.223  26.340  1.00  0.00     0.253 C 
ATOM      4  O   UNL A   1      30.737  24.344  26.987  1.00  0.00    -0.269 OA
ATOM      5  H   UNL A   1      30.857  26.587  27.716  1.00  0.00     0.163 HD
BRANCH   3   6
ATOM      6  C   UNL A   1      31.841  24.907  24.988  1.00  0.00     0.063 A 
ATOM      7  C   UNL A   1      35.031  23.458  23.529  1.00  0.00     0.044 C 
ATOM      8  C   UNL A   1      33.749  24.219  23.648  1.00  0.00    -0.050 A 
ATOM      9  C   UNL A   1      33.214  24.923  22.574  1.00  0.00     0.005 A 
ATOM     10  C   UNL A   1      33.038  24.202  24.848  1.00  0.00     0.019 A 
ATOM     11  C   UNL A   1      31.923  25.451  22.661  1.00  0.00     0.027 A 
ATOM     12  C   UNL A   1      31.171  25.315  23.821  1.00  0.00     0.054 A 
BRANCH  12  13
ATOM     13  N   UNL A   1      29.790  25.591  23.837  1.00  0.00    -0.324 N 
ATOM     14  C   UNL A   1      29.074  26.758  23.872  1.00  0.00     0.243 C 
ATOM     15  H   UNL A   1      29.227  24.783  23.817  1.00  0.00     0.170 HD
ATOM     16  O   UNL A   1      27.838  26.639  23.908  1.00  0.00    -0.273 OA
BRANCH  14  17
ATOM     17  C   UNL A   1      29.647  28.172  23.567  1.00  0.00     0.216 C 
BRANCH  17  18
ATOM     18  N   UNL A   1      29.301  28.882  22.354  1.00  0.00    -0.347 N 
ATOM     19  C   UNL A   1      28.818  30.115  22.070  1.00  0.00     0.225 C 
ATOM     20  H   UNL A   1      29.452  28.342  21.545  1.00  0.00     0.164 HD
ATOM     21  O   UNL A   1      28.593  30.306  20.866  1.00  0.00    -0.275 OA
BRANCH  19  22
ATOM     22  C   UNL A   1      28.631  31.259  23.090  1.00  0.00     0.041 C 
ATOM     23  C   UNL A   1      28.735  32.689  22.551  1.00  0.00     0.021 C 
ATOM     24  C   UNL A   1      27.279  31.059  23.786  1.00  0.00     0.021 C 
ATOM     25  C   UNL A   1      29.752  31.118  24.154  1.00  0.00     0.021 C 
ENDBRANCH  19  22
ENDBRANCH  17  18
ENDBRANCH  14  17
ENDBRANCH  12  13
ENDBRANCH   3   6
ENDBRANCH   1   2
BRANCH   1  26
ATOM     26  C   UNL A   1      32.521  28.658  27.454  1.00  0.00     0.023 C 
BRANCH  26  27
ATOM     27  C   UNL A   1      32.367  30.167  27.244  1.00  0.00     0.023 C 
BRANCH  27  28
ATOM     28  C   UNL A   1      33.644  30.906  26.854  1.00  0.00     0.116 C 
BRANCH  28  29
ATOM     29  N   UNL A   1      34.225  31.770  27.871  1.00  0.00    -0.352 N 
ATOM     30  C   UNL A   1      35.219  31.497  28.806  1.00  0.00     0.251 C 
ATOM     31  H   UNL A   1      33.862  32.685  27.903  1.00  0.00     0.163 HD
ATOM     32  O   UNL A   1      35.469  32.315  29.678  1.00  0.00    -0.269 OA
BRANCH  30  33
ATOM     33  C   UNL A   1      36.084  30.292  28.659  1.00  0.00     0.039 A 
ATOM     34  C   UNL A   1      36.359  29.541  29.812  1.00  0.00     0.014 A 
ATOM     35  C   UNL A   1      36.785  30.032  27.489  1.00  0.00     0.014 A 
ATOM     36  C   UNL A   1      37.514  28.762  29.864  1.00  0.00     0.010 A 
ATOM     37  C   UNL A   1      37.989  29.361  27.570  1.00  0.00     0.010 A 
ATOM     38  C   UNL A   1      38.391  28.800  28.785  1.00  0.00    -0.014 A 
BRANCH  38  39
ATOM     39  C   UNL A   1      39.798  28.430  28.875  1.00  0.00     0.031 A 
ATOM     40  C   UNL A   1      40.239  27.059  28.548  1.00  0.00     0.074 A 
ATOM     41  C   UNL A   1      40.705  29.404  29.121  1.00  0.00     0.049 A 
ATOM     42  N   UNL A   1      41.414  26.601  28.820  1.00  0.00    -0.248 NA
ATOM     43  C   UNL A   1      39.363  26.054  27.948  1.00  0.00     0.031 C 
ATOM     44  C   UNL A   1      42.150  29.354  28.905  1.00  0.00     0.029 A 
ATOM     45  N   UNL A   1      40.503  30.611  29.818  1.00  0.00    -0.354 N 
ATOM     46  C   UNL A   1      41.548  25.387  28.194  1.00  0.00     0.074 A 
ATOM     47  C   UNL A   1      40.214  25.034  27.784  1.00  0.00     0.031 C 
ATOM     48  C   UNL A   1      42.739  30.280  29.680  1.00  0.00     0.029 A 
ATOM     49  C   UNL A   1      41.704  30.839  30.530  1.00  0.00     0.049 A 
ATOM     50  H   UNL A   1      39.697  31.176  29.812  1.00  0.00     0.167 HD
ATOM     51  C   UNL A   1      42.802  24.897  27.993  1.00  0.00     0.037 A 
ATOM     52  C   UNL A   1      41.738  30.826  31.894  1.00  0.00     0.037 A 
ATOM     53  C   UNL A   1      43.773  25.619  28.816  1.00  0.00     0.049 A 
ATOM     54  C   UNL A   1      42.661  29.784  32.480  1.00  0.00     0.074 A 
ATOM     55  C   UNL A   1      44.750  26.559  28.542  1.00  0.00     0.029 A 
ATOM     56  N   UNL A   1      43.625  25.592  30.201  1.00  0.00    -0.354 N 
ATOM     57  N   UNL A   1      43.103  28.749  31.819  1.00  0.00    -0.248 NA
ATOM     58  C   UNL A   1      43.128  29.804  33.864  1.00  0.00     0.031 C 
ATOM     59  C   UNL A   1      45.113  27.173  29.772  1.00  0.00     0.029 A 
ATOM     60  C   UNL A   1      44.397  26.570  30.794  1.00  0.00     0.049 A 
ATOM     61  H   UNL A   1      43.050  24.962  30.690  1.00  0.00     0.167 HD
ATOM     62  C   UNL A   1      43.850  27.959  32.653  1.00  0.00     0.074 A 
ATOM     63  C   UNL A   1      43.861  28.679  33.913  1.00  0.00     0.031 C 
ATOM     64  C   UNL A   1      44.371  26.766  32.239  1.00  0.00     0.037 A 
BRANCH  51  65
ATOM     65  C   UNL A   1      43.203  23.886  26.934  1.00  0.00     0.064 A 
ATOM     66  C   UNL A   1      42.865  22.521  27.093  1.00  0.00     0.173 A 
ATOM     67  C   UNL A   1      44.028  24.153  25.820  1.00  0.00     0.173 A 
ATOM     68  F   UNL A   1      42.096  22.111  28.112  1.00  0.00    -0.203 F 
ATOM     69  C   UNL A   1      43.327  21.522  26.227  1.00  0.00     0.198 A 
ATOM     70  C   UNL A   1      44.445  23.161  24.926  1.00  0.00     0.198 A 
ATOM     71  F   UNL A   1      44.527  25.367  25.573  1.00  0.00    -0.203 F 
ATOM     72  F   UNL A   1      43.023  20.239  26.467  1.00  0.00    -0.200 F 
ATOM     73  C   UNL A   1      44.108  21.844  25.137  1.00  0.00     0.200 A 
ATOM     74  F   UNL A   1      45.208  23.498  23.874  1.00  0.00    -0.200 F 
ATOM     75  F   UNL A   1      44.551  20.891  24.305  1.00  0.00    -0.200 F 
ENDBRANCH  51  65
BRANCH  52  76
ATOM     76  C   UNL A   1      40.469  31.290  32.515  1.00  0.00     0.064 A 
ATOM     77  C   UNL A   1      40.197  32.672  32.516  1.00  0.00     0.173 A 
ATOM     78  C   UNL A   1      39.396  30.419  32.731  1.00  0.00     0.173 A 
ATOM     79  F   UNL A   1      41.191  33.550  32.309  1.00  0.00    -0.203 F 
ATOM     80  C   UNL A   1      38.893  33.154  32.606  1.00  0.00     0.198 A 
ATOM     81  C   UNL A   1      38.091  30.907  32.834  1.00  0.00     0.198 A 
ATOM     82  F   UNL A   1      39.587  29.092  32.718  1.00  0.00    -0.203 F 
ATOM     83  F   UNL A   1      38.657  34.468  32.486  1.00  0.00    -0.200 F 
ATOM     84  C   UNL A   1      37.837  32.268  32.736  1.00  0.00     0.200 A 
ATOM     85  F   UNL A   1      37.064  30.049  32.926  1.00  0.00    -0.200 F 
ATOM     86  F   UNL A   1      36.576  32.720  32.722  1.00  0.00    -0.200 F 
ENDBRANCH  52  76
BRANCH  64  87
ATOM     87  C   UNL A   1      44.960  25.701  33.138  1.00  0.00     0.064 A 
ATOM     88  C   UNL A   1      46.323  25.357  33.164  1.00  0.00     0.173 A 
ATOM     89  C   UNL A   1      44.162  25.082  34.131  1.00  0.00     0.173 A 
ATOM     90  F   UNL A   1      47.213  25.965  32.369  1.00  0.00    -0.203 F 
ATOM     91  C   UNL A   1      46.834  24.415  34.062  1.00  0.00     0.198 A 
ATOM     92  C   UNL A   1      44.688  24.190  35.065  1.00  0.00     0.198 A 
ATOM     93  F   UNL A   1      42.853  25.349  34.244  1.00  0.00    -0.203 F 
ATOM     94  F   UNL A   1      48.134  24.089  34.011  1.00  0.00    -0.200 F 
ATOM     95  C   UNL A   1      46.020  23.840  35.018  1.00  0.00     0.200 A 
ATOM     96  F   UNL A   1      43.896  23.687  36.024  1.00  0.00    -0.200 F 
ATOM     97  F   UNL A   1      46.524  22.973  35.906  1.00  0.00    -0.200 F 
ENDBRANCH  64  87
ENDBRANCH  38  39
ENDBRANCH  30  33
ENDBRANCH  28  29
ENDBRANCH  27  28
ENDBRANCH  26  27
ENDBRANCH   1  26
TORSDOF 15
ENDMDL
MODEL 2
REMARK VINA RESULT:     -13.5      1.699      3.735
REMARK SMILES Cc1ccc(NC(=O)CNC(=O)C(C)(C)C)c(C(=O)NCCCCNC(=O)c2ccc(-c3c4nc(c(-c5c(F)c(F)c(F)c(F)c5F)c5ccc([nH]5)c(-c5c(F)c(F)c(F)c(F)c5F)c5nc(c(-c6c(F)c(F)c(F)c(F)c6F)c6ccc3[nH]6)C=C5)C=C4)cc2)c1
REMARK SMILES IDX 21 1 20 2 18 3 19 4 17 6 1 7 2 8 3 9 91 10 4 11 5 12 6 13
REMARK SMILES IDX 7 14 8 16 9 17 10 18 11 19 12 21 13 22 14 23 15 24 16 25
REMARK SMILES IDX 22 26 23 27 24 28 25 29 26 30 27 32 28 33 29 34 90 35 30 36
REMARK SMILES IDX 89 37 31 38 32 39 33 40 83 41 34 42 88 43 82 44 84 45 35 46
REMARK SMILES IDX 87 47 81 48 80 49 36 51 68 52 48 53 67 54 49 55 52 56 66 57
REMARK SMILES IDX 85 58 50 59 51 60 65 62 86 63 53 64 37 65 38 66 46 67 39 68
REMARK SMILES IDX 40 69 44 70 47 71 41 72 42 73 45 74 43 75 69 76 70 77 78 78
REMARK SMILES IDX 71 79 72 80 76 81 79 82 73 83 74 84 77 85 75 86 54 87 55 88
REMARK SMILES IDX 63 89 56 90 57 91 61 92 64 93 58 94 59 95 62 96 60 97
REMARK H PARENT 20 5 6 15 10 20 25 31 84 50 52 61
REMARK Flexibility Score: inf
ROOT
ATOM      1  C   UNL A   1      33.303  28.815  25.785  1.00  0.00     0.116 C 
ENDROOT
BRANCH   1   2
ATOM      2  N   UNL A   1      33.865  28.828  24.434  1.00  0.00    -0.352 N 
ATOM      3  C   UNL A   1      33.339  28.554  23.186  1.00  0.00     0.253 C 
ATOM      4  O   UNL A   1      34.079  28.657  22.207  1.00  0.00    -0.269 OA
ATOM      5  H   UNL A   1      34.814  29.086  24.410  1.00  0.00     0.163 HD
BRANCH   3   6
ATOM      6  C   UNL A   1      31.959  28.025  23.010  1.00  0.00     0.063 A 
ATOM      7  C   UNL A   1      28.426  29.411  23.042  1.00  0.00     0.044 C 
ATOM      8  C   UNL A   1      29.570  28.451  23.138  1.00  0.00    -0.050 A 
ATOM      9  C   UNL A   1      29.371  27.099  23.400  1.00  0.00     0.005 A 
ATOM     10  C   UNL A   1      30.874  28.899  22.922  1.00  0.00     0.019 A 
ATOM     11  C   UNL A   1      30.435  26.203  23.282  1.00  0.00     0.027 A 
ATOM     12  C   UNL A   1      31.708  26.643  22.940  1.00  0.00     0.054 A 
BRANCH  12  13
ATOM     13  N   UNL A   1      32.717  25.742  22.551  1.00  0.00    -0.324 N 
ATOM     14  C   UNL A   1      33.726  25.120  23.238  1.00  0.00     0.243 C 
ATOM     15  H   UNL A   1      32.692  25.512  21.594  1.00  0.00     0.170 HD
ATOM     16  O   UNL A   1      34.475  24.392  22.567  1.00  0.00    -0.273 OA
BRANCH  14  17
ATOM     17  C   UNL A   1      33.818  25.007  24.787  1.00  0.00     0.216 C 
BRANCH  17  18
ATOM     18  N   UNL A   1      32.735  25.441  25.643  1.00  0.00    -0.347 N 
ATOM     19  C   UNL A   1      31.717  24.823  26.290  1.00  0.00     0.225 C 
ATOM     20  H   UNL A   1      32.737  26.414  25.791  1.00  0.00     0.164 HD
ATOM     21  O   UNL A   1      30.948  25.596  26.880  1.00  0.00    -0.275 OA
BRANCH  19  22
ATOM     22  C   UNL A   1      31.526  23.295  26.401  1.00  0.00     0.041 C 
ATOM     23  C   UNL A   1      31.621  22.491  25.101  1.00  0.00     0.021 C 
ATOM     24  C   UNL A   1      32.540  22.761  27.421  1.00  0.00     0.021 C 
ATOM     25  C   UNL A   1      30.099  23.045  26.958  1.00  0.00     0.021 C 
ENDBRANCH  19  22
ENDBRANCH  17  18
ENDBRANCH  14  17
ENDBRANCH  12  13
ENDBRANCH   3   6
ENDBRANCH   1   2
BRANCH   1  26
ATOM     26  C   UNL A   1      32.486  30.051  26.176  1.00  0.00     0.023 C 
BRANCH  26  27
ATOM     27  C   UNL A   1      33.122  30.961  27.231  1.00  0.00     0.023 C 
BRANCH  27  28
ATOM     28  C   UNL A   1      34.635  30.828  27.382  1.00  0.00     0.116 C 
BRANCH  28  29
ATOM     29  N   UNL A   1      35.239  31.555  28.489  1.00  0.00    -0.352 N 
ATOM     30  C   UNL A   1      36.211  31.144  29.395  1.00  0.00     0.251 C 
ATOM     31  H   UNL A   1      34.912  32.475  28.616  1.00  0.00     0.163 HD
ATOM     32  O   UNL A   1      36.484  31.853  30.351  1.00  0.00    -0.269 OA
BRANCH  30  33
ATOM     33  C   UNL A   1      37.030  29.927  29.126  1.00  0.00     0.039 A 
ATOM     34  C   UNL A   1      37.185  29.000  30.168  1.00  0.00     0.014 A 
ATOM     35  C   UNL A   1      37.804  29.805  27.979  1.00  0.00     0.014 A 
ATOM     36  C   UNL A   1      38.295  28.158  30.179  1.00  0.00     0.010 A 
ATOM     37  C   UNL A   1      38.966  29.063  28.038  1.00  0.00     0.010 A 
ATOM     38  C   UNL A   1      39.251  28.306  29.179  1.00  0.00    -0.014 A 
BRANCH  38  39
ATOM     39  C   UNL A   1      40.630  27.850  29.306  1.00  0.00     0.031 A 
ATOM     40  C   UNL A   1      41.023  26.503  28.844  1.00  0.00     0.074 A 
ATOM     41  C   UNL A   1      41.566  28.737  29.717  1.00  0.00     0.049 A 
ATOM     42  N   UNL A   1      42.153  25.951  29.128  1.00  0.00    -0.248 NA
ATOM     43  C   UNL A   1      40.138  25.625  28.080  1.00  0.00     0.031 C 
ATOM     44  C   UNL A   1      43.018  28.630  29.581  1.00  0.00     0.029 A 
ATOM     45  N   UNL A   1      41.380  29.864  30.539  1.00  0.00    -0.354 N 
ATOM     46  C   UNL A   1      42.267  24.811  28.371  1.00  0.00     0.074 A 
ATOM     47  C   UNL A   1      40.946  24.584  27.845  1.00  0.00     0.031 C 
ATOM     48  C   UNL A   1      43.601  29.426  30.492  1.00  0.00     0.029 A 
ATOM     49  C   UNL A   1      42.543  29.941  31.342  1.00  0.00     0.049 A 
ATOM     50  H   UNL A   1      40.605  30.471  30.553  1.00  0.00     0.167 HD
ATOM     51  C   UNL A   1      43.506  24.277  28.186  1.00  0.00     0.037 A 
ATOM     52  C   UNL A   1      42.489  29.768  32.694  1.00  0.00     0.037 A 
ATOM     53  C   UNL A   1      44.457  24.844  29.143  1.00  0.00     0.049 A 
ATOM     54  C   UNL A   1      43.320  28.615  33.204  1.00  0.00     0.074 A 
ATOM     55  C   UNL A   1      45.494  25.752  29.040  1.00  0.00     0.029 A 
ATOM     56  N   UNL A   1      44.219  24.666  30.504  1.00  0.00    -0.354 N 
ATOM     57  N   UNL A   1      43.752  27.640  32.452  1.00  0.00    -0.248 NA
ATOM     58  C   UNL A   1      43.698  28.450  34.606  1.00  0.00     0.031 C 
ATOM     59  C   UNL A   1      45.808  26.199  30.353  1.00  0.00     0.029 A 
ATOM     60  C   UNL A   1      44.999  25.524  31.253  1.00  0.00     0.049 A 
ATOM     61  H   UNL A   1      43.583  24.017  30.882  1.00  0.00     0.167 HD
ATOM     62  C   UNL A   1      44.403  26.718  33.228  1.00  0.00     0.074 A 
ATOM     63  C   UNL A   1      44.370  27.286  34.564  1.00  0.00     0.031 C 
ATOM     64  C   UNL A   1      44.890  25.553  32.707  1.00  0.00     0.037 A 
BRANCH  51  65
ATOM     65  C   UNL A   1      43.923  23.374  27.040  1.00  0.00     0.064 A 
ATOM     66  C   UNL A   1      44.740  23.879  26.002  1.00  0.00     0.173 A 
ATOM     67  C   UNL A   1      43.453  22.060  26.821  1.00  0.00     0.173 A 
ATOM     68  F   UNL A   1      45.252  25.117  26.062  1.00  0.00    -0.203 F 
ATOM     69  C   UNL A   1      45.041  23.142  24.849  1.00  0.00     0.198 A 
ATOM     70  C   UNL A   1      43.798  21.307  25.694  1.00  0.00     0.198 A 
ATOM     71  F   UNL A   1      42.590  21.462  27.646  1.00  0.00    -0.203 F 
ATOM     72  F   UNL A   1      45.770  23.700  23.873  1.00  0.00    -0.200 F 
ATOM     73  C   UNL A   1      44.578  21.851  24.701  1.00  0.00     0.200 A 
ATOM     74  F   UNL A   1      43.332  20.054  25.570  1.00  0.00    -0.200 F 
ATOM     75  F   UNL A   1      44.865  21.143  23.600  1.00  0.00    -0.200 F 
ENDBRANCH  51  65
BRANCH  52  76
ATOM     76  C   UNL A   1      41.207  30.229  33.291  1.00  0.00     0.064 A 
ATOM     77  C   UNL A   1      41.011  31.614  33.454  1.00  0.00     0.173 A 
ATOM     78  C   UNL A   1      40.076  29.406  33.327  1.00  0.00     0.173 A 
ATOM     79  F   UNL A   1      42.063  32.448  33.423  1.00  0.00    -0.203 F 
ATOM     80  C   UNL A   1      39.731  32.161  33.526  1.00  0.00     0.198 A 
ATOM     81  C   UNL A   1      38.796  29.957  33.412  1.00  0.00     0.198 A 
ATOM     82  F   UNL A   1      40.196  28.082  33.154  1.00  0.00    -0.203 F 
ATOM     83  F   UNL A   1      39.576  33.492  33.562  1.00  0.00    -0.200 F 
ATOM     84  C   UNL A   1      38.623  31.333  33.475  1.00  0.00     0.200 A 
ATOM     85  F   UNL A   1      37.720  29.160  33.329  1.00  0.00    -0.200 F 
ATOM     86  F   UNL A   1      37.392  31.861  33.443  1.00  0.00    -0.200 F 
ENDBRANCH  52  76
BRANCH  64  87
ATOM     87  C   UNL A   1      45.367  24.360  33.506  1.00  0.00     0.064 A 
ATOM     88  C   UNL A   1      44.596  23.207  33.738  1.00  0.00     0.173 A 
ATOM     89  C   UNL A   1      46.710  24.287  33.949  1.00  0.00     0.173 A 
ATOM     90  F   UNL A   1      43.352  23.090  33.256  1.00  0.00    -0.203 F 
ATOM     91  C   UNL A   1      45.104  22.100  34.425  1.00  0.00     0.198 A 
ATOM     92  C   UNL A   1      47.231  23.156  34.578  1.00  0.00     0.198 A 
ATOM     93  F   UNL A   1      47.566  25.301  33.758  1.00  0.00    -0.203 F 
ATOM     94  F   UNL A   1      44.310  21.046  34.660  1.00  0.00    -0.200 F 
ATOM     95  C   UNL A   1      46.423  22.070  34.834  1.00  0.00     0.200 A 
ATOM     96  F   UNL A   1      48.529  23.120  34.915  1.00  0.00    -0.200 F 
ATOM     97  F   UNL A   1      46.918  20.988  35.449  1.00  0.00    -0.200 F 
ENDBRANCH  64  87
ENDBRANCH  38  39
ENDBRANCH  30  33
ENDBRANCH  28  29
ENDBRANCH  27  28
ENDBRANCH  26  27
ENDBRANCH   1  26
TORSDOF 15
ENDMDL
MODEL 3
REMARK VINA RESULT:     -13.4      1.747      3.871
REMARK SMILES Cc1ccc(NC(=O)CNC(=O)C(C)(C)C)c(C(=O)NCCCCNC(=O)c2ccc(-c3c4nc(c(-c5c(F)c(F)c(F)c(F)c5F)c5ccc([nH]5)c(-c5c(F)c(F)c(F)c(F)c5F)c5nc(c(-c6c(F)c(F)c(F)c(F)c6F)c6ccc3[nH]6)C=C5)C=C4)cc2)c1
REMARK SMILES IDX 21 1 20 2 18 3 19 4 17 6 1 7 2 8 3 9 91 10 4 11 5 12 6 13
REMARK SMILES IDX 7 14 8 16 9 17 10 18 11 19 12 21 13 22 14 23 15 24 16 25
REMARK SMILES IDX 22 26 23 27 24 28 25 29 26 30 27 32 28 33 29 34 90 35 30 36
REMARK SMILES IDX 89 37 31 38 32 39 33 40 83 41 34 42 88 43 82 44 84 45 35 46
REMARK SMILES IDX 87 47 81 48 80 49 36 51 68 52 48 53 67 54 49 55 52 56 66 57
REMARK SMILES IDX 85 58 50 59 51 60 65 62 86 63 53 64 37 65 38 66 46 67 39 68
REMARK SMILES IDX 40 69 44 70 47 71 41 72 42 73 45 74 43 75 69 76 70 77 78 78
REMARK SMILES IDX 71 79 72 80 76 81 79 82 73 83 74 84 77 85 75 86 54 87 55 88
REMARK SMILES IDX 63 89 56 90 57 91 61 92 64 93 58 94 59 95 62 96 60 97
REMARK H PARENT 20 5 6 15 10 20 25 31 84 50 52 61
REMARK Flexibility Score: inf
ROOT
ATOM      1  C   UNL A   1      32.690  29.071  25.895  1.00  0.00     0.116 C 
ENDROOT
BRANCH   1   2
ATOM      2  N   UNL A   1      33.261  29.139  24.550  1.00  0.00    -0.352 N 
ATOM      3  C   UNL A   1      32.793  28.776  23.302  1.00  0.00     0.253 C 
ATOM      4  O   UNL A   1      33.524  28.963  22.328  1.00  0.00    -0.269 OA
ATOM      5  H   UNL A   1      34.167  29.524  24.530  1.00  0.00     0.163 HD
BRANCH   3   6
ATOM      6  C   UNL A   1      31.502  28.060  23.122  1.00  0.00     0.063 A 
ATOM      7  C   UNL A   1      27.811  28.945  23.111  1.00  0.00     0.044 C 
ATOM      8  C   UNL A   1      29.076  28.153  23.226  1.00  0.00    -0.050 A 
ATOM      9  C   UNL A   1      29.062  26.789  23.502  1.00  0.00     0.005 A 
ATOM     10  C   UNL A   1      30.306  28.774  23.016  1.00  0.00     0.019 A 
ATOM     11  C   UNL A   1      30.241  26.047  23.403  1.00  0.00     0.027 A 
ATOM     12  C   UNL A   1      31.443  26.655  23.065  1.00  0.00     0.054 A 
BRANCH  12  13
ATOM     13  N   UNL A   1      32.570  25.898  22.694  1.00  0.00    -0.324 N 
ATOM     14  C   UNL A   1      33.516  25.219  23.417  1.00  0.00     0.243 C 
ATOM     15  H   UNL A   1      32.706  25.845  21.720  1.00  0.00     0.170 HD
ATOM     16  O   UNL A   1      34.414  24.668  22.759  1.00  0.00    -0.273 OA
BRANCH  14  17
ATOM     17  C   UNL A   1      33.388  24.830  24.918  1.00  0.00     0.216 C 
BRANCH  17  18
ATOM     18  N   UNL A   1      34.109  23.704  25.471  1.00  0.00    -0.347 N 
ATOM     19  C   UNL A   1      33.881  22.372  25.566  1.00  0.00     0.225 C 
ATOM     20  H   UNL A   1      34.968  23.968  25.874  1.00  0.00     0.164 HD
ATOM     21  O   UNL A   1      34.751  21.753  26.196  1.00  0.00    -0.275 OA
BRANCH  19  22
ATOM     22  C   UNL A   1      32.715  21.615  24.894  1.00  0.00     0.041 C 
ATOM     23  C   UNL A   1      32.599  21.738  23.372  1.00  0.00     0.021 C 
ATOM     24  C   UNL A   1      32.812  20.138  25.294  1.00  0.00     0.021 C 
ATOM     25  C   UNL A   1      31.395  22.191  25.473  1.00  0.00     0.021 C 
ENDBRANCH  19  22
ENDBRANCH  17  18
ENDBRANCH  14  17
ENDBRANCH  12  13
ENDBRANCH   3   6
ENDBRANCH   1   2
BRANCH   1  26
ATOM     26  C   UNL A   1      31.945  30.325  26.364  1.00  0.00     0.023 C 
BRANCH  26  27
ATOM     27  C   UNL A   1      32.747  31.281  27.251  1.00  0.00     0.023 C 
BRANCH  27  28
ATOM     28  C   UNL A   1      34.123  30.778  27.677  1.00  0.00     0.116 C 
BRANCH  28  29
ATOM     29  N   UNL A   1      34.866  31.631  28.594  1.00  0.00    -0.352 N 
ATOM     30  C   UNL A   1      35.972  31.333  29.384  1.00  0.00     0.251 C 
ATOM     31  H   UNL A   1      34.539  32.556  28.666  1.00  0.00     0.163 HD
ATOM     32  O   UNL A   1      36.366  32.148  30.204  1.00  0.00    -0.269 OA
BRANCH  30  33
ATOM     33  C   UNL A   1      36.772  30.100  29.131  1.00  0.00     0.039 A 
ATOM     34  C   UNL A   1      36.960  29.212  30.200  1.00  0.00     0.014 A 
ATOM     35  C   UNL A   1      37.502  29.928  27.961  1.00  0.00     0.014 A 
ATOM     36  C   UNL A   1      38.065  28.363  30.202  1.00  0.00     0.010 A 
ATOM     37  C   UNL A   1      38.661  29.180  28.005  1.00  0.00     0.010 A 
ATOM     38  C   UNL A   1      38.984  28.466  29.162  1.00  0.00    -0.014 A 
BRANCH  38  39
ATOM     39  C   UNL A   1      40.363  28.004  29.255  1.00  0.00     0.031 A 
ATOM     40  C   UNL A   1      40.738  26.654  28.787  1.00  0.00     0.074 A 
ATOM     41  C   UNL A   1      41.314  28.887  29.639  1.00  0.00     0.049 A 
ATOM     42  N   UNL A   1      41.874  26.098  29.043  1.00  0.00    -0.248 NA
ATOM     43  C   UNL A   1      39.831  25.777  28.048  1.00  0.00     0.031 C 
ATOM     44  C   UNL A   1      42.761  28.774  29.466  1.00  0.00     0.029 A 
ATOM     45  N   UNL A   1      41.153  30.018  30.463  1.00  0.00    -0.354 N 
ATOM     46  C   UNL A   1      41.963  24.956  28.287  1.00  0.00     0.074 A 
ATOM     47  C   UNL A   1      40.628  24.733  27.795  1.00  0.00     0.031 C 
ATOM     48  C   UNL A   1      43.370  29.570  30.360  1.00  0.00     0.029 A 
ATOM     49  C   UNL A   1      42.337  30.091  31.235  1.00  0.00     0.049 A 
ATOM     50  H   UNL A   1      40.381  30.628  30.496  1.00  0.00     0.167 HD
ATOM     51  C   UNL A   1      43.194  24.416  28.072  1.00  0.00     0.037 A 
ATOM     52  C   UNL A   1      42.316  29.923  32.589  1.00  0.00     0.037 A 
ATOM     53  C   UNL A   1      44.172  24.981  29.002  1.00  0.00     0.049 A 
ATOM     54  C   UNL A   1      43.156  28.767  33.081  1.00  0.00     0.074 A 
ATOM     55  C   UNL A   1      45.210  25.885  28.870  1.00  0.00     0.029 A 
ATOM     56  N   UNL A   1      43.969  24.808  30.369  1.00  0.00    -0.354 N 
ATOM     57  N   UNL A   1      43.564  27.789  32.321  1.00  0.00    -0.248 NA
ATOM     58  C   UNL A   1      43.569  28.604  34.473  1.00  0.00     0.031 C 
ATOM     59  C   UNL A   1      45.560  26.333  30.173  1.00  0.00     0.029 A 
ATOM     60  C   UNL A   1      44.771  25.664  31.096  1.00  0.00     0.049 A 
ATOM     61  H   UNL A   1      43.340  24.162  30.765  1.00  0.00     0.167 HD
ATOM     62  C   UNL A   1      44.232  26.866  33.082  1.00  0.00     0.074 A 
ATOM     63  C   UNL A   1      44.235  27.437  34.416  1.00  0.00     0.031 C 
ATOM     64  C   UNL A   1      44.700  25.698  32.552  1.00  0.00     0.037 A 
BRANCH  51  65
ATOM     65  C   UNL A   1      43.578  23.508  26.917  1.00  0.00     0.064 A 
ATOM     66  C   UNL A   1      43.158  22.158  26.908  1.00  0.00     0.173 A 
ATOM     67  C   UNL A   1      44.461  23.848  25.868  1.00  0.00     0.173 A 
ATOM     68  F   UNL A   1      42.327  21.683  27.848  1.00  0.00    -0.203 F 
ATOM     69  C   UNL A   1      43.595  21.236  25.948  1.00  0.00     0.198 A 
ATOM     70  C   UNL A   1      44.855  22.939  24.881  1.00  0.00     0.198 A 
ATOM     71  F   UNL A   1      45.037  25.050  25.778  1.00  0.00    -0.203 F 
ATOM     72  F   UNL A   1      43.210  19.955  26.030  1.00  0.00    -0.200 F 
ATOM     73  C   UNL A   1      44.436  21.630  24.928  1.00  0.00     0.200 A 
ATOM     74  F   UNL A   1      45.676  23.345  23.900  1.00  0.00    -0.200 F 
ATOM     75  F   UNL A   1      44.856  20.751  24.008  1.00  0.00    -0.200 F 
ENDBRANCH  51  65
BRANCH  52  76
ATOM     76  C   UNL A   1      41.052  30.390  33.218  1.00  0.00     0.064 A 
ATOM     77  C   UNL A   1      40.854  31.777  33.355  1.00  0.00     0.173 A 
ATOM     78  C   UNL A   1      39.928  29.563  33.310  1.00  0.00     0.173 A 
ATOM     79  F   UNL A   1      41.899  32.616  33.270  1.00  0.00    -0.203 F 
ATOM     80  C   UNL A   1      39.574  32.320  33.457  1.00  0.00     0.198 A 
ATOM     81  C   UNL A   1      38.648  30.109  33.425  1.00  0.00     0.198 A 
ATOM     82  F   UNL A   1      40.050  28.236  33.164  1.00  0.00    -0.203 F 
ATOM     83  F   UNL A   1      39.411  33.650  33.468  1.00  0.00    -0.200 F 
ATOM     84  C   UNL A   1      38.470  31.485  33.462  1.00  0.00     0.200 A 
ATOM     85  F   UNL A   1      37.575  29.304  33.396  1.00  0.00    -0.200 F 
ATOM     86  F   UNL A   1      37.235  32.005  33.459  1.00  0.00    -0.200 F 
ENDBRANCH  52  76
BRANCH  64  87
ATOM     87  C   UNL A   1      45.192  24.505  33.342  1.00  0.00     0.064 A 
ATOM     88  C   UNL A   1      44.426  23.352  33.590  1.00  0.00     0.173 A 
ATOM     89  C   UNL A   1      46.544  24.431  33.758  1.00  0.00     0.173 A 
ATOM     90  F   UNL A   1      43.173  23.235  33.132  1.00  0.00    -0.203 F 
ATOM     91  C   UNL A   1      44.947  22.245  34.266  1.00  0.00     0.198 A 
ATOM     92  C   UNL A   1      47.077  23.300  34.376  1.00  0.00     0.198 A 
ATOM     93  F   UNL A   1      47.396  25.445  33.549  1.00  0.00    -0.203 F 
ATOM     94  F   UNL A   1      44.157  21.191  34.517  1.00  0.00    -0.200 F 
ATOM     95  C   UNL A   1      46.273  22.215  34.649  1.00  0.00     0.200 A 
ATOM     96  F   UNL A   1      48.381  23.264  34.688  1.00  0.00    -0.200 F 
ATOM     97  F   UNL A   1      46.780  21.132  35.254  1.00  0.00    -0.200 F 
ENDBRANCH  64  87
ENDBRANCH  38  39
ENDBRANCH  30  33
ENDBRANCH  28  29
ENDBRANCH  27  28
ENDBRANCH  26  27
ENDBRANCH   1  26
TORSDOF 15
ENDMDL
