MODEL 1
REMARK VINA RESULT:     -12.6      0.000      0.000
REMARK SMILES C[C@@H]1[C@@H](C(=O)NCCCCNC(=O)c2ccc(-c3c4nc(c(-c5c(F)c(F)c(F)c(F)c5F)c5ccc([nH]5)c(-c5c(F)c(F)c(F)c(F)c5F)c5nc(c(-c6c(F)c(F)c(F)c(F)c6F)c6ccc3[nH]6)C=C5)C=C4)cc2)CCN1C(=O)[C@@H]1CCCN(C(N)=O)C1
REMARK SMILES IDX 8 1 7 2 6 3 4 4 5 5 3 7 1 8 2 9 79 10 77 11 78 12 80 13
REMARK SMILES IDX 81 14 82 15 83 16 90 17 84 18 86 19 85 20 87 21 88 22 89 23
REMARK SMILES IDX 9 26 10 27 11 28 12 29 13 31 14 32 15 33 76 34 16 35 75 36
REMARK SMILES IDX 17 37 18 38 19 39 69 40 20 41 74 42 68 43 70 44 21 45 73 46
REMARK SMILES IDX 67 47 66 48 22 50 54 51 34 52 53 53 35 54 38 55 52 56 71 57
REMARK SMILES IDX 36 58 37 59 51 61 72 62 39 63 23 64 24 65 32 66 25 67 26 68
REMARK SMILES IDX 30 69 33 70 27 71 28 72 31 73 29 74 55 75 56 76 64 77 57 78
REMARK SMILES IDX 58 79 62 80 65 81 59 82 60 83 63 84 61 85 40 86 41 87 49 88
REMARK SMILES IDX 42 89 43 90 47 91 50 92 44 93 45 94 48 95 46 96
REMARK H PARENT 6 6 88 24 88 25 11 30 70 49 38 60
REMARK Flexibility Score: inf
ROOT
ATOM      1  C   UNL A   1      31.624  30.634  26.468  1.00  0.00     0.023 C 
ENDROOT
BRANCH   1   2
ATOM      2  C   UNL A   1      33.022  30.087  26.725  1.00  0.00     0.116 C 
BRANCH   2   3
ATOM      3  N   UNL A   1      33.735  29.762  25.504  1.00  0.00    -0.356 N 
ATOM      4  C   UNL A   1      33.732  28.591  24.800  1.00  0.00     0.225 C 
ATOM      5  O   UNL A   1      34.244  28.588  23.684  1.00  0.00    -0.275 OA
ATOM      6  H   UNL A   1      34.296  30.481  25.133  1.00  0.00     0.163 HD
BRANCH   4   7
ATOM      7  C   UNL A   1      33.061  27.377  25.423  1.00  0.00     0.102 C 
ATOM      8  C   UNL A   1      33.363  24.996  26.110  1.00  0.00     0.032 C 
ATOM      9  C   UNL A   1      33.700  26.029  25.021  1.00  0.00     0.094 C 
ATOM     10  N   UNL A   1      33.054  25.693  23.746  1.00  0.00    -0.339 N 
ATOM     11  C   UNL A   1      31.637  27.232  24.884  1.00  0.00     0.037 C 
ATOM     12  C   UNL A   1      31.843  26.484  23.577  1.00  0.00     0.120 C 
BRANCH  10  13
ATOM     13  C   UNL A   1      33.478  24.949  22.670  1.00  0.00     0.227 C 
ATOM     14  O   UNL A   1      33.809  25.549  21.633  1.00  0.00    -0.275 OA
BRANCH  13  15
ATOM     15  C   UNL A   1      33.627  23.420  22.646  1.00  0.00     0.098 C 
ATOM     16  C   UNL A   1      32.485  22.546  23.155  1.00  0.00     0.017 C 
ATOM     17  C   UNL A   1      35.008  22.927  23.057  1.00  0.00     0.134 C 
ATOM     18  C   UNL A   1      32.674  21.944  24.546  1.00  0.00     0.022 C 
ATOM     19  N   UNL A   1      35.084  22.548  24.462  1.00  0.00    -0.324 N 
ATOM     20  C   UNL A   1      34.104  21.563  24.902  1.00  0.00     0.121 C 
BRANCH  19  21
ATOM     21  C   UNL A   1      36.142  22.837  25.296  1.00  0.00     0.314 C 
ATOM     22  N   UNL A   1      36.487  21.882  26.187  1.00  0.00    -0.351 N 
ATOM     23  O   UNL A   1      36.770  23.891  25.277  1.00  0.00    -0.249 OA
ATOM     24  H   UNL A   1      35.993  21.031  26.213  1.00  0.00     0.161 HD
ATOM     25  H   UNL A   1      37.234  22.037  26.810  1.00  0.00     0.161 HD
ENDBRANCH  19  21
ENDBRANCH  13  15
ENDBRANCH  10  13
ENDBRANCH   4   7
ENDBRANCH   2   3
ENDBRANCH   1   2
BRANCH   1  26
ATOM     26  C   UNL A   1      31.444  32.126  26.739  1.00  0.00     0.023 C 
BRANCH  26  27
ATOM     27  C   UNL A   1      32.658  32.839  27.321  1.00  0.00     0.116 C 
BRANCH  27  28
ATOM     28  N   UNL A   1      32.398  34.232  27.650  1.00  0.00    -0.352 N 
ATOM     29  C   UNL A   1      33.009  35.034  28.582  1.00  0.00     0.251 C 
ATOM     30  H   UNL A   1      31.682  34.662  27.130  1.00  0.00     0.163 HD
ATOM     31  O   UNL A   1      32.579  36.161  28.808  1.00  0.00    -0.269 OA
BRANCH  29  32
ATOM     32  C   UNL A   1      34.165  34.518  29.339  1.00  0.00     0.039 A 
ATOM     33  C   UNL A   1      33.942  33.910  30.576  1.00  0.00     0.014 A 
ATOM     34  C   UNL A   1      35.457  34.604  28.813  1.00  0.00     0.014 A 
ATOM     35  C   UNL A   1      35.011  33.330  31.259  1.00  0.00     0.010 A 
ATOM     36  C   UNL A   1      36.503  33.948  29.451  1.00  0.00     0.010 A 
ATOM     37  C   UNL A   1      36.292  33.313  30.685  1.00  0.00    -0.014 A 
BRANCH  37  38
ATOM     38  C   UNL A   1      37.433  32.658  31.370  1.00  0.00     0.031 A 
ATOM     39  C   UNL A   1      38.153  31.521  30.701  1.00  0.00     0.074 A 
ATOM     40  C   UNL A   1      37.783  33.045  32.613  1.00  0.00     0.049 A 
ATOM     41  N   UNL A   1      39.126  30.773  31.155  1.00  0.00    -0.248 NA
ATOM     42  C   UNL A   1      37.695  31.153  29.352  1.00  0.00     0.031 C 
ATOM     43  C   UNL A   1      37.130  34.105  33.383  1.00  0.00     0.029 A 
ATOM     44  N   UNL A   1      38.769  32.586  33.448  1.00  0.00    -0.354 N 
ATOM     45  C   UNL A   1      39.382  29.841  30.158  1.00  0.00     0.074 A 
ATOM     46  C   UNL A   1      38.421  30.075  29.102  1.00  0.00     0.031 C 
ATOM     47  C   UNL A   1      37.750  34.233  34.567  1.00  0.00     0.029 A 
ATOM     48  C   UNL A   1      38.818  33.241  34.655  1.00  0.00     0.049 A 
ATOM     49  H   UNL A   1      39.384  31.857  33.206  1.00  0.00     0.167 HD
ATOM     50  C   UNL A   1      40.348  28.894  30.114  1.00  0.00     0.037 A 
ATOM     51  C   UNL A   1      39.632  33.058  35.712  1.00  0.00     0.037 A 
ATOM     52  C   UNL A   1      41.318  28.683  31.156  1.00  0.00     0.049 A 
ATOM     53  C   UNL A   1      40.698  31.997  35.639  1.00  0.00     0.074 A 
ATOM     54  C   UNL A   1      42.371  27.786  31.189  1.00  0.00     0.029 A 
ATOM     55  N   UNL A   1      41.350  29.382  32.355  1.00  0.00    -0.354 N 
ATOM     56  N   UNL A   1      40.973  31.165  34.663  1.00  0.00    -0.248 NA
ATOM     57  C   UNL A   1      41.573  31.858  36.810  1.00  0.00     0.031 C 
ATOM     58  C   UNL A   1      43.012  27.910  32.425  1.00  0.00     0.029 A 
ATOM     59  C   UNL A   1      42.395  28.924  33.140  1.00  0.00     0.049 A 
ATOM     60  H   UNL A   1      40.723  30.098  32.608  1.00  0.00     0.167 HD
ATOM     61  C   UNL A   1      42.072  30.429  35.087  1.00  0.00     0.074 A 
ATOM     62  C   UNL A   1      42.419  30.922  36.404  1.00  0.00     0.031 C 
ATOM     63  C   UNL A   1      42.735  29.438  34.443  1.00  0.00     0.037 A 
BRANCH  50  64
ATOM     64  C   UNL A   1      40.402  28.017  28.895  1.00  0.00     0.064 A 
ATOM     65  C   UNL A   1      39.707  26.799  28.834  1.00  0.00     0.173 A 
ATOM     66  C   UNL A   1      41.142  28.405  27.770  1.00  0.00     0.173 A 
ATOM     67  F   UNL A   1      38.995  26.372  29.888  1.00  0.00    -0.203 F 
ATOM     68  C   UNL A   1      39.782  25.986  27.705  1.00  0.00     0.198 A 
ATOM     69  C   UNL A   1      41.186  27.607  26.630  1.00  0.00     0.198 A 
ATOM     70  F   UNL A   1      41.822  29.562  27.773  1.00  0.00    -0.203 F 
ATOM     71  F   UNL A   1      39.159  24.799  27.693  1.00  0.00    -0.200 F 
ATOM     72  C   UNL A   1      40.516  26.394  26.602  1.00  0.00     0.200 A 
ATOM     73  F   UNL A   1      41.885  28.010  25.558  1.00  0.00    -0.200 F 
ATOM     74  F   UNL A   1      40.584  25.613  25.514  1.00  0.00    -0.200 F 
ENDBRANCH  50  64
BRANCH  51  75
ATOM     75  C   UNL A   1      39.496  33.921  36.914  1.00  0.00     0.064 A 
ATOM     76  C   UNL A   1      38.758  33.493  38.026  1.00  0.00     0.173 A 
ATOM     77  C   UNL A   1      40.094  35.188  36.977  1.00  0.00     0.173 A 
ATOM     78  F   UNL A   1      38.152  32.297  38.007  1.00  0.00    -0.203 F 
ATOM     79  C   UNL A   1      38.604  34.307  39.146  1.00  0.00     0.198 A 
ATOM     80  C   UNL A   1      39.964  35.990  38.109  1.00  0.00     0.198 A 
ATOM     81  F   UNL A   1      40.816  35.642  35.942  1.00  0.00    -0.203 F 
ATOM     82  F   UNL A   1      37.854  33.892  40.176  1.00  0.00    -0.200 F 
ATOM     83  C   UNL A   1      39.212  35.553  39.189  1.00  0.00     0.200 A 
ATOM     84  F   UNL A   1      40.565  37.186  38.152  1.00  0.00    -0.200 F 
ATOM     85  F   UNL A   1      39.068  36.335  40.268  1.00  0.00    -0.200 F 
ENDBRANCH  51  75
BRANCH  63  86
ATOM     86  C   UNL A   1      43.936  28.854  35.130  1.00  0.00     0.064 A 
ATOM     87  C   UNL A   1      45.225  29.369  34.935  1.00  0.00     0.173 A 
ATOM     88  C   UNL A   1      43.783  27.786  36.028  1.00  0.00     0.173 A 
ATOM     89  F   UNL A   1      45.425  30.381  34.076  1.00  0.00    -0.203 F 
ATOM     90  C   UNL A   1      46.322  28.820  35.594  1.00  0.00     0.198 A 
ATOM     91  C   UNL A   1      44.878  27.260  36.709  1.00  0.00     0.198 A 
ATOM     92  F   UNL A   1      42.570  27.261  36.256  1.00  0.00    -0.203 F 
ATOM     93  F   UNL A   1      47.552  29.296  35.354  1.00  0.00    -0.200 F 
ATOM     94  C   UNL A   1      46.147  27.772  36.485  1.00  0.00     0.200 A 
ATOM     95  F   UNL A   1      44.703  26.258  37.581  1.00  0.00    -0.200 F 
ATOM     96  F   UNL A   1      47.202  27.249  37.123  1.00  0.00    -0.200 F 
ENDBRANCH  63  86
ENDBRANCH  37  38
ENDBRANCH  29  32
ENDBRANCH  27  28
ENDBRANCH  26  27
ENDBRANCH   1  26
TORSDOF 14
ENDMDL
MODEL 2
REMARK VINA RESULT:     -12.6      0.061      1.585
REMARK SMILES C[C@@H]1[C@@H](C(=O)NCCCCNC(=O)c2ccc(-c3c4nc(c(-c5c(F)c(F)c(F)c(F)c5F)c5ccc([nH]5)c(-c5c(F)c(F)c(F)c(F)c5F)c5nc(c(-c6c(F)c(F)c(F)c(F)c6F)c6ccc3[nH]6)C=C5)C=C4)cc2)CCN1C(=O)[C@@H]1CCCN(C(N)=O)C1
REMARK SMILES IDX 8 1 7 2 6 3 4 4 5 5 3 7 1 8 2 9 79 10 77 11 78 12 80 13
REMARK SMILES IDX 81 14 82 15 83 16 90 17 84 18 86 19 85 20 87 21 88 22 89 23
REMARK SMILES IDX 9 26 10 27 11 28 12 29 13 31 14 32 15 33 76 34 16 35 75 36
REMARK SMILES IDX 17 37 18 38 19 39 69 40 20 41 74 42 68 43 70 44 21 45 73 46
REMARK SMILES IDX 67 47 66 48 22 50 54 51 34 52 53 53 35 54 38 55 52 56 71 57
REMARK SMILES IDX 36 58 37 59 51 61 72 62 39 63 23 64 24 65 32 66 25 67 26 68
REMARK SMILES IDX 30 69 33 70 27 71 28 72 31 73 29 74 55 75 56 76 64 77 57 78
REMARK SMILES IDX 58 79 62 80 65 81 59 82 60 83 63 84 61 85 40 86 41 87 49 88
REMARK SMILES IDX 42 89 43 90 47 91 50 92 44 93 45 94 48 95 46 96
REMARK H PARENT 6 6 88 24 88 25 11 30 70 49 38 60
REMARK Flexibility Score: inf
ROOT
ATOM      1  C   UNL A   1      31.667  30.626  26.435  1.00  0.00     0.023 C 
ENDROOT
BRANCH   1   2
ATOM      2  C   UNL A   1      33.071  30.091  26.688  1.00  0.00     0.116 C 
BRANCH   2   3
ATOM      3  N   UNL A   1      33.778  29.756  25.467  1.00  0.00    -0.356 N 
ATOM      4  C   UNL A   1      33.762  28.582  24.766  1.00  0.00     0.225 C 
ATOM      5  O   UNL A   1      34.271  28.571  23.649  1.00  0.00    -0.275 OA
ATOM      6  H   UNL A   1      34.344  30.469  25.091  1.00  0.00     0.163 HD
BRANCH   4   7
ATOM      7  C   UNL A   1      33.083  27.377  25.395  1.00  0.00     0.102 C 
ATOM      8  C   UNL A   1      33.368  24.996  26.093  1.00  0.00     0.032 C 
ATOM      9  C   UNL A   1      33.711  26.022  24.999  1.00  0.00     0.094 C 
ATOM     10  N   UNL A   1      33.062  25.685  23.726  1.00  0.00    -0.339 N 
ATOM     11  C   UNL A   1      31.657  27.240  24.858  1.00  0.00     0.037 C 
ATOM     12  C   UNL A   1      31.856  26.485  23.554  1.00  0.00     0.120 C 
BRANCH  10  13
ATOM     13  C   UNL A   1      33.478  24.934  22.652  1.00  0.00     0.227 C 
ATOM     14  O   UNL A   1      33.782  25.524  21.602  1.00  0.00    -0.275 OA
BRANCH  13  15
ATOM     15  C   UNL A   1      33.652  23.407  22.647  1.00  0.00     0.098 C 
ATOM     16  C   UNL A   1      32.528  22.520  23.173  1.00  0.00     0.017 C 
ATOM     17  C   UNL A   1      35.044  22.942  23.056  1.00  0.00     0.134 C 
ATOM     18  C   UNL A   1      32.735  21.940  24.570  1.00  0.00     0.022 C 
ATOM     19  N   UNL A   1      35.134  22.582  24.465  1.00  0.00    -0.324 N 
ATOM     20  C   UNL A   1      34.174  21.587  24.923  1.00  0.00     0.121 C 
BRANCH  19  21
ATOM     21  C   UNL A   1      36.192  22.898  25.289  1.00  0.00     0.314 C 
ATOM     22  N   UNL A   1      36.354  22.130  26.387  1.00  0.00    -0.351 N 
ATOM     23  O   UNL A   1      36.974  23.823  25.087  1.00  0.00    -0.249 OA
ATOM     24  H   UNL A   1      35.734  21.384  26.563  1.00  0.00     0.161 HD
ATOM     25  H   UNL A   1      37.091  22.313  27.014  1.00  0.00     0.161 HD
ENDBRANCH  19  21
ENDBRANCH  13  15
ENDBRANCH  10  13
ENDBRANCH   4   7
ENDBRANCH   2   3
ENDBRANCH   1   2
BRANCH   1  26
ATOM     26  C   UNL A   1      31.439  32.083  26.834  1.00  0.00     0.023 C 
BRANCH  26  27
ATOM     27  C   UNL A   1      32.678  32.839  27.297  1.00  0.00     0.116 C 
BRANCH  27  28
ATOM     28  N   UNL A   1      32.406  34.226  27.639  1.00  0.00    -0.352 N 
ATOM     29  C   UNL A   1      33.004  35.022  28.583  1.00  0.00     0.251 C 
ATOM     30  H   UNL A   1      31.690  34.656  27.117  1.00  0.00     0.163 HD
ATOM     31  O   UNL A   1      32.564  36.144  28.818  1.00  0.00    -0.269 OA
BRANCH  29  32
ATOM     32  C   UNL A   1      34.157  34.507  29.343  1.00  0.00     0.039 A 
ATOM     33  C   UNL A   1      33.929  33.879  30.570  1.00  0.00     0.014 A 
ATOM     34  C   UNL A   1      35.453  34.614  28.832  1.00  0.00     0.014 A 
ATOM     35  C   UNL A   1      34.997  33.299  31.255  1.00  0.00     0.010 A 
ATOM     36  C   UNL A   1      36.500  33.959  29.470  1.00  0.00     0.010 A 
ATOM     37  C   UNL A   1      36.284  33.303  30.693  1.00  0.00    -0.014 A 
BRANCH  37  38
ATOM     38  C   UNL A   1      37.425  32.650  31.380  1.00  0.00     0.031 A 
ATOM     39  C   UNL A   1      38.148  31.515  30.711  1.00  0.00     0.074 A 
ATOM     40  C   UNL A   1      37.771  33.037  32.623  1.00  0.00     0.049 A 
ATOM     41  N   UNL A   1      39.122  30.768  31.167  1.00  0.00    -0.248 NA
ATOM     42  C   UNL A   1      37.693  31.148  29.361  1.00  0.00     0.031 C 
ATOM     43  C   UNL A   1      37.115  34.095  33.393  1.00  0.00     0.029 A 
ATOM     44  N   UNL A   1      38.757  32.579  33.460  1.00  0.00    -0.354 N 
ATOM     45  C   UNL A   1      39.381  29.838  30.169  1.00  0.00     0.074 A 
ATOM     46  C   UNL A   1      38.422  30.071  29.111  1.00  0.00     0.031 C 
ATOM     47  C   UNL A   1      37.732  34.222  34.579  1.00  0.00     0.029 A 
ATOM     48  C   UNL A   1      38.803  33.233  34.668  1.00  0.00     0.049 A 
ATOM     49  H   UNL A   1      39.374  31.851  33.219  1.00  0.00     0.167 HD
ATOM     50  C   UNL A   1      40.349  28.892  30.126  1.00  0.00     0.037 A 
ATOM     51  C   UNL A   1      39.614  33.050  35.726  1.00  0.00     0.037 A 
ATOM     52  C   UNL A   1      41.317  28.682  31.169  1.00  0.00     0.049 A 
ATOM     53  C   UNL A   1      40.682  31.991  35.654  1.00  0.00     0.074 A 
ATOM     54  C   UNL A   1      42.371  27.787  31.203  1.00  0.00     0.029 A 
ATOM     55  N   UNL A   1      41.345  29.380  32.369  1.00  0.00    -0.354 N 
ATOM     56  N   UNL A   1      40.961  31.161  34.678  1.00  0.00    -0.248 NA
ATOM     57  C   UNL A   1      41.555  31.853  36.827  1.00  0.00     0.031 C 
ATOM     58  C   UNL A   1      43.010  27.911  32.441  1.00  0.00     0.029 A 
ATOM     59  C   UNL A   1      42.390  28.924  33.156  1.00  0.00     0.049 A 
ATOM     60  H   UNL A   1      40.717  30.095  32.622  1.00  0.00     0.167 HD
ATOM     61  C   UNL A   1      42.060  30.427  35.103  1.00  0.00     0.074 A 
ATOM     62  C   UNL A   1      42.404  30.918  36.421  1.00  0.00     0.031 C 
ATOM     63  C   UNL A   1      42.727  29.437  34.459  1.00  0.00     0.037 A 
BRANCH  50  64
ATOM     64  C   UNL A   1      40.406  28.016  28.906  1.00  0.00     0.064 A 
ATOM     65  C   UNL A   1      41.163  28.374  27.779  1.00  0.00     0.173 A 
ATOM     66  C   UNL A   1      39.712  26.799  28.869  1.00  0.00     0.173 A 
ATOM     67  F   UNL A   1      41.836  29.534  27.756  1.00  0.00    -0.203 F 
ATOM     68  C   UNL A   1      41.192  27.562  26.647  1.00  0.00     0.198 A 
ATOM     69  C   UNL A   1      39.771  25.974  27.749  1.00  0.00     0.198 A 
ATOM     70  F   UNL A   1      38.976  26.407  29.920  1.00  0.00    -0.203 F 
ATOM     71  F   UNL A   1      41.872  27.954  25.561  1.00  0.00    -0.200 F 
ATOM     72  C   UNL A   1      40.501  26.360  26.636  1.00  0.00     0.200 A 
ATOM     73  F   UNL A   1      39.113  24.805  27.745  1.00  0.00    -0.200 F 
ATOM     74  F   UNL A   1      40.532  25.578  25.548  1.00  0.00    -0.200 F 
ENDBRANCH  50  64
BRANCH  51  75
ATOM     75  C   UNL A   1      39.474  33.912  36.928  1.00  0.00     0.064 A 
ATOM     76  C   UNL A   1      40.096  35.166  36.990  1.00  0.00     0.173 A 
ATOM     77  C   UNL A   1      38.723  33.502  38.040  1.00  0.00     0.173 A 
ATOM     78  F   UNL A   1      40.841  35.595  35.960  1.00  0.00    -0.203 F 
ATOM     79  C   UNL A   1      39.991  35.969  38.124  1.00  0.00     0.198 A 
ATOM     80  C   UNL A   1      38.594  34.317  39.163  1.00  0.00     0.198 A 
ATOM     81  F   UNL A   1      38.102  32.313  38.029  1.00  0.00    -0.203 F 
ATOM     82  F   UNL A   1      40.636  37.143  38.173  1.00  0.00    -0.200 F 
ATOM     83  C   UNL A   1      39.236  35.546  39.207  1.00  0.00     0.200 A 
ATOM     84  F   UNL A   1      37.851  33.912  40.201  1.00  0.00    -0.200 F 
ATOM     85  F   UNL A   1      39.132  36.319  40.297  1.00  0.00    -0.200 F 
ENDBRANCH  51  75
BRANCH  63  86
ATOM     86  C   UNL A   1      43.927  28.854  35.148  1.00  0.00     0.064 A 
ATOM     87  C   UNL A   1      45.215  29.377  34.962  1.00  0.00     0.173 A 
ATOM     88  C   UNL A   1      43.776  27.781  36.040  1.00  0.00     0.173 A 
ATOM     89  F   UNL A   1      45.414  30.394  34.109  1.00  0.00    -0.203 F 
ATOM     90  C   UNL A   1      46.311  28.828  35.622  1.00  0.00     0.198 A 
ATOM     91  C   UNL A   1      44.869  27.256  36.723  1.00  0.00     0.198 A 
ATOM     92  F   UNL A   1      42.564  27.249  36.260  1.00  0.00    -0.203 F 
ATOM     93  F   UNL A   1      47.540  29.311  35.390  1.00  0.00    -0.200 F 
ATOM     94  C   UNL A   1      46.137  27.775  36.507  1.00  0.00     0.200 A 
ATOM     95  F   UNL A   1      44.695  26.248  37.589  1.00  0.00    -0.200 F 
ATOM     96  F   UNL A   1      47.192  27.253  37.146  1.00  0.00    -0.200 F 
ENDBRANCH  63  86
ENDBRANCH  37  38
ENDBRANCH  29  32
ENDBRANCH  27  28
ENDBRANCH  26  27
ENDBRANCH   1  26
TORSDOF 14
ENDMDL
MODEL 3
REMARK VINA RESULT:     -12.6      1.391      2.285
REMARK SMILES C[C@@H]1[C@@H](C(=O)NCCCCNC(=O)c2ccc(-c3c4nc(c(-c5c(F)c(F)c(F)c(F)c5F)c5ccc([nH]5)c(-c5c(F)c(F)c(F)c(F)c5F)c5nc(c(-c6c(F)c(F)c(F)c(F)c6F)c6ccc3[nH]6)C=C5)C=C4)cc2)CCN1C(=O)[C@@H]1CCCN(C(N)=O)C1
REMARK SMILES IDX 8 1 7 2 6 3 4 4 5 5 3 7 1 8 2 9 79 10 77 11 78 12 80 13
REMARK SMILES IDX 81 14 82 15 83 16 90 17 84 18 86 19 85 20 87 21 88 22 89 23
REMARK SMILES IDX 9 26 10 27 11 28 12 29 13 31 14 32 15 33 76 34 16 35 75 36
REMARK SMILES IDX 17 37 18 38 19 39 69 40 20 41 74 42 68 43 70 44 21 45 73 46
REMARK SMILES IDX 67 47 66 48 22 50 54 51 34 52 53 53 35 54 38 55 52 56 71 57
REMARK SMILES IDX 36 58 37 59 51 61 72 62 39 63 23 64 24 65 32 66 25 67 26 68
REMARK SMILES IDX 30 69 33 70 27 71 28 72 31 73 29 74 55 75 56 76 64 77 57 78
REMARK SMILES IDX 58 79 62 80 65 81 59 82 60 83 63 84 61 85 40 86 41 87 49 88
REMARK SMILES IDX 42 89 43 90 47 91 50 92 44 93 45 94 48 95 46 96
REMARK H PARENT 6 6 88 24 88 25 11 30 70 49 38 60
REMARK Flexibility Score: inf
ROOT
ATOM      1  C   UNL A   1      31.710  30.724  26.131  1.00  0.00     0.023 C 
ENDROOT
BRANCH   1   2
ATOM      2  C   UNL A   1      32.356  29.653  27.000  1.00  0.00     0.116 C 
BRANCH   2   3
ATOM      3  N   UNL A   1      31.536  28.464  27.136  1.00  0.00    -0.356 N 
ATOM      4  C   UNL A   1      31.636  27.278  26.465  1.00  0.00     0.225 C 
ATOM      5  O   UNL A   1      30.973  26.328  26.872  1.00  0.00    -0.275 OA
ATOM      6  H   UNL A   1      30.812  28.518  27.801  1.00  0.00     0.163 HD
BRANCH   4   7
ATOM      7  C   UNL A   1      32.589  27.196  25.284  1.00  0.00     0.102 C 
ATOM      8  C   UNL A   1      32.879  26.399  22.936  1.00  0.00     0.032 C 
ATOM      9  C   UNL A   1      32.284  26.038  24.308  1.00  0.00     0.094 C 
ATOM     10  N   UNL A   1      32.967  24.881  24.899  1.00  0.00    -0.339 N 
ATOM     11  C   UNL A   1      33.997  26.844  25.770  1.00  0.00     0.037 C 
ATOM     12  C   UNL A   1      33.951  25.329  25.877  1.00  0.00     0.120 C 
BRANCH  10  13
ATOM     13  C   UNL A   1      32.714  23.531  24.833  1.00  0.00     0.227 C 
ATOM     14  O   UNL A   1      31.890  23.046  25.627  1.00  0.00    -0.275 OA
BRANCH  13  15
ATOM     15  C   UNL A   1      33.330  22.557  23.816  1.00  0.00     0.098 C 
ATOM     16  C   UNL A   1      32.661  22.364  22.460  1.00  0.00     0.017 C 
ATOM     17  C   UNL A   1      33.851  21.266  24.434  1.00  0.00     0.134 C 
ATOM     18  C   UNL A   1      31.848  21.082  22.294  1.00  0.00     0.022 C 
ATOM     19  N   UNL A   1      32.895  20.170  24.355  1.00  0.00    -0.324 N 
ATOM     20  C   UNL A   1      32.398  19.862  23.020  1.00  0.00     0.121 C 
BRANCH  19  21
ATOM     21  C   UNL A   1      32.650  19.268  25.368  1.00  0.00     0.314 C 
ATOM     22  N   UNL A   1      33.116  19.594  26.593  1.00  0.00    -0.351 N 
ATOM     23  O   UNL A   1      32.051  18.207  25.220  1.00  0.00    -0.249 OA
ATOM     24  H   UNL A   1      33.598  20.443  26.727  1.00  0.00     0.161 HD
ATOM     25  H   UNL A   1      32.974  18.984  27.353  1.00  0.00     0.161 HD
ENDBRANCH  19  21
ENDBRANCH  13  15
ENDBRANCH  10  13
ENDBRANCH   4   7
ENDBRANCH   2   3
ENDBRANCH   1   2
BRANCH   1  26
ATOM     26  C   UNL A   1      31.439  32.057  26.826  1.00  0.00     0.023 C 
BRANCH  26  27
ATOM     27  C   UNL A   1      32.674  32.828  27.274  1.00  0.00     0.116 C 
BRANCH  27  28
ATOM     28  N   UNL A   1      32.388  34.209  27.627  1.00  0.00    -0.352 N 
ATOM     29  C   UNL A   1      32.978  35.004  28.577  1.00  0.00     0.251 C 
ATOM     30  H   UNL A   1      31.668  34.636  27.108  1.00  0.00     0.163 HD
ATOM     31  O   UNL A   1      32.527  36.119  28.821  1.00  0.00    -0.269 OA
BRANCH  29  32
ATOM     32  C   UNL A   1      34.137  34.494  29.333  1.00  0.00     0.039 A 
ATOM     33  C   UNL A   1      33.917  33.875  30.565  1.00  0.00     0.014 A 
ATOM     34  C   UNL A   1      35.429  34.598  28.812  1.00  0.00     0.014 A 
ATOM     35  C   UNL A   1      34.990  33.300  31.247  1.00  0.00     0.010 A 
ATOM     36  C   UNL A   1      36.481  33.948  29.448  1.00  0.00     0.010 A 
ATOM     37  C   UNL A   1      36.273  33.300  30.676  1.00  0.00    -0.014 A 
BRANCH  37  38
ATOM     38  C   UNL A   1      37.419  32.652  31.360  1.00  0.00     0.031 A 
ATOM     39  C   UNL A   1      38.145  31.520  30.689  1.00  0.00     0.074 A 
ATOM     40  C   UNL A   1      37.767  33.041  32.602  1.00  0.00     0.049 A 
ATOM     41  N   UNL A   1      39.123  30.777  31.142  1.00  0.00    -0.248 NA
ATOM     42  C   UNL A   1      37.687  31.151  29.340  1.00  0.00     0.031 C 
ATOM     43  C   UNL A   1      37.109  34.096  33.374  1.00  0.00     0.029 A 
ATOM     44  N   UNL A   1      38.757  32.587  33.436  1.00  0.00    -0.354 N 
ATOM     45  C   UNL A   1      39.383  29.848  30.144  1.00  0.00     0.074 A 
ATOM     46  C   UNL A   1      38.420  30.077  29.089  1.00  0.00     0.031 C 
ATOM     47  C   UNL A   1      37.729  34.226  34.558  1.00  0.00     0.029 A 
ATOM     48  C   UNL A   1      38.804  33.242  34.643  1.00  0.00     0.049 A 
ATOM     49  H   UNL A   1      39.377  31.862  33.193  1.00  0.00     0.167 HD
ATOM     50  C   UNL A   1      40.355  28.906  30.098  1.00  0.00     0.037 A 
ATOM     51  C   UNL A   1      39.619  33.062  35.699  1.00  0.00     0.037 A 
ATOM     52  C   UNL A   1      41.327  28.701  31.138  1.00  0.00     0.049 A 
ATOM     53  C   UNL A   1      40.692  32.008  35.624  1.00  0.00     0.074 A 
ATOM     54  C   UNL A   1      42.385  27.811  31.169  1.00  0.00     0.029 A 
ATOM     55  N   UNL A   1      41.356  29.399  32.338  1.00  0.00    -0.354 N 
ATOM     56  N   UNL A   1      40.971  31.178  34.648  1.00  0.00    -0.248 NA
ATOM     57  C   UNL A   1      41.569  31.873  36.795  1.00  0.00     0.031 C 
ATOM     58  C   UNL A   1      43.027  27.937  32.405  1.00  0.00     0.029 A 
ATOM     59  C   UNL A   1      42.405  28.947  33.122  1.00  0.00     0.049 A 
ATOM     60  H   UNL A   1      40.725  30.111  32.592  1.00  0.00     0.167 HD
ATOM     61  C   UNL A   1      42.075  30.449  35.070  1.00  0.00     0.074 A 
ATOM     62  C   UNL A   1      42.420  30.943  36.387  1.00  0.00     0.031 C 
ATOM     63  C   UNL A   1      42.744  29.462  34.424  1.00  0.00     0.037 A 
BRANCH  50  64
ATOM     64  C   UNL A   1      40.413  28.031  28.878  1.00  0.00     0.064 A 
ATOM     65  C   UNL A   1      39.718  26.813  28.813  1.00  0.00     0.173 A 
ATOM     66  C   UNL A   1      41.156  28.420  27.756  1.00  0.00     0.173 A 
ATOM     67  F   UNL A   1      39.002  26.385  29.864  1.00  0.00    -0.203 F 
ATOM     68  C   UNL A   1      39.796  26.001  27.684  1.00  0.00     0.198 A 
ATOM     69  C   UNL A   1      41.205  27.623  26.615  1.00  0.00     0.198 A 
ATOM     70  F   UNL A   1      41.837  29.577  27.762  1.00  0.00    -0.203 F 
ATOM     71  F   UNL A   1      39.173  24.815  27.669  1.00  0.00    -0.200 F 
ATOM     72  C   UNL A   1      40.534  26.411  26.583  1.00  0.00     0.200 A 
ATOM     73  F   UNL A   1      41.907  28.027  25.546  1.00  0.00    -0.200 F 
ATOM     74  F   UNL A   1      40.606  25.631  25.495  1.00  0.00    -0.200 F 
ENDBRANCH  50  64
BRANCH  51  75
ATOM     75  C   UNL A   1      39.480  33.924  36.902  1.00  0.00     0.064 A 
ATOM     76  C   UNL A   1      40.097  35.180  36.962  1.00  0.00     0.173 A 
ATOM     77  C   UNL A   1      38.733  33.511  38.016  1.00  0.00     0.173 A 
ATOM     78  F   UNL A   1      40.837  35.612  35.930  1.00  0.00    -0.203 F 
ATOM     79  C   UNL A   1      39.992  35.983  38.096  1.00  0.00     0.198 A 
ATOM     80  C   UNL A   1      38.604  34.326  39.139  1.00  0.00     0.198 A 
ATOM     81  F   UNL A   1      38.117  32.320  38.007  1.00  0.00    -0.203 F 
ATOM     82  F   UNL A   1      40.632  37.159  38.143  1.00  0.00    -0.200 F 
ATOM     83  C   UNL A   1      39.242  35.557  39.181  1.00  0.00     0.200 A 
ATOM     84  F   UNL A   1      37.866  33.918  40.179  1.00  0.00    -0.200 F 
ATOM     85  F   UNL A   1      39.137  36.330  40.271  1.00  0.00    -0.200 F 
ENDBRANCH  51  75
BRANCH  63  86
ATOM     86  C   UNL A   1      43.948  28.885  35.109  1.00  0.00     0.064 A 
ATOM     87  C   UNL A   1      43.848  27.809  36.004  1.00  0.00     0.173 A 
ATOM     88  C   UNL A   1      45.227  29.391  34.832  1.00  0.00     0.173 A 
ATOM     89  F   UNL A   1      42.645  27.298  36.313  1.00  0.00    -0.203 F 
ATOM     90  C   UNL A   1      44.981  27.281  36.617  1.00  0.00     0.198 A 
ATOM     91  C   UNL A   1      46.361  28.839  35.422  1.00  0.00     0.198 A 
ATOM     92  F   UNL A   1      45.380  30.414  33.977  1.00  0.00    -0.203 F 
ATOM     93  F   UNL A   1      44.855  26.287  37.507  1.00  0.00    -0.200 F 
ATOM     94  C   UNL A   1      46.235  27.790  36.320  1.00  0.00     0.200 A 
ATOM     95  F   UNL A   1      47.574  29.324  35.122  1.00  0.00    -0.200 F 
ATOM     96  F   UNL A   1      47.325  27.276  36.906  1.00  0.00    -0.200 F 
ENDBRANCH  63  86
ENDBRANCH  37  38
ENDBRANCH  29  32
ENDBRANCH  27  28
ENDBRANCH  26  27
ENDBRANCH   1  26
TORSDOF 14
ENDMDL
