MODEL 1
REMARK VINA RESULT:     -12.6      0.000      0.000
REMARK SMILES Cc1ccc(NS(=O)(=O)N2CCCC[C@@H]2C(=O)NCCCCNC(=O)c2ccc(-c3c4nc(c(-c5c(F)c(F)c(F)c(F)c5F)c5ccc([nH]5)c(-c5c(F)c(F)c(F)c(F)c5F)c5nc(c(-c6c(F)c(F)c(F)c(F)c6F)c6ccc3[nH]6)C=C5)C=C4)cc2)c(C)n1
REMARK SMILES IDX 20 1 19 2 18 3 16 4 17 5 15 7 10 8 11 9 12 10 14 11 13 12
REMARK SMILES IDX 7 13 8 14 9 15 6 16 5 18 1 19 2 20 3 21 91 22 4 23 89 24
REMARK SMILES IDX 90 25 21 26 22 27 23 28 24 29 25 31 26 32 27 33 88 34 28 35
REMARK SMILES IDX 87 36 29 37 30 38 31 39 81 40 32 41 86 42 80 43 82 44 33 45
REMARK SMILES IDX 85 46 79 47 78 48 34 50 66 51 46 52 65 53 47 54 50 55 64 56
REMARK SMILES IDX 83 57 48 58 49 59 63 61 84 62 51 63 35 64 36 65 44 66 37 67
REMARK SMILES IDX 38 68 42 69 45 70 39 71 40 72 43 73 41 74 67 75 68 76 76 77
REMARK SMILES IDX 69 78 70 79 74 80 77 81 71 82 72 83 75 84 73 85 52 86 53 87
REMARK SMILES IDX 61 88 54 89 55 90 59 91 62 92 56 93 57 94 60 95 58 96
REMARK H PARENT 18 6 6 17 23 30 82 49 50 60
REMARK Flexibility Score: inf
ROOT
ATOM      1  C   UNL A   1      34.769  30.413  27.556  1.00  0.00     0.023 C 
ENDROOT
BRANCH   1   2
ATOM      2  C   UNL A   1      33.766  29.431  26.846  1.00  0.00     0.116 C 
BRANCH   2   3
ATOM      3  N   UNL A   1      34.043  29.021  25.474  1.00  0.00    -0.355 N 
ATOM      4  C   UNL A   1      33.255  28.571  24.439  1.00  0.00     0.238 C 
ATOM      5  O   UNL A   1      33.872  28.477  23.366  1.00  0.00    -0.273 OA
ATOM      6  H   UNL A   1      34.996  29.080  25.237  1.00  0.00     0.163 HD
BRANCH   4   7
ATOM      7  C   UNL A   1      31.736  28.182  24.481  1.00  0.00     0.163 C 
ATOM      8  N   UNL A   1      31.391  26.742  24.852  1.00  0.00    -0.172 NA
ATOM      9  C   UNL A   1      29.906  26.485  24.847  1.00  0.00     0.105 C 
ATOM     10  C   UNL A   1      29.310  26.799  23.491  1.00  0.00     0.017 C 
ATOM     11  C   UNL A   1      30.953  28.639  23.234  1.00  0.00     0.030 C 
ATOM     12  C   UNL A   1      29.467  28.283  23.237  1.00  0.00     0.004 C 
BRANCH   8  13
ATOM     13  S   UNL A   1      32.050  26.133  26.320  1.00  0.00     0.302 S 
ATOM     14  O   UNL A   1      31.594  26.973  27.410  1.00  0.00    -0.189 OA
ATOM     15  O   UNL A   1      33.459  25.906  26.146  1.00  0.00    -0.189 OA
BRANCH  13  16
ATOM     16  N   UNL A   1      31.299  24.665  26.538  1.00  0.00    -0.269 N 
ATOM     17  H   UNL A   1      30.376  24.644  26.877  1.00  0.00     0.181 HD
BRANCH  16  18
ATOM     18  C   UNL A   1      31.962  23.437  26.245  1.00  0.00     0.071 A 
ATOM     19  C   UNL A   1      35.047  20.848  25.215  1.00  0.00     0.067 C 
ATOM     20  C   UNL A   1      33.804  21.462  25.778  1.00  0.00     0.038 A 
ATOM     21  C   UNL A   1      33.560  21.856  27.089  1.00  0.00     0.026 A 
ATOM     22  N   UNL A   1      32.967  21.804  24.807  1.00  0.00    -0.256 NA
ATOM     23  C   UNL A   1      32.623  22.857  27.322  1.00  0.00     0.030 A 
ATOM     24  C   UNL A   1      32.063  22.779  25.017  1.00  0.00     0.062 A 
ATOM     25  C   UNL A   1      31.404  23.100  23.729  1.00  0.00     0.069 C 
ENDBRANCH  16  18
ENDBRANCH  13  16
ENDBRANCH   8  13
ENDBRANCH   4   7
ENDBRANCH   2   3
ENDBRANCH   1   2
BRANCH   1  26
ATOM     26  C   UNL A   1      34.508  31.938  27.661  1.00  0.00     0.023 C 
BRANCH  26  27
ATOM     27  C   UNL A   1      33.078  32.567  27.817  1.00  0.00     0.116 C 
BRANCH  27  28
ATOM     28  N   UNL A   1      32.921  34.015  27.830  1.00  0.00    -0.352 N 
ATOM     29  C   UNL A   1      33.163  34.943  28.815  1.00  0.00     0.251 C 
ATOM     30  H   UNL A   1      32.585  34.396  26.986  1.00  0.00     0.163 HD
ATOM     31  O   UNL A   1      32.710  36.079  28.798  1.00  0.00    -0.269 OA
BRANCH  29  32
ATOM     32  C   UNL A   1      34.218  34.593  29.751  1.00  0.00     0.039 A 
ATOM     33  C   UNL A   1      33.931  33.938  30.939  1.00  0.00     0.014 A 
ATOM     34  C   UNL A   1      35.519  34.812  29.291  1.00  0.00     0.014 A 
ATOM     35  C   UNL A   1      34.987  33.351  31.619  1.00  0.00     0.010 A 
ATOM     36  C   UNL A   1      36.544  34.140  29.905  1.00  0.00     0.010 A 
ATOM     37  C   UNL A   1      36.277  33.390  31.059  1.00  0.00    -0.014 A 
BRANCH  37  38
ATOM     38  C   UNL A   1      37.385  32.616  31.637  1.00  0.00     0.031 A 
ATOM     39  C   UNL A   1      37.891  32.986  32.991  1.00  0.00     0.074 A 
ATOM     40  C   UNL A   1      37.988  31.691  30.869  1.00  0.00     0.049 A 
ATOM     41  N   UNL A   1      38.920  32.518  33.643  1.00  0.00    -0.248 NA
ATOM     42  C   UNL A   1      37.183  34.078  33.680  1.00  0.00     0.031 C 
ATOM     43  C   UNL A   1      37.604  31.342  29.498  1.00  0.00     0.029 A 
ATOM     44  N   UNL A   1      39.056  30.878  31.131  1.00  0.00    -0.354 N 
ATOM     45  C   UNL A   1      38.993  33.276  34.802  1.00  0.00     0.074 A 
ATOM     46  C   UNL A   1      37.971  34.294  34.719  1.00  0.00     0.031 C 
ATOM     47  C   UNL A   1      38.386  30.341  29.063  1.00  0.00     0.029 A 
ATOM     48  C   UNL A   1      39.349  30.013  30.107  1.00  0.00     0.049 A 
ATOM     49  H   UNL A   1      39.564  30.910  31.973  1.00  0.00     0.167 HD
ATOM     50  C   UNL A   1      39.818  33.103  35.860  1.00  0.00     0.037 A 
ATOM     51  C   UNL A   1      40.286  29.051  30.042  1.00  0.00     0.037 A 
ATOM     52  C   UNL A   1      40.798  32.054  35.916  1.00  0.00     0.049 A 
ATOM     53  C   UNL A   1      41.177  28.856  31.239  1.00  0.00     0.074 A 
ATOM     54  C   UNL A   1      41.648  31.715  36.949  1.00  0.00     0.029 A 
ATOM     55  N   UNL A   1      41.052  31.166  34.875  1.00  0.00    -0.354 N 
ATOM     56  N   UNL A   1      41.189  29.514  32.375  1.00  0.00    -0.248 NA
ATOM     57  C   UNL A   1      42.174  27.786  31.148  1.00  0.00     0.031 C 
ATOM     58  C   UNL A   1      42.453  30.655  36.516  1.00  0.00     0.029 A 
ATOM     59  C   UNL A   1      42.062  30.293  35.234  1.00  0.00     0.049 A 
ATOM     60  H   UNL A   1      40.582  31.162  34.010  1.00  0.00     0.167 HD
ATOM     61  C   UNL A   1      42.170  28.916  33.152  1.00  0.00     0.074 A 
ATOM     62  C   UNL A   1      42.725  27.838  32.355  1.00  0.00     0.031 C 
ATOM     63  C   UNL A   1      42.575  29.224  34.410  1.00  0.00     0.037 A 
BRANCH  50  64
ATOM     64  C   UNL A   1      39.678  34.067  37.002  1.00  0.00     0.064 A 
ATOM     65  C   UNL A   1      40.386  35.281  37.039  1.00  0.00     0.173 A 
ATOM     66  C   UNL A   1      38.868  33.753  38.102  1.00  0.00     0.173 A 
ATOM     67  F   UNL A   1      41.189  35.626  36.020  1.00  0.00    -0.203 F 
ATOM     68  C   UNL A   1      40.339  36.108  38.158  1.00  0.00     0.198 A 
ATOM     69  C   UNL A   1      38.790  34.605  39.203  1.00  0.00     0.198 A 
ATOM     70  F   UNL A   1      38.167  32.610  38.124  1.00  0.00    -0.203 F 
ATOM     71  F   UNL A   1      41.099  37.211  38.205  1.00  0.00    -0.200 F 
ATOM     72  C   UNL A   1      39.539  35.771  39.237  1.00  0.00     0.200 A 
ATOM     73  F   UNL A   1      38.006  34.284  40.240  1.00  0.00    -0.200 F 
ATOM     74  F   UNL A   1      39.503  36.562  40.319  1.00  0.00    -0.200 F 
ENDBRANCH  50  64
BRANCH  51  75
ATOM     75  C   UNL A   1      40.358  28.164  28.854  1.00  0.00     0.064 A 
ATOM     76  C   UNL A   1      41.143  28.519  27.748  1.00  0.00     0.173 A 
ATOM     77  C   UNL A   1      39.693  26.929  28.810  1.00  0.00     0.173 A 
ATOM     78  F   UNL A   1      41.795  29.691  27.741  1.00  0.00    -0.203 F 
ATOM     79  C   UNL A   1      41.248  27.684  26.637  1.00  0.00     0.198 A 
ATOM     80  C   UNL A   1      39.819  26.083  27.709  1.00  0.00     0.198 A 
ATOM     81  F   UNL A   1      38.945  26.531  29.849  1.00  0.00    -0.203 F 
ATOM     82  F   UNL A   1      41.983  28.064  25.583  1.00  0.00    -0.200 F 
ATOM     83  C   UNL A   1      40.592  26.464  26.621  1.00  0.00     0.200 A 
ATOM     84  F   UNL A   1      39.201  24.894  27.706  1.00  0.00    -0.200 F 
ATOM     85  F   UNL A   1      40.703  25.654  25.559  1.00  0.00    -0.200 F 
ENDBRANCH  51  75
BRANCH  63  86
ATOM     86  C   UNL A   1      43.636  28.353  35.014  1.00  0.00     0.064 A 
ATOM     87  C   UNL A   1      44.996  28.680  34.927  1.00  0.00     0.173 A 
ATOM     88  C   UNL A   1      43.274  27.212  35.745  1.00  0.00     0.173 A 
ATOM     89  F   UNL A   1      45.390  29.753  34.226  1.00  0.00    -0.203 F 
ATOM     90  C   UNL A   1      45.959  27.882  35.536  1.00  0.00     0.198 A 
ATOM     91  C   UNL A   1      44.237  26.437  36.383  1.00  0.00     0.198 A 
ATOM     92  F   UNL A   1      41.983  26.863  35.862  1.00  0.00    -0.203 F 
ATOM     93  F   UNL A   1      47.257  28.186  35.405  1.00  0.00    -0.200 F 
ATOM     94  C   UNL A   1      45.578  26.769  36.272  1.00  0.00     0.200 A 
ATOM     95  F   UNL A   1      43.865  25.374  37.108  1.00  0.00    -0.200 F 
ATOM     96  F   UNL A   1      46.507  26.012  36.872  1.00  0.00    -0.200 F 
ENDBRANCH  63  86
ENDBRANCH  37  38
ENDBRANCH  29  32
ENDBRANCH  27  28
ENDBRANCH  26  27
ENDBRANCH   1  26
TORSDOF 14
ENDMDL
MODEL 2
REMARK VINA RESULT:     -12.5      1.028      2.273
REMARK SMILES Cc1ccc(NS(=O)(=O)N2CCCC[C@@H]2C(=O)NCCCCNC(=O)c2ccc(-c3c4nc(c(-c5c(F)c(F)c(F)c(F)c5F)c5ccc([nH]5)c(-c5c(F)c(F)c(F)c(F)c5F)c5nc(c(-c6c(F)c(F)c(F)c(F)c6F)c6ccc3[nH]6)C=C5)C=C4)cc2)c(C)n1
REMARK SMILES IDX 20 1 19 2 18 3 16 4 17 5 15 7 10 8 11 9 12 10 14 11 13 12
REMARK SMILES IDX 7 13 8 14 9 15 6 16 5 18 1 19 2 20 3 21 91 22 4 23 89 24
REMARK SMILES IDX 90 25 21 26 22 27 23 28 24 29 25 31 26 32 27 33 88 34 28 35
REMARK SMILES IDX 87 36 29 37 30 38 31 39 81 40 32 41 86 42 80 43 82 44 33 45
REMARK SMILES IDX 85 46 79 47 78 48 34 50 66 51 46 52 65 53 47 54 50 55 64 56
REMARK SMILES IDX 83 57 48 58 49 59 63 61 84 62 51 63 35 64 36 65 44 66 37 67
REMARK SMILES IDX 38 68 42 69 45 70 39 71 40 72 43 73 41 74 67 75 68 76 76 77
REMARK SMILES IDX 69 78 70 79 74 80 77 81 71 82 72 83 75 84 73 85 52 86 53 87
REMARK SMILES IDX 61 88 54 89 55 90 59 91 62 92 56 93 57 94 60 95 58 96
REMARK H PARENT 18 6 6 17 23 30 82 49 50 60
REMARK Flexibility Score: inf
ROOT
ATOM      1  C   UNL A   1      35.072  30.128  27.627  1.00  0.00     0.023 C 
ENDROOT
BRANCH   1   2
ATOM      2  C   UNL A   1      34.141  29.053  26.952  1.00  0.00     0.116 C 
BRANCH   2   3
ATOM      3  N   UNL A   1      32.902  28.681  27.624  1.00  0.00    -0.355 N 
ATOM      4  C   UNL A   1      31.702  28.167  27.188  1.00  0.00     0.238 C 
ATOM      5  O   UNL A   1      30.948  27.841  28.120  1.00  0.00    -0.273 OA
ATOM      6  H   UNL A   1      32.930  28.827  28.597  1.00  0.00     0.163 HD
BRANCH   4   7
ATOM      7  C   UNL A   1      31.218  27.965  25.710  1.00  0.00     0.163 C 
ATOM      8  N   UNL A   1      31.662  26.692  24.994  1.00  0.00    -0.172 NA
ATOM      9  C   UNL A   1      31.147  26.615  23.580  1.00  0.00     0.105 C 
ATOM     10  C   UNL A   1      31.601  27.816  22.776  1.00  0.00     0.017 C 
ATOM     11  C   UNL A   1      31.430  29.208  24.822  1.00  0.00     0.030 C 
ATOM     12  C   UNL A   1      30.966  29.053  23.374  1.00  0.00     0.004 C 
BRANCH   8  13
ATOM     13  S   UNL A   1      31.335  25.197  25.780  1.00  0.00     0.302 S 
ATOM     14  O   UNL A   1      30.000  25.258  26.342  1.00  0.00    -0.189 OA
ATOM     15  O   UNL A   1      32.444  24.860  26.632  1.00  0.00    -0.189 OA
BRANCH  13  16
ATOM     16  N   UNL A   1      31.256  24.084  24.547  1.00  0.00    -0.269 N 
ATOM     17  H   UNL A   1      30.475  24.086  23.949  1.00  0.00     0.181 HD
BRANCH  16  18
ATOM     18  C   UNL A   1      32.292  23.128  24.336  1.00  0.00     0.071 A 
ATOM     19  C   UNL A   1      35.629  20.786  25.153  1.00  0.00     0.067 C 
ATOM     20  C   UNL A   1      34.338  21.327  24.622  1.00  0.00     0.038 A 
ATOM     21  C   UNL A   1      33.045  20.931  24.944  1.00  0.00     0.026 A 
ATOM     22  N   UNL A   1      34.547  22.430  23.914  1.00  0.00    -0.256 NA
ATOM     23  C   UNL A   1      32.009  21.847  24.797  1.00  0.00     0.030 A 
ATOM     24  C   UNL A   1      33.555  23.330  23.773  1.00  0.00     0.062 A 
ATOM     25  C   UNL A   1      34.104  24.543  23.124  1.00  0.00     0.069 C 
ENDBRANCH  16  18
ENDBRANCH  13  16
ENDBRANCH   8  13
ENDBRANCH   4   7
ENDBRANCH   2   3
ENDBRANCH   1   2
BRANCH   1  26
ATOM     26  C   UNL A   1      34.754  31.644  27.594  1.00  0.00     0.023 C 
BRANCH  26  27
ATOM     27  C   UNL A   1      33.301  32.231  27.704  1.00  0.00     0.116 C 
BRANCH  27  28
ATOM     28  N   UNL A   1      33.105  33.673  27.759  1.00  0.00    -0.352 N 
ATOM     29  C   UNL A   1      33.305  34.575  28.777  1.00  0.00     0.251 C 
ATOM     30  H   UNL A   1      32.771  34.070  26.923  1.00  0.00     0.163 HD
ATOM     31  O   UNL A   1      32.822  35.698  28.788  1.00  0.00    -0.269 OA
BRANCH  29  32
ATOM     32  C   UNL A   1      34.355  34.225  29.718  1.00  0.00     0.039 A 
ATOM     33  C   UNL A   1      34.081  33.457  30.842  1.00  0.00     0.014 A 
ATOM     34  C   UNL A   1      35.650  34.568  29.323  1.00  0.00     0.014 A 
ATOM     35  C   UNL A   1      35.156  32.891  31.509  1.00  0.00     0.010 A 
ATOM     36  C   UNL A   1      36.702  33.921  29.918  1.00  0.00     0.010 A 
ATOM     37  C   UNL A   1      36.455  33.064  30.999  1.00  0.00    -0.014 A 
BRANCH  37  38
ATOM     38  C   UNL A   1      37.598  32.324  31.553  1.00  0.00     0.031 A 
ATOM     39  C   UNL A   1      38.093  32.679  32.915  1.00  0.00     0.074 A 
ATOM     40  C   UNL A   1      38.239  31.448  30.759  1.00  0.00     0.049 A 
ATOM     41  N   UNL A   1      39.143  32.239  33.552  1.00  0.00    -0.248 NA
ATOM     42  C   UNL A   1      37.339  33.720  33.636  1.00  0.00     0.031 C 
ATOM     43  C   UNL A   1      37.865  31.120  29.379  1.00  0.00     0.029 A 
ATOM     44  N   UNL A   1      39.342  30.676  30.995  1.00  0.00    -0.354 N 
ATOM     45  C   UNL A   1      39.187  32.967  34.731  1.00  0.00     0.074 A 
ATOM     46  C   UNL A   1      38.121  33.941  34.679  1.00  0.00     0.031 C 
ATOM     47  C   UNL A   1      38.689  30.167  28.915  1.00  0.00     0.029 A 
ATOM     48  C   UNL A   1      39.669  29.853  29.947  1.00  0.00     0.049 A 
ATOM     49  H   UNL A   1      39.852  30.707  31.836  1.00  0.00     0.167 HD
ATOM     50  C   UNL A   1      40.023  32.801  35.782  1.00  0.00     0.037 A 
ATOM     51  C   UNL A   1      40.647  28.935  29.853  1.00  0.00     0.037 A 
ATOM     52  C   UNL A   1      41.048  31.795  35.807  1.00  0.00     0.049 A 
ATOM     53  C   UNL A   1      41.550  28.747  31.042  1.00  0.00     0.074 A 
ATOM     54  C   UNL A   1      41.916  31.466  36.828  1.00  0.00     0.029 A 
ATOM     55  N   UNL A   1      41.338  30.949  34.741  1.00  0.00    -0.354 N 
ATOM     56  N   UNL A   1      41.538  29.373  32.196  1.00  0.00    -0.248 NA
ATOM     57  C   UNL A   1      42.594  27.725  30.920  1.00  0.00     0.031 C 
ATOM     58  C   UNL A   1      42.765  30.455  36.363  1.00  0.00     0.029 A 
ATOM     59  C   UNL A   1      42.386  30.111  35.073  1.00  0.00     0.049 A 
ATOM     60  H   UNL A   1      40.865  30.947  33.877  1.00  0.00     0.167 HD
ATOM     61  C   UNL A   1      42.547  28.798  32.954  1.00  0.00     0.074 A 
ATOM     62  C   UNL A   1      43.146  27.768  32.125  1.00  0.00     0.031 C 
ATOM     63  C   UNL A   1      42.943  29.089  34.219  1.00  0.00     0.037 A 
BRANCH  50  64
ATOM     64  C   UNL A   1      39.845  33.727  36.951  1.00  0.00     0.064 A 
ATOM     65  C   UNL A   1      39.010  33.401  38.034  1.00  0.00     0.173 A 
ATOM     66  C   UNL A   1      40.473  34.980  36.968  1.00  0.00     0.173 A 
ATOM     67  F   UNL A   1      38.371  32.221  38.063  1.00  0.00    -0.203 F 
ATOM     68  C   UNL A   1      38.761  34.318  39.051  1.00  0.00     0.198 A 
ATOM     69  C   UNL A   1      40.255  35.879  38.010  1.00  0.00     0.198 A 
ATOM     70  F   UNL A   1      41.283  35.346  35.963  1.00  0.00    -0.203 F 
ATOM     71  F   UNL A   1      37.885  34.017  40.021  1.00  0.00    -0.200 F 
ATOM     72  C   UNL A   1      39.385  35.554  39.041  1.00  0.00     0.200 A 
ATOM     73  F   UNL A   1      40.869  37.069  38.004  1.00  0.00    -0.200 F 
ATOM     74  F   UNL A   1      39.136  36.441  40.014  1.00  0.00    -0.200 F 
ENDBRANCH  50  64
BRANCH  51  75
ATOM     75  C   UNL A   1      40.754  28.085  28.641  1.00  0.00     0.064 A 
ATOM     76  C   UNL A   1      40.050  26.875  28.556  1.00  0.00     0.173 A 
ATOM     77  C   UNL A   1      41.515  28.474  27.528  1.00  0.00     0.173 A 
ATOM     78  F   UNL A   1      39.313  26.458  29.596  1.00  0.00    -0.203 F 
ATOM     79  C   UNL A   1      40.114  26.080  27.414  1.00  0.00     0.198 A 
ATOM     80  C   UNL A   1      41.558  27.690  26.376  1.00  0.00     0.198 A 
ATOM     81  F   UNL A   1      42.192  29.631  27.548  1.00  0.00    -0.203 F 
ATOM     82  F   UNL A   1      39.453  24.915  27.374  1.00  0.00    -0.200 F 
ATOM     83  C   UNL A   1      40.862  26.491  26.322  1.00  0.00     0.200 A 
ATOM     84  F   UNL A   1      42.264  28.101  25.314  1.00  0.00    -0.200 F 
ATOM     85  F   UNL A   1      40.913  25.733  25.218  1.00  0.00    -0.200 F 
ENDBRANCH  51  75
BRANCH  63  86
ATOM     86  C   UNL A   1      44.043  28.250  34.795  1.00  0.00     0.064 A 
ATOM     87  C   UNL A   1      43.781  27.036  35.447  1.00  0.00     0.173 A 
ATOM     88  C   UNL A   1      45.381  28.638  34.631  1.00  0.00     0.173 A 
ATOM     89  F   UNL A   1      42.517  26.632  35.640  1.00  0.00    -0.203 F 
ATOM     90  C   UNL A   1      44.822  26.251  35.932  1.00  0.00     0.198 A 
ATOM     91  C   UNL A   1      46.420  27.832  35.086  1.00  0.00     0.198 A 
ATOM     92  F   UNL A   1      45.680  29.788  34.007  1.00  0.00    -0.203 F 
ATOM     93  F   UNL A   1      44.550  25.117  36.591  1.00  0.00    -0.200 F 
ATOM     94  C   UNL A   1      46.139  26.644  35.741  1.00  0.00     0.200 A 
ATOM     95  F   UNL A   1      47.691  28.205  34.884  1.00  0.00    -0.200 F 
ATOM     96  F   UNL A   1      47.140  25.876  36.194  1.00  0.00    -0.200 F 
ENDBRANCH  63  86
ENDBRANCH  37  38
ENDBRANCH  29  32
ENDBRANCH  27  28
ENDBRANCH  26  27
ENDBRANCH   1  26
TORSDOF 14
ENDMDL
MODEL 3
REMARK VINA RESULT:     -12.5      1.099      7.387
REMARK SMILES Cc1ccc(NS(=O)(=O)N2CCCC[C@@H]2C(=O)NCCCCNC(=O)c2ccc(-c3c4nc(c(-c5c(F)c(F)c(F)c(F)c5F)c5ccc([nH]5)c(-c5c(F)c(F)c(F)c(F)c5F)c5nc(c(-c6c(F)c(F)c(F)c(F)c6F)c6ccc3[nH]6)C=C5)C=C4)cc2)c(C)n1
REMARK SMILES IDX 20 1 19 2 18 3 16 4 17 5 15 7 10 8 11 9 12 10 14 11 13 12
REMARK SMILES IDX 7 13 8 14 9 15 6 16 5 18 1 19 2 20 3 21 91 22 4 23 89 24
REMARK SMILES IDX 90 25 21 26 22 27 23 28 24 29 25 31 26 32 27 33 88 34 28 35
REMARK SMILES IDX 87 36 29 37 30 38 31 39 81 40 32 41 86 42 80 43 82 44 33 45
REMARK SMILES IDX 85 46 79 47 78 48 34 50 66 51 46 52 65 53 47 54 50 55 64 56
REMARK SMILES IDX 83 57 48 58 49 59 63 61 84 62 51 63 35 64 36 65 44 66 37 67
REMARK SMILES IDX 38 68 42 69 45 70 39 71 40 72 43 73 41 74 67 75 68 76 76 77
REMARK SMILES IDX 69 78 70 79 74 80 77 81 71 82 72 83 75 84 73 85 52 86 53 87
REMARK SMILES IDX 61 88 54 89 55 90 59 91 62 92 56 93 57 94 60 95 58 96
REMARK H PARENT 18 6 6 17 23 30 82 49 50 60
REMARK Flexibility Score: inf
ROOT
ATOM      1  C   UNL A   1      35.276  29.811  27.450  1.00  0.00     0.023 C 
ENDROOT
BRANCH   1   2
ATOM      2  C   UNL A   1      34.260  28.762  26.864  1.00  0.00     0.116 C 
BRANCH   2   3
ATOM      3  N   UNL A   1      33.016  28.515  27.584  1.00  0.00    -0.355 N 
ATOM      4  C   UNL A   1      31.762  28.099  27.201  1.00  0.00     0.238 C 
ATOM      5  O   UNL A   1      31.015  27.862  28.164  1.00  0.00    -0.273 OA
ATOM      6  H   UNL A   1      33.090  28.681  28.552  1.00  0.00     0.163 HD
BRANCH   4   7
ATOM      7  C   UNL A   1      31.211  27.907  25.745  1.00  0.00     0.163 C 
ATOM      8  N   UNL A   1      31.587  26.619  25.017  1.00  0.00    -0.172 NA
ATOM      9  C   UNL A   1      31.012  26.554  23.626  1.00  0.00     0.105 C 
ATOM     10  C   UNL A   1      31.469  27.737  22.799  1.00  0.00     0.017 C 
ATOM     11  C   UNL A   1      31.425  29.140  24.843  1.00  0.00     0.030 C 
ATOM     12  C   UNL A   1      30.898  28.995  23.416  1.00  0.00     0.004 C 
BRANCH   8  13
ATOM     13  S   UNL A   1      31.248  25.138  25.822  1.00  0.00     0.302 S 
ATOM     14  O   UNL A   1      29.933  25.235  26.427  1.00  0.00    -0.189 OA
ATOM     15  O   UNL A   1      32.374  24.776  26.640  1.00  0.00    -0.189 OA
BRANCH  13  16
ATOM     16  N   UNL A   1      31.100  24.020  24.599  1.00  0.00    -0.269 N 
ATOM     17  H   UNL A   1      30.307  24.049  24.017  1.00  0.00     0.181 HD
BRANCH  16  18
ATOM     18  C   UNL A   1      32.094  23.023  24.375  1.00  0.00     0.071 A 
ATOM     19  C   UNL A   1      35.443  20.663  25.079  1.00  0.00     0.067 C 
ATOM     20  C   UNL A   1      34.121  21.196  24.622  1.00  0.00     0.038 A 
ATOM     21  C   UNL A   1      32.855  20.861  25.089  1.00  0.00     0.026 A 
ATOM     22  N   UNL A   1      34.287  22.233  23.813  1.00  0.00    -0.256 NA
ATOM     23  C   UNL A   1      31.828  21.790  24.960  1.00  0.00     0.030 A 
ATOM     24  C   UNL A   1      33.304  23.146  23.688  1.00  0.00     0.062 A 
ATOM     25  C   UNL A   1      33.816  24.289  22.897  1.00  0.00     0.069 C 
ENDBRANCH  16  18
ENDBRANCH  13  16
ENDBRANCH   8  13
ENDBRANCH   4   7
ENDBRANCH   2   3
ENDBRANCH   1   2
BRANCH   1  26
ATOM     26  C   UNL A   1      34.913  31.306  27.641  1.00  0.00     0.023 C 
BRANCH  26  27
ATOM     27  C   UNL A   1      33.440  31.832  27.780  1.00  0.00     0.116 C 
BRANCH  27  28
ATOM     28  N   UNL A   1      33.165  33.257  27.653  1.00  0.00    -0.352 N 
ATOM     29  C   UNL A   1      33.293  34.287  28.555  1.00  0.00     0.251 C 
ATOM     30  H   UNL A   1      32.831  33.530  26.768  1.00  0.00     0.163 HD
ATOM     31  O   UNL A   1      32.750  35.374  28.419  1.00  0.00    -0.269 OA
BRANCH  29  32
ATOM     32  C   UNL A   1      34.336  34.114  29.551  1.00  0.00     0.039 A 
ATOM     33  C   UNL A   1      34.064  33.527  30.778  1.00  0.00     0.014 A 
ATOM     34  C   UNL A   1      35.629  34.421  29.119  1.00  0.00     0.014 A 
ATOM     35  C   UNL A   1      35.141  33.098  31.538  1.00  0.00     0.010 A 
ATOM     36  C   UNL A   1      36.686  33.900  29.820  1.00  0.00     0.010 A 
ATOM     37  C   UNL A   1      36.443  33.219  31.020  1.00  0.00    -0.014 A 
BRANCH  37  38
ATOM     38  C   UNL A   1      37.594  32.602  31.695  1.00  0.00     0.031 A 
ATOM     39  C   UNL A   1      38.313  31.484  31.014  1.00  0.00     0.074 A 
ATOM     40  C   UNL A   1      37.872  32.975  32.956  1.00  0.00     0.049 A 
ATOM     41  N   UNL A   1      39.275  30.727  31.464  1.00  0.00    -0.248 NA
ATOM     42  C   UNL A   1      37.841  31.127  29.665  1.00  0.00     0.031 C 
ATOM     43  C   UNL A   1      37.149  33.998  33.719  1.00  0.00     0.029 A 
ATOM     44  N   UNL A   1      38.835  32.535  33.822  1.00  0.00    -0.354 N 
ATOM     45  C   UNL A   1      39.502  29.793  30.465  1.00  0.00     0.074 A 
ATOM     46  C   UNL A   1      38.517  30.015  29.432  1.00  0.00     0.031 C 
ATOM     47  C   UNL A   1      37.736  34.149  34.917  1.00  0.00     0.029 A 
ATOM     48  C   UNL A   1      38.843  33.206  35.019  1.00  0.00     0.049 A 
ATOM     49  H   UNL A   1      39.462  31.808  33.607  1.00  0.00     0.167 HD
ATOM     50  C   UNL A   1      40.480  28.860  30.404  1.00  0.00     0.037 A 
ATOM     51  C   UNL A   1      39.674  33.074  36.067  1.00  0.00     0.037 A 
ATOM     52  C   UNL A   1      41.463  28.697  31.439  1.00  0.00     0.049 A 
ATOM     53  C   UNL A   1      40.771  32.050  35.969  1.00  0.00     0.074 A 
ATOM     54  C   UNL A   1      42.549  27.847  31.478  1.00  0.00     0.029 A 
ATOM     55  N   UNL A   1      41.468  29.415  32.631  1.00  0.00    -0.354 N 
ATOM     56  N   UNL A   1      41.046  31.224  34.986  1.00  0.00    -0.248 NA
ATOM     57  C   UNL A   1      41.676  31.943  37.118  1.00  0.00     0.031 C 
ATOM     58  C   UNL A   1      43.184  28.013  32.714  1.00  0.00     0.029 A 
ATOM     59  C   UNL A   1      42.528  29.012  33.421  1.00  0.00     0.049 A 
ATOM     60  H   UNL A   1      40.813  30.108  32.875  1.00  0.00     0.167 HD
ATOM     61  C   UNL A   1      42.176  30.523  35.379  1.00  0.00     0.074 A 
ATOM     62  C   UNL A   1      42.537  31.029  36.690  1.00  0.00     0.031 C 
ATOM     63  C   UNL A   1      42.858  29.554  34.719  1.00  0.00     0.037 A 
BRANCH  50  64
ATOM     64  C   UNL A   1      40.507  27.975  29.191  1.00  0.00     0.064 A 
ATOM     65  C   UNL A   1      41.272  28.296  28.056  1.00  0.00     0.173 A 
ATOM     66  C   UNL A   1      39.718  26.818  29.138  1.00  0.00     0.173 A 
ATOM     67  F   UNL A   1      42.034  29.400  28.045  1.00  0.00    -0.203 F 
ATOM     68  C   UNL A   1      41.193  27.530  26.896  1.00  0.00     0.198 A 
ATOM     69  C   UNL A   1      39.675  26.030  27.990  1.00  0.00     0.198 A 
ATOM     70  F   UNL A   1      38.968  26.459  30.191  1.00  0.00    -0.203 F 
ATOM     71  F   UNL A   1      41.858  27.913  25.797  1.00  0.00    -0.200 F 
ATOM     72  C   UNL A   1      40.398  26.396  26.864  1.00  0.00     0.200 A 
ATOM     73  F   UNL A   1      38.914  24.927  27.965  1.00  0.00    -0.200 F 
ATOM     74  F   UNL A   1      40.313  25.666  25.744  1.00  0.00    -0.200 F 
ENDBRANCH  50  64
BRANCH  51  75
ATOM     75  C   UNL A   1      39.549  33.985  37.233  1.00  0.00     0.064 A 
ATOM     76  C   UNL A   1      38.848  33.581  38.379  1.00  0.00     0.173 A 
ATOM     77  C   UNL A   1      40.158  35.249  37.255  1.00  0.00     0.173 A 
ATOM     78  F   UNL A   1      38.246  32.383  38.405  1.00  0.00    -0.203 F 
ATOM     79  C   UNL A   1      38.747  34.410  39.494  1.00  0.00     0.198 A 
ATOM     80  C   UNL A   1      40.077  36.067  38.381  1.00  0.00     0.198 A 
ATOM     81  F   UNL A   1      40.856  35.677  36.194  1.00  0.00    -0.203 F 
ATOM     82  F   UNL A   1      38.047  34.007  40.563  1.00  0.00    -0.200 F 
ATOM     83  C   UNL A   1      39.367  35.649  39.498  1.00  0.00     0.200 A 
ATOM     84  F   UNL A   1      40.697  37.255  38.389  1.00  0.00    -0.200 F 
ATOM     85  F   UNL A   1      39.282  36.441  40.575  1.00  0.00    -0.200 F 
ENDBRANCH  51  75
BRANCH  63  86
ATOM     86  C   UNL A   1      44.087  29.014  35.386  1.00  0.00     0.064 A 
ATOM     87  C   UNL A   1      45.351  29.583  35.176  1.00  0.00     0.173 A 
ATOM     88  C   UNL A   1      43.981  27.954  36.299  1.00  0.00     0.173 A 
ATOM     89  F   UNL A   1      45.502  30.588  34.301  1.00  0.00    -0.203 F 
ATOM     90  C   UNL A   1      46.469  29.095  35.843  1.00  0.00     0.198 A 
ATOM     91  C   UNL A   1      45.096  27.493  36.991  1.00  0.00     0.198 A 
ATOM     92  F   UNL A   1      42.791  27.383  36.539  1.00  0.00    -0.203 F 
ATOM     93  F   UNL A   1      47.676  29.623  35.595  1.00  0.00    -0.200 F 
ATOM     94  C   UNL A   1      46.340  28.059  36.757  1.00  0.00     0.200 A 
ATOM     95  F   UNL A   1      44.965  26.506  37.887  1.00  0.00    -0.200 F 
ATOM     96  F   UNL A   1      47.417  27.604  37.411  1.00  0.00    -0.200 F 
ENDBRANCH  63  86
ENDBRANCH  37  38
ENDBRANCH  29  32
ENDBRANCH  27  28
ENDBRANCH  26  27
ENDBRANCH   1  26
TORSDOF 14
ENDMDL
