MODEL 1
REMARK VINA RESULT:     -12.3      0.000      0.000
REMARK SMILES O=C(/C=C/c1c(Cl)cccc1Cl)NCC(=O)NCCCCNC(=O)c1ccc(-c2c3nc(c(-c4c(F)c(F)c(F)c(F)c4F)c4ccc([nH]4)c(-c4c(F)c(F)c(F)c(F)c4F)c4nc(c(-c5c(F)c(F)c(F)c(F)c5F)c5ccc2[nH]5)C=C4)C=C3)cc1
REMARK SMILES IDX 19 1 18 2 17 3 15 4 16 5 14 7 13 8 1 9 2 10 3 12 4 13 5 14
REMARK SMILES IDX 6 15 11 16 7 17 8 18 10 19 12 20 9 21 20 22 21 23 22 24
REMARK SMILES IDX 23 25 24 27 25 28 26 29 87 30 27 31 86 32 28 33 29 34 30 35
REMARK SMILES IDX 80 36 31 37 85 38 79 39 81 40 32 41 84 42 78 43 77 44 33 46
REMARK SMILES IDX 65 47 45 48 64 49 46 50 49 51 63 52 82 53 47 54 48 55 62 57
REMARK SMILES IDX 83 58 50 59 34 60 35 61 43 62 36 63 37 64 41 65 44 66 38 67
REMARK SMILES IDX 39 68 42 69 40 70 66 71 67 72 75 73 68 74 69 75 73 76 76 77
REMARK SMILES IDX 70 78 71 79 74 80 72 81 51 82 52 83 60 84 53 85 54 86 58 87
REMARK SMILES IDX 61 88 55 89 56 90 59 91 57 92
REMARK H PARENT 17 6 13 11 22 26 81 45 49 56
REMARK Flexibility Score: inf
ROOT
ATOM      1  C   UNL A   1      32.041  30.301  26.737  1.00  0.00     0.023 C 
ENDROOT
BRANCH   1   2
ATOM      2  C   UNL A   1      31.704  29.663  25.389  1.00  0.00     0.116 C 
BRANCH   2   3
ATOM      3  N   UNL A   1      32.838  29.687  24.485  1.00  0.00    -0.355 N 
ATOM      4  C   UNL A   1      33.147  28.811  23.483  1.00  0.00     0.239 C 
ATOM      5  O   UNL A   1      34.148  29.036  22.800  1.00  0.00    -0.273 OA
ATOM      6  H   UNL A   1      33.468  30.433  24.610  1.00  0.00     0.163 HD
BRANCH   4   7
ATOM      7  C   UNL A   1      32.232  27.618  23.191  1.00  0.00     0.216 C 
BRANCH   7   8
ATOM      8  N   UNL A   1      32.888  26.351  23.469  1.00  0.00    -0.343 N 
ATOM      9  O   UNL A   1      33.558  25.970  21.312  1.00  0.00    -0.270 OA
ATOM     10  C   UNL A   1      33.509  25.629  22.488  1.00  0.00     0.244 C 
ATOM     11  H   UNL A   1      32.884  26.003  24.390  1.00  0.00     0.164 HD
BRANCH  10  12
ATOM     12  C   UNL A   1      34.052  24.309  22.885  1.00  0.00     0.072 C 
ATOM     13  C   UNL A   1      34.151  23.852  24.143  1.00  0.00     0.017 C 
BRANCH  13  14
ATOM     14  C   UNL A   1      34.721  22.526  24.455  1.00  0.00     0.012 A 
ATOM     15  C   UNL A   1      36.078  22.350  24.791  1.00  0.00     0.049 A 
ATOM     16  C   UNL A   1      33.893  21.385  24.455  1.00  0.00     0.049 A 
ATOM     17  Cl  UNL A   1      37.190  23.676  24.885  1.00  0.00    -0.084 Cl
ATOM     18  C   UNL A   1      36.587  21.082  25.096  1.00  0.00     0.021 A 
ATOM     19  C   UNL A   1      34.405  20.120  24.770  1.00  0.00     0.021 A 
ATOM     20  Cl  UNL A   1      32.208  21.479  24.058  1.00  0.00    -0.084 Cl
ATOM     21  C   UNL A   1      35.752  19.968  25.088  1.00  0.00     0.003 A 
ENDBRANCH  13  14
ENDBRANCH  10  12
ENDBRANCH   7   8
ENDBRANCH   4   7
ENDBRANCH   2   3
ENDBRANCH   1   2
BRANCH   1  22
ATOM     22  C   UNL A   1      31.757  31.805  26.817  1.00  0.00     0.023 C 
BRANCH  22  23
ATOM     23  C   UNL A   1      32.875  32.650  27.420  1.00  0.00     0.116 C 
BRANCH  23  24
ATOM     24  N   UNL A   1      32.479  34.024  27.689  1.00  0.00    -0.352 N 
ATOM     25  C   UNL A   1      33.021  34.917  28.582  1.00  0.00     0.251 C 
ATOM     26  H   UNL A   1      31.720  34.359  27.159  1.00  0.00     0.163 HD
ATOM     27  O   UNL A   1      32.497  36.011  28.769  1.00  0.00    -0.269 OA
BRANCH  25  28
ATOM     28  C   UNL A   1      34.218  34.531  29.357  1.00  0.00     0.039 A 
ATOM     29  C   UNL A   1      34.047  33.943  30.613  1.00  0.00     0.014 A 
ATOM     30  C   UNL A   1      35.499  34.707  28.826  1.00  0.00     0.014 A 
ATOM     31  C   UNL A   1      35.157  33.444  31.298  1.00  0.00     0.010 A 
ATOM     32  C   UNL A   1      36.596  34.158  29.483  1.00  0.00     0.010 A 
ATOM     33  C   UNL A   1      36.432  33.503  30.714  1.00  0.00    -0.014 A 
BRANCH  33  34
ATOM     34  C   UNL A   1      37.603  32.842  31.343  1.00  0.00     0.031 A 
ATOM     35  C   UNL A   1      38.246  31.655  30.687  1.00  0.00     0.074 A 
ATOM     36  C   UNL A   1      38.021  33.253  32.556  1.00  0.00     0.049 A 
ATOM     37  N   UNL A   1      39.191  30.871  31.140  1.00  0.00    -0.248 NA
ATOM     38  C   UNL A   1      37.744  31.286  29.355  1.00  0.00     0.031 C 
ATOM     39  C   UNL A   1      37.450  34.367  33.314  1.00  0.00     0.029 A 
ATOM     40  N   UNL A   1      39.009  32.766  33.376  1.00  0.00    -0.354 N 
ATOM     41  C   UNL A   1      39.385  29.909  30.159  1.00  0.00     0.074 A 
ATOM     42  C   UNL A   1      38.432  30.182  29.103  1.00  0.00     0.031 C 
ATOM     43  C   UNL A   1      38.101  34.485  34.482  1.00  0.00     0.029 A 
ATOM     44  C   UNL A   1      39.104  33.429  34.576  1.00  0.00     0.049 A 
ATOM     45  H   UNL A   1      39.593  32.013  33.128  1.00  0.00     0.167 HD
ATOM     46  C   UNL A   1      40.287  28.899  30.136  1.00  0.00     0.037 A 
ATOM     47  C   UNL A   1      39.895  33.197  35.641  1.00  0.00     0.037 A 
ATOM     48  C   UNL A   1      41.249  28.646  31.175  1.00  0.00     0.049 A 
ATOM     49  C   UNL A   1      40.870  32.053  35.599  1.00  0.00     0.074 A 
ATOM     50  C   UNL A   1      42.257  27.699  31.206  1.00  0.00     0.029 A 
ATOM     51  N   UNL A   1      41.318  29.341  32.374  1.00  0.00    -0.354 N 
ATOM     52  N   UNL A   1      41.092  31.192  34.637  1.00  0.00    -0.248 NA
ATOM     53  C   UNL A   1      41.698  31.843  36.795  1.00  0.00     0.031 C 
ATOM     54  C   UNL A   1      42.907  27.790  32.441  1.00  0.00     0.029 A 
ATOM     55  C   UNL A   1      42.330  28.822  33.164  1.00  0.00     0.049 A 
ATOM     56  H   UNL A   1      40.733  30.092  32.626  1.00  0.00     0.167 HD
ATOM     57  C   UNL A   1      42.097  30.353  35.100  1.00  0.00     0.074 A 
ATOM     58  C   UNL A   1      42.450  30.816  36.425  1.00  0.00     0.031 C 
ATOM     59  C   UNL A   1      42.670  29.292  34.482  1.00  0.00     0.037 A 
BRANCH  46  60
ATOM     60  C   UNL A   1      40.281  27.989  28.943  1.00  0.00     0.064 A 
ATOM     61  C   UNL A   1      41.008  28.295  27.783  1.00  0.00     0.173 A 
ATOM     62  C   UNL A   1      39.578  26.776  28.978  1.00  0.00     0.173 A 
ATOM     63  F   UNL A   1      41.687  29.448  27.697  1.00  0.00    -0.203 F 
ATOM     64  C   UNL A   1      41.011  27.431  26.692  1.00  0.00     0.198 A 
ATOM     65  C   UNL A   1      39.606  25.900  27.895  1.00  0.00     0.198 A 
ATOM     66  F   UNL A   1      38.873  26.432  30.067  1.00  0.00    -0.203 F 
ATOM     67  F   UNL A   1      41.678  27.763  25.579  1.00  0.00    -0.200 F 
ATOM     68  C   UNL A   1      40.317  26.231  26.751  1.00  0.00     0.200 A 
ATOM     69  F   UNL A   1      38.945  24.737  27.959  1.00  0.00    -0.200 F 
ATOM     70  F   UNL A   1      40.328  25.396  25.703  1.00  0.00    -0.200 F 
ENDBRANCH  46  60
BRANCH  47  71
ATOM     71  C   UNL A   1      39.798  34.070  36.839  1.00  0.00     0.064 A 
ATOM     72  C   UNL A   1      38.963  33.726  37.912  1.00  0.00     0.173 A 
ATOM     73  C   UNL A   1      40.534  35.259  36.939  1.00  0.00     0.173 A 
ATOM     74  F   UNL A   1      38.223  32.610  37.851  1.00  0.00    -0.203 F 
ATOM     75  C   UNL A   1      38.857  34.547  39.032  1.00  0.00     0.198 A 
ATOM     76  C   UNL A   1      40.446  36.067  38.072  1.00  0.00     0.198 A 
ATOM     77  F   UNL A   1      41.349  35.631  35.941  1.00  0.00    -0.203 F 
ATOM     78  F   UNL A   1      38.021  34.216  40.025  1.00  0.00    -0.200 F 
ATOM     79  C   UNL A   1      39.603  35.714  39.113  1.00  0.00     0.200 A 
ATOM     80  F   UNL A   1      41.178  37.186  38.152  1.00  0.00    -0.200 F 
ATOM     81  F   UNL A   1      39.503  36.500  40.194  1.00  0.00    -0.200 F 
ENDBRANCH  47  71
BRANCH  59  82
ATOM     82  C   UNL A   1      43.751  28.565  35.225  1.00  0.00     0.064 A 
ATOM     83  C   UNL A   1      43.467  27.440  36.012  1.00  0.00     0.173 A 
ATOM     84  C   UNL A   1      45.090  28.964  35.104  1.00  0.00     0.173 A 
ATOM     85  F   UNL A   1      42.199  27.032  36.171  1.00  0.00    -0.203 F 
ATOM     86  C   UNL A   1      44.484  26.747  36.661  1.00  0.00     0.198 A 
ATOM     87  C   UNL A   1      46.108  28.254  35.736  1.00  0.00     0.198 A 
ATOM     88  F   UNL A   1      45.414  30.033  34.360  1.00  0.00    -0.203 F 
ATOM     89  F   UNL A   1      44.187  25.694  37.437  1.00  0.00    -0.200 F 
ATOM     90  C   UNL A   1      45.803  27.148  36.516  1.00  0.00     0.200 A 
ATOM     91  F   UNL A   1      47.384  28.636  35.585  1.00  0.00    -0.200 F 
ATOM     92  F   UNL A   1      46.783  26.473  37.133  1.00  0.00    -0.200 F 
ENDBRANCH  59  82
ENDBRANCH  33  34
ENDBRANCH  25  28
ENDBRANCH  23  24
ENDBRANCH  22  23
ENDBRANCH   1  22
TORSDOF 14
ENDMDL
MODEL 2
REMARK VINA RESULT:     -12.1      4.581     10.635
REMARK SMILES O=C(/C=C/c1c(Cl)cccc1Cl)NCC(=O)NCCCCNC(=O)c1ccc(-c2c3nc(c(-c4c(F)c(F)c(F)c(F)c4F)c4ccc([nH]4)c(-c4c(F)c(F)c(F)c(F)c4F)c4nc(c(-c5c(F)c(F)c(F)c(F)c5F)c5ccc2[nH]5)C=C4)C=C3)cc1
REMARK SMILES IDX 19 1 18 2 17 3 15 4 16 5 14 7 13 8 1 9 2 10 3 12 4 13 5 14
REMARK SMILES IDX 6 15 11 16 7 17 8 18 10 19 12 20 9 21 20 22 21 23 22 24
REMARK SMILES IDX 23 25 24 27 25 28 26 29 87 30 27 31 86 32 28 33 29 34 30 35
REMARK SMILES IDX 80 36 31 37 85 38 79 39 81 40 32 41 84 42 78 43 77 44 33 46
REMARK SMILES IDX 65 47 45 48 64 49 46 50 49 51 63 52 82 53 47 54 48 55 62 57
REMARK SMILES IDX 83 58 50 59 34 60 35 61 43 62 36 63 37 64 41 65 44 66 38 67
REMARK SMILES IDX 39 68 42 69 40 70 66 71 67 72 75 73 68 74 69 75 73 76 76 77
REMARK SMILES IDX 70 78 71 79 74 80 72 81 51 82 52 83 60 84 53 85 54 86 58 87
REMARK SMILES IDX 61 88 55 89 56 90 59 91 57 92
REMARK H PARENT 17 6 13 11 22 26 81 45 49 56
REMARK Flexibility Score: inf
ROOT
ATOM      1  C   UNL A   1      34.362  34.693  29.207  1.00  0.00     0.023 C 
ENDROOT
BRANCH   1   2
ATOM      2  C   UNL A   1      33.010  35.321  29.542  1.00  0.00     0.116 C 
BRANCH   2   3
ATOM      3  N   UNL A   1      33.161  36.550  30.298  1.00  0.00    -0.355 N 
ATOM      4  C   UNL A   1      33.141  36.724  31.653  1.00  0.00     0.239 C 
ATOM      5  O   UNL A   1      33.328  37.858  32.098  1.00  0.00    -0.273 OA
ATOM      6  H   UNL A   1      33.296  37.366  29.764  1.00  0.00     0.163 HD
BRANCH   4   7
ATOM      7  C   UNL A   1      32.949  35.524  32.583  1.00  0.00     0.216 C 
BRANCH   7   8
ATOM      8  N   UNL A   1      34.219  34.960  33.010  1.00  0.00    -0.343 N 
ATOM      9  O   UNL A   1      33.651  32.783  32.581  1.00  0.00    -0.270 OA
ATOM     10  C   UNL A   1      34.464  33.615  32.965  1.00  0.00     0.244 C 
ATOM     11  H   UNL A   1      34.923  35.564  33.341  1.00  0.00     0.164 HD
BRANCH  10  12
ATOM     12  C   UNL A   1      35.761  33.163  33.521  1.00  0.00     0.072 C 
ATOM     13  C   UNL A   1      36.755  32.594  32.821  1.00  0.00     0.017 C 
BRANCH  13  14
ATOM     14  C   UNL A   1      38.013  32.155  33.457  1.00  0.00     0.012 A 
ATOM     15  C   UNL A   1      38.303  30.796  33.695  1.00  0.00     0.049 A 
ATOM     16  C   UNL A   1      38.987  33.106  33.820  1.00  0.00     0.049 A 
ATOM     17  Cl  UNL A   1      37.217  29.523  33.244  1.00  0.00    -0.084 Cl
ATOM     18  C   UNL A   1      39.511  30.410  34.288  1.00  0.00     0.021 A 
ATOM     19  C   UNL A   1      40.199  32.714  34.404  1.00  0.00     0.021 A 
ATOM     20  Cl  UNL A   1      38.742  34.805  33.576  1.00  0.00    -0.084 Cl
ATOM     21  C   UNL A   1      40.459  31.367  34.640  1.00  0.00     0.003 A 
ENDBRANCH  13  14
ENDBRANCH  10  12
ENDBRANCH   7   8
ENDBRANCH   4   7
ENDBRANCH   2   3
ENDBRANCH   1   2
BRANCH   1  22
ATOM     22  C   UNL A   1      34.377  33.161  29.238  1.00  0.00     0.023 C 
BRANCH  22  23
ATOM     23  C   UNL A   1      34.772  32.485  27.929  1.00  0.00     0.116 C 
BRANCH  23  24
ATOM     24  N   UNL A   1      34.158  31.178  27.746  1.00  0.00    -0.352 N 
ATOM     25  C   UNL A   1      34.733  29.934  27.853  1.00  0.00     0.251 C 
ATOM     26  H   UNL A   1      33.201  31.187  27.517  1.00  0.00     0.163 HD
ATOM     27  O   UNL A   1      34.100  28.925  27.559  1.00  0.00    -0.269 OA
BRANCH  25  28
ATOM     28  C   UNL A   1      36.142  29.821  28.282  1.00  0.00     0.039 A 
ATOM     29  C   UNL A   1      36.417  29.470  29.606  1.00  0.00     0.014 A 
ATOM     30  C   UNL A   1      37.183  30.014  27.369  1.00  0.00     0.014 A 
ATOM     31  C   UNL A   1      37.735  29.221  29.994  1.00  0.00     0.010 A 
ATOM     32  C   UNL A   1      38.489  29.709  27.742  1.00  0.00     0.010 A 
ATOM     33  C   UNL A   1      38.774  29.290  29.051  1.00  0.00    -0.014 A 
BRANCH  33  34
ATOM     34  C   UNL A   1      40.158  28.877  29.393  1.00  0.00     0.031 A 
ATOM     35  C   UNL A   1      41.061  29.808  30.150  1.00  0.00     0.074 A 
ATOM     36  C   UNL A   1      40.630  27.702  28.934  1.00  0.00     0.049 A 
ATOM     37  N   UNL A   1      42.333  29.679  30.432  1.00  0.00    -0.248 NA
ATOM     38  C   UNL A   1      40.460  31.059  30.635  1.00  0.00     0.031 C 
ATOM     39  C   UNL A   1      39.864  26.731  28.152  1.00  0.00     0.029 A 
ATOM     40  N   UNL A   1      41.877  27.135  29.037  1.00  0.00    -0.354 N 
ATOM     41  C   UNL A   1      42.688  30.837  31.109  1.00  0.00     0.074 A 
ATOM     42  C   UNL A   1      41.508  31.675  31.163  1.00  0.00     0.031 C 
ATOM     43  C   UNL A   1      40.652  25.686  27.854  1.00  0.00     0.029 A 
ATOM     44  C   UNL A   1      41.989  25.931  28.384  1.00  0.00     0.049 A 
ATOM     45  H   UNL A   1      42.619  27.550  29.532  1.00  0.00     0.167 HD
ATOM     46  C   UNL A   1      43.886  31.162  31.651  1.00  0.00     0.037 A 
ATOM     47  C   UNL A   1      43.056  25.128  28.212  1.00  0.00     0.037 A 
ATOM     48  C   UNL A   1      45.048  30.316  31.618  1.00  0.00     0.049 A 
ATOM     49  C   UNL A   1      44.381  25.526  28.801  1.00  0.00     0.074 A 
ATOM     50  C   UNL A   1      46.282  30.522  32.209  1.00  0.00     0.029 A 
ATOM     51  N   UNL A   1      45.123  29.102  30.950  1.00  0.00    -0.354 N 
ATOM     52  N   UNL A   1      44.687  26.590  29.500  1.00  0.00    -0.248 NA
ATOM     53  C   UNL A   1      45.510  24.614  28.571  1.00  0.00     0.031 C 
ATOM     54  C   UNL A   1      47.118  29.455  31.861  1.00  0.00     0.029 A 
ATOM     55  C   UNL A   1      46.392  28.565  31.088  1.00  0.00     0.049 A 
ATOM     56  H   UNL A   1      44.383  28.685  30.451  1.00  0.00     0.167 HD
ATOM     57  C   UNL A   1      46.034  26.469  29.811  1.00  0.00     0.074 A 
ATOM     58  C   UNL A   1      46.485  25.220  29.235  1.00  0.00     0.031 C 
ATOM     59  C   UNL A   1      46.826  27.319  30.507  1.00  0.00     0.037 A 
BRANCH  46  60
ATOM     60  C   UNL A   1      44.000  32.494  32.333  1.00  0.00     0.064 A 
ATOM     61  C   UNL A   1      44.181  33.679  31.605  1.00  0.00     0.173 A 
ATOM     62  C   UNL A   1      43.880  32.590  33.727  1.00  0.00     0.173 A 
ATOM     63  F   UNL A   1      44.312  33.637  30.271  1.00  0.00    -0.203 F 
ATOM     64  C   UNL A   1      44.262  34.910  32.250  1.00  0.00     0.198 A 
ATOM     65  C   UNL A   1      43.934  33.826  34.367  1.00  0.00     0.198 A 
ATOM     66  F   UNL A   1      43.699  31.487  34.470  1.00  0.00    -0.203 F 
ATOM     67  F   UNL A   1      44.477  36.024  31.538  1.00  0.00    -0.200 F 
ATOM     68  C   UNL A   1      44.132  34.984  33.629  1.00  0.00     0.200 A 
ATOM     69  F   UNL A   1      43.797  33.897  35.698  1.00  0.00    -0.200 F 
ATOM     70  F   UNL A   1      44.202  36.170  34.247  1.00  0.00    -0.200 F 
ENDBRANCH  46  60
BRANCH  47  71
ATOM     71  C   UNL A   1      42.914  23.862  27.446  1.00  0.00     0.064 A 
ATOM     72  C   UNL A   1      42.471  22.690  28.074  1.00  0.00     0.173 A 
ATOM     73  C   UNL A   1      43.217  23.797  26.079  1.00  0.00     0.173 A 
ATOM     74  F   UNL A   1      42.191  22.699  29.386  1.00  0.00    -0.203 F 
ATOM     75  C   UNL A   1      42.350  21.497  27.366  1.00  0.00     0.198 A 
ATOM     76  C   UNL A   1      43.071  22.609  25.365  1.00  0.00     0.198 A 
ATOM     77  F   UNL A   1      43.642  24.892  25.431  1.00  0.00    -0.203 F 
ATOM     78  F   UNL A   1      41.963  20.381  27.999  1.00  0.00    -0.200 F 
ATOM     79  C   UNL A   1      42.645  21.458  26.011  1.00  0.00     0.200 A 
ATOM     80  F   UNL A   1      43.344  22.578  24.054  1.00  0.00    -0.200 F 
ATOM     81  F   UNL A   1      42.523  20.310  25.330  1.00  0.00    -0.200 F 
ENDBRANCH  47  71
BRANCH  59  82
ATOM     82  C   UNL A   1      48.260  26.923  30.700  1.00  0.00     0.064 A 
ATOM     83  C   UNL A   1      48.644  26.049  31.728  1.00  0.00     0.173 A 
ATOM     84  C   UNL A   1      49.250  27.379  29.818  1.00  0.00     0.173 A 
ATOM     85  F   UNL A   1      47.734  25.601  32.607  1.00  0.00    -0.203 F 
ATOM     86  C   UNL A   1      49.971  25.654  31.870  1.00  0.00     0.198 A 
ATOM     87  C   UNL A   1      50.572  26.962  29.949  1.00  0.00     0.198 A 
ATOM     88  F   UNL A   1      48.932  28.214  28.817  1.00  0.00    -0.203 F 
ATOM     89  F   UNL A   1      50.322  24.845  32.880  1.00  0.00    -0.200 F 
ATOM     90  C   UNL A   1      50.931  26.103  30.977  1.00  0.00     0.200 A 
ATOM     91  F   UNL A   1      51.497  27.387  29.077  1.00  0.00    -0.200 F 
ATOM     92  F   UNL A   1      52.206  25.713  31.110  1.00  0.00    -0.200 F 
ENDBRANCH  59  82
ENDBRANCH  33  34
ENDBRANCH  25  28
ENDBRANCH  23  24
ENDBRANCH  22  23
ENDBRANCH   1  22
TORSDOF 14
ENDMDL
MODEL 3
REMARK VINA RESULT:     -12.1      0.633      1.360
REMARK SMILES O=C(/C=C/c1c(Cl)cccc1Cl)NCC(=O)NCCCCNC(=O)c1ccc(-c2c3nc(c(-c4c(F)c(F)c(F)c(F)c4F)c4ccc([nH]4)c(-c4c(F)c(F)c(F)c(F)c4F)c4nc(c(-c5c(F)c(F)c(F)c(F)c5F)c5ccc2[nH]5)C=C4)C=C3)cc1
REMARK SMILES IDX 19 1 18 2 17 3 15 4 16 5 14 7 13 8 1 9 2 10 3 12 4 13 5 14
REMARK SMILES IDX 6 15 11 16 7 17 8 18 10 19 12 20 9 21 20 22 21 23 22 24
REMARK SMILES IDX 23 25 24 27 25 28 26 29 87 30 27 31 86 32 28 33 29 34 30 35
REMARK SMILES IDX 80 36 31 37 85 38 79 39 81 40 32 41 84 42 78 43 77 44 33 46
REMARK SMILES IDX 65 47 45 48 64 49 46 50 49 51 63 52 82 53 47 54 48 55 62 57
REMARK SMILES IDX 83 58 50 59 34 60 35 61 43 62 36 63 37 64 41 65 44 66 38 67
REMARK SMILES IDX 39 68 42 69 40 70 66 71 67 72 75 73 68 74 69 75 73 76 76 77
REMARK SMILES IDX 70 78 71 79 74 80 72 81 51 82 52 83 60 84 53 85 54 86 58 87
REMARK SMILES IDX 61 88 55 89 56 90 59 91 57 92
REMARK H PARENT 17 6 13 11 22 26 81 45 49 56
REMARK Flexibility Score: inf
ROOT
ATOM      1  C   UNL A   1      32.105  30.138  26.874  1.00  0.00     0.023 C 
ENDROOT
BRANCH   1   2
ATOM      2  C   UNL A   1      32.870  29.676  25.634  1.00  0.00     0.116 C 
BRANCH   2   3
ATOM      3  N   UNL A   1      32.008  29.596  24.471  1.00  0.00    -0.355 N 
ATOM      4  C   UNL A   1      32.264  29.017  23.260  1.00  0.00     0.239 C 
ATOM      5  O   UNL A   1      31.372  29.026  22.409  1.00  0.00    -0.273 OA
ATOM      6  H   UNL A   1      31.121  30.014  24.566  1.00  0.00     0.163 HD
BRANCH   4   7
ATOM      7  C   UNL A   1      33.606  28.326  23.002  1.00  0.00     0.216 C 
BRANCH   7   8
ATOM      8  N   UNL A   1      33.561  26.912  23.335  1.00  0.00    -0.343 N 
ATOM      9  O   UNL A   1      33.525  26.174  21.167  1.00  0.00    -0.270 OA
ATOM     10  C   UNL A   1      33.530  25.943  22.371  1.00  0.00     0.244 C 
ATOM     11  H   UNL A   1      33.553  26.644  24.283  1.00  0.00     0.164 HD
BRANCH  10  12
ATOM     12  C   UNL A   1      33.386  24.547  22.844  1.00  0.00     0.072 C 
ATOM     13  C   UNL A   1      33.846  24.065  24.009  1.00  0.00     0.017 C 
BRANCH  13  14
ATOM     14  C   UNL A   1      33.674  22.651  24.399  1.00  0.00     0.012 A 
ATOM     15  C   UNL A   1      34.746  21.737  24.406  1.00  0.00     0.049 A 
ATOM     16  C   UNL A   1      32.410  22.184  24.812  1.00  0.00     0.049 A 
ATOM     17  Cl  UNL A   1      36.361  22.197  23.977  1.00  0.00    -0.084 Cl
ATOM     18  C   UNL A   1      34.555  20.405  24.794  1.00  0.00     0.021 A 
ATOM     19  C   UNL A   1      32.226  20.852  25.208  1.00  0.00     0.021 A 
ATOM     20  Cl  UNL A   1      31.018  23.217  24.844  1.00  0.00    -0.084 Cl
ATOM     21  C   UNL A   1      33.298  19.963  25.196  1.00  0.00     0.003 A 
ENDBRANCH  13  14
ENDBRANCH  10  12
ENDBRANCH   7   8
ENDBRANCH   4   7
ENDBRANCH   2   3
ENDBRANCH   1   2
BRANCH   1  22
ATOM     22  C   UNL A   1      31.778  31.635  26.899  1.00  0.00     0.023 C 
BRANCH  22  23
ATOM     23  C   UNL A   1      32.911  32.545  27.364  1.00  0.00     0.116 C 
BRANCH  23  24
ATOM     24  N   UNL A   1      32.483  33.910  27.631  1.00  0.00    -0.352 N 
ATOM     25  C   UNL A   1      32.993  34.810  28.536  1.00  0.00     0.251 C 
ATOM     26  H   UNL A   1      31.726  34.231  27.090  1.00  0.00     0.163 HD
ATOM     27  O   UNL A   1      32.445  35.893  28.717  1.00  0.00    -0.269 OA
BRANCH  25  28
ATOM     28  C   UNL A   1      34.186  34.446  29.328  1.00  0.00     0.039 A 
ATOM     29  C   UNL A   1      34.006  33.864  30.586  1.00  0.00     0.014 A 
ATOM     30  C   UNL A   1      35.470  34.634  28.811  1.00  0.00     0.014 A 
ATOM     31  C   UNL A   1      35.114  33.385  31.288  1.00  0.00     0.010 A 
ATOM     32  C   UNL A   1      36.567  34.105  29.486  1.00  0.00     0.010 A 
ATOM     33  C   UNL A   1      36.396  33.457  30.719  1.00  0.00    -0.014 A 
BRANCH  33  34
ATOM     34  C   UNL A   1      37.567  32.815  31.367  1.00  0.00     0.031 A 
ATOM     35  C   UNL A   1      38.247  31.645  30.717  1.00  0.00     0.074 A 
ATOM     36  C   UNL A   1      37.953  33.228  32.590  1.00  0.00     0.049 A 
ATOM     37  N   UNL A   1      39.199  30.878  31.185  1.00  0.00    -0.248 NA
ATOM     38  C   UNL A   1      37.779  31.275  29.374  1.00  0.00     0.031 C 
ATOM     39  C   UNL A   1      37.346  34.326  33.343  1.00  0.00     0.029 A 
ATOM     40  N   UNL A   1      38.935  32.756  33.427  1.00  0.00    -0.354 N 
ATOM     41  C   UNL A   1      39.431  29.926  30.202  1.00  0.00     0.074 A 
ATOM     42  C   UNL A   1      38.494  30.186  29.129  1.00  0.00     0.031 C 
ATOM     43  C   UNL A   1      37.971  34.449  34.524  1.00  0.00     0.029 A 
ATOM     44  C   UNL A   1      38.993  33.413  34.632  1.00  0.00     0.049 A 
ATOM     45  H   UNL A   1      39.539  32.017  33.187  1.00  0.00     0.167 HD
ATOM     46  C   UNL A   1      40.355  28.935  30.191  1.00  0.00     0.037 A 
ATOM     47  C   UNL A   1      39.767  33.191  35.711  1.00  0.00     0.037 A 
ATOM     48  C   UNL A   1      41.301  28.695  31.248  1.00  0.00     0.049 A 
ATOM     49  C   UNL A   1      40.766  32.067  35.682  1.00  0.00     0.074 A 
ATOM     50  C   UNL A   1      42.327  27.768  31.292  1.00  0.00     0.029 A 
ATOM     51  N   UNL A   1      41.332  29.384  32.451  1.00  0.00    -0.354 N 
ATOM     52  N   UNL A   1      41.025  31.217  34.720  1.00  0.00    -0.248 NA
ATOM     53  C   UNL A   1      41.575  31.867  36.893  1.00  0.00     0.031 C 
ATOM     54  C   UNL A   1      42.951  27.866  32.541  1.00  0.00     0.029 A 
ATOM     55  C   UNL A   1      42.339  28.881  33.258  1.00  0.00     0.049 A 
ATOM     56  H   UNL A   1      40.727  30.122  32.696  1.00  0.00     0.167 HD
ATOM     57  C   UNL A   1      42.037  30.395  35.198  1.00  0.00     0.074 A 
ATOM     58  C   UNL A   1      42.355  30.857  36.532  1.00  0.00     0.031 C 
ATOM     59  C   UNL A   1      42.643  29.350  34.586  1.00  0.00     0.037 A 
BRANCH  46  60
ATOM     60  C   UNL A   1      40.390  28.032  28.993  1.00  0.00     0.064 A 
ATOM     61  C   UNL A   1      39.648  26.843  28.947  1.00  0.00     0.173 A 
ATOM     62  C   UNL A   1      41.137  28.386  27.860  1.00  0.00     0.173 A 
ATOM     63  F   UNL A   1      38.927  26.457  30.010  1.00  0.00    -0.203 F 
ATOM     64  C   UNL A   1      39.672  26.027  27.819  1.00  0.00     0.198 A 
ATOM     65  C   UNL A   1      41.137  27.582  26.722  1.00  0.00     0.198 A 
ATOM     66  F   UNL A   1      41.858  29.517  27.849  1.00  0.00    -0.203 F 
ATOM     67  F   UNL A   1      38.990  24.875  27.814  1.00  0.00    -0.200 F 
ATOM     68  C   UNL A   1      40.411  26.400  26.706  1.00  0.00     0.200 A 
ATOM     69  F   UNL A   1      41.842  27.949  25.644  1.00  0.00    -0.200 F 
ATOM     70  F   UNL A   1      40.427  25.618  25.618  1.00  0.00    -0.200 F 
ENDBRANCH  46  60
BRANCH  47  71
ATOM     71  C   UNL A   1      39.630  34.055  36.913  1.00  0.00     0.064 A 
ATOM     72  C   UNL A   1      38.822  33.662  37.989  1.00  0.00     0.173 A 
ATOM     73  C   UNL A   1      40.298  35.283  37.010  1.00  0.00     0.173 A 
ATOM     74  F   UNL A   1      38.145  32.506  37.930  1.00  0.00    -0.203 F 
ATOM     75  C   UNL A   1      38.677  34.474  39.112  1.00  0.00     0.198 A 
ATOM     76  C   UNL A   1      40.173  36.082  38.146  1.00  0.00     0.198 A 
ATOM     77  F   UNL A   1      41.085  35.702  36.009  1.00  0.00    -0.203 F 
ATOM     78  F   UNL A   1      37.867  34.094  40.110  1.00  0.00    -0.200 F 
ATOM     79  C   UNL A   1      39.357  35.680  39.192  1.00  0.00     0.200 A 
ATOM     80  F   UNL A   1      40.841  37.240  38.225  1.00  0.00    -0.200 F 
ATOM     81  F   UNL A   1      39.220  36.458  40.275  1.00  0.00    -0.200 F 
ENDBRANCH  47  71
BRANCH  59  82
ATOM     82  C   UNL A   1      43.725  28.641  35.345  1.00  0.00     0.064 A 
ATOM     83  C   UNL A   1      43.432  27.575  36.209  1.00  0.00     0.173 A 
ATOM     84  C   UNL A   1      45.070  28.993  35.165  1.00  0.00     0.173 A 
ATOM     85  F   UNL A   1      42.158  27.215  36.426  1.00  0.00    -0.203 F 
ATOM     86  C   UNL A   1      44.447  26.897  36.875  1.00  0.00     0.198 A 
ATOM     87  C   UNL A   1      46.085  28.295  35.814  1.00  0.00     0.198 A 
ATOM     88  F   UNL A   1      45.402  30.003  34.346  1.00  0.00    -0.203 F 
ATOM     89  F   UNL A   1      44.143  25.903  37.723  1.00  0.00    -0.200 F 
ATOM     90  C   UNL A   1      45.772  27.250  36.671  1.00  0.00     0.200 A 
ATOM     91  F   UNL A   1      47.366  28.630  35.607  1.00  0.00    -0.200 F 
ATOM     92  F   UNL A   1      46.750  26.587  37.305  1.00  0.00    -0.200 F 
ENDBRANCH  59  82
ENDBRANCH  33  34
ENDBRANCH  25  28
ENDBRANCH  23  24
ENDBRANCH  22  23
ENDBRANCH   1  22
TORSDOF 14
ENDMDL
