MODEL 1
REMARK VINA RESULT:     -13.0      0.000      0.000
REMARK SMILES COc1ccc2c(CC(=O)NCCCCNC(=O)c3ccc(-c4c5nc(c(-c6c(F)c(F)c(F)c(F)c6F)c6ccc([nH]6)c(-c6c(F)c(F)c(F)c(F)c6F)c6nc(c(-c7c(F)c(F)c(F)c(F)c7F)c7ccc4[nH]7)C=C6)C=C5)cc3)c(C(=O)c3cc(C)ccn3)[nH]c2c1
REMARK SMILES IDX 13 1 12 2 11 3 9 4 10 5 8 7 7 8 3 9 4 10 94 11 5 12 93 13
REMARK SMILES IDX 6 14 92 15 82 16 2 18 1 19 83 20 84 21 85 22 86 23 91 24
REMARK SMILES IDX 87 25 90 26 88 27 89 28 14 29 15 30 16 31 17 32 18 34 19 35
REMARK SMILES IDX 20 36 81 37 21 38 80 39 22 40 23 41 24 42 74 43 25 44 79 45
REMARK SMILES IDX 73 46 75 47 26 48 78 49 72 50 71 51 27 53 59 54 39 55 58 56
REMARK SMILES IDX 40 57 43 58 57 59 76 60 41 61 42 62 56 64 77 65 44 66 28 67
REMARK SMILES IDX 29 68 37 69 30 70 31 71 35 72 38 73 32 74 33 75 36 76 34 77
REMARK SMILES IDX 60 78 61 79 69 80 62 81 63 82 67 83 70 84 64 85 65 86 68 87
REMARK SMILES IDX 66 88 45 89 46 90 54 91 47 92 48 93 52 94 55 95 49 96 50 97
REMARK SMILES IDX 53 98 51 99
REMARK H PARENT 11 6 92 17 16 33 75 52 43 63
REMARK Flexibility Score: inf
ROOT
ATOM      1  C   UNL A   1      32.457  26.931  26.259  1.00  0.00     0.023 C 
ENDROOT
BRANCH   1   2
ATOM      2  C   UNL A   1      33.564  26.443  25.326  1.00  0.00     0.116 C 
BRANCH   2   3
ATOM      3  N   UNL A   1      34.407  25.439  25.935  1.00  0.00    -0.356 N 
ATOM      4  C   UNL A   1      35.142  24.447  25.351  1.00  0.00     0.224 C 
ATOM      5  O   UNL A   1      35.947  23.856  26.078  1.00  0.00    -0.275 OA
ATOM      6  H   UNL A   1      34.458  25.475  26.918  1.00  0.00     0.163 HD
BRANCH   4   7
ATOM      7  C   UNL A   1      35.082  24.182  23.850  1.00  0.00     0.138 C 
BRANCH   7   8
ATOM      8  C   UNL A   1      33.939  23.315  23.389  1.00  0.00    -0.002 A 
ATOM      9  C   UNL A   1      32.805  19.309  24.075  1.00  0.00     0.120 A 
ATOM     10  C   UNL A   1      33.907  19.748  24.804  1.00  0.00     0.047 A 
ATOM     11  C   UNL A   1      32.159  20.164  23.177  1.00  0.00     0.073 A 
ATOM     12  C   UNL A   1      34.366  21.065  24.674  1.00  0.00     0.014 A 
ATOM     13  C   UNL A   1      32.622  21.481  23.073  1.00  0.00     0.050 A 
ATOM     14  C   UNL A   1      33.714  21.954  23.792  1.00  0.00     0.004 A 
ATOM     15  N   UNL A   1      32.167  22.521  22.301  1.00  0.00    -0.351 N 
ATOM     16  C   UNL A   1      32.888  23.674  22.541  1.00  0.00     0.093 A 
ATOM     17  H   UNL A   1      31.424  22.454  21.660  1.00  0.00     0.167 HD
BRANCH   9  18
ATOM     18  O   UNL A   1      32.302  18.034  24.129  1.00  0.00    -0.497 OA
ATOM     19  C   UNL A   1      32.455  17.388  25.390  1.00  0.00     0.278 C 
ENDBRANCH   9  18
BRANCH  16  20
ATOM     20  C   UNL A   1      32.595  24.983  21.966  1.00  0.00     0.227 C 
ATOM     21  O   UNL A   1      33.248  25.475  21.046  1.00  0.00    -0.285 OA
BRANCH  20  22
ATOM     22  C   UNL A   1      31.495  25.802  22.541  1.00  0.00     0.113 A 
ATOM     23  C   UNL A   1      31.363  27.140  22.180  1.00  0.00     0.036 A 
ATOM     24  N   UNL A   1      30.653  25.162  23.392  1.00  0.00    -0.253 NA
ATOM     25  C   UNL A   1      30.306  27.873  22.723  1.00  0.00    -0.047 A 
ATOM     26  C   UNL A   1      29.621  25.883  23.874  1.00  0.00     0.112 A 
ATOM     27  C   UNL A   1      30.102  29.318  22.381  1.00  0.00     0.044 C 
ATOM     28  C   UNL A   1      29.411  27.221  23.577  1.00  0.00     0.023 A 
ENDBRANCH  20  22
ENDBRANCH  16  20
ENDBRANCH   7   8
ENDBRANCH   4   7
ENDBRANCH   2   3
ENDBRANCH   1   2
BRANCH   1  29
ATOM     29  C   UNL A   1      31.962  28.355  25.993  1.00  0.00     0.023 C 
BRANCH  29  30
ATOM     30  C   UNL A   1      33.047  29.399  25.760  1.00  0.00     0.116 C 
BRANCH  30  31
ATOM     31  N   UNL A   1      32.694  30.722  26.247  1.00  0.00    -0.352 N 
ATOM     32  C   UNL A   1      33.345  31.510  27.163  1.00  0.00     0.251 C 
ATOM     33  H   UNL A   1      31.873  31.108  25.865  1.00  0.00     0.163 HD
ATOM     34  O   UNL A   1      32.847  32.576  27.519  1.00  0.00    -0.269 OA
BRANCH  32  35
ATOM     35  C   UNL A   1      34.623  31.063  27.761  1.00  0.00     0.039 A 
ATOM     36  C   UNL A   1      35.661  31.992  27.882  1.00  0.00     0.014 A 
ATOM     37  C   UNL A   1      34.811  29.748  28.196  1.00  0.00     0.014 A 
ATOM     38  C   UNL A   1      36.858  31.622  28.495  1.00  0.00     0.010 A 
ATOM     39  C   UNL A   1      35.981  29.397  28.867  1.00  0.00     0.010 A 
ATOM     40  C   UNL A   1      37.016  30.329  29.022  1.00  0.00    -0.014 A 
BRANCH  40  41
ATOM     41  C   UNL A   1      38.255  29.956  29.751  1.00  0.00     0.031 A 
ATOM     42  C   UNL A   1      38.511  30.468  31.139  1.00  0.00     0.074 A 
ATOM     43  C   UNL A   1      39.173  29.183  29.138  1.00  0.00     0.049 A 
ATOM     44  N   UNL A   1      39.531  30.240  31.930  1.00  0.00    -0.248 NA
ATOM     45  C   UNL A   1      37.505  31.378  31.706  1.00  0.00     0.031 C 
ATOM     46  C   UNL A   1      39.074  28.680  27.766  1.00  0.00     0.029 A 
ATOM     47  N   UNL A   1      40.371  28.689  29.587  1.00  0.00    -0.354 N 
ATOM     48  C   UNL A   1      39.294  30.984  33.078  1.00  0.00     0.074 A 
ATOM     49  C   UNL A   1      38.061  31.711  32.862  1.00  0.00     0.031 C 
ATOM     50  C   UNL A   1      40.150  27.924  27.497  1.00  0.00     0.029 A 
ATOM     51  C   UNL A   1      41.023  27.905  28.667  1.00  0.00     0.049 A 
ATOM     52  H   UNL A   1      40.730  28.879  30.484  1.00  0.00     0.167 HD
ATOM     53  C   UNL A   1      40.025  31.038  34.217  1.00  0.00     0.037 A 
ATOM     54  C   UNL A   1      42.187  27.236  28.761  1.00  0.00     0.037 A 
ATOM     55  C   UNL A   1      41.237  30.295  34.440  1.00  0.00     0.049 A 
ATOM     56  C   UNL A   1      42.955  27.276  30.053  1.00  0.00     0.074 A 
ATOM     57  C   UNL A   1      42.021  30.239  35.580  1.00  0.00     0.029 A 
ATOM     58  N   UNL A   1      41.843  29.474  33.500  1.00  0.00    -0.354 N 
ATOM     59  N   UNL A   1      42.679  27.918  31.161  1.00  0.00    -0.248 NA
ATOM     60  C   UNL A   1      44.190  26.480  30.112  1.00  0.00     0.031 C 
ATOM     61  C   UNL A   1      43.116  29.409  35.320  1.00  0.00     0.029 A 
ATOM     62  C   UNL A   1      42.994  28.914  34.031  1.00  0.00     0.049 A 
ATOM     63  H   UNL A   1      41.505  29.314  32.590  1.00  0.00     0.167 HD
ATOM     64  C   UNL A   1      43.684  27.583  32.058  1.00  0.00     0.074 A 
ATOM     65  C   UNL A   1      44.570  26.667  31.368  1.00  0.00     0.031 C 
ATOM     66  C   UNL A   1      43.858  27.996  33.336  1.00  0.00     0.037 A 
BRANCH  53  67
ATOM     67  C   UNL A   1      39.523  31.926  35.318  1.00  0.00     0.064 A 
ATOM     68  C   UNL A   1      39.926  33.266  35.419  1.00  0.00     0.173 A 
ATOM     69  C   UNL A   1      38.604  31.443  36.262  1.00  0.00     0.173 A 
ATOM     70  F   UNL A   1      40.811  33.772  34.549  1.00  0.00    -0.203 F 
ATOM     71  C   UNL A   1      39.449  34.083  36.441  1.00  0.00     0.198 A 
ATOM     72  C   UNL A   1      38.108  32.271  37.266  1.00  0.00     0.198 A 
ATOM     73  F   UNL A   1      38.182  30.171  36.206  1.00  0.00    -0.203 F 
ATOM     74  F   UNL A   1      39.884  35.346  36.546  1.00  0.00    -0.200 F 
ATOM     75  C   UNL A   1      38.536  33.586  37.360  1.00  0.00     0.200 A 
ATOM     76  F   UNL A   1      37.217  31.793  38.146  1.00  0.00    -0.200 F 
ATOM     77  F   UNL A   1      38.073  34.375  38.340  1.00  0.00    -0.200 F 
ENDBRANCH  53  67
BRANCH  54  78
ATOM     78  C   UNL A   1      42.667  26.423  27.615  1.00  0.00     0.064 A 
ATOM     79  C   UNL A   1      42.180  25.126  27.404  1.00  0.00     0.173 A 
ATOM     80  C   UNL A   1      43.615  26.922  26.711  1.00  0.00     0.173 A 
ATOM     81  F   UNL A   1      41.286  24.600  28.256  1.00  0.00    -0.203 F 
ATOM     82  C   UNL A   1      42.638  24.350  26.342  1.00  0.00     0.198 A 
ATOM     83  C   UNL A   1      44.053  26.153  25.635  1.00  0.00     0.198 A 
ATOM     84  F   UNL A   1      44.105  28.159  26.867  1.00  0.00    -0.203 F 
ATOM     85  F   UNL A   1      42.187  23.097  26.188  1.00  0.00    -0.200 F 
ATOM     86  C   UNL A   1      43.570  24.866  25.456  1.00  0.00     0.200 A 
ATOM     87  F   UNL A   1      44.945  26.659  24.773  1.00  0.00    -0.200 F 
ATOM     88  F   UNL A   1      44.008  24.120  24.432  1.00  0.00    -0.200 F 
ENDBRANCH  54  78
BRANCH  66  89
ATOM     89  C   UNL A   1      45.028  27.429  34.085  1.00  0.00     0.064 A 
ATOM     90  C   UNL A   1      44.926  26.237  34.816  1.00  0.00     0.173 A 
ATOM     91  C   UNL A   1      46.271  28.078  34.053  1.00  0.00     0.173 A 
ATOM     92  F   UNL A   1      43.754  25.588  34.889  1.00  0.00    -0.203 F 
ATOM     93  C   UNL A   1      46.019  25.730  35.514  1.00  0.00     0.198 A 
ATOM     94  C   UNL A   1      47.369  27.555  34.731  1.00  0.00     0.198 A 
ATOM     95  F   UNL A   1      46.421  29.219  33.364  1.00  0.00    -0.203 F 
ATOM     96  F   UNL A   1      45.885  24.617  36.249  1.00  0.00    -0.200 F 
ATOM     97  C   UNL A   1      47.240  26.387  35.467  1.00  0.00     0.200 A 
ATOM     98  F   UNL A   1      48.551  28.185  34.677  1.00  0.00    -0.200 F 
ATOM     99  F   UNL A   1      48.291  25.899  36.141  1.00  0.00    -0.200 F 
ENDBRANCH  66  89
ENDBRANCH  40  41
ENDBRANCH  32  35
ENDBRANCH  30  31
ENDBRANCH  29  30
ENDBRANCH   1  29
TORSDOF 15
ENDMDL
MODEL 2
REMARK VINA RESULT:     -13.0      1.952      3.006
REMARK SMILES COc1ccc2c(CC(=O)NCCCCNC(=O)c3ccc(-c4c5nc(c(-c6c(F)c(F)c(F)c(F)c6F)c6ccc([nH]6)c(-c6c(F)c(F)c(F)c(F)c6F)c6nc(c(-c7c(F)c(F)c(F)c(F)c7F)c7ccc4[nH]7)C=C6)C=C5)cc3)c(C(=O)c3cc(C)ccn3)[nH]c2c1
REMARK SMILES IDX 13 1 12 2 11 3 9 4 10 5 8 7 7 8 3 9 4 10 94 11 5 12 93 13
REMARK SMILES IDX 6 14 92 15 82 16 2 18 1 19 83 20 84 21 85 22 86 23 91 24
REMARK SMILES IDX 87 25 90 26 88 27 89 28 14 29 15 30 16 31 17 32 18 34 19 35
REMARK SMILES IDX 20 36 81 37 21 38 80 39 22 40 23 41 24 42 74 43 25 44 79 45
REMARK SMILES IDX 73 46 75 47 26 48 78 49 72 50 71 51 27 53 59 54 39 55 58 56
REMARK SMILES IDX 40 57 43 58 57 59 76 60 41 61 42 62 56 64 77 65 44 66 28 67
REMARK SMILES IDX 29 68 37 69 30 70 31 71 35 72 38 73 32 74 33 75 36 76 34 77
REMARK SMILES IDX 60 78 61 79 69 80 62 81 63 82 67 83 70 84 64 85 65 86 68 87
REMARK SMILES IDX 66 88 45 89 46 90 54 91 47 92 48 93 52 94 55 95 49 96 50 97
REMARK SMILES IDX 53 98 51 99
REMARK H PARENT 11 6 92 17 16 33 75 52 43 63
REMARK Flexibility Score: inf
ROOT
ATOM      1  C   UNL A   1      31.587  30.794  25.902  1.00  0.00     0.023 C 
ENDROOT
BRANCH   1   2
ATOM      2  C   UNL A   1      32.419  29.758  26.657  1.00  0.00     0.116 C 
BRANCH   2   3
ATOM      3  N   UNL A   1      31.755  28.478  26.763  1.00  0.00    -0.356 N 
ATOM      4  C   UNL A   1      32.239  27.223  26.523  1.00  0.00     0.224 C 
ATOM      5  O   UNL A   1      31.534  26.279  26.895  1.00  0.00    -0.275 OA
ATOM      6  H   UNL A   1      30.814  28.516  27.050  1.00  0.00     0.163 HD
BRANCH   4   7
ATOM      7  C   UNL A   1      33.640  26.997  25.962  1.00  0.00     0.138 C 
BRANCH   7   8
ATOM      8  C   UNL A   1      33.760  25.894  24.943  1.00  0.00    -0.002 A 
ATOM      9  C   UNL A   1      34.626  21.769  25.141  1.00  0.00     0.120 A 
ATOM     10  C   UNL A   1      34.507  22.411  26.371  1.00  0.00     0.047 A 
ATOM     11  C   UNL A   1      34.478  22.482  23.947  1.00  0.00     0.073 A 
ATOM     12  C   UNL A   1      34.203  23.777  26.432  1.00  0.00     0.014 A 
ATOM     13  C   UNL A   1      34.159  23.843  24.030  1.00  0.00     0.050 A 
ATOM     14  C   UNL A   1      34.025  24.513  25.240  1.00  0.00     0.004 A 
ATOM     15  N   UNL A   1      33.938  24.762  23.035  1.00  0.00    -0.351 N 
ATOM     16  C   UNL A   1      33.602  25.995  23.558  1.00  0.00     0.093 A 
ATOM     17  H   UNL A   1      34.009  24.568  22.073  1.00  0.00     0.167 HD
BRANCH   9  18
ATOM     18  O   UNL A   1      34.937  20.441  24.990  1.00  0.00    -0.497 OA
ATOM     19  C   UNL A   1      33.829  19.604  24.674  1.00  0.00     0.278 C 
ENDBRANCH   9  18
BRANCH  16  20
ATOM     20  C   UNL A   1      33.201  27.159  22.775  1.00  0.00     0.227 C 
ATOM     21  O   UNL A   1      33.980  27.789  22.061  1.00  0.00    -0.285 OA
BRANCH  20  22
ATOM     22  C   UNL A   1      31.804  27.659  22.874  1.00  0.00     0.113 A 
ATOM     23  C   UNL A   1      30.799  26.823  23.355  1.00  0.00     0.036 A 
ATOM     24  N   UNL A   1      31.600  28.946  22.496  1.00  0.00    -0.253 NA
ATOM     25  C   UNL A   1      29.503  27.332  23.454  1.00  0.00    -0.047 A 
ATOM     26  C   UNL A   1      30.347  29.423  22.635  1.00  0.00     0.112 A 
ATOM     27  C   UNL A   1      28.371  26.491  23.961  1.00  0.00     0.044 C 
ATOM     28  C   UNL A   1      29.281  28.666  23.098  1.00  0.00     0.023 A 
ENDBRANCH  20  22
ENDBRANCH  16  20
ENDBRANCH   7   8
ENDBRANCH   4   7
ENDBRANCH   2   3
ENDBRANCH   1   2
BRANCH   1  29
ATOM     29  C   UNL A   1      31.334  32.101  26.657  1.00  0.00     0.023 C 
BRANCH  29  30
ATOM     30  C   UNL A   1      32.577  32.827  27.156  1.00  0.00     0.116 C 
BRANCH  30  31
ATOM     31  N   UNL A   1      32.308  34.164  27.656  1.00  0.00    -0.352 N 
ATOM     32  C   UNL A   1      32.969  34.877  28.625  1.00  0.00     0.251 C 
ATOM     33  H   UNL A   1      31.543  34.625  27.240  1.00  0.00     0.163 HD
ATOM     34  O   UNL A   1      32.541  35.973  28.980  1.00  0.00    -0.269 OA
BRANCH  32  35
ATOM     35  C   UNL A   1      34.171  34.314  29.280  1.00  0.00     0.039 A 
ATOM     36  C   UNL A   1      33.998  33.539  30.431  1.00  0.00     0.014 A 
ATOM     37  C   UNL A   1      35.455  34.543  28.780  1.00  0.00     0.014 A 
ATOM     38  C   UNL A   1      35.103  32.943  31.040  1.00  0.00     0.010 A 
ATOM     39  C   UNL A   1      36.550  33.894  29.350  1.00  0.00     0.010 A 
ATOM     40  C   UNL A   1      36.385  33.089  30.486  1.00  0.00    -0.014 A 
BRANCH  40  41
ATOM     41  C   UNL A   1      37.551  32.388  31.080  1.00  0.00     0.031 A 
ATOM     42  C   UNL A   1      38.043  32.750  32.453  1.00  0.00     0.074 A 
ATOM     43  C   UNL A   1      38.194  31.449  30.359  1.00  0.00     0.049 A 
ATOM     44  N   UNL A   1      39.039  32.239  33.135  1.00  0.00    -0.248 NA
ATOM     45  C   UNL A   1      37.345  33.845  33.140  1.00  0.00     0.031 C 
ATOM     46  C   UNL A   1      37.857  31.058  28.989  1.00  0.00     0.029 A 
ATOM     47  N   UNL A   1      39.268  30.656  30.677  1.00  0.00    -0.354 N 
ATOM     48  C   UNL A   1      39.091  32.958  34.322  1.00  0.00     0.074 A 
ATOM     49  C   UNL A   1      38.062  33.972  34.247  1.00  0.00     0.031 C 
ATOM     50  C   UNL A   1      38.687  30.078  28.596  1.00  0.00     0.029 A 
ATOM     51  C   UNL A   1      39.625  29.787  29.676  1.00  0.00     0.049 A 
ATOM     52  H   UNL A   1      39.738  30.706  31.541  1.00  0.00     0.167 HD
ATOM     53  C   UNL A   1      39.908  32.772  35.387  1.00  0.00     0.037 A 
ATOM     54  C   UNL A   1      40.592  28.852  29.637  1.00  0.00     0.037 A 
ATOM     55  C   UNL A   1      40.914  31.747  35.470  1.00  0.00     0.049 A 
ATOM     56  C   UNL A   1      41.454  28.636  30.851  1.00  0.00     0.074 A 
ATOM     57  C   UNL A   1      41.754  31.442  36.528  1.00  0.00     0.029 A 
ATOM     58  N   UNL A   1      41.216  30.854  34.453  1.00  0.00    -0.354 N 
ATOM     59  N   UNL A   1      41.440  29.266  31.999  1.00  0.00    -0.248 NA
ATOM     60  C   UNL A   1      42.454  27.562  30.768  1.00  0.00     0.031 C 
ATOM     61  C   UNL A   1      42.585  30.386  36.139  1.00  0.00     0.029 A 
ATOM     62  C   UNL A   1      42.234  30.004  34.854  1.00  0.00     0.049 A 
ATOM     63  H   UNL A   1      40.773  30.828  33.575  1.00  0.00     0.167 HD
ATOM     64  C   UNL A   1      42.404  28.650  32.784  1.00  0.00     0.074 A 
ATOM     65  C   UNL A   1      42.975  27.585  31.986  1.00  0.00     0.031 C 
ATOM     66  C   UNL A   1      42.783  28.942  34.053  1.00  0.00     0.037 A 
BRANCH  53  67
ATOM     67  C   UNL A   1      39.736  33.696  36.558  1.00  0.00     0.064 A 
ATOM     68  C   UNL A   1      40.395  34.934  36.616  1.00  0.00     0.173 A 
ATOM     69  C   UNL A   1      38.880  33.358  37.615  1.00  0.00     0.173 A 
ATOM     70  F   UNL A   1      41.234  35.299  35.635  1.00  0.00    -0.203 F 
ATOM     71  C   UNL A   1      40.224  35.786  37.704  1.00  0.00     0.198 A 
ATOM     72  C   UNL A   1      38.689  34.225  38.688  1.00  0.00     0.198 A 
ATOM     73  F   UNL A   1      38.222  32.189  37.605  1.00  0.00    -0.203 F 
ATOM     74  F   UNL A   1      40.899  36.942  37.760  1.00  0.00    -0.200 F 
ATOM     75  C   UNL A   1      39.366  35.434  38.735  1.00  0.00     0.200 A 
ATOM     76  F   UNL A   1      37.851  33.888  39.679  1.00  0.00    -0.200 F 
ATOM     77  F   UNL A   1      39.198  36.257  39.779  1.00  0.00    -0.200 F 
ENDBRANCH  53  67
BRANCH  54  78
ATOM     78  C   UNL A   1      40.756  28.008  28.427  1.00  0.00     0.064 A 
ATOM     79  C   UNL A   1      40.106  26.771  28.323  1.00  0.00     0.173 A 
ATOM     80  C   UNL A   1      41.560  28.417  27.355  1.00  0.00     0.173 A 
ATOM     81  F   UNL A   1      39.342  26.329  29.334  1.00  0.00    -0.203 F 
ATOM     82  C   UNL A   1      40.269  25.964  27.199  1.00  0.00     0.198 A 
ATOM     83  C   UNL A   1      41.702  27.621  26.220  1.00  0.00     0.198 A 
ATOM     84  F   UNL A   1      42.198  29.595  27.404  1.00  0.00    -0.203 F 
ATOM     85  F   UNL A   1      39.670  24.767  27.143  1.00  0.00    -0.200 F 
ATOM     86  C   UNL A   1      41.063  26.392  26.146  1.00  0.00     0.200 A 
ATOM     87  F   UNL A   1      42.461  28.043  25.199  1.00  0.00    -0.200 F 
ATOM     88  F   UNL A   1      41.218  25.618  25.064  1.00  0.00    -0.200 F 
ENDBRANCH  54  78
BRANCH  66  89
ATOM     89  C   UNL A   1      43.837  28.068  34.668  1.00  0.00     0.064 A 
ATOM     90  C   UNL A   1      45.197  28.403  34.608  1.00  0.00     0.173 A 
ATOM     91  C   UNL A   1      43.476  26.892  35.342  1.00  0.00     0.173 A 
ATOM     92  F   UNL A   1      45.593  29.510  33.961  1.00  0.00    -0.203 F 
ATOM     93  C   UNL A   1      46.162  27.575  35.175  1.00  0.00     0.198 A 
ATOM     94  C   UNL A   1      44.442  26.080  35.931  1.00  0.00     0.198 A 
ATOM     95  F   UNL A   1      42.188  26.531  35.432  1.00  0.00    -0.203 F 
ATOM     96  F   UNL A   1      47.461  27.887  35.061  1.00  0.00    -0.200 F 
ATOM     97  C   UNL A   1      45.784  26.418  35.839  1.00  0.00     0.200 A 
ATOM     98  F   UNL A   1      44.074  24.968  36.581  1.00  0.00    -0.200 F 
ATOM     99  F   UNL A   1      46.715  25.622  36.384  1.00  0.00    -0.200 F 
ENDBRANCH  66  89
ENDBRANCH  40  41
ENDBRANCH  32  35
ENDBRANCH  30  31
ENDBRANCH  29  30
ENDBRANCH   1  29
TORSDOF 15
ENDMDL
MODEL 3
REMARK VINA RESULT:     -12.9      2.057      4.489
REMARK SMILES COc1ccc2c(CC(=O)NCCCCNC(=O)c3ccc(-c4c5nc(c(-c6c(F)c(F)c(F)c(F)c6F)c6ccc([nH]6)c(-c6c(F)c(F)c(F)c(F)c6F)c6nc(c(-c7c(F)c(F)c(F)c(F)c7F)c7ccc4[nH]7)C=C6)C=C5)cc3)c(C(=O)c3cc(C)ccn3)[nH]c2c1
REMARK SMILES IDX 13 1 12 2 11 3 9 4 10 5 8 7 7 8 3 9 4 10 94 11 5 12 93 13
REMARK SMILES IDX 6 14 92 15 82 16 2 18 1 19 83 20 84 21 85 22 86 23 91 24
REMARK SMILES IDX 87 25 90 26 88 27 89 28 14 29 15 30 16 31 17 32 18 34 19 35
REMARK SMILES IDX 20 36 81 37 21 38 80 39 22 40 23 41 24 42 74 43 25 44 79 45
REMARK SMILES IDX 73 46 75 47 26 48 78 49 72 50 71 51 27 53 59 54 39 55 58 56
REMARK SMILES IDX 40 57 43 58 57 59 76 60 41 61 42 62 56 64 77 65 44 66 28 67
REMARK SMILES IDX 29 68 37 69 30 70 31 71 35 72 38 73 32 74 33 75 36 76 34 77
REMARK SMILES IDX 60 78 61 79 69 80 62 81 63 82 67 83 70 84 64 85 65 86 68 87
REMARK SMILES IDX 66 88 45 89 46 90 54 91 47 92 48 93 52 94 55 95 49 96 50 97
REMARK SMILES IDX 53 98 51 99
REMARK H PARENT 11 6 92 17 16 33 75 52 43 63
REMARK Flexibility Score: inf
ROOT
ATOM      1  C   UNL A   1      31.767  30.560  26.578  1.00  0.00     0.023 C 
ENDROOT
BRANCH   1   2
ATOM      2  C   UNL A   1      33.202  30.105  26.842  1.00  0.00     0.116 C 
BRANCH   2   3
ATOM      3  N   UNL A   1      33.787  29.419  25.712  1.00  0.00    -0.356 N 
ATOM      4  C   UNL A   1      33.559  28.155  25.245  1.00  0.00     0.224 C 
ATOM      5  O   UNL A   1      34.028  27.884  24.135  1.00  0.00    -0.275 OA
ATOM      6  H   UNL A   1      34.450  29.940  25.203  1.00  0.00     0.163 HD
BRANCH   4   7
ATOM      7  C   UNL A   1      32.649  27.179  25.984  1.00  0.00     0.138 C 
BRANCH   7   8
ATOM      8  C   UNL A   1      31.372  26.816  25.271  1.00  0.00    -0.002 A 
ATOM      9  C   UNL A   1      28.697  28.898  22.758  1.00  0.00     0.120 A 
ATOM     10  C   UNL A   1      29.842  29.602  23.121  1.00  0.00     0.047 A 
ATOM     11  C   UNL A   1      28.480  27.599  23.229  1.00  0.00     0.073 A 
ATOM     12  C   UNL A   1      30.812  29.008  23.938  1.00  0.00     0.014 A 
ATOM     13  C   UNL A   1      29.469  27.017  24.032  1.00  0.00     0.050 A 
ATOM     14  C   UNL A   1      30.627  27.688  24.406  1.00  0.00     0.004 A 
ATOM     15  N   UNL A   1      29.526  25.769  24.602  1.00  0.00    -0.351 N 
ATOM     16  C   UNL A   1      30.712  25.585  25.284  1.00  0.00     0.093 A 
ATOM     17  H   UNL A   1      28.813  25.094  24.534  1.00  0.00     0.167 HD
BRANCH   9  18
ATOM     18  O   UNL A   1      27.692  29.408  21.977  1.00  0.00    -0.497 OA
ATOM     19  C   UNL A   1      28.043  30.580  21.246  1.00  0.00     0.278 C 
ENDBRANCH   9  18
BRANCH  16  20
ATOM     20  C   UNL A   1      31.135  24.337  25.912  1.00  0.00     0.227 C 
ATOM     21  O   UNL A   1      31.128  24.162  27.130  1.00  0.00    -0.285 OA
BRANCH  20  22
ATOM     22  C   UNL A   1      31.654  23.232  25.062  1.00  0.00     0.113 A 
ATOM     23  C   UNL A   1      31.955  21.999  25.635  1.00  0.00     0.036 A 
ATOM     24  N   UNL A   1      31.782  23.503  23.739  1.00  0.00    -0.253 NA
ATOM     25  C   UNL A   1      32.421  20.978  24.803  1.00  0.00    -0.047 A 
ATOM     26  C   UNL A   1      32.199  22.489  22.954  1.00  0.00     0.112 A 
ATOM     27  C   UNL A   1      32.767  19.626  25.348  1.00  0.00     0.044 C 
ATOM     28  C   UNL A   1      32.529  21.230  23.433  1.00  0.00     0.023 A 
ENDBRANCH  20  22
ENDBRANCH  16  20
ENDBRANCH   7   8
ENDBRANCH   4   7
ENDBRANCH   2   3
ENDBRANCH   1   2
BRANCH   1  29
ATOM     29  C   UNL A   1      31.515  32.058  26.764  1.00  0.00     0.023 C 
BRANCH  29  30
ATOM     30  C   UNL A   1      32.745  32.901  27.076  1.00  0.00     0.116 C 
BRANCH  30  31
ATOM     31  N   UNL A   1      32.429  34.198  27.652  1.00  0.00    -0.352 N 
ATOM     32  C   UNL A   1      33.039  34.856  28.690  1.00  0.00     0.251 C 
ATOM     33  H   UNL A   1      31.671  34.671  27.239  1.00  0.00     0.163 HD
ATOM     34  O   UNL A   1      32.576  35.918  29.100  1.00  0.00    -0.269 OA
BRANCH  32  35
ATOM     35  C   UNL A   1      34.227  34.272  29.352  1.00  0.00     0.039 A 
ATOM     36  C   UNL A   1      34.029  33.430  30.451  1.00  0.00     0.014 A 
ATOM     37  C   UNL A   1      35.524  34.547  28.909  1.00  0.00     0.014 A 
ATOM     38  C   UNL A   1      35.122  32.815  31.062  1.00  0.00     0.010 A 
ATOM     39  C   UNL A   1      36.610  33.881  29.478  1.00  0.00     0.010 A 
ATOM     40  C   UNL A   1      36.419  33.010  30.560  1.00  0.00    -0.014 A 
BRANCH  40  41
ATOM     41  C   UNL A   1      37.576  32.292  31.152  1.00  0.00     0.031 A 
ATOM     42  C   UNL A   1      38.051  32.619  32.539  1.00  0.00     0.074 A 
ATOM     43  C   UNL A   1      38.226  31.369  30.417  1.00  0.00     0.049 A 
ATOM     44  N   UNL A   1      39.037  32.090  33.222  1.00  0.00    -0.248 NA
ATOM     45  C   UNL A   1      37.347  33.700  33.244  1.00  0.00     0.031 C 
ATOM     46  C   UNL A   1      37.906  31.012  29.034  1.00  0.00     0.029 A 
ATOM     47  N   UNL A   1      39.293  30.566  30.730  1.00  0.00    -0.354 N 
ATOM     48  C   UNL A   1      39.076  32.779  34.426  1.00  0.00     0.074 A 
ATOM     49  C   UNL A   1      38.050  33.798  34.362  1.00  0.00     0.031 C 
ATOM     50  C   UNL A   1      38.738  30.040  28.628  1.00  0.00     0.029 A 
ATOM     51  C   UNL A   1      39.661  29.720  29.712  1.00  0.00     0.049 A 
ATOM     52  H   UNL A   1      39.753  30.593  31.600  1.00  0.00     0.167 HD
ATOM     53  C   UNL A   1      39.878  32.566  35.497  1.00  0.00     0.037 A 
ATOM     54  C   UNL A   1      40.626  28.783  29.664  1.00  0.00     0.037 A 
ATOM     55  C   UNL A   1      40.880  31.536  35.569  1.00  0.00     0.049 A 
ATOM     56  C   UNL A   1      41.472  28.535  30.883  1.00  0.00     0.074 A 
ATOM     57  C   UNL A   1      41.706  31.204  36.629  1.00  0.00     0.029 A 
ATOM     58  N   UNL A   1      41.193  30.667  34.534  1.00  0.00    -0.354 N 
ATOM     59  N   UNL A   1      41.445  29.139  32.046  1.00  0.00    -0.248 NA
ATOM     60  C   UNL A   1      42.471  27.462  30.787  1.00  0.00     0.031 C 
ATOM     61  C   UNL A   1      42.539  30.155  36.226  1.00  0.00     0.029 A 
ATOM     62  C   UNL A   1      42.205  29.806  34.928  1.00  0.00     0.049 A 
ATOM     63  H   UNL A   1      40.762  30.664  33.650  1.00  0.00     0.167 HD
ATOM     64  C   UNL A   1      42.398  28.501  32.828  1.00  0.00     0.074 A 
ATOM     65  C   UNL A   1      42.976  27.454  32.012  1.00  0.00     0.031 C 
ATOM     66  C   UNL A   1      42.761  28.761  34.108  1.00  0.00     0.037 A 
BRANCH  53  67
ATOM     67  C   UNL A   1      39.693  33.462  36.687  1.00  0.00     0.064 A 
ATOM     68  C   UNL A   1      40.394  34.672  36.808  1.00  0.00     0.173 A 
ATOM     69  C   UNL A   1      38.784  33.126  37.700  1.00  0.00     0.173 A 
ATOM     70  F   UNL A   1      41.283  35.034  35.872  1.00  0.00    -0.203 F 
ATOM     71  C   UNL A   1      40.210  35.499  37.913  1.00  0.00     0.198 A 
ATOM     72  C   UNL A   1      38.582  33.969  38.790  1.00  0.00     0.198 A 
ATOM     73  F   UNL A   1      38.084  31.983  37.630  1.00  0.00    -0.203 F 
ATOM     74  F   UNL A   1      40.924  36.627  38.030  1.00  0.00    -0.200 F 
ATOM     75  C   UNL A   1      39.300  35.150  38.900  1.00  0.00     0.200 A 
ATOM     76  F   UNL A   1      37.694  33.636  39.737  1.00  0.00    -0.200 F 
ATOM     77  F   UNL A   1      39.120  35.949  39.960  1.00  0.00    -0.200 F 
ENDBRANCH  53  67
BRANCH  54  78
ATOM     78  C   UNL A   1      40.805  27.968  28.436  1.00  0.00     0.064 A 
ATOM     79  C   UNL A   1      40.149  26.737  28.292  1.00  0.00     0.173 A 
ATOM     80  C   UNL A   1      41.627  28.399  27.386  1.00  0.00     0.173 A 
ATOM     81  F   UNL A   1      39.368  26.276  29.280  1.00  0.00    -0.203 F 
ATOM     82  C   UNL A   1      40.325  25.958  27.151  1.00  0.00     0.198 A 
ATOM     83  C   UNL A   1      41.782  27.630  26.235  1.00  0.00     0.198 A 
ATOM     84  F   UNL A   1      42.269  29.572  27.474  1.00  0.00    -0.203 F 
ATOM     85  F   UNL A   1      39.720  24.766  27.057  1.00  0.00    -0.200 F 
ATOM     86  C   UNL A   1      41.137  26.407  26.121  1.00  0.00     0.200 A 
ATOM     87  F   UNL A   1      42.558  28.072  25.236  1.00  0.00    -0.200 F 
ATOM     88  F   UNL A   1      41.304  25.658  25.022  1.00  0.00    -0.200 F 
ENDBRANCH  54  78
BRANCH  66  89
ATOM     89  C   UNL A   1      43.804  27.870  34.716  1.00  0.00     0.064 A 
ATOM     90  C   UNL A   1      45.165  28.208  34.691  1.00  0.00     0.173 A 
ATOM     91  C   UNL A   1      43.434  26.674  35.347  1.00  0.00     0.173 A 
ATOM     92  F   UNL A   1      45.571  29.334  34.085  1.00  0.00    -0.203 F 
ATOM     93  C   UNL A   1      46.121  27.364  35.250  1.00  0.00     0.198 A 
ATOM     94  C   UNL A   1      44.389  25.845  35.928  1.00  0.00     0.198 A 
ATOM     95  F   UNL A   1      42.144  26.309  35.402  1.00  0.00    -0.203 F 
ATOM     96  F   UNL A   1      47.421  27.681  35.169  1.00  0.00    -0.200 F 
ATOM     97  C   UNL A   1      45.732  26.186  35.872  1.00  0.00     0.200 A 
ATOM     98  F   UNL A   1      44.012  24.713  36.538  1.00  0.00    -0.200 F 
ATOM     99  F   UNL A   1      46.654  25.375  36.408  1.00  0.00    -0.200 F 
ENDBRANCH  66  89
ENDBRANCH  40  41
ENDBRANCH  32  35
ENDBRANCH  30  31
ENDBRANCH  29  30
ENDBRANCH   1  29
TORSDOF 15
ENDMDL
