MODEL 1
REMARK VINA RESULT:     -12.9      0.000      0.000
REMARK SMILES O=C(NCCCCNC(=O)[C@]1(C2CCCC2)CCOc2ccccc21)c1ccc(-c2c3nc(c(-c4c(F)c(F)c(F)c(F)c4F)c4ccc([nH]4)c(-c4c(F)c(F)c(F)c(F)c4F)c4nc(c(-c5c(F)c(F)c(F)c(F)c5F)c5ccc2[nH]5)C=C4)C=C3)cc1
REMARK SMILES IDX 5 1 4 2 3 3 1 4 2 5 26 7 27 8 88 9 28 10 87 11 29 12 30 13
REMARK SMILES IDX 31 14 81 15 32 16 86 17 80 18 82 19 33 20 85 21 79 22 78 23
REMARK SMILES IDX 34 25 66 26 46 27 65 28 47 29 50 30 64 31 83 32 48 33 49 34
REMARK SMILES IDX 63 36 84 37 51 38 35 39 36 40 44 41 37 42 38 43 42 44 45 45
REMARK SMILES IDX 39 46 40 47 43 48 41 49 67 50 68 51 76 52 69 53 70 54 74 55
REMARK SMILES IDX 77 56 71 57 72 58 75 59 73 60 52 61 53 62 61 63 54 64 55 65
REMARK SMILES IDX 59 66 62 67 56 68 57 69 60 70 58 71 6 72 7 73 8 74 9 75
REMARK SMILES IDX 10 77 11 78 17 79 25 80 18 81 20 82 24 83 19 84 21 85 23 86
REMARK SMILES IDX 22 87 12 88 13 89 16 90 14 91 15 92
REMARK H PARENT 3 6 82 24 50 35 8 76
REMARK Flexibility Score: inf
ROOT
ATOM      1  C   UNL A   1      31.464  31.970  26.875  1.00  0.00     0.023 C 
ENDROOT
BRANCH   1   2
ATOM      2  C   UNL A   1      32.651  32.792  27.351  1.00  0.00     0.116 C 
BRANCH   2   3
ATOM      3  N   UNL A   1      32.326  34.186  27.621  1.00  0.00    -0.352 N 
ATOM      4  O   UNL A   1      32.493  36.158  28.720  1.00  0.00    -0.269 OA
ATOM      5  C   UNL A   1      32.924  35.037  28.524  1.00  0.00     0.251 C 
ATOM      6  H   UNL A   1      31.587  34.567  27.091  1.00  0.00     0.163 HD
BRANCH   5   7
ATOM      7  C   UNL A   1      34.088  34.533  29.281  1.00  0.00     0.039 A 
ATOM      8  C   UNL A   1      35.376  34.754  28.794  1.00  0.00     0.014 A 
ATOM      9  C   UNL A   1      33.879  33.764  30.429  1.00  0.00     0.014 A 
ATOM     10  C   UNL A   1      36.440  34.068  29.354  1.00  0.00     0.010 A 
ATOM     11  C   UNL A   1      34.970  33.157  31.055  1.00  0.00     0.010 A 
ATOM     12  C   UNL A   1      36.253  33.274  30.500  1.00  0.00    -0.014 A 
BRANCH  12  13
ATOM     13  C   UNL A   1      37.443  32.640  31.116  1.00  0.00     0.031 A 
ATOM     14  C   UNL A   1      37.881  32.978  32.512  1.00  0.00     0.074 A 
ATOM     15  C   UNL A   1      38.079  31.685  30.411  1.00  0.00     0.049 A 
ATOM     16  N   UNL A   1      38.861  32.463  33.211  1.00  0.00    -0.248 NA
ATOM     17  C   UNL A   1      37.134  34.032  33.215  1.00  0.00     0.031 C 
ATOM     18  C   UNL A   1      37.743  31.294  29.039  1.00  0.00     0.029 A 
ATOM     19  N   UNL A   1      39.102  30.843  30.756  1.00  0.00    -0.354 N 
ATOM     20  C   UNL A   1      38.864  33.142  34.422  1.00  0.00     0.074 A 
ATOM     21  C   UNL A   1      37.797  34.119  34.361  1.00  0.00     0.031 C 
ATOM     22  C   UNL A   1      38.491  30.240  28.686  1.00  0.00     0.029 A 
ATOM     23  C   UNL A   1      39.405  29.928  29.778  1.00  0.00     0.049 A 
ATOM     24  H   UNL A   1      39.573  30.889  31.618  1.00  0.00     0.167 HD
ATOM     25  C   UNL A   1      39.681  32.957  35.487  1.00  0.00     0.037 A 
ATOM     26  C   UNL A   1      40.324  28.946  29.758  1.00  0.00     0.037 A 
ATOM     27  C   UNL A   1      40.729  31.969  35.543  1.00  0.00     0.049 A 
ATOM     28  C   UNL A   1      41.192  28.747  30.964  1.00  0.00     0.074 A 
ATOM     29  C   UNL A   1      41.619  31.708  36.571  1.00  0.00     0.029 A 
ATOM     30  N   UNL A   1      41.019  31.069  34.527  1.00  0.00    -0.354 N 
ATOM     31  N   UNL A   1      41.190  29.405  32.098  1.00  0.00    -0.248 NA
ATOM     32  C   UNL A   1      42.193  27.678  30.886  1.00  0.00     0.031 C 
ATOM     33  C   UNL A   1      42.464  30.667  36.167  1.00  0.00     0.029 A 
ATOM     34  C   UNL A   1      42.076  30.254  34.902  1.00  0.00     0.049 A 
ATOM     35  H   UNL A   1      40.544  31.016  33.667  1.00  0.00     0.167 HD
ATOM     36  C   UNL A   1      42.194  28.838  32.865  1.00  0.00     0.074 A 
ATOM     37  C   UNL A   1      42.755  27.754  32.084  1.00  0.00     0.031 C 
ATOM     38  C   UNL A   1      42.626  29.192  34.100  1.00  0.00     0.037 A 
BRANCH  25  39
ATOM     39  C   UNL A   1      39.491  33.851  36.678  1.00  0.00     0.064 A 
ATOM     40  C   UNL A   1      38.736  33.444  37.787  1.00  0.00     0.173 A 
ATOM     41  C   UNL A   1      40.122  35.102  36.737  1.00  0.00     0.173 A 
ATOM     42  F   UNL A   1      38.101  32.263  37.775  1.00  0.00    -0.203 F 
ATOM     43  C   UNL A   1      38.608  34.264  38.906  1.00  0.00     0.198 A 
ATOM     44  C   UNL A   1      40.011  35.910  37.866  1.00  0.00     0.198 A 
ATOM     45  F   UNL A   1      40.860  35.537  35.704  1.00  0.00    -0.203 F 
ATOM     46  F   UNL A   1      37.856  33.869  39.943  1.00  0.00    -0.200 F 
ATOM     47  C   UNL A   1      39.252  35.493  38.948  1.00  0.00     0.200 A 
ATOM     48  F   UNL A   1      40.642  37.092  37.908  1.00  0.00    -0.200 F 
ATOM     49  F   UNL A   1      39.137  36.275  40.030  1.00  0.00    -0.200 F 
ENDBRANCH  25  39
BRANCH  26  50
ATOM     50  C   UNL A   1      40.459  28.094  28.550  1.00  0.00     0.064 A 
ATOM     51  C   UNL A   1      41.261  28.488  27.472  1.00  0.00     0.173 A 
ATOM     52  C   UNL A   1      39.817  26.849  28.470  1.00  0.00     0.173 A 
ATOM     53  F   UNL A   1      41.881  29.676  27.498  1.00  0.00    -0.203 F 
ATOM     54  C   UNL A   1      41.407  27.672  26.352  1.00  0.00     0.198 A 
ATOM     55  C   UNL A   1      39.990  26.022  27.363  1.00  0.00     0.198 A 
ATOM     56  F   UNL A   1      39.048  26.423  29.483  1.00  0.00    -0.203 F 
ATOM     57  F   UNL A   1      42.152  28.087  25.318  1.00  0.00    -0.200 F 
ATOM     58  C   UNL A   1      40.778  26.437  26.302  1.00  0.00     0.200 A 
ATOM     59  F   UNL A   1      39.397  24.820  27.331  1.00  0.00    -0.200 F 
ATOM     60  F   UNL A   1      40.933  25.647  25.231  1.00  0.00    -0.200 F 
ENDBRANCH  26  50
BRANCH  38  61
ATOM     61  C   UNL A   1      43.763  28.397  34.664  1.00  0.00     0.064 A 
ATOM     62  C   UNL A   1      45.094  28.796  34.471  1.00  0.00     0.173 A 
ATOM     63  C   UNL A   1      43.521  27.231  35.404  1.00  0.00     0.173 A 
ATOM     64  F   UNL A   1      45.372  29.896  33.753  1.00  0.00    -0.203 F 
ATOM     65  C   UNL A   1      46.146  28.036  34.972  1.00  0.00     0.198 A 
ATOM     66  C   UNL A   1      44.576  26.486  35.924  1.00  0.00     0.198 A 
ATOM     67  F   UNL A   1      42.266  26.813  35.616  1.00  0.00    -0.203 F 
ATOM     68  F   UNL A   1      47.411  28.405  34.731  1.00  0.00    -0.200 F 
ATOM     69  C   UNL A   1      45.887  26.885  35.700  1.00  0.00     0.200 A 
ATOM     70  F   UNL A   1      44.325  25.378  36.633  1.00  0.00    -0.200 F 
ATOM     71  F   UNL A   1      46.901  26.150  36.177  1.00  0.00    -0.200 F 
ENDBRANCH  38  61
ENDBRANCH  12  13
ENDBRANCH   5   7
ENDBRANCH   2   3
ENDBRANCH   1   2
BRANCH   1  72
ATOM     72  C   UNL A   1      31.835  30.629  26.256  1.00  0.00     0.023 C 
BRANCH  72  73
ATOM     73  C   UNL A   1      32.777  29.779  27.104  1.00  0.00     0.116 C 
BRANCH  73  74
ATOM     74  N   UNL A   1      32.300  28.415  27.277  1.00  0.00    -0.355 N 
ATOM     75  C   UNL A   1      32.207  27.298  26.501  1.00  0.00     0.231 C 
ATOM     76  H   UNL A   1      31.957  28.259  28.186  1.00  0.00     0.163 HD
ATOM     77  O   UNL A   1      31.740  26.328  27.117  1.00  0.00    -0.274 OA
BRANCH  75  78
ATOM     78  C   UNL A   1      32.644  27.170  24.981  1.00  0.00     0.084 C 
ATOM     79  C   UNL A   1      33.866  28.133  24.832  1.00  0.00     0.064 C 
ATOM     80  C   UNL A   1      31.539  27.728  24.055  1.00  0.00     0.010 A 
ATOM     81  C   UNL A   1      34.161  28.528  23.402  1.00  0.00     0.231 C 
ATOM     82  C   UNL A   1      31.831  28.662  23.047  1.00  0.00     0.123 A 
ATOM     83  C   UNL A   1      30.184  27.377  24.204  1.00  0.00     0.009 A 
ATOM     84  O   UNL A   1      33.066  29.180  22.781  1.00  0.00    -0.493 OA
ATOM     85  C   UNL A   1      30.821  29.207  22.239  1.00  0.00     0.047 A 
ATOM     86  C   UNL A   1      29.176  27.916  23.396  1.00  0.00     0.001 A 
ATOM     87  C   UNL A   1      29.494  28.833  22.409  1.00  0.00     0.004 A 
BRANCH  78  88
ATOM     88  C   UNL A   1      33.025  25.688  24.660  1.00  0.00     0.009 C 
ATOM     89  C   UNL A   1      33.047  25.151  23.226  1.00  0.00     0.005 C 
ATOM     90  C   UNL A   1      34.419  25.236  25.125  1.00  0.00     0.005 C 
ATOM     91  C   UNL A   1      33.602  23.730  23.403  1.00  0.00     0.000 C 
ATOM     92  C   UNL A   1      34.489  23.786  24.650  1.00  0.00     0.000 C 
ENDBRANCH  78  88
ENDBRANCH  75  78
ENDBRANCH  73  74
ENDBRANCH  72  73
ENDBRANCH   1  72
TORSDOF 12
ENDMDL
MODEL 2
REMARK VINA RESULT:     -12.9      0.158      1.610
REMARK SMILES O=C(NCCCCNC(=O)[C@]1(C2CCCC2)CCOc2ccccc21)c1ccc(-c2c3nc(c(-c4c(F)c(F)c(F)c(F)c4F)c4ccc([nH]4)c(-c4c(F)c(F)c(F)c(F)c4F)c4nc(c(-c5c(F)c(F)c(F)c(F)c5F)c5ccc2[nH]5)C=C4)C=C3)cc1
REMARK SMILES IDX 5 1 4 2 3 3 1 4 2 5 26 7 27 8 88 9 28 10 87 11 29 12 30 13
REMARK SMILES IDX 31 14 81 15 32 16 86 17 80 18 82 19 33 20 85 21 79 22 78 23
REMARK SMILES IDX 34 25 66 26 46 27 65 28 47 29 50 30 64 31 83 32 48 33 49 34
REMARK SMILES IDX 63 36 84 37 51 38 35 39 36 40 44 41 37 42 38 43 42 44 45 45
REMARK SMILES IDX 39 46 40 47 43 48 41 49 67 50 68 51 76 52 69 53 70 54 74 55
REMARK SMILES IDX 77 56 71 57 72 58 75 59 73 60 52 61 53 62 61 63 54 64 55 65
REMARK SMILES IDX 59 66 62 67 56 68 57 69 60 70 58 71 6 72 7 73 8 74 9 75
REMARK SMILES IDX 10 77 11 78 17 79 25 80 18 81 20 82 24 83 19 84 21 85 23 86
REMARK SMILES IDX 22 87 12 88 13 89 16 90 14 91 15 92
REMARK H PARENT 3 6 82 24 50 35 8 76
REMARK Flexibility Score: inf
ROOT
ATOM      1  C   UNL A   1      31.517  31.862  26.905  1.00  0.00     0.023 C 
ENDROOT
BRANCH   1   2
ATOM      2  C   UNL A   1      32.700  32.690  27.377  1.00  0.00     0.116 C 
BRANCH   2   3
ATOM      3  N   UNL A   1      32.363  34.078  27.667  1.00  0.00    -0.352 N 
ATOM      4  O   UNL A   1      32.520  36.038  28.789  1.00  0.00    -0.269 OA
ATOM      5  C   UNL A   1      32.961  34.925  28.575  1.00  0.00     0.251 C 
ATOM      6  H   UNL A   1      31.615  34.457  27.150  1.00  0.00     0.163 HD
BRANCH   5   7
ATOM      7  C   UNL A   1      34.139  34.424  29.313  1.00  0.00     0.039 A 
ATOM      8  C   UNL A   1      35.418  34.642  28.801  1.00  0.00     0.014 A 
ATOM      9  C   UNL A   1      33.951  33.662  30.469  1.00  0.00     0.014 A 
ATOM     10  C   UNL A   1      36.492  33.959  29.346  1.00  0.00     0.010 A 
ATOM     11  C   UNL A   1      35.053  33.058  31.079  1.00  0.00     0.010 A 
ATOM     12  C   UNL A   1      36.325  33.172  30.499  1.00  0.00    -0.014 A 
BRANCH  12  13
ATOM     13  C   UNL A   1      37.527  32.541  31.097  1.00  0.00     0.031 A 
ATOM     14  C   UNL A   1      37.981  32.875  32.488  1.00  0.00     0.074 A 
ATOM     15  C   UNL A   1      38.157  31.592  30.380  1.00  0.00     0.049 A 
ATOM     16  N   UNL A   1      38.973  32.362  33.173  1.00  0.00    -0.248 NA
ATOM     17  C   UNL A   1      37.239  33.923  33.205  1.00  0.00     0.031 C 
ATOM     18  C   UNL A   1      37.805  31.204  29.012  1.00  0.00     0.029 A 
ATOM     19  N   UNL A   1      39.189  30.752  30.708  1.00  0.00    -0.354 N 
ATOM     20  C   UNL A   1      38.989  33.036  34.386  1.00  0.00     0.074 A 
ATOM     21  C   UNL A   1      37.917  34.009  34.343  1.00  0.00     0.031 C 
ATOM     22  C   UNL A   1      38.553  30.155  28.645  1.00  0.00     0.029 A 
ATOM     23  C   UNL A   1      39.483  29.842  29.722  1.00  0.00     0.049 A 
ATOM     24  H   UNL A   1      39.671  30.797  31.564  1.00  0.00     0.167 HD
ATOM     25  C   UNL A   1      39.821  32.851  35.439  1.00  0.00     0.037 A 
ATOM     26  C   UNL A   1      40.406  28.865  29.687  1.00  0.00     0.037 A 
ATOM     27  C   UNL A   1      40.874  31.868  35.478  1.00  0.00     0.049 A 
ATOM     28  C   UNL A   1      41.291  28.665  30.881  1.00  0.00     0.074 A 
ATOM     29  C   UNL A   1      41.778  31.607  36.493  1.00  0.00     0.029 A 
ATOM     30  N   UNL A   1      41.154  30.973  34.454  1.00  0.00    -0.354 N 
ATOM     31  N   UNL A   1      41.300  29.319  32.017  1.00  0.00    -0.248 NA
ATOM     32  C   UNL A   1      42.296  27.601  30.786  1.00  0.00     0.031 C 
ATOM     33  C   UNL A   1      42.623  30.571  36.074  1.00  0.00     0.029 A 
ATOM     34  C   UNL A   1      42.220  30.162  34.812  1.00  0.00     0.049 A 
ATOM     35  H   UNL A   1      40.668  30.922  33.600  1.00  0.00     0.167 HD
ATOM     36  C   UNL A   1      42.318  28.754  32.769  1.00  0.00     0.074 A 
ATOM     37  C   UNL A   1      42.873  27.675  31.976  1.00  0.00     0.031 C 
ATOM     38  C   UNL A   1      42.764  29.106  33.999  1.00  0.00     0.037 A 
BRANCH  25  39
ATOM     39  C   UNL A   1      39.643  33.740  36.636  1.00  0.00     0.064 A 
ATOM     40  C   UNL A   1      40.226  35.013  36.698  1.00  0.00     0.173 A 
ATOM     41  C   UNL A   1      38.828  33.338  37.706  1.00  0.00     0.173 A 
ATOM     42  F   UNL A   1      41.024  35.439  35.708  1.00  0.00    -0.203 F 
ATOM     43  C   UNL A   1      40.011  35.847  37.793  1.00  0.00     0.198 A 
ATOM     44  C   UNL A   1      38.597  34.183  38.788  1.00  0.00     0.198 A 
ATOM     45  F   UNL A   1      38.243  32.131  37.694  1.00  0.00    -0.203 F 
ATOM     46  F   UNL A   1      40.603  37.049  37.846  1.00  0.00    -0.200 F 
ATOM     47  C   UNL A   1      39.191  35.435  38.834  1.00  0.00     0.200 A 
ATOM     48  F   UNL A   1      37.797  33.786  39.788  1.00  0.00    -0.200 F 
ATOM     49  F   UNL A   1      38.977  36.243  39.881  1.00  0.00    -0.200 F 
ENDBRANCH  25  39
BRANCH  26  50
ATOM     50  C   UNL A   1      40.529  28.018  28.474  1.00  0.00     0.064 A 
ATOM     51  C   UNL A   1      41.324  28.414  27.392  1.00  0.00     0.173 A 
ATOM     52  C   UNL A   1      39.881  26.776  28.392  1.00  0.00     0.173 A 
ATOM     53  F   UNL A   1      41.951  29.600  27.420  1.00  0.00    -0.203 F 
ATOM     54  C   UNL A   1      41.459  27.603  26.268  1.00  0.00     0.198 A 
ATOM     55  C   UNL A   1      40.042  25.954  27.281  1.00  0.00     0.198 A 
ATOM     56  F   UNL A   1      39.117  26.349  29.409  1.00  0.00    -0.203 F 
ATOM     57  F   UNL A   1      42.199  28.019  25.230  1.00  0.00    -0.200 F 
ATOM     58  C   UNL A   1      40.825  26.371  26.216  1.00  0.00     0.200 A 
ATOM     59  F   UNL A   1      39.444  24.754  27.247  1.00  0.00    -0.200 F 
ATOM     60  F   UNL A   1      40.968  25.585  25.140  1.00  0.00    -0.200 F 
ENDBRANCH  26  50
BRANCH  38  61
ATOM     61  C   UNL A   1      43.913  28.314  34.545  1.00  0.00     0.064 A 
ATOM     62  C   UNL A   1      43.700  27.139  35.281  1.00  0.00     0.173 A 
ATOM     63  C   UNL A   1      45.234  28.731  34.329  1.00  0.00     0.173 A 
ATOM     64  F   UNL A   1      42.451  26.713  35.527  1.00  0.00    -0.203 F 
ATOM     65  C   UNL A   1      44.770  26.425  35.810  1.00  0.00     0.198 A 
ATOM     66  C   UNL A   1      46.303  28.001  34.840  1.00  0.00     0.198 A 
ATOM     67  F   UNL A   1      45.485  29.846  33.629  1.00  0.00    -0.203 F 
ATOM     68  F   UNL A   1      44.544  25.335  36.555  1.00  0.00    -0.200 F 
ATOM     69  C   UNL A   1      46.070  26.854  35.587  1.00  0.00     0.200 A 
ATOM     70  F   UNL A   1      47.559  28.412  34.619  1.00  0.00    -0.200 F 
ATOM     71  F   UNL A   1      47.101  26.170  36.102  1.00  0.00    -0.200 F 
ENDBRANCH  38  61
ENDBRANCH  12  13
ENDBRANCH   5   7
ENDBRANCH   2   3
ENDBRANCH   1   2
BRANCH   1  72
ATOM     72  C   UNL A   1      31.898  30.544  26.241  1.00  0.00     0.023 C 
BRANCH  72  73
ATOM     73  C   UNL A   1      32.839  29.669  27.064  1.00  0.00     0.116 C 
BRANCH  73  74
ATOM     74  N   UNL A   1      32.351  28.306  27.210  1.00  0.00    -0.355 N 
ATOM     75  C   UNL A   1      32.229  27.211  26.407  1.00  0.00     0.231 C 
ATOM     76  H   UNL A   1      32.027  28.128  28.123  1.00  0.00     0.163 HD
ATOM     77  O   UNL A   1      31.766  26.229  27.006  1.00  0.00    -0.274 OA
BRANCH  75  78
ATOM     78  C   UNL A   1      32.629  27.120  24.874  1.00  0.00     0.084 C 
ATOM     79  C   UNL A   1      33.854  28.078  24.722  1.00  0.00     0.064 C 
ATOM     80  C   UNL A   1      31.507  27.710  23.989  1.00  0.00     0.010 A 
ATOM     81  C   UNL A   1      34.119  28.509  23.297  1.00  0.00     0.231 C 
ATOM     82  C   UNL A   1      31.784  28.669  23.000  1.00  0.00     0.123 A 
ATOM     83  C   UNL A   1      30.153  27.366  24.160  1.00  0.00     0.009 A 
ATOM     84  O   UNL A   1      33.016  29.185  22.718  1.00  0.00    -0.493 OA
ATOM     85  C   UNL A   1      30.760  29.242  22.230  1.00  0.00     0.047 A 
ATOM     86  C   UNL A   1      29.131  27.933  23.391  1.00  0.00     0.001 A 
ATOM     87  C   UNL A   1      29.434  28.874  22.421  1.00  0.00     0.004 A 
BRANCH  78  88
ATOM     88  C   UNL A   1      32.991  25.644  24.505  1.00  0.00     0.009 C 
ATOM     89  C   UNL A   1      32.960  25.141  23.059  1.00  0.00     0.005 C 
ATOM     90  C   UNL A   1      34.398  25.175  24.910  1.00  0.00     0.005 C 
ATOM     91  C   UNL A   1      33.513  23.714  23.183  1.00  0.00     0.000 C 
ATOM     92  C   UNL A   1      34.444  23.737  24.399  1.00  0.00     0.000 C 
ENDBRANCH  78  88
ENDBRANCH  75  78
ENDBRANCH  73  74
ENDBRANCH  72  73
ENDBRANCH   1  72
TORSDOF 12
ENDMDL
MODEL 3
REMARK VINA RESULT:     -12.9      2.042      3.197
REMARK SMILES O=C(NCCCCNC(=O)[C@]1(C2CCCC2)CCOc2ccccc21)c1ccc(-c2c3nc(c(-c4c(F)c(F)c(F)c(F)c4F)c4ccc([nH]4)c(-c4c(F)c(F)c(F)c(F)c4F)c4nc(c(-c5c(F)c(F)c(F)c(F)c5F)c5ccc2[nH]5)C=C4)C=C3)cc1
REMARK SMILES IDX 5 1 4 2 3 3 1 4 2 5 26 7 27 8 88 9 28 10 87 11 29 12 30 13
REMARK SMILES IDX 31 14 81 15 32 16 86 17 80 18 82 19 33 20 85 21 79 22 78 23
REMARK SMILES IDX 34 25 66 26 46 27 65 28 47 29 50 30 64 31 83 32 48 33 49 34
REMARK SMILES IDX 63 36 84 37 51 38 35 39 36 40 44 41 37 42 38 43 42 44 45 45
REMARK SMILES IDX 39 46 40 47 43 48 41 49 67 50 68 51 76 52 69 53 70 54 74 55
REMARK SMILES IDX 77 56 71 57 72 58 75 59 73 60 52 61 53 62 61 63 54 64 55 65
REMARK SMILES IDX 59 66 62 67 56 68 57 69 60 70 58 71 6 72 7 73 8 74 9 75
REMARK SMILES IDX 10 77 11 78 17 79 25 80 18 81 20 82 24 83 19 84 21 85 23 86
REMARK SMILES IDX 22 87 12 88 13 89 16 90 14 91 15 92
REMARK H PARENT 3 6 82 24 50 35 8 76
REMARK Flexibility Score: inf
ROOT
ATOM      1  C   UNL A   1      32.302  28.515  24.787  1.00  0.00     0.023 C 
ENDROOT
BRANCH   1   2
ATOM      2  C   UNL A   1      33.259  29.296  25.672  1.00  0.00     0.116 C 
BRANCH   2   3
ATOM      3  N   UNL A   1      32.717  30.564  26.142  1.00  0.00    -0.352 N 
ATOM      4  O   UNL A   1      32.644  32.405  27.459  1.00  0.00    -0.269 OA
ATOM      5  C   UNL A   1      33.248  31.416  27.086  1.00  0.00     0.251 C 
ATOM      6  H   UNL A   1      31.866  30.847  25.734  1.00  0.00     0.163 HD
BRANCH   5   7
ATOM      7  C   UNL A   1      34.563  31.072  27.665  1.00  0.00     0.039 A 
ATOM      8  C   UNL A   1      34.790  29.781  28.144  1.00  0.00     0.014 A 
ATOM      9  C   UNL A   1      35.533  32.067  27.806  1.00  0.00     0.014 A 
ATOM     10  C   UNL A   1      35.913  29.531  28.912  1.00  0.00     0.010 A 
ATOM     11  C   UNL A   1      36.714  31.781  28.494  1.00  0.00     0.010 A 
ATOM     12  C   UNL A   1      36.895  30.522  29.083  1.00  0.00    -0.014 A 
BRANCH  12  13
ATOM     13  C   UNL A   1      38.124  30.169  29.835  1.00  0.00     0.031 A 
ATOM     14  C   UNL A   1      38.338  30.621  31.250  1.00  0.00     0.074 A 
ATOM     15  C   UNL A   1      39.014  29.357  29.233  1.00  0.00     0.049 A 
ATOM     16  N   UNL A   1      39.328  30.341  32.060  1.00  0.00    -0.248 NA
ATOM     17  C   UNL A   1      37.320  31.506  31.836  1.00  0.00     0.031 C 
ATOM     18  C   UNL A   1      38.908  28.875  27.853  1.00  0.00     0.029 A 
ATOM     19  N   UNL A   1      40.151  28.759  29.707  1.00  0.00    -0.354 N 
ATOM     20  C   UNL A   1      39.067  31.029  33.236  1.00  0.00     0.074 A 
ATOM     21  C   UNL A   1      37.831  31.755  33.034  1.00  0.00     0.031 C 
ATOM     22  C   UNL A   1      39.893  27.998  27.616  1.00  0.00     0.029 A 
ATOM     23  C   UNL A   1      40.737  27.909  28.801  1.00  0.00     0.049 A 
ATOM     24  H   UNL A   1      40.513  28.922  30.607  1.00  0.00     0.167 HD
ATOM     25  C   UNL A   1      39.794  31.044  34.380  1.00  0.00     0.037 A 
ATOM     26  C   UNL A   1      41.838  27.146  28.909  1.00  0.00     0.037 A 
ATOM     27  C   UNL A   1      41.014  30.303  34.576  1.00  0.00     0.049 A 
ATOM     28  C   UNL A   1      42.603  27.161  30.198  1.00  0.00     0.074 A 
ATOM     29  C   UNL A   1      41.830  30.259  35.693  1.00  0.00     0.029 A 
ATOM     30  N   UNL A   1      41.587  29.465  33.630  1.00  0.00    -0.354 N 
ATOM     31  N   UNL A   1      42.348  27.827  31.298  1.00  0.00    -0.248 NA
ATOM     32  C   UNL A   1      43.808  26.328  30.260  1.00  0.00     0.031 C 
ATOM     33  C   UNL A   1      42.912  29.414  35.414  1.00  0.00     0.029 A 
ATOM     34  C   UNL A   1      42.749  28.903  34.136  1.00  0.00     0.049 A 
ATOM     35  H   UNL A   1      41.223  29.295  32.731  1.00  0.00     0.167 HD
ATOM     36  C   UNL A   1      43.366  27.502  32.180  1.00  0.00     0.074 A 
ATOM     37  C   UNL A   1      44.218  26.546  31.501  1.00  0.00     0.031 C 
ATOM     38  C   UNL A   1      43.587  27.966  33.434  1.00  0.00     0.037 A 
BRANCH  25  39
ATOM     39  C   UNL A   1      39.301  31.902  35.510  1.00  0.00     0.064 A 
ATOM     40  C   UNL A   1      39.632  33.261  35.598  1.00  0.00     0.173 A 
ATOM     41  C   UNL A   1      38.436  31.373  36.480  1.00  0.00     0.173 A 
ATOM     42  F   UNL A   1      40.466  33.812  34.703  1.00  0.00    -0.203 F 
ATOM     43  C   UNL A   1      39.128  34.056  36.625  1.00  0.00     0.198 A 
ATOM     44  C   UNL A   1      37.915  32.175  37.492  1.00  0.00     0.198 A 
ATOM     45  F   UNL A   1      38.084  30.079  36.439  1.00  0.00    -0.203 F 
ATOM     46  F   UNL A   1      39.483  35.347  36.708  1.00  0.00    -0.200 F 
ATOM     47  C   UNL A   1      38.264  33.516  37.566  1.00  0.00     0.200 A 
ATOM     48  F   UNL A   1      37.073  31.653  38.394  1.00  0.00    -0.200 F 
ATOM     49  F   UNL A   1      37.771  34.285  38.545  1.00  0.00    -0.200 F 
ENDBRANCH  25  39
BRANCH  26  50
ATOM     50  C   UNL A   1      42.270  26.317  27.755  1.00  0.00     0.064 A 
ATOM     51  C   UNL A   1      43.254  26.770  26.867  1.00  0.00     0.173 A 
ATOM     52  C   UNL A   1      41.732  25.039  27.543  1.00  0.00     0.173 A 
ATOM     53  F   UNL A   1      43.786  27.991  27.022  1.00  0.00    -0.203 F 
ATOM     54  C   UNL A   1      43.676  25.977  25.802  1.00  0.00     0.198 A 
ATOM     55  C   UNL A   1      42.179  24.236  26.497  1.00  0.00     0.198 A 
ATOM     56  F   UNL A   1      40.796  24.558  28.374  1.00  0.00    -0.203 F 
ATOM     57  F   UNL A   1      44.594  26.446  24.946  1.00  0.00    -0.200 F 
ATOM     58  C   UNL A   1      43.145  24.709  25.622  1.00  0.00     0.200 A 
ATOM     59  F   UNL A   1      41.677  23.003  26.342  1.00  0.00    -0.200 F 
ATOM     60  F   UNL A   1      43.564  23.942  24.607  1.00  0.00    -0.200 F 
ENDBRANCH  26  50
BRANCH  38  61
ATOM     61  C   UNL A   1      44.803  27.443  34.135  1.00  0.00     0.064 A 
ATOM     62  C   UNL A   1      46.035  28.107  34.046  1.00  0.00     0.173 A 
ATOM     63  C   UNL A   1      44.736  26.272  34.903  1.00  0.00     0.173 A 
ATOM     64  F   UNL A   1      46.148  29.222  33.306  1.00  0.00    -0.203 F 
ATOM     65  C   UNL A   1      47.167  27.600  34.675  1.00  0.00     0.198 A 
ATOM     66  C   UNL A   1      45.866  25.780  35.551  1.00  0.00     0.198 A 
ATOM     67  F   UNL A   1      43.580  25.605  35.019  1.00  0.00    -0.203 F 
ATOM     68  F   UNL A   1      48.346  28.220  34.533  1.00  0.00    -0.200 F 
ATOM     69  C   UNL A   1      47.081  26.439  35.429  1.00  0.00     0.200 A 
ATOM     70  F   UNL A   1      45.781  24.662  36.284  1.00  0.00    -0.200 F 
ATOM     71  F   UNL A   1      48.173  25.947  36.029  1.00  0.00    -0.200 F 
ENDBRANCH  38  61
ENDBRANCH  12  13
ENDBRANCH   5   7
ENDBRANCH   2   3
ENDBRANCH   1   2
BRANCH   1  72
ATOM     72  C   UNL A   1      31.383  27.564  25.542  1.00  0.00     0.023 C 
BRANCH  72  73
ATOM     73  C   UNL A   1      32.073  26.745  26.630  1.00  0.00     0.116 C 
BRANCH  73  74
ATOM     74  N   UNL A   1      31.402  25.480  26.889  1.00  0.00    -0.355 N 
ATOM     75  C   UNL A   1      31.545  24.187  26.483  1.00  0.00     0.231 C 
ATOM     76  H   UNL A   1      30.654  25.584  27.521  1.00  0.00     0.163 HD
ATOM     77  O   UNL A   1      30.725  23.425  27.017  1.00  0.00    -0.274 OA
BRANCH  75  78
ATOM     78  C   UNL A   1      32.626  23.638  25.459  1.00  0.00     0.084 C 
ATOM     79  C   UNL A   1      34.005  23.983  26.108  1.00  0.00     0.064 C 
ATOM     80  C   UNL A   1      32.563  24.429  24.133  1.00  0.00     0.010 A 
ATOM     81  C   UNL A   1      35.159  23.977  25.131  1.00  0.00     0.231 C 
ATOM     82  C   UNL A   1      33.719  24.980  23.553  1.00  0.00     0.123 A 
ATOM     83  C   UNL A   1      31.350  24.688  23.468  1.00  0.00     0.009 A 
ATOM     84  O   UNL A   1      34.980  24.900  24.071  1.00  0.00    -0.493 OA
ATOM     85  C   UNL A   1      33.655  25.741  22.376  1.00  0.00     0.047 A 
ATOM     86  C   UNL A   1      31.285  25.443  22.291  1.00  0.00     0.001 A 
ATOM     87  C   UNL A   1      32.441  25.971  21.742  1.00  0.00     0.004 A 
BRANCH  78  88
ATOM     88  C   UNL A   1      32.441  22.097  25.265  1.00  0.00     0.009 C 
ATOM     89  C   UNL A   1      32.702  21.414  23.919  1.00  0.00     0.005 C 
ATOM     90  C   UNL A   1      33.290  21.197  26.179  1.00  0.00     0.005 C 
ATOM     91  C   UNL A   1      32.528  19.925  24.253  1.00  0.00     0.000 C 
ATOM     92  C   UNL A   1      32.903  19.788  25.732  1.00  0.00     0.000 C 
ENDBRANCH  78  88
ENDBRANCH  75  78
ENDBRANCH  73  74
ENDBRANCH  72  73
ENDBRANCH   1  72
TORSDOF 12
ENDMDL
