MODEL 1
REMARK VINA RESULT:     -12.4      0.000      0.000
REMARK SMILES O=C(NCCCCNC(=O)[C@@H]1C[N@@H+](CC(=O)c2ccc[nH]2)CC[NH2+]1)c1ccc(-c2c3nc(c(-c4c(F)c(F)c(F)c(F)c4F)c4ccc([nH]4)c(-c4c(F)c(F)c(F)c(F)c4F)c4nc(c(-c5c(F)c(F)c(F)c(F)c5F)c5ccc2[nH]5)C=C4)C=C3)cc1
REMARK SMILES IDX 6 1 5 2 4 3 3 4 1 5 2 6 25 8 26 9 87 10 27 11 86 12 28 13
REMARK SMILES IDX 29 14 30 15 80 16 31 17 85 18 79 19 81 20 32 21 84 22 78 23
REMARK SMILES IDX 77 24 33 26 65 27 45 28 64 29 46 30 49 31 63 32 82 33 47 34
REMARK SMILES IDX 48 35 62 37 83 38 50 39 34 40 35 41 43 42 36 43 37 44 41 45
REMARK SMILES IDX 44 46 38 47 39 48 42 49 40 50 66 51 67 52 75 53 68 54 69 55
REMARK SMILES IDX 73 56 76 57 70 58 71 59 74 60 72 61 51 62 52 63 60 64 53 65
REMARK SMILES IDX 54 66 58 67 61 68 55 69 56 70 59 71 57 72 7 73 8 74 9 75
REMARK SMILES IDX 10 77 11 78 12 79 24 80 13 81 23 82 22 85 14 87 15 88 16 89
REMARK SMILES IDX 17 90 18 91 21 92 19 93 20 94
REMARK H PARENT 3 7 81 25 49 36 8 76 24 83 24 84 13 86 21 95
REMARK Flexibility Score: inf
ROOT
ATOM      1  C   UNL A   1      32.542  27.377  26.794  1.00  0.00     0.023 C 
ENDROOT
BRANCH   1   2
ATOM      2  C   UNL A   1      33.571  28.351  26.233  1.00  0.00     0.023 C 
BRANCH   2   3
ATOM      3  C   UNL A   1      34.849  28.531  27.055  1.00  0.00     0.116 C 
BRANCH   3   4
ATOM      4  N   UNL A   1      35.077  29.844  27.631  1.00  0.00    -0.352 N 
ATOM      5  O   UNL A   1      36.143  31.643  28.450  1.00  0.00    -0.269 OA
ATOM      6  C   UNL A   1      36.203  30.461  28.108  1.00  0.00     0.251 C 
ATOM      7  H   UNL A   1      34.265  30.397  27.692  1.00  0.00     0.163 HD
BRANCH   6   8
ATOM      8  C   UNL A   1      37.459  29.715  28.310  1.00  0.00     0.039 A 
ATOM      9  C   UNL A   1      38.514  29.771  27.400  1.00  0.00     0.014 A 
ATOM     10  C   UNL A   1      37.564  28.915  29.459  1.00  0.00     0.014 A 
ATOM     11  C   UNL A   1      39.591  28.919  27.542  1.00  0.00     0.010 A 
ATOM     12  C   UNL A   1      38.683  28.109  29.651  1.00  0.00     0.010 A 
ATOM     13  C   UNL A   1      39.687  28.106  28.679  1.00  0.00    -0.014 A 
BRANCH  13  14
ATOM     14  C   UNL A   1      41.024  27.532  28.926  1.00  0.00     0.031 A 
ATOM     15  C   UNL A   1      41.096  26.110  28.312  1.00  0.00     0.074 A 
ATOM     16  C   UNL A   1      41.877  28.252  29.717  1.00  0.00     0.049 A 
ATOM     17  N   UNL A   1      41.756  25.066  28.705  1.00  0.00    -0.248 NA
ATOM     18  C   UNL A   1      40.232  25.774  27.140  1.00  0.00     0.031 C 
ATOM     19  C   UNL A   1      41.638  29.635  30.184  1.00  0.00     0.029 A 
ATOM     20  N   UNL A   1      43.097  27.978  30.310  1.00  0.00    -0.354 N 
ATOM     21  C   UNL A   1      41.557  24.044  27.747  1.00  0.00     0.074 A 
ATOM     22  C   UNL A   1      40.512  24.496  26.883  1.00  0.00     0.031 C 
ATOM     23  C   UNL A   1      42.612  30.039  31.033  1.00  0.00     0.029 A 
ATOM     24  C   UNL A   1      43.585  28.977  31.203  1.00  0.00     0.049 A 
ATOM     25  H   UNL A   1      43.594  27.148  30.127  1.00  0.00     0.167 HD
ATOM     26  C   UNL A   1      42.372  22.953  27.647  1.00  0.00     0.037 A 
ATOM     27  C   UNL A   1      44.669  28.926  32.046  1.00  0.00     0.037 A 
ATOM     28  C   UNL A   1      43.360  23.006  28.666  1.00  0.00     0.049 A 
ATOM     29  C   UNL A   1      45.348  27.674  31.696  1.00  0.00     0.074 A 
ATOM     30  C   UNL A   1      43.287  22.787  30.014  1.00  0.00     0.029 A 
ATOM     31  N   UNL A   1      44.512  23.693  28.371  1.00  0.00    -0.354 N 
ATOM     32  N   UNL A   1      46.046  27.498  30.615  1.00  0.00    -0.248 NA
ATOM     33  C   UNL A   1      45.183  26.509  32.573  1.00  0.00     0.031 C 
ATOM     34  C   UNL A   1      44.148  23.767  30.539  1.00  0.00     0.029 A 
ATOM     35  C   UNL A   1      44.888  24.359  29.507  1.00  0.00     0.049 A 
ATOM     36  H   UNL A   1      44.980  23.703  27.506  1.00  0.00     0.167 HD
ATOM     37  C   UNL A   1      46.094  26.129  30.532  1.00  0.00     0.074 A 
ATOM     38  C   UNL A   1      45.880  25.622  31.870  1.00  0.00     0.031 C 
ATOM     39  C   UNL A   1      45.722  25.529  29.374  1.00  0.00     0.037 A 
BRANCH  26  40
ATOM     40  C   UNL A   1      42.573  21.914  26.581  1.00  0.00     0.064 A 
ATOM     41  C   UNL A   1      42.107  20.599  26.844  1.00  0.00     0.173 A 
ATOM     42  C   UNL A   1      43.513  22.044  25.553  1.00  0.00     0.173 A 
ATOM     43  F   UNL A   1      41.160  20.378  27.770  1.00  0.00    -0.203 F 
ATOM     44  C   UNL A   1      42.674  19.480  26.238  1.00  0.00     0.198 A 
ATOM     45  C   UNL A   1      44.041  20.919  24.910  1.00  0.00     0.198 A 
ATOM     46  F   UNL A   1      44.017  23.240  25.225  1.00  0.00    -0.203 F 
ATOM     47  F   UNL A   1      42.317  18.251  26.639  1.00  0.00    -0.200 F 
ATOM     48  C   UNL A   1      43.659  19.641  25.287  1.00  0.00     0.200 A 
ATOM     49  F   UNL A   1      44.990  21.076  23.977  1.00  0.00    -0.200 F 
ATOM     50  F   UNL A   1      44.267  18.569  24.759  1.00  0.00    -0.200 F 
ENDBRANCH  26  40
BRANCH  27  51
ATOM     51  C   UNL A   1      45.296  29.701  33.194  1.00  0.00     0.064 A 
ATOM     52  C   UNL A   1      46.593  30.221  33.236  1.00  0.00     0.173 A 
ATOM     53  C   UNL A   1      44.511  30.028  34.345  1.00  0.00     0.173 A 
ATOM     54  F   UNL A   1      47.494  29.901  32.301  1.00  0.00    -0.203 F 
ATOM     55  C   UNL A   1      47.020  31.088  34.268  1.00  0.00     0.198 A 
ATOM     56  C   UNL A   1      44.908  30.931  35.332  1.00  0.00     0.198 A 
ATOM     57  F   UNL A   1      43.308  29.481  34.564  1.00  0.00    -0.203 F 
ATOM     58  F   UNL A   1      48.273  31.562  34.262  1.00  0.00    -0.200 F 
ATOM     59  C   UNL A   1      46.164  31.477  35.286  1.00  0.00     0.200 A 
ATOM     60  F   UNL A   1      44.052  31.270  36.307  1.00  0.00    -0.200 F 
ATOM     61  F   UNL A   1      46.549  32.358  36.219  1.00  0.00    -0.200 F 
ENDBRANCH  27  51
BRANCH  39  62
ATOM     62  C   UNL A   1      45.888  26.404  28.143  1.00  0.00     0.064 A 
ATOM     63  C   UNL A   1      47.167  26.853  27.775  1.00  0.00     0.173 A 
ATOM     64  C   UNL A   1      44.822  26.926  27.391  1.00  0.00     0.173 A 
ATOM     65  F   UNL A   1      48.247  26.387  28.421  1.00  0.00    -0.203 F 
ATOM     66  C   UNL A   1      47.358  27.782  26.747  1.00  0.00     0.198 A 
ATOM     67  C   UNL A   1      45.006  27.855  26.363  1.00  0.00     0.198 A 
ATOM     68  F   UNL A   1      43.573  26.542  27.632  1.00  0.00    -0.203 F 
ATOM     69  F   UNL A   1      48.597  28.184  26.435  1.00  0.00    -0.200 F 
ATOM     70  C   UNL A   1      46.277  28.288  26.045  1.00  0.00     0.200 A 
ATOM     71  F   UNL A   1      43.947  28.320  25.681  1.00  0.00    -0.200 F 
ATOM     72  F   UNL A   1      46.460  29.173  25.055  1.00  0.00    -0.200 F 
ENDBRANCH  39  62
ENDBRANCH  13  14
ENDBRANCH   6   8
ENDBRANCH   3   4
ENDBRANCH   2   3
ENDBRANCH   1   2
BRANCH   1  73
ATOM     73  C   UNL A   1      31.763  26.573  25.768  1.00  0.00     0.116 C 
BRANCH  73  74
ATOM     74  N   UNL A   1      30.835  25.624  26.352  1.00  0.00    -0.351 N 
ATOM     75  C   UNL A   1      30.897  24.263  26.357  1.00  0.00     0.284 C 
ATOM     76  H   UNL A   1      30.054  26.017  26.806  1.00  0.00     0.163 HD
ATOM     77  O   UNL A   1      30.204  23.682  27.198  1.00  0.00    -0.268 OA
BRANCH  75  78
ATOM     78  C   UNL A   1      31.632  23.502  25.248  1.00  0.00     0.328 C 
ATOM     79  C   UNL A   1      31.185  24.022  23.861  1.00  0.00     0.339 C 
ATOM     80  N   UNL A   1      31.474  22.025  25.284  1.00  0.00    -0.327 N 
ATOM     81  N   UNL A   1      31.940  23.462  22.730  1.00  0.00    -0.318 N 
ATOM     82  C   UNL A   1      32.404  21.471  24.279  1.00  0.00     0.323 C 
ATOM     83  H   UNL A   1      30.515  21.769  25.054  1.00  0.00     0.347 HD
ATOM     84  H   UNL A   1      31.679  21.658  26.214  1.00  0.00     0.347 HD
ATOM     85  C   UNL A   1      32.134  22.007  22.852  1.00  0.00     0.324 C 
ATOM     86  H   UNL A   1      31.346  23.570  21.909  1.00  0.00     0.348 HD
BRANCH  81  87
ATOM     87  C   UNL A   1      33.128  24.244  22.335  1.00  0.00     0.346 C 
BRANCH  87  88
ATOM     88  C   UNL A   1      32.891  25.455  21.429  1.00  0.00     0.232 C 
ATOM     89  O   UNL A   1      32.968  25.332  20.203  1.00  0.00    -0.286 OA
BRANCH  88  90
ATOM     90  C   UNL A   1      32.596  26.754  22.021  1.00  0.00     0.088 A 
ATOM     91  C   UNL A   1      33.397  27.743  22.569  1.00  0.00     0.031 A 
ATOM     92  N   UNL A   1      31.304  27.243  22.062  1.00  0.00    -0.359 N 
ATOM     93  C   UNL A   1      32.596  28.894  22.780  1.00  0.00     0.020 A 
ATOM     94  C   UNL A   1      31.303  28.549  22.472  1.00  0.00     0.083 A 
ATOM     95  H   UNL A   1      30.500  26.725  21.831  1.00  0.00     0.166 HD
ENDBRANCH  88  90
ENDBRANCH  87  88
ENDBRANCH  81  87
ENDBRANCH  75  78
ENDBRANCH  73  74
ENDBRANCH   1  73
TORSDOF 14
ENDMDL
MODEL 2
REMARK VINA RESULT:     -12.3      1.359      3.153
REMARK SMILES O=C(NCCCCNC(=O)[C@@H]1C[N@@H+](CC(=O)c2ccc[nH]2)CC[NH2+]1)c1ccc(-c2c3nc(c(-c4c(F)c(F)c(F)c(F)c4F)c4ccc([nH]4)c(-c4c(F)c(F)c(F)c(F)c4F)c4nc(c(-c5c(F)c(F)c(F)c(F)c5F)c5ccc2[nH]5)C=C4)C=C3)cc1
REMARK SMILES IDX 6 1 5 2 4 3 3 4 1 5 2 6 25 8 26 9 87 10 27 11 86 12 28 13
REMARK SMILES IDX 29 14 30 15 80 16 31 17 85 18 79 19 81 20 32 21 84 22 78 23
REMARK SMILES IDX 77 24 33 26 65 27 45 28 64 29 46 30 49 31 63 32 82 33 47 34
REMARK SMILES IDX 48 35 62 37 83 38 50 39 34 40 35 41 43 42 36 43 37 44 41 45
REMARK SMILES IDX 44 46 38 47 39 48 42 49 40 50 66 51 67 52 75 53 68 54 69 55
REMARK SMILES IDX 73 56 76 57 70 58 71 59 74 60 72 61 51 62 52 63 60 64 53 65
REMARK SMILES IDX 54 66 58 67 61 68 55 69 56 70 59 71 57 72 7 73 8 74 9 75
REMARK SMILES IDX 10 77 11 78 12 79 24 80 13 81 23 82 22 85 14 87 15 88 16 89
REMARK SMILES IDX 17 90 18 91 21 92 19 93 20 94
REMARK H PARENT 3 7 81 25 49 36 8 76 24 83 24 84 13 86 21 95
REMARK Flexibility Score: inf
ROOT
ATOM      1  C   UNL A   1      33.497  27.221  26.058  1.00  0.00     0.023 C 
ENDROOT
BRANCH   1   2
ATOM      2  C   UNL A   1      33.585  28.329  27.102  1.00  0.00     0.023 C 
BRANCH   2   3
ATOM      3  C   UNL A   1      34.946  29.012  27.249  1.00  0.00     0.116 C 
BRANCH   3   4
ATOM      4  N   UNL A   1      35.039  30.081  28.227  1.00  0.00    -0.352 N 
ATOM      5  O   UNL A   1      35.913  31.559  29.674  1.00  0.00    -0.269 OA
ATOM      6  C   UNL A   1      36.077  30.549  28.988  1.00  0.00     0.251 C 
ATOM      7  H   UNL A   1      34.192  30.561  28.373  1.00  0.00     0.163 HD
BRANCH   6   8
ATOM      8  C   UNL A   1      37.354  29.816  29.078  1.00  0.00     0.039 A 
ATOM      9  C   UNL A   1      38.397  30.026  28.177  1.00  0.00     0.014 A 
ATOM     10  C   UNL A   1      37.491  28.870  30.104  1.00  0.00     0.014 A 
ATOM     11  C   UNL A   1      39.498  29.192  28.194  1.00  0.00     0.010 A 
ATOM     12  C   UNL A   1      38.633  28.076  30.177  1.00  0.00     0.010 A 
ATOM     13  C   UNL A   1      39.627  28.233  29.207  1.00  0.00    -0.014 A 
BRANCH  13  14
ATOM     14  C   UNL A   1      40.981  27.667  29.364  1.00  0.00     0.031 A 
ATOM     15  C   UNL A   1      41.043  26.281  28.674  1.00  0.00     0.074 A 
ATOM     16  C   UNL A   1      41.859  28.358  30.154  1.00  0.00     0.049 A 
ATOM     17  N   UNL A   1      41.733  25.227  28.982  1.00  0.00    -0.248 NA
ATOM     18  C   UNL A   1      40.131  25.993  27.525  1.00  0.00     0.031 C 
ATOM     19  C   UNL A   1      41.623  29.711  30.703  1.00  0.00     0.029 A 
ATOM     20  N   UNL A   1      43.108  28.072  30.677  1.00  0.00    -0.354 N 
ATOM     21  C   UNL A   1      41.504  24.254  27.981  1.00  0.00     0.074 A 
ATOM     22  C   UNL A   1      40.415  24.734  27.189  1.00  0.00     0.031 C 
ATOM     23  C   UNL A   1      42.630  30.084  31.529  1.00  0.00     0.029 A 
ATOM     24  C   UNL A   1      43.622  29.029  31.599  1.00  0.00     0.049 A 
ATOM     25  H   UNL A   1      43.607  27.260  30.429  1.00  0.00     0.167 HD
ATOM     26  C   UNL A   1      42.327  23.182  27.787  1.00  0.00     0.037 A 
ATOM     27  C   UNL A   1      44.744  28.951  32.389  1.00  0.00     0.037 A 
ATOM     28  C   UNL A   1      43.359  23.197  28.763  1.00  0.00     0.049 A 
ATOM     29  C   UNL A   1      45.422  27.730  31.944  1.00  0.00     0.074 A 
ATOM     30  C   UNL A   1      43.349  22.906  30.100  1.00  0.00     0.029 A 
ATOM     31  N   UNL A   1      44.488  23.915  28.454  1.00  0.00    -0.354 N 
ATOM     32  N   UNL A   1      46.074  27.620  30.825  1.00  0.00    -0.248 NA
ATOM     33  C   UNL A   1      45.311  26.518  32.766  1.00  0.00     0.031 C 
ATOM     34  C   UNL A   1      44.220  23.871  30.638  1.00  0.00     0.029 A 
ATOM     35  C   UNL A   1      44.906  24.526  29.606  1.00  0.00     0.049 A 
ATOM     36  H   UNL A   1      44.917  23.977  27.571  1.00  0.00     0.167 HD
ATOM     37  C   UNL A   1      46.135  26.258  30.669  1.00  0.00     0.074 A 
ATOM     38  C   UNL A   1      45.988  25.680  31.986  1.00  0.00     0.031 C 
ATOM     39  C   UNL A   1      45.718  25.714  29.498  1.00  0.00     0.037 A 
BRANCH  26  40
ATOM     40  C   UNL A   1      42.494  22.203  26.660  1.00  0.00     0.064 A 
ATOM     41  C   UNL A   1      41.951  20.902  26.829  1.00  0.00     0.173 A 
ATOM     42  C   UNL A   1      43.460  22.345  25.659  1.00  0.00     0.173 A 
ATOM     43  F   UNL A   1      40.974  20.676  27.723  1.00  0.00    -0.203 F 
ATOM     44  C   UNL A   1      42.468  19.793  26.163  1.00  0.00     0.198 A 
ATOM     45  C   UNL A   1      43.939  21.235  24.955  1.00  0.00     0.198 A 
ATOM     46  F   UNL A   1      44.036  23.529  25.418  1.00  0.00    -0.203 F 
ATOM     47  F   UNL A   1      42.036  18.563  26.477  1.00  0.00    -0.200 F 
ATOM     48  C   UNL A   1      43.480  19.959  25.241  1.00  0.00     0.200 A 
ATOM     49  F   UNL A   1      44.915  21.398  24.051  1.00  0.00    -0.200 F 
ATOM     50  F   UNL A   1      44.039  18.891  24.656  1.00  0.00    -0.200 F 
ENDBRANCH  26  40
BRANCH  27  51
ATOM     51  C   UNL A   1      45.412  29.674  33.548  1.00  0.00     0.064 A 
ATOM     52  C   UNL A   1      44.975  29.697  34.877  1.00  0.00     0.173 A 
ATOM     53  C   UNL A   1      46.653  30.357  33.343  1.00  0.00     0.173 A 
ATOM     54  F   UNL A   1      43.774  29.217  35.215  1.00  0.00    -0.203 F 
ATOM     55  C   UNL A   1      45.764  30.240  35.916  1.00  0.00     0.198 A 
ATOM     56  C   UNL A   1      47.460  30.838  34.373  1.00  0.00     0.198 A 
ATOM     57  F   UNL A   1      47.142  30.588  32.118  1.00  0.00    -0.203 F 
ATOM     58  F   UNL A   1      45.302  30.236  37.173  1.00  0.00    -0.200 F 
ATOM     59  C   UNL A   1      47.022  30.766  35.669  1.00  0.00     0.200 A 
ATOM     60  F   UNL A   1      48.666  31.352  34.088  1.00  0.00    -0.200 F 
ATOM     61  F   UNL A   1      47.798  31.209  36.667  1.00  0.00    -0.200 F 
ENDBRANCH  27  51
BRANCH  39  62
ATOM     62  C   UNL A   1      45.818  26.655  28.309  1.00  0.00     0.064 A 
ATOM     63  C   UNL A   1      47.077  27.108  27.884  1.00  0.00     0.173 A 
ATOM     64  C   UNL A   1      44.714  27.230  27.658  1.00  0.00     0.173 A 
ATOM     65  F   UNL A   1      48.190  26.594  28.431  1.00  0.00    -0.203 F 
ATOM     66  C   UNL A   1      47.216  28.091  26.898  1.00  0.00     0.198 A 
ATOM     67  C   UNL A   1      44.846  28.212  26.673  1.00  0.00     0.198 A 
ATOM     68  F   UNL A   1      43.477  26.848  27.959  1.00  0.00    -0.203 F 
ATOM     69  F   UNL A   1      48.438  28.495  26.528  1.00  0.00    -0.200 F 
ATOM     70  C   UNL A   1      46.100  28.648  26.297  1.00  0.00     0.200 A 
ATOM     71  F   UNL A   1      43.752  28.727  26.088  1.00  0.00    -0.200 F 
ATOM     72  F   UNL A   1      46.232  29.584  25.347  1.00  0.00    -0.200 F 
ENDBRANCH  39  62
ENDBRANCH  13  14
ENDBRANCH   6   8
ENDBRANCH   3   4
ENDBRANCH   2   3
ENDBRANCH   1   2
BRANCH   1  73
ATOM     73  C   UNL A   1      32.796  27.587  24.761  1.00  0.00     0.116 C 
BRANCH  73  74
ATOM     74  N   UNL A   1      33.551  27.241  23.573  1.00  0.00    -0.351 N 
ATOM     75  C   UNL A   1      33.380  26.183  22.732  1.00  0.00     0.284 C 
ATOM     76  H   UNL A   1      34.287  27.854  23.343  1.00  0.00     0.163 HD
ATOM     77  O   UNL A   1      33.896  26.278  21.613  1.00  0.00    -0.268 OA
BRANCH  75  78
ATOM     78  C   UNL A   1      32.754  24.874  23.227  1.00  0.00     0.328 C 
ATOM     79  C   UNL A   1      33.688  23.684  22.906  1.00  0.00     0.339 C 
ATOM     80  N   UNL A   1      31.398  24.582  22.694  1.00  0.00    -0.327 N 
ATOM     81  N   UNL A   1      33.252  22.399  23.472  1.00  0.00    -0.318 N 
ATOM     82  C   UNL A   1      30.893  23.407  23.433  1.00  0.00     0.323 C 
ATOM     83  H   UNL A   1      31.450  24.374  21.697  1.00  0.00     0.347 HD
ATOM     84  H   UNL A   1      30.778  25.383  22.813  1.00  0.00     0.347 HD
ATOM     85  C   UNL A   1      31.809  22.167  23.286  1.00  0.00     0.324 C 
ATOM     86  H   UNL A   1      33.698  21.674  22.912  1.00  0.00     0.348 HD
BRANCH  81  87
ATOM     87  C   UNL A   1      33.789  22.103  24.815  1.00  0.00     0.346 C 
BRANCH  87  88
ATOM     88  C   UNL A   1      34.478  20.749  25.002  1.00  0.00     0.232 C 
ATOM     89  O   UNL A   1      35.698  20.697  25.179  1.00  0.00    -0.286 OA
BRANCH  88  90
ATOM     90  C   UNL A   1      33.689  19.523  24.950  1.00  0.00     0.088 A 
ATOM     91  C   UNL A   1      33.393  18.637  23.926  1.00  0.00     0.031 A 
ATOM     92  N   UNL A   1      33.105  19.001  26.088  1.00  0.00    -0.359 N 
ATOM     93  C   UNL A   1      32.775  17.495  24.497  1.00  0.00     0.020 A 
ATOM     94  C   UNL A   1      32.596  17.757  25.833  1.00  0.00     0.083 A 
ATOM     95  H   UNL A   1      33.061  19.459  26.958  1.00  0.00     0.166 HD
ENDBRANCH  88  90
ENDBRANCH  87  88
ENDBRANCH  81  87
ENDBRANCH  75  78
ENDBRANCH  73  74
ENDBRANCH   1  73
TORSDOF 14
ENDMDL
MODEL 3
REMARK VINA RESULT:     -12.3      1.178      2.028
REMARK SMILES O=C(NCCCCNC(=O)[C@@H]1C[N@@H+](CC(=O)c2ccc[nH]2)CC[NH2+]1)c1ccc(-c2c3nc(c(-c4c(F)c(F)c(F)c(F)c4F)c4ccc([nH]4)c(-c4c(F)c(F)c(F)c(F)c4F)c4nc(c(-c5c(F)c(F)c(F)c(F)c5F)c5ccc2[nH]5)C=C4)C=C3)cc1
REMARK SMILES IDX 6 1 5 2 4 3 3 4 1 5 2 6 25 8 26 9 87 10 27 11 86 12 28 13
REMARK SMILES IDX 29 14 30 15 80 16 31 17 85 18 79 19 81 20 32 21 84 22 78 23
REMARK SMILES IDX 77 24 33 26 65 27 45 28 64 29 46 30 49 31 63 32 82 33 47 34
REMARK SMILES IDX 48 35 62 37 83 38 50 39 34 40 35 41 43 42 36 43 37 44 41 45
REMARK SMILES IDX 44 46 38 47 39 48 42 49 40 50 66 51 67 52 75 53 68 54 69 55
REMARK SMILES IDX 73 56 76 57 70 58 71 59 74 60 72 61 51 62 52 63 60 64 53 65
REMARK SMILES IDX 54 66 58 67 61 68 55 69 56 70 59 71 57 72 7 73 8 74 9 75
REMARK SMILES IDX 10 77 11 78 12 79 24 80 13 81 23 82 22 85 14 87 15 88 16 89
REMARK SMILES IDX 17 90 18 91 21 92 19 93 20 94
REMARK H PARENT 3 7 81 25 49 36 8 76 24 83 24 84 13 86 21 95
REMARK Flexibility Score: inf
ROOT
ATOM      1  C   UNL A   1      32.483  27.489  26.658  1.00  0.00     0.023 C 
ENDROOT
BRANCH   1   2
ATOM      2  C   UNL A   1      33.581  28.398  26.117  1.00  0.00     0.023 C 
BRANCH   2   3
ATOM      3  C   UNL A   1      34.810  28.578  27.010  1.00  0.00     0.116 C 
BRANCH   3   4
ATOM      4  N   UNL A   1      35.082  29.922  27.486  1.00  0.00    -0.352 N 
ATOM      5  O   UNL A   1      36.207  31.747  28.154  1.00  0.00    -0.269 OA
ATOM      6  C   UNL A   1      36.232  30.542  27.897  1.00  0.00     0.251 C 
ATOM      7  H   UNL A   1      34.285  30.499  27.523  1.00  0.00     0.163 HD
BRANCH   6   8
ATOM      8  C   UNL A   1      37.473  29.780  28.128  1.00  0.00     0.039 A 
ATOM      9  C   UNL A   1      38.535  29.794  27.226  1.00  0.00     0.014 A 
ATOM     10  C   UNL A   1      37.556  29.010  29.299  1.00  0.00     0.014 A 
ATOM     11  C   UNL A   1      39.597  28.929  27.399  1.00  0.00     0.010 A 
ATOM     12  C   UNL A   1      38.660  28.191  29.521  1.00  0.00     0.010 A 
ATOM     13  C   UNL A   1      39.670  28.144  28.557  1.00  0.00    -0.014 A 
BRANCH  13  14
ATOM     14  C   UNL A   1      40.995  27.555  28.830  1.00  0.00     0.031 A 
ATOM     15  C   UNL A   1      41.056  26.126  28.231  1.00  0.00     0.074 A 
ATOM     16  C   UNL A   1      41.846  28.271  29.627  1.00  0.00     0.049 A 
ATOM     17  N   UNL A   1      41.696  25.077  28.645  1.00  0.00    -0.248 NA
ATOM     18  C   UNL A   1      40.205  25.790  27.051  1.00  0.00     0.031 C 
ATOM     19  C   UNL A   1      41.620  29.662  30.076  1.00  0.00     0.029 A 
ATOM     20  N   UNL A   1      43.053  27.986  30.241  1.00  0.00    -0.354 N 
ATOM     21  C   UNL A   1      41.497  24.048  27.694  1.00  0.00     0.074 A 
ATOM     22  C   UNL A   1      40.471  24.505  26.810  1.00  0.00     0.031 C 
ATOM     23  C   UNL A   1      42.587  30.060  30.936  1.00  0.00     0.029 A 
ATOM     24  C   UNL A   1      43.542  28.987  31.131  1.00  0.00     0.049 A 
ATOM     25  H   UNL A   1      43.542  27.148  30.074  1.00  0.00     0.167 HD
ATOM     26  C   UNL A   1      42.297  22.944  27.617  1.00  0.00     0.037 A 
ATOM     27  C   UNL A   1      44.613  28.930  31.990  1.00  0.00     0.037 A 
ATOM     28  C   UNL A   1      43.271  22.995  28.650  1.00  0.00     0.049 A 
ATOM     29  C   UNL A   1      45.280  27.665  31.663  1.00  0.00     0.074 A 
ATOM     30  C   UNL A   1      43.175  22.790  30.000  1.00  0.00     0.029 A 
ATOM     31  N   UNL A   1      44.437  23.662  28.366  1.00  0.00    -0.354 N 
ATOM     32  N   UNL A   1      45.991  27.468  30.594  1.00  0.00    -0.248 NA
ATOM     33  C   UNL A   1      45.085  26.512  32.549  1.00  0.00     0.031 C 
ATOM     34  C   UNL A   1      44.042  23.764  30.528  1.00  0.00     0.029 A 
ATOM     35  C   UNL A   1      44.805  24.334  29.500  1.00  0.00     0.049 A 
ATOM     36  H   UNL A   1      44.918  23.657  27.507  1.00  0.00     0.167 HD
ATOM     37  C   UNL A   1      46.021  26.098  30.526  1.00  0.00     0.074 A 
ATOM     38  C   UNL A   1      45.780  25.608  31.866  1.00  0.00     0.031 C 
ATOM     39  C   UNL A   1      45.657  25.491  29.368  1.00  0.00     0.037 A 
BRANCH  26  40
ATOM     40  C   UNL A   1      42.500  21.892  26.565  1.00  0.00     0.064 A 
ATOM     41  C   UNL A   1      42.059  20.574  26.854  1.00  0.00     0.173 A 
ATOM     42  C   UNL A   1      43.423  22.020  25.522  1.00  0.00     0.173 A 
ATOM     43  F   UNL A   1      41.128  20.353  27.797  1.00  0.00    -0.203 F 
ATOM     44  C   UNL A   1      42.634  19.455  26.259  1.00  0.00     0.198 A 
ATOM     45  C   UNL A   1      43.960  20.893  24.889  1.00  0.00     0.198 A 
ATOM     46  F   UNL A   1      43.905  23.218  25.168  1.00  0.00    -0.203 F 
ATOM     47  F   UNL A   1      42.302  18.227  26.683  1.00  0.00    -0.200 F 
ATOM     48  C   UNL A   1      43.603  19.616  25.291  1.00  0.00     0.200 A 
ATOM     49  F   UNL A   1      44.893  21.050  23.941  1.00  0.00    -0.200 F 
ATOM     50  F   UNL A   1      44.220  18.545  24.772  1.00  0.00    -0.200 F 
ENDBRANCH  26  40
BRANCH  27  51
ATOM     51  C   UNL A   1      45.233  29.708  33.140  1.00  0.00     0.064 A 
ATOM     52  C   UNL A   1      44.895  29.602  34.493  1.00  0.00     0.173 A 
ATOM     53  C   UNL A   1      46.325  30.598  32.891  1.00  0.00     0.173 A 
ATOM     54  F   UNL A   1      43.819  28.912  34.882  1.00  0.00    -0.203 F 
ATOM     55  C   UNL A   1      45.657  30.227  35.506  1.00  0.00     0.198 A 
ATOM     56  C   UNL A   1      47.114  31.167  33.891  1.00  0.00     0.198 A 
ATOM     57  F   UNL A   1      46.680  30.958  31.651  1.00  0.00    -0.203 F 
ATOM     58  F   UNL A   1      45.294  30.094  36.789  1.00  0.00    -0.200 F 
ATOM     59  C   UNL A   1      46.789  30.968  35.207  1.00  0.00     0.200 A 
ATOM     60  F   UNL A   1      48.194  31.888  33.556  1.00  0.00    -0.200 F 
ATOM     61  F   UNL A   1      47.551  31.496  36.175  1.00  0.00    -0.200 F 
ENDBRANCH  27  51
BRANCH  39  62
ATOM     62  C   UNL A   1      45.854  26.352  28.131  1.00  0.00     0.064 A 
ATOM     63  C   UNL A   1      47.144  26.783  27.781  1.00  0.00     0.173 A 
ATOM     64  C   UNL A   1      44.807  26.877  27.356  1.00  0.00     0.173 A 
ATOM     65  F   UNL A   1      48.208  26.312  28.449  1.00  0.00    -0.203 F 
ATOM     66  C   UNL A   1      47.362  27.699  26.746  1.00  0.00     0.198 A 
ATOM     67  C   UNL A   1      45.019  27.793  26.322  1.00  0.00     0.198 A 
ATOM     68  F   UNL A   1      43.550  26.509  27.580  1.00  0.00    -0.203 F 
ATOM     69  F   UNL A   1      48.611  28.084  26.451  1.00  0.00    -0.200 F 
ATOM     70  C   UNL A   1      46.299  28.209  26.021  1.00  0.00     0.200 A 
ATOM     71  F   UNL A   1      43.976  28.262  25.617  1.00  0.00    -0.200 F 
ATOM     72  F   UNL A   1      46.509  29.081  25.025  1.00  0.00    -0.200 F 
ENDBRANCH  39  62
ENDBRANCH  13  14
ENDBRANCH   6   8
ENDBRANCH   3   4
ENDBRANCH   2   3
ENDBRANCH   1   2
BRANCH   1  73
ATOM     73  C   UNL A   1      32.596  26.021  26.287  1.00  0.00     0.116 C 
BRANCH  73  74
ATOM     74  N   UNL A   1      31.433  25.236  26.651  1.00  0.00    -0.351 N 
ATOM     75  C   UNL A   1      31.294  23.881  26.682  1.00  0.00     0.284 C 
ATOM     76  H   UNL A   1      30.636  25.752  26.911  1.00  0.00     0.163 HD
ATOM     77  O   UNL A   1      30.353  23.437  27.347  1.00  0.00    -0.268 OA
BRANCH  75  78
ATOM     78  C   UNL A   1      32.141  22.980  25.775  1.00  0.00     0.328 C 
ATOM     79  C   UNL A   1      31.456  22.815  24.398  1.00  0.00     0.339 C 
ATOM     80  N   UNL A   1      32.444  21.634  26.328  1.00  0.00    -0.327 N 
ATOM     81  N   UNL A   1      32.259  22.092  23.402  1.00  0.00    -0.318 N 
ATOM     82  C   UNL A   1      33.421  21.007  25.415  1.00  0.00     0.323 C 
ATOM     83  H   UNL A   1      31.593  21.073  26.372  1.00  0.00     0.347 HD
ATOM     84  H   UNL A   1      32.819  21.703  27.275  1.00  0.00     0.347 HD
ATOM     85  C   UNL A   1      32.895  20.888  23.964  1.00  0.00     0.324 C 
ATOM     86  H   UNL A   1      31.601  21.731  22.712  1.00  0.00     0.348 HD
BRANCH  81  87
ATOM     87  C   UNL A   1      33.119  22.949  22.564  1.00  0.00     0.346 C 
BRANCH  87  88
ATOM     88  C   UNL A   1      33.886  24.067  23.274  1.00  0.00     0.232 C 
ATOM     89  O   UNL A   1      33.454  25.222  23.251  1.00  0.00    -0.286 OA
BRANCH  88  90
ATOM     90  C   UNL A   1      35.139  23.764  23.957  1.00  0.00     0.088 A 
ATOM     91  C   UNL A   1      35.672  24.171  25.170  1.00  0.00     0.031 A 
ATOM     92  N   UNL A   1      36.045  22.868  23.422  1.00  0.00    -0.359 N 
ATOM     93  C   UNL A   1      36.820  23.381  25.434  1.00  0.00     0.020 A 
ATOM     94  C   UNL A   1      37.035  22.596  24.328  1.00  0.00     0.083 A 
ATOM     95  H   UNL A   1      35.988  22.483  22.519  1.00  0.00     0.166 HD
ENDBRANCH  88  90
ENDBRANCH  87  88
ENDBRANCH  81  87
ENDBRANCH  75  78
ENDBRANCH  73  74
ENDBRANCH   1  73
TORSDOF 14
ENDMDL
