MODEL 1
REMARK VINA RESULT:     -12.8      0.000      0.000
REMARK SMILES COc1ccc(C[N@@H+]2C[C@@H](C(=O)NCCCCNC(=O)c3ccc(-c4c5nc(c(-c6c(F)c(F)c(F)c(F)c6F)c6ccc([nH]6)c(-c6c(F)c(F)c(F)c(F)c6F)c6nc(c(-c7c(F)c(F)c(F)c(F)c7F)c7ccc4[nH]7)C=C6)C=C5)cc3)[C@H](c3ccccc3OC)C2)c(OC)c1
REMARK SMILES IDX 15 1 14 2 13 3 11 4 12 5 10 7 8 8 9 9 93 10 84 12 7 13 6 14
REMARK SMILES IDX 3 15 4 16 97 17 5 18 94 19 2 20 1 21 95 22 96 23 85 24 86 25
REMARK SMILES IDX 90 26 87 27 89 28 88 29 91 30 92 31 16 32 17 33 18 34 19 35
REMARK SMILES IDX 20 37 21 38 22 39 83 40 23 41 82 42 24 43 25 44 26 45 76 46
REMARK SMILES IDX 27 47 81 48 75 49 77 50 28 51 80 52 74 53 73 54 29 56 61 57
REMARK SMILES IDX 41 58 60 59 42 60 45 61 59 62 78 63 43 64 44 65 58 67 79 68
REMARK SMILES IDX 46 69 30 70 31 71 39 72 32 73 33 74 37 75 40 76 34 77 35 78
REMARK SMILES IDX 38 79 36 80 62 81 63 82 71 83 64 84 65 85 69 86 72 87 66 88
REMARK SMILES IDX 67 89 70 90 68 91 47 92 48 93 56 94 49 95 50 96 54 97 57 98
REMARK SMILES IDX 51 99 52 100 55 101 53 102
REMARK H PARENT 13 6 8 11 18 36 77 55 45 66
REMARK Flexibility Score: inf
ROOT
ATOM      1  C   UNL A   1      31.436  30.202  26.056  1.00  0.00     0.023 C 
ENDROOT
BRANCH   1   2
ATOM      2  C   UNL A   1      32.871  29.690  25.911  1.00  0.00     0.116 C 
BRANCH   2   3
ATOM      3  N   UNL A   1      33.263  29.771  24.517  1.00  0.00    -0.356 N 
ATOM      4  C   UNL A   1      33.445  28.745  23.618  1.00  0.00     0.229 C 
ATOM      5  O   UNL A   1      34.193  28.944  22.664  1.00  0.00    -0.275 OA
ATOM      6  H   UNL A   1      33.420  30.678  24.168  1.00  0.00     0.163 HD
BRANCH   4   7
ATOM      7  C   UNL A   1      32.681  27.451  23.839  1.00  0.00     0.146 C 
ATOM      8  N   UNL A   1      32.874  25.100  23.520  1.00  0.00    -0.330 N 
ATOM      9  C   UNL A   1      33.675  26.298  23.668  1.00  0.00     0.276 C 
ATOM     10  C   UNL A   1      31.747  25.539  22.695  1.00  0.00     0.272 C 
ATOM     11  H   UNL A   1      33.405  24.350  23.076  1.00  0.00     0.348 HD
ATOM     12  C   UNL A   1      31.544  27.093  22.837  1.00  0.00     0.096 C 
BRANCH   8  13
ATOM     13  C   UNL A   1      32.517  24.389  24.772  1.00  0.00     0.303 C 
BRANCH  13  14
ATOM     14  C   UNL A   1      32.888  22.922  24.938  1.00  0.00     0.048 A 
ATOM     15  C   UNL A   1      33.518  20.180  24.898  1.00  0.00     0.122 A 
ATOM     16  C   UNL A   1      32.190  20.582  24.925  1.00  0.00     0.047 A 
ATOM     17  C   UNL A   1      34.539  21.126  24.971  1.00  0.00     0.093 A 
ATOM     18  C   UNL A   1      31.880  21.942  24.985  1.00  0.00     0.017 A 
ATOM     19  C   UNL A   1      34.225  22.492  25.035  1.00  0.00     0.131 A 
BRANCH  15  20
ATOM     20  O   UNL A   1      33.766  18.850  24.690  1.00  0.00    -0.497 OA
ATOM     21  C   UNL A   1      32.569  18.091  24.546  1.00  0.00     0.278 C 
ENDBRANCH  15  20
BRANCH  19  22
ATOM     22  O   UNL A   1      35.185  23.466  25.151  1.00  0.00    -0.496 OA
ATOM     23  C   UNL A   1      36.168  23.462  24.119  1.00  0.00     0.278 C 
ENDBRANCH  19  22
ENDBRANCH  13  14
ENDBRANCH   8  13
BRANCH  12  24
ATOM     24  C   UNL A   1      30.068  27.460  23.099  1.00  0.00     0.004 A 
ATOM     25  C   UNL A   1      29.213  26.469  23.643  1.00  0.00     0.008 A 
ATOM     26  C   UNL A   1      29.428  28.649  22.707  1.00  0.00     0.122 A 
ATOM     27  C   UNL A   1      27.867  26.687  23.942  1.00  0.00     0.001 A 
ATOM     28  C   UNL A   1      28.067  28.882  23.010  1.00  0.00     0.047 A 
ATOM     29  C   UNL A   1      27.297  27.913  23.656  1.00  0.00     0.004 A 
BRANCH  26  30
ATOM     30  O   UNL A   1      29.982  29.444  21.738  1.00  0.00    -0.496 OA
ATOM     31  C   UNL A   1      29.198  30.571  21.380  1.00  0.00     0.278 C 
ENDBRANCH  26  30
ENDBRANCH  12  24
ENDBRANCH   4   7
ENDBRANCH   2   3
ENDBRANCH   1   2
BRANCH   1  32
ATOM     32  C   UNL A   1      31.382  31.701  26.349  1.00  0.00     0.023 C 
BRANCH  32  33
ATOM     33  C   UNL A   1      32.591  32.215  27.117  1.00  0.00     0.116 C 
BRANCH  33  34
ATOM     34  N   UNL A   1      32.460  33.618  27.484  1.00  0.00    -0.352 N 
ATOM     35  C   UNL A   1      33.200  34.325  28.391  1.00  0.00     0.251 C 
ATOM     36  H   UNL A   1      31.752  34.120  27.020  1.00  0.00     0.163 HD
ATOM     37  O   UNL A   1      32.864  35.462  28.727  1.00  0.00    -0.269 OA
BRANCH  35  38
ATOM     38  C   UNL A   1      34.396  33.700  28.977  1.00  0.00     0.039 A 
ATOM     39  C   UNL A   1      35.651  34.237  28.694  1.00  0.00     0.014 A 
ATOM     40  C   UNL A   1      34.265  32.600  29.832  1.00  0.00     0.014 A 
ATOM     41  C   UNL A   1      36.780  33.680  29.290  1.00  0.00     0.010 A 
ATOM     42  C   UNL A   1      35.378  32.112  30.500  1.00  0.00     0.010 A 
ATOM     43  C   UNL A   1      36.650  32.623  30.207  1.00  0.00    -0.014 A 
BRANCH  43  44
ATOM     44  C   UNL A   1      37.847  31.999  30.814  1.00  0.00     0.031 A 
ATOM     45  C   UNL A   1      38.251  32.368  32.215  1.00  0.00     0.074 A 
ATOM     46  C   UNL A   1      38.570  31.113  30.106  1.00  0.00     0.049 A 
ATOM     47  N   UNL A   1      39.236  31.908  32.942  1.00  0.00    -0.248 NA
ATOM     48  C   UNL A   1      37.461  33.419  32.875  1.00  0.00     0.031 C 
ATOM     49  C   UNL A   1      38.303  30.717  28.722  1.00  0.00     0.029 A 
ATOM     50  N   UNL A   1      39.669  30.375  30.458  1.00  0.00    -0.354 N 
ATOM     51  C   UNL A   1      39.181  32.613  34.137  1.00  0.00     0.074 A 
ATOM     52  C   UNL A   1      38.127  33.592  34.005  1.00  0.00     0.031 C 
ATOM     53  C   UNL A   1      39.180  29.766  28.362  1.00  0.00     0.029 A 
ATOM     54  C   UNL A   1      40.086  29.510  29.477  1.00  0.00     0.049 A 
ATOM     55  H   UNL A   1      40.117  30.456  31.332  1.00  0.00     0.167 HD
ATOM     56  C   UNL A   1      39.914  32.433  35.262  1.00  0.00     0.037 A 
ATOM     57  C   UNL A   1      41.078  28.600  29.490  1.00  0.00     0.037 A 
ATOM     58  C   UNL A   1      40.958  31.451  35.387  1.00  0.00     0.049 A 
ATOM     59  C   UNL A   1      41.893  28.430  30.743  1.00  0.00     0.074 A 
ATOM     60  C   UNL A   1      41.750  31.163  36.484  1.00  0.00     0.029 A 
ATOM     61  N   UNL A   1      41.358  30.596  34.368  1.00  0.00    -0.354 N 
ATOM     62  N   UNL A   1      41.789  29.050  31.895  1.00  0.00    -0.248 NA
ATOM     63  C   UNL A   1      42.955  27.417  30.701  1.00  0.00     0.031 C 
ATOM     64  C   UNL A   1      42.662  30.167  36.113  1.00  0.00     0.029 A 
ATOM     65  C   UNL A   1      42.396  29.789  34.806  1.00  0.00     0.049 A 
ATOM     66  H   UNL A   1      40.962  30.567  33.467  1.00  0.00     0.167 HD
ATOM     67  C   UNL A   1      42.740  28.474  32.726  1.00  0.00     0.074 A 
ATOM     68  C   UNL A   1      43.403  27.448  31.948  1.00  0.00     0.031 C 
ATOM     69  C   UNL A   1      43.034  28.763  34.019  1.00  0.00     0.037 A 
BRANCH  56  70
ATOM     70  C   UNL A   1      39.602  33.324  36.431  1.00  0.00     0.064 A 
ATOM     71  C   UNL A   1      40.274  34.543  36.630  1.00  0.00     0.173 A 
ATOM     72  C   UNL A   1      38.637  32.952  37.378  1.00  0.00     0.173 A 
ATOM     73  F   UNL A   1      41.220  34.942  35.765  1.00  0.00    -0.203 F 
ATOM     74  C   UNL A   1      40.030  35.325  37.755  1.00  0.00     0.198 A 
ATOM     75  C   UNL A   1      38.366  33.756  38.483  1.00  0.00     0.198 A 
ATOM     76  F   UNL A   1      37.960  31.802  37.239  1.00  0.00    -0.203 F 
ATOM     77  F   UNL A   1      40.743  36.440  37.962  1.00  0.00    -0.200 F 
ATOM     78  C   UNL A   1      39.073  34.934  38.679  1.00  0.00     0.200 A 
ATOM     79  F   UNL A   1      37.432  33.384  39.368  1.00  0.00    -0.200 F 
ATOM     80  F   UNL A   1      38.842  35.683  39.765  1.00  0.00    -0.200 F 
ENDBRANCH  56  70
BRANCH  57  81
ATOM     81  C   UNL A   1      41.301  27.730  28.306  1.00  0.00     0.064 A 
ATOM     82  C   UNL A   1      40.627  26.506  28.181  1.00  0.00     0.173 A 
ATOM     83  C   UNL A   1      42.182  28.098  27.280  1.00  0.00     0.173 A 
ATOM     84  F   UNL A   1      39.786  26.103  29.144  1.00  0.00    -0.203 F 
ATOM     85  C   UNL A   1      40.843  25.674  27.084  1.00  0.00     0.198 A 
ATOM     86  C   UNL A   1      42.375  27.279  26.170  1.00  0.00     0.198 A 
ATOM     87  F   UNL A   1      42.845  29.262  27.348  1.00  0.00    -0.203 F 
ATOM     88  F   UNL A   1      40.220  24.491  27.012  1.00  0.00    -0.200 F 
ATOM     89  C   UNL A   1      41.712  26.064  26.077  1.00  0.00     0.200 A 
ATOM     90  F   UNL A   1      43.203  27.666  25.190  1.00  0.00    -0.200 F 
ATOM     91  F   UNL A   1      41.915  25.265  25.020  1.00  0.00    -0.200 F 
ENDBRANCH  57  81
BRANCH  69  92
ATOM     92  C   UNL A   1      44.078  27.915  34.689  1.00  0.00     0.064 A 
ATOM     93  C   UNL A   1      45.429  28.289  34.729  1.00  0.00     0.173 A 
ATOM     94  C   UNL A   1      43.710  26.712  35.314  1.00  0.00     0.173 A 
ATOM     95  F   UNL A   1      45.834  29.422  34.138  1.00  0.00    -0.203 F 
ATOM     96  C   UNL A   1      46.380  27.468  35.331  1.00  0.00     0.198 A 
ATOM     97  C   UNL A   1      44.658  25.914  35.947  1.00  0.00     0.198 A 
ATOM     98  F   UNL A   1      42.430  26.313  35.315  1.00  0.00    -0.203 F 
ATOM     99  F   UNL A   1      47.676  27.812  35.297  1.00  0.00    -0.200 F 
ATOM    100  C   UNL A   1      45.994  26.285  35.944  1.00  0.00     0.200 A 
ATOM    101  F   UNL A   1      44.280  24.780  36.554  1.00  0.00    -0.200 F 
ATOM    102  F   UNL A   1      46.911  25.498  36.522  1.00  0.00    -0.200 F 
ENDBRANCH  69  92
ENDBRANCH  43  44
ENDBRANCH  35  38
ENDBRANCH  33  34
ENDBRANCH  32  33
ENDBRANCH   1  32
TORSDOF 17
ENDMDL
MODEL 2
REMARK VINA RESULT:     -12.7      0.715      2.019
REMARK SMILES COc1ccc(C[N@@H+]2C[C@@H](C(=O)NCCCCNC(=O)c3ccc(-c4c5nc(c(-c6c(F)c(F)c(F)c(F)c6F)c6ccc([nH]6)c(-c6c(F)c(F)c(F)c(F)c6F)c6nc(c(-c7c(F)c(F)c(F)c(F)c7F)c7ccc4[nH]7)C=C6)C=C5)cc3)[C@H](c3ccccc3OC)C2)c(OC)c1
REMARK SMILES IDX 15 1 14 2 13 3 11 4 12 5 10 7 8 8 9 9 93 10 84 12 7 13 6 14
REMARK SMILES IDX 3 15 4 16 97 17 5 18 94 19 2 20 1 21 95 22 96 23 85 24 86 25
REMARK SMILES IDX 90 26 87 27 89 28 88 29 91 30 92 31 16 32 17 33 18 34 19 35
REMARK SMILES IDX 20 37 21 38 22 39 83 40 23 41 82 42 24 43 25 44 26 45 76 46
REMARK SMILES IDX 27 47 81 48 75 49 77 50 28 51 80 52 74 53 73 54 29 56 61 57
REMARK SMILES IDX 41 58 60 59 42 60 45 61 59 62 78 63 43 64 44 65 58 67 79 68
REMARK SMILES IDX 46 69 30 70 31 71 39 72 32 73 33 74 37 75 40 76 34 77 35 78
REMARK SMILES IDX 38 79 36 80 62 81 63 82 71 83 64 84 65 85 69 86 72 87 66 88
REMARK SMILES IDX 67 89 70 90 68 91 47 92 48 93 56 94 49 95 50 96 54 97 57 98
REMARK SMILES IDX 51 99 52 100 55 101 53 102
REMARK H PARENT 13 6 8 11 18 36 77 55 45 66
REMARK Flexibility Score: inf
ROOT
ATOM      1  C   UNL A   1      31.907  30.459  26.787  1.00  0.00     0.023 C 
ENDROOT
BRANCH   1   2
ATOM      2  C   UNL A   1      31.410  29.809  25.493  1.00  0.00     0.116 C 
BRANCH   2   3
ATOM      3  N   UNL A   1      32.528  29.648  24.584  1.00  0.00    -0.356 N 
ATOM      4  C   UNL A   1      33.105  28.483  24.133  1.00  0.00     0.229 C 
ATOM      5  O   UNL A   1      34.275  28.527  23.762  1.00  0.00    -0.275 OA
ATOM      6  H   UNL A   1      32.928  30.482  24.246  1.00  0.00     0.163 HD
BRANCH   4   7
ATOM      7  C   UNL A   1      32.248  27.229  24.086  1.00  0.00     0.146 C 
ATOM      8  N   UNL A   1      32.335  24.943  23.429  1.00  0.00    -0.330 N 
ATOM      9  C   UNL A   1      33.185  26.044  23.829  1.00  0.00     0.276 C 
ATOM     10  C   UNL A   1      31.322  25.578  22.584  1.00  0.00     0.272 C 
ATOM     11  H   UNL A   1      32.862  24.230  22.925  1.00  0.00     0.348 HD
ATOM     12  C   UNL A   1      31.197  27.105  22.943  1.00  0.00     0.096 C 
BRANCH   8  13
ATOM     13  C   UNL A   1      31.815  24.083  24.521  1.00  0.00     0.303 C 
BRANCH  13  14
ATOM     14  C   UNL A   1      32.148  22.597  24.534  1.00  0.00     0.048 A 
ATOM     15  C   UNL A   1      33.061  19.940  24.390  1.00  0.00     0.122 A 
ATOM     16  C   UNL A   1      32.447  20.519  23.288  1.00  0.00     0.047 A 
ATOM     17  C   UNL A   1      33.154  20.642  25.590  1.00  0.00     0.093 A 
ATOM     18  C   UNL A   1      31.960  21.825  23.374  1.00  0.00     0.017 A 
ATOM     19  C   UNL A   1      32.660  21.953  25.676  1.00  0.00     0.131 A 
BRANCH  15  20
ATOM     20  O   UNL A   1      33.652  18.718  24.209  1.00  0.00    -0.497 OA
ATOM     21  C   UNL A   1      32.819  17.815  23.486  1.00  0.00     0.278 C 
ENDBRANCH  15  20
BRANCH  19  22
ATOM     22  O   UNL A   1      32.685  22.677  26.841  1.00  0.00    -0.496 OA
ATOM     23  C   UNL A   1      33.797  22.404  27.690  1.00  0.00     0.278 C 
ENDBRANCH  19  22
ENDBRANCH  13  14
ENDBRANCH   8  13
BRANCH  12  24
ATOM     24  C   UNL A   1      29.727  27.536  23.127  1.00  0.00     0.004 A 
ATOM     25  C   UNL A   1      28.827  26.624  23.736  1.00  0.00     0.008 A 
ATOM     26  C   UNL A   1      29.133  28.700  22.607  1.00  0.00     0.122 A 
ATOM     27  C   UNL A   1      27.482  26.906  23.973  1.00  0.00     0.001 A 
ATOM     28  C   UNL A   1      27.773  28.997  22.847  1.00  0.00     0.047 A 
ATOM     29  C   UNL A   1      26.956  28.115  23.558  1.00  0.00     0.004 A 
BRANCH  26  30
ATOM     30  O   UNL A   1      29.736  29.385  21.585  1.00  0.00    -0.496 OA
ATOM     31  C   UNL A   1      29.302  30.727  21.438  1.00  0.00     0.278 C 
ENDBRANCH  26  30
ENDBRANCH  12  24
ENDBRANCH   4   7
ENDBRANCH   2   3
ENDBRANCH   1   2
BRANCH   1  32
ATOM     32  C   UNL A   1      31.568  31.947  26.856  1.00  0.00     0.023 C 
BRANCH  32  33
ATOM     33  C   UNL A   1      32.792  32.848  26.930  1.00  0.00     0.116 C 
BRANCH  33  34
ATOM     34  N   UNL A   1      32.509  34.117  27.587  1.00  0.00    -0.352 N 
ATOM     35  C   UNL A   1      33.107  34.642  28.699  1.00  0.00     0.251 C 
ATOM     36  H   UNL A   1      31.799  34.664  27.179  1.00  0.00     0.163 HD
ATOM     37  O   UNL A   1      32.646  35.646  29.246  1.00  0.00    -0.269 OA
BRANCH  35  38
ATOM     38  C   UNL A   1      34.301  33.980  29.247  1.00  0.00     0.039 A 
ATOM     39  C   UNL A   1      35.561  34.483  28.929  1.00  0.00     0.014 A 
ATOM     40  C   UNL A   1      34.163  32.880  30.100  1.00  0.00     0.014 A 
ATOM     41  C   UNL A   1      36.692  33.890  29.489  1.00  0.00     0.010 A 
ATOM     42  C   UNL A   1      35.281  32.356  30.732  1.00  0.00     0.010 A 
ATOM     43  C   UNL A   1      36.558  32.832  30.404  1.00  0.00    -0.014 A 
BRANCH  43  44
ATOM     44  C   UNL A   1      37.754  32.170  30.973  1.00  0.00     0.031 A 
ATOM     45  C   UNL A   1      38.205  32.516  32.366  1.00  0.00     0.074 A 
ATOM     46  C   UNL A   1      38.433  31.272  30.238  1.00  0.00     0.049 A 
ATOM     47  N   UNL A   1      39.197  32.022  33.062  1.00  0.00    -0.248 NA
ATOM     48  C   UNL A   1      37.461  33.581  33.057  1.00  0.00     0.031 C 
ATOM     49  C   UNL A   1      38.118  30.897  28.858  1.00  0.00     0.029 A 
ATOM     50  N   UNL A   1      39.521  30.502  30.554  1.00  0.00    -0.354 N 
ATOM     51  C   UNL A   1      39.193  32.717  34.264  1.00  0.00     0.074 A 
ATOM     52  C   UNL A   1      38.163  33.725  34.169  1.00  0.00     0.031 C 
ATOM     53  C   UNL A   1      38.959  29.926  28.467  1.00  0.00     0.029 A 
ATOM     54  C   UNL A   1      39.888  29.636  29.554  1.00  0.00     0.049 A 
ATOM     55  H   UNL A   1      39.995  30.563  31.415  1.00  0.00     0.167 HD
ATOM     56  C   UNL A   1      39.951  32.507  35.366  1.00  0.00     0.037 A 
ATOM     57  C   UNL A   1      40.855  28.699  29.532  1.00  0.00     0.037 A 
ATOM     58  C   UNL A   1      40.971  31.496  35.454  1.00  0.00     0.049 A 
ATOM     59  C   UNL A   1      41.699  28.496  30.761  1.00  0.00     0.074 A 
ATOM     60  C   UNL A   1      41.785  31.177  36.527  1.00  0.00     0.029 A 
ATOM     61  N   UNL A   1      41.320  30.640  34.417  1.00  0.00    -0.354 N 
ATOM     62  N   UNL A   1      41.643  29.107  31.920  1.00  0.00    -0.248 NA
ATOM     63  C   UNL A   1      42.731  27.455  30.681  1.00  0.00     0.031 C 
ATOM     64  C   UNL A   1      42.659  30.161  36.122  1.00  0.00     0.029 A 
ATOM     65  C   UNL A   1      42.348  29.802  34.820  1.00  0.00     0.049 A 
ATOM     66  H   UNL A   1      40.899  30.631  33.528  1.00  0.00     0.167 HD
ATOM     67  C   UNL A   1      42.600  28.499  32.720  1.00  0.00     0.074 A 
ATOM     68  C   UNL A   1      43.214  27.462  31.915  1.00  0.00     0.031 C 
ATOM     69  C   UNL A   1      42.936  28.767  34.007  1.00  0.00     0.037 A 
BRANCH  56  70
ATOM     70  C   UNL A   1      39.695  33.395  36.552  1.00  0.00     0.064 A 
ATOM     71  C   UNL A   1      38.798  33.027  37.569  1.00  0.00     0.173 A 
ATOM     72  C   UNL A   1      40.335  34.638  36.667  1.00  0.00     0.173 A 
ATOM     73  F   UNL A   1      38.145  31.857  37.502  1.00  0.00    -0.203 F 
ATOM     74  C   UNL A   1      38.512  33.889  38.624  1.00  0.00     0.198 A 
ATOM     75  C   UNL A   1      40.078  35.482  37.745  1.00  0.00     0.198 A 
ATOM     76  F   UNL A   1      41.206  35.042  35.729  1.00  0.00    -0.203 F 
ATOM     77  F   UNL A   1      37.592  33.548  39.536  1.00  0.00    -0.200 F 
ATOM     78  C   UNL A   1      39.156  35.114  38.714  1.00  0.00     0.200 A 
ATOM     79  F   UNL A   1      40.709  36.659  37.838  1.00  0.00    -0.200 F 
ATOM     80  F   UNL A   1      38.876  35.946  39.726  1.00  0.00    -0.200 F 
ENDBRANCH  56  70
BRANCH  57  81
ATOM     81  C   UNL A   1      41.023  27.835  28.335  1.00  0.00     0.064 A 
ATOM     82  C   UNL A   1      41.861  28.230  27.281  1.00  0.00     0.173 A 
ATOM     83  C   UNL A   1      40.360  26.606  28.216  1.00  0.00     0.173 A 
ATOM     84  F   UNL A   1      42.504  29.404  27.341  1.00  0.00    -0.203 F 
ATOM     85  C   UNL A   1      42.011  27.436  26.145  1.00  0.00     0.198 A 
ATOM     86  C   UNL A   1      40.534  25.801  27.093  1.00  0.00     0.198 A 
ATOM     87  F   UNL A   1      39.554  26.179  29.200  1.00  0.00    -0.203 F 
ATOM     88  F   UNL A   1      42.783  27.859  25.134  1.00  0.00    -0.200 F 
ATOM     89  C   UNL A   1      41.352  26.221  26.055  1.00  0.00     0.200 A 
ATOM     90  F   UNL A   1      39.908  24.618  27.016  1.00  0.00    -0.200 F 
ATOM     91  F   UNL A   1      41.502  25.456  24.964  1.00  0.00    -0.200 F 
ENDBRANCH  57  81
BRANCH  69  92
ATOM     92  C   UNL A   1      43.975  27.885  34.641  1.00  0.00     0.064 A 
ATOM     93  C   UNL A   1      43.645  26.666  35.252  1.00  0.00     0.173 A 
ATOM     94  C   UNL A   1      45.326  28.266  34.623  1.00  0.00     0.173 A 
ATOM     95  F   UNL A   1      42.367  26.262  35.306  1.00  0.00    -0.203 F 
ATOM     96  C   UNL A   1      44.624  25.883  35.859  1.00  0.00     0.198 A 
ATOM     97  C   UNL A   1      46.306  27.462  35.198  1.00  0.00     0.198 A 
ATOM     98  F   UNL A   1      45.697  29.417  34.043  1.00  0.00    -0.203 F 
ATOM     99  F   UNL A   1      44.276  24.756  36.496  1.00  0.00    -0.200 F 
ATOM    100  C   UNL A   1      45.953  26.279  35.827  1.00  0.00     0.200 A 
ATOM    101  F   UNL A   1      47.591  27.837  35.150  1.00  0.00    -0.200 F 
ATOM    102  F   UNL A   1      46.892  25.523  36.412  1.00  0.00    -0.200 F 
ENDBRANCH  69  92
ENDBRANCH  43  44
ENDBRANCH  35  38
ENDBRANCH  33  34
ENDBRANCH  32  33
ENDBRANCH   1  32
TORSDOF 17
ENDMDL
MODEL 3
REMARK VINA RESULT:     -12.6      4.786     10.808
REMARK SMILES COc1ccc(C[N@@H+]2C[C@@H](C(=O)NCCCCNC(=O)c3ccc(-c4c5nc(c(-c6c(F)c(F)c(F)c(F)c6F)c6ccc([nH]6)c(-c6c(F)c(F)c(F)c(F)c6F)c6nc(c(-c7c(F)c(F)c(F)c(F)c7F)c7ccc4[nH]7)C=C6)C=C5)cc3)[C@H](c3ccccc3OC)C2)c(OC)c1
REMARK SMILES IDX 15 1 14 2 13 3 11 4 12 5 10 7 8 8 9 9 93 10 84 12 7 13 6 14
REMARK SMILES IDX 3 15 4 16 97 17 5 18 94 19 2 20 1 21 95 22 96 23 85 24 86 25
REMARK SMILES IDX 90 26 87 27 89 28 88 29 91 30 92 31 16 32 17 33 18 34 19 35
REMARK SMILES IDX 20 37 21 38 22 39 83 40 23 41 82 42 24 43 25 44 26 45 76 46
REMARK SMILES IDX 27 47 81 48 75 49 77 50 28 51 80 52 74 53 73 54 29 56 61 57
REMARK SMILES IDX 41 58 60 59 42 60 45 61 59 62 78 63 43 64 44 65 58 67 79 68
REMARK SMILES IDX 46 69 30 70 31 71 39 72 32 73 33 74 37 75 40 76 34 77 35 78
REMARK SMILES IDX 38 79 36 80 62 81 63 82 71 83 64 84 65 85 69 86 72 87 66 88
REMARK SMILES IDX 67 89 70 90 68 91 47 92 48 93 56 94 49 95 50 96 54 97 57 98
REMARK SMILES IDX 51 99 52 100 55 101 53 102
REMARK H PARENT 13 6 8 11 18 36 77 55 45 66
REMARK Flexibility Score: inf
ROOT
ATOM      1  C   UNL A   1      36.736  20.059  25.013  1.00  0.00     0.023 C 
ENDROOT
BRANCH   1   2
ATOM      2  C   UNL A   1      36.298  21.492  25.325  1.00  0.00     0.116 C 
BRANCH   2   3
ATOM      3  N   UNL A   1      35.518  21.492  26.548  1.00  0.00    -0.356 N 
ATOM      4  C   UNL A   1      34.448  22.291  26.881  1.00  0.00     0.229 C 
ATOM      5  O   UNL A   1      34.216  22.472  28.074  1.00  0.00    -0.275 OA
ATOM      6  H   UNL A   1      35.790  20.835  27.229  1.00  0.00     0.163 HD
BRANCH   4   7
ATOM      7  C   UNL A   1      33.600  22.863  25.758  1.00  0.00     0.146 C 
ATOM      8  N   UNL A   1      31.981  24.553  25.327  1.00  0.00    -0.330 N 
ATOM      9  C   UNL A   1      33.053  24.210  26.238  1.00  0.00     0.276 C 
ATOM     10  C   UNL A   1      31.319  23.272  25.075  1.00  0.00     0.272 C 
ATOM     11  H   UNL A   1      31.347  25.238  25.738  1.00  0.00     0.348 HD
ATOM     12  C   UNL A   1      32.317  22.085  25.342  1.00  0.00     0.096 C 
BRANCH   8  13
ATOM     13  C   UNL A   1      32.367  25.326  24.120  1.00  0.00     0.303 C 
BRANCH  13  14
ATOM     14  C   UNL A   1      31.713  26.674  23.847  1.00  0.00     0.048 A 
ATOM     15  C   UNL A   1      30.199  29.009  23.431  1.00  0.00     0.122 A 
ATOM     16  C   UNL A   1      30.239  28.028  22.449  1.00  0.00     0.047 A 
ATOM     17  C   UNL A   1      30.968  28.876  24.585  1.00  0.00     0.093 A 
ATOM     18  C   UNL A   1      31.022  26.888  22.641  1.00  0.00     0.017 A 
ATOM     19  C   UNL A   1      31.757  27.732  24.774  1.00  0.00     0.131 A 
BRANCH  15  20
ATOM     20  O   UNL A   1      29.304  30.031  23.260  1.00  0.00    -0.497 OA
ATOM     21  C   UNL A   1      28.076  29.586  22.689  1.00  0.00     0.278 C 
ENDBRANCH  15  20
BRANCH  19  22
ATOM     22  O   UNL A   1      32.567  27.565  25.870  1.00  0.00    -0.496 OA
ATOM     23  C   UNL A   1      31.929  27.794  27.124  1.00  0.00     0.278 C 
ENDBRANCH  19  22
ENDBRANCH  13  14
ENDBRANCH   8  13
BRANCH  12  24
ATOM     24  C   UNL A   1      32.313  21.058  24.190  1.00  0.00     0.004 A 
ATOM     25  C   UNL A   1      31.899  21.488  22.904  1.00  0.00     0.008 A 
ATOM     26  C   UNL A   1      32.535  19.675  24.311  1.00  0.00     0.122 A 
ATOM     27  C   UNL A   1      31.872  20.659  21.781  1.00  0.00     0.001 A 
ATOM     28  C   UNL A   1      32.516  18.828  23.180  1.00  0.00     0.047 A 
ATOM     29  C   UNL A   1      32.215  19.327  21.911  1.00  0.00     0.004 A 
BRANCH  26  30
ATOM     30  O   UNL A   1      32.428  19.063  25.533  1.00  0.00    -0.496 OA
ATOM     31  C   UNL A   1      32.471  17.646  25.489  1.00  0.00     0.278 C 
ENDBRANCH  26  30
ENDBRANCH  12  24
ENDBRANCH   4   7
ENDBRANCH   2   3
ENDBRANCH   1   2
BRANCH   1  32
ATOM     32  C   UNL A   1      38.233  19.962  24.719  1.00  0.00     0.023 C 
BRANCH  32  33
ATOM     33  C   UNL A   1      39.105  20.075  25.961  1.00  0.00     0.116 C 
BRANCH  33  34
ATOM     34  N   UNL A   1      40.213  19.131  25.949  1.00  0.00    -0.352 N 
ATOM     35  C   UNL A   1      41.549  19.397  26.075  1.00  0.00     0.251 C 
ATOM     36  H   UNL A   1      39.971  18.184  25.838  1.00  0.00     0.163 HD
ATOM     37  O   UNL A   1      42.387  18.517  25.871  1.00  0.00    -0.269 OA
BRANCH  35  38
ATOM     38  C   UNL A   1      41.974  20.758  26.439  1.00  0.00     0.039 A 
ATOM     39  C   UNL A   1      42.108  21.717  25.437  1.00  0.00     0.014 A 
ATOM     40  C   UNL A   1      42.208  21.085  27.779  1.00  0.00     0.014 A 
ATOM     41  C   UNL A   1      42.459  23.020  25.784  1.00  0.00     0.010 A 
ATOM     42  C   UNL A   1      42.459  22.402  28.131  1.00  0.00     0.010 A 
ATOM     43  C   UNL A   1      42.623  23.374  27.134  1.00  0.00    -0.014 A 
BRANCH  43  44
ATOM     44  C   UNL A   1      43.035  24.746  27.511  1.00  0.00     0.031 A 
ATOM     45  C   UNL A   1      44.445  25.199  27.251  1.00  0.00     0.074 A 
ATOM     46  C   UNL A   1      42.147  25.573  28.091  1.00  0.00     0.049 A 
ATOM     47  N   UNL A   1      44.993  26.367  27.466  1.00  0.00    -0.248 NA
ATOM     48  C   UNL A   1      45.372  24.194  26.706  1.00  0.00     0.031 C 
ATOM     49  C   UNL A   1      40.768  25.226  28.438  1.00  0.00     0.029 A 
ATOM     50  N   UNL A   1      42.270  26.882  28.479  1.00  0.00    -0.354 N 
ATOM     51  C   UNL A   1      46.322  26.233  27.085  1.00  0.00     0.074 A 
ATOM     52  C   UNL A   1      46.520  24.852  26.712  1.00  0.00     0.031 C 
ATOM     53  C   UNL A   1      40.156  26.312  28.935  1.00  0.00     0.029 A 
ATOM     54  C   UNL A   1      41.106  27.419  28.970  1.00  0.00     0.049 A 
ATOM     55  H   UNL A   1      43.112  27.388  28.412  1.00  0.00     0.167 HD
ATOM     56  C   UNL A   1      47.282  27.186  27.010  1.00  0.00     0.037 A 
ATOM     57  C   UNL A   1      40.838  28.672  29.381  1.00  0.00     0.037 A 
ATOM     58  C   UNL A   1      47.074  28.561  27.378  1.00  0.00     0.049 A 
ATOM     59  C   UNL A   1      41.925  29.710  29.309  1.00  0.00     0.074 A 
ATOM     60  C   UNL A   1      47.965  29.618  27.321  1.00  0.00     0.029 A 
ATOM     61  N   UNL A   1      45.881  29.068  27.878  1.00  0.00    -0.354 N 
ATOM     62  N   UNL A   1      43.159  29.595  28.880  1.00  0.00    -0.248 NA
ATOM     63  C   UNL A   1      41.571  31.061  29.763  1.00  0.00     0.031 C 
ATOM     64  C   UNL A   1      47.326  30.753  27.834  1.00  0.00     0.029 A 
ATOM     65  C   UNL A   1      46.018  30.420  28.149  1.00  0.00     0.049 A 
ATOM     66  H   UNL A   1      45.060  28.544  28.020  1.00  0.00     0.167 HD
ATOM     67  C   UNL A   1      43.715  30.863  28.971  1.00  0.00     0.074 A 
ATOM     68  C   UNL A   1      42.680  31.734  29.487  1.00  0.00     0.031 C 
ATOM     69  C   UNL A   1      44.969  31.273  28.651  1.00  0.00     0.037 A 
BRANCH  56  70
ATOM     70  C   UNL A   1      48.635  26.756  26.515  1.00  0.00     0.064 A 
ATOM     71  C   UNL A   1      49.599  26.214  27.381  1.00  0.00     0.173 A 
ATOM     72  C   UNL A   1      48.982  26.904  25.164  1.00  0.00     0.173 A 
ATOM     73  F   UNL A   1      49.327  26.064  28.687  1.00  0.00    -0.203 F 
ATOM     74  C   UNL A   1      50.874  25.888  26.926  1.00  0.00     0.198 A 
ATOM     75  C   UNL A   1      50.246  26.540  24.703  1.00  0.00     0.198 A 
ATOM     76  F   UNL A   1      48.102  27.412  24.289  1.00  0.00    -0.203 F 
ATOM     77  F   UNL A   1      51.801  25.450  27.789  1.00  0.00    -0.200 F 
ATOM     78  C   UNL A   1      51.195  26.046  25.587  1.00  0.00     0.200 A 
ATOM     79  F   UNL A   1      50.551  26.681  23.407  1.00  0.00    -0.200 F 
ATOM     80  F   UNL A   1      52.423  25.738  25.150  1.00  0.00    -0.200 F 
ENDBRANCH  56  70
BRANCH  57  81
ATOM     81  C   UNL A   1      39.465  29.029  29.825  1.00  0.00     0.064 A 
ATOM     82  C   UNL A   1      39.074  28.843  31.159  1.00  0.00     0.173 A 
ATOM     83  C   UNL A   1      38.521  29.562  28.936  1.00  0.00     0.173 A 
ATOM     84  F   UNL A   1      39.936  28.321  32.043  1.00  0.00    -0.203 F 
ATOM     85  C   UNL A   1      37.784  29.156  31.581  1.00  0.00     0.198 A 
ATOM     86  C   UNL A   1      37.241  29.902  29.367  1.00  0.00     0.198 A 
ATOM     87  F   UNL A   1      38.848  29.767  27.652  1.00  0.00    -0.203 F 
ATOM     88  F   UNL A   1      37.424  28.926  32.851  1.00  0.00    -0.200 F 
ATOM     89  C   UNL A   1      36.870  29.691  30.687  1.00  0.00     0.200 A 
ATOM     90  F   UNL A   1      36.365  30.433  28.503  1.00  0.00    -0.200 F 
ATOM     91  F   UNL A   1      35.631  29.996  31.095  1.00  0.00    -0.200 F 
ENDBRANCH  57  81
BRANCH  69  92
ATOM     92  C   UNL A   1      45.267  32.739  28.792  1.00  0.00     0.064 A 
ATOM     93  C   UNL A   1      45.850  33.273  29.950  1.00  0.00     0.173 A 
ATOM     94  C   UNL A   1      44.972  33.620  27.739  1.00  0.00     0.173 A 
ATOM     95  F   UNL A   1      46.140  32.476  30.989  1.00  0.00    -0.203 F 
ATOM     96  C   UNL A   1      46.086  34.641  30.066  1.00  0.00     0.198 A 
ATOM     97  C   UNL A   1      45.246  34.981  27.844  1.00  0.00     0.198 A 
ATOM     98  F   UNL A   1      44.424  33.160  26.604  1.00  0.00    -0.203 F 
ATOM     99  F   UNL A   1      46.581  35.138  31.208  1.00  0.00    -0.200 F 
ATOM    100  C   UNL A   1      45.789  35.492  29.012  1.00  0.00     0.200 A 
ATOM    101  F   UNL A   1      44.974  35.798  26.818  1.00  0.00    -0.200 F 
ATOM    102  F   UNL A   1      46.019  36.807  29.126  1.00  0.00    -0.200 F 
ENDBRANCH  69  92
ENDBRANCH  43  44
ENDBRANCH  35  38
ENDBRANCH  33  34
ENDBRANCH  32  33
ENDBRANCH   1  32
TORSDOF 17
ENDMDL
