MODEL 1
REMARK VINA RESULT:     -12.7      0.000      0.000
REMARK SMILES COc1cc(Cl)ccc1NC(=O)COc1ccccc1C(=O)NCCCCNC(=O)c1ccc(-c2c3nc(c(-c4c(F)c(F)c(F)c(F)c4F)c4ccc([nH]4)c(-c4c(F)c(F)c(F)c(F)c4F)c4nc(c(-c5c(F)c(F)c(F)c(F)c5F)c5ccc2[nH]5)C=C4)C=C3)cc1
REMARK SMILES IDX 24 1 23 2 21 3 22 4 20 6 15 7 16 8 17 9 19 10 18 11 14 12
REMARK SMILES IDX 13 13 11 14 10 15 12 17 9 18 3 19 4 20 5 21 8 22 6 23 7 24
REMARK SMILES IDX 2 25 1 26 25 27 26 28 27 29 28 30 29 31 30 33 31 34 32 35
REMARK SMILES IDX 93 36 33 37 92 38 34 39 35 40 36 41 86 42 37 43 91 44 85 45
REMARK SMILES IDX 87 46 38 47 90 48 84 49 83 50 39 52 71 53 51 54 70 55 52 56
REMARK SMILES IDX 55 57 69 58 88 59 53 60 54 61 68 63 89 64 56 65 40 66 41 67
REMARK SMILES IDX 49 68 42 69 43 70 47 71 50 72 44 73 45 74 48 75 46 76 72 77
REMARK SMILES IDX 73 78 81 79 74 80 75 81 79 82 82 83 76 84 77 85 80 86 78 87
REMARK SMILES IDX 57 88 58 89 66 90 59 91 60 92 64 93 67 94 61 95 62 96 65 97
REMARK SMILES IDX 63 98
REMARK H PARENT 23 5 10 16 28 32 87 51 55 62
REMARK Flexibility Score: inf
ROOT
ATOM      1  C   UNL A   1      34.255  29.646  27.258  1.00  0.00     0.116 C 
ENDROOT
BRANCH   1   2
ATOM      2  N   UNL A   1      33.082  28.838  27.623  1.00  0.00    -0.352 N 
ATOM      3  C   UNL A   1      31.960  28.239  27.043  1.00  0.00     0.255 C 
ATOM      4  O   UNL A   1      31.018  27.768  27.661  1.00  0.00    -0.269 OA
ATOM      5  H   UNL A   1      33.088  28.660  28.592  1.00  0.00     0.163 HD
BRANCH   3   6
ATOM      6  C   UNL A   1      31.975  27.961  25.641  1.00  0.00     0.081 A 
ATOM      7  C   UNL A   1      32.968  27.106  25.240  1.00  0.00     0.132 A 
ATOM      8  C   UNL A   1      33.476  27.375  23.977  1.00  0.00     0.047 A 
ATOM      9  C   UNL A   1      32.809  28.287  23.121  1.00  0.00     0.004 A 
ATOM     10  C   UNL A   1      31.159  28.702  24.789  1.00  0.00     0.018 A 
ATOM     11  C   UNL A   1      31.591  28.865  23.491  1.00  0.00     0.001 A 
BRANCH   7  12
ATOM     12  O   UNL A   1      33.542  26.215  26.119  1.00  0.00    -0.483 OA
BRANCH  12  13
ATOM     13  C   UNL A   1      33.409  24.787  25.932  1.00  0.00     0.329 C 
BRANCH  13  14
ATOM     14  C   UNL A   1      32.734  23.254  26.337  1.00  0.00     0.262 C 
ATOM     15  N   UNL A   1      32.635  21.960  25.876  1.00  0.00    -0.320 N 
ATOM     16  H   UNL A   1      32.009  21.557  26.519  1.00  0.00     0.170 HD
ATOM     17  O   UNL A   1      31.980  23.369  27.343  1.00  0.00    -0.271 OA
BRANCH  15  18
ATOM     18  C   UNL A   1      32.928  20.837  24.980  1.00  0.00     0.084 A 
ATOM     19  C   UNL A   1      34.199  20.260  25.140  1.00  0.00     0.143 A 
ATOM     20  C   UNL A   1      34.545  18.977  24.673  1.00  0.00     0.069 A 
ATOM     21  C   UNL A   1      33.661  18.285  23.866  1.00  0.00     0.044 A 
ATOM     22  C   UNL A   1      32.199  20.191  23.969  1.00  0.00     0.031 A 
ATOM     23  Cl  UNL A   1      34.024  16.717  23.277  1.00  0.00    -0.084 Cl
ATOM     24  C   UNL A   1      32.514  18.923  23.452  1.00  0.00     0.023 A 
BRANCH  19  25
ATOM     25  O   UNL A   1      35.219  21.057  25.622  1.00  0.00    -0.495 OA
ATOM     26  C   UNL A   1      35.785  21.717  24.469  1.00  0.00     0.278 C 
ENDBRANCH  19  25
ENDBRANCH  15  18
ENDBRANCH  13  14
ENDBRANCH  12  13
ENDBRANCH   7  12
ENDBRANCH   3   6
ENDBRANCH   1   2
BRANCH   1  27
ATOM     27  C   UNL A   1      34.131  31.083  27.830  1.00  0.00     0.023 C 
BRANCH  27  28
ATOM     28  C   UNL A   1      33.470  32.177  26.952  1.00  0.00     0.023 C 
BRANCH  28  29
ATOM     29  C   UNL A   1      32.134  32.754  27.422  1.00  0.00     0.116 C 
BRANCH  29  30
ATOM     30  N   UNL A   1      32.219  34.188  27.628  1.00  0.00    -0.352 N 
ATOM     31  C   UNL A   1      32.908  34.932  28.555  1.00  0.00     0.251 C 
ATOM     32  H   UNL A   1      31.692  34.722  26.989  1.00  0.00     0.163 HD
ATOM     33  O   UNL A   1      32.558  36.096  28.743  1.00  0.00    -0.269 OA
BRANCH  31  34
ATOM     34  C   UNL A   1      34.063  34.402  29.325  1.00  0.00     0.039 A 
ATOM     35  C   UNL A   1      35.349  34.564  28.791  1.00  0.00     0.014 A 
ATOM     36  C   UNL A   1      33.902  33.615  30.469  1.00  0.00     0.014 A 
ATOM     37  C   UNL A   1      36.461  33.970  29.403  1.00  0.00     0.010 A 
ATOM     38  C   UNL A   1      35.019  33.063  31.111  1.00  0.00     0.010 A 
ATOM     39  C   UNL A   1      36.311  33.221  30.580  1.00  0.00    -0.014 A 
BRANCH  39  40
ATOM     40  C   UNL A   1      37.482  32.585  31.250  1.00  0.00     0.031 A 
ATOM     41  C   UNL A   1      38.231  31.458  30.584  1.00  0.00     0.074 A 
ATOM     42  C   UNL A   1      37.850  32.979  32.486  1.00  0.00     0.049 A 
ATOM     43  N   UNL A   1      39.205  30.714  31.049  1.00  0.00    -0.248 NA
ATOM     44  C   UNL A   1      37.811  31.108  29.218  1.00  0.00     0.031 C 
ATOM     45  C   UNL A   1      37.203  34.038  33.260  1.00  0.00     0.029 A 
ATOM     46  N   UNL A   1      38.847  32.524  33.316  1.00  0.00    -0.354 N 
ATOM     47  C   UNL A   1      39.493  29.793  30.048  1.00  0.00     0.074 A 
ATOM     48  C   UNL A   1      38.567  30.049  28.965  1.00  0.00     0.031 C 
ATOM     49  C   UNL A   1      37.824  34.160  34.444  1.00  0.00     0.029 A 
ATOM     50  C   UNL A   1      38.888  33.164  34.532  1.00  0.00     0.049 A 
ATOM     51  H   UNL A   1      39.473  31.807  33.064  1.00  0.00     0.167 HD
ATOM     52  C   UNL A   1      40.452  28.834  30.025  1.00  0.00     0.037 A 
ATOM     53  C   UNL A   1      39.681  32.963  35.602  1.00  0.00     0.037 A 
ATOM     54  C   UNL A   1      41.398  28.600  31.086  1.00  0.00     0.049 A 
ATOM     55  C   UNL A   1      40.735  31.889  35.553  1.00  0.00     0.074 A 
ATOM     56  C   UNL A   1      42.444  27.693  31.128  1.00  0.00     0.029 A 
ATOM     57  N   UNL A   1      41.416  29.283  32.293  1.00  0.00    -0.354 N 
ATOM     58  N   UNL A   1      41.027  31.059  34.583  1.00  0.00    -0.248 NA
ATOM     59  C   UNL A   1      41.572  31.727  36.752  1.00  0.00     0.031 C 
ATOM     60  C   UNL A   1      43.069  27.799  32.375  1.00  0.00     0.029 A 
ATOM     61  C   UNL A   1      42.441  28.804  33.093  1.00  0.00     0.049 A 
ATOM     62  H   UNL A   1      40.792  30.001  32.545  1.00  0.00     0.167 HD
ATOM     63  C   UNL A   1      42.093  30.296  35.040  1.00  0.00     0.074 A 
ATOM     64  C   UNL A   1      42.407  30.771  36.372  1.00  0.00     0.031 C 
ATOM     65  C   UNL A   1      42.750  29.290  34.414  1.00  0.00     0.037 A 
BRANCH  52  66
ATOM     66  C   UNL A   1      40.528  27.956  28.808  1.00  0.00     0.064 A 
ATOM     67  C   UNL A   1      39.817  26.748  28.725  1.00  0.00     0.173 A 
ATOM     68  C   UNL A   1      41.291  28.342  27.695  1.00  0.00     0.173 A 
ATOM     69  F   UNL A   1      39.076  26.330  29.762  1.00  0.00    -0.203 F 
ATOM     70  C   UNL A   1      39.895  25.945  27.590  1.00  0.00     0.198 A 
ATOM     71  C   UNL A   1      41.343  27.551  26.549  1.00  0.00     0.198 A 
ATOM     72  F   UNL A   1      41.981  29.492  27.713  1.00  0.00    -0.203 F 
ATOM     73  F   UNL A   1      39.248  24.772  27.554  1.00  0.00    -0.200 F 
ATOM     74  C   UNL A   1      40.654  26.350  26.501  1.00  0.00     0.200 A 
ATOM     75  F   UNL A   1      42.064  27.950  25.492  1.00  0.00    -0.200 F 
ATOM     76  F   UNL A   1      40.725  25.577  25.408  1.00  0.00    -0.200 F 
ENDBRANCH  52  66
BRANCH  53  77
ATOM     77  C   UNL A   1      39.524  33.814  36.811  1.00  0.00     0.064 A 
ATOM     78  C   UNL A   1      38.724  33.393  37.883  1.00  0.00     0.173 A 
ATOM     79  C   UNL A   1      40.159  35.059  36.919  1.00  0.00     0.173 A 
ATOM     80  F   UNL A   1      38.076  32.222  37.815  1.00  0.00    -0.203 F 
ATOM     81  C   UNL A   1      38.555  34.193  39.011  1.00  0.00     0.198 A 
ATOM     82  C   UNL A   1      40.010  35.846  38.060  1.00  0.00     0.198 A 
ATOM     83  F   UNL A   1      40.934  35.507  35.920  1.00  0.00    -0.203 F 
ATOM     84  F   UNL A   1      37.750  33.787  40.003  1.00  0.00    -0.200 F 
ATOM     85  C   UNL A   1      39.203  35.415  39.101  1.00  0.00     0.200 A 
ATOM     86  F   UNL A   1      40.647  37.021  38.149  1.00  0.00    -0.200 F 
ATOM     87  F   UNL A   1      39.043  36.182  40.189  1.00  0.00    -0.200 F 
ENDBRANCH  53  77
BRANCH  65  88
ATOM     88  C   UNL A   1      43.897  28.655  35.145  1.00  0.00     0.064 A 
ATOM     89  C   UNL A   1      43.715  27.532  35.964  1.00  0.00     0.173 A 
ATOM     90  C   UNL A   1      45.201  29.154  34.993  1.00  0.00     0.173 A 
ATOM     91  F   UNL A   1      42.487  27.029  36.156  1.00  0.00    -0.203 F 
ATOM     92  C   UNL A   1      44.793  26.943  36.622  1.00  0.00     0.198 A 
ATOM     93  C   UNL A   1      46.279  28.545  35.629  1.00  0.00     0.198 A 
ATOM     94  F   UNL A   1      45.429  30.223  34.216  1.00  0.00    -0.203 F 
ATOM     95  F   UNL A   1      44.589  25.897  37.434  1.00  0.00    -0.200 F 
ATOM     96  C   UNL A   1      46.074  27.445  36.448  1.00  0.00     0.200 A 
ATOM     97  F   UNL A   1      47.518  29.026  35.450  1.00  0.00    -0.200 F 
ATOM     98  F   UNL A   1      47.110  26.873  37.075  1.00  0.00    -0.200 F 
ENDBRANCH  65  88
ENDBRANCH  39  40
ENDBRANCH  31  34
ENDBRANCH  29  30
ENDBRANCH  28  29
ENDBRANCH  27  28
ENDBRANCH   1  27
TORSDOF 16
ENDMDL
MODEL 2
REMARK VINA RESULT:     -12.4      5.632     11.458
REMARK SMILES COc1cc(Cl)ccc1NC(=O)COc1ccccc1C(=O)NCCCCNC(=O)c1ccc(-c2c3nc(c(-c4c(F)c(F)c(F)c(F)c4F)c4ccc([nH]4)c(-c4c(F)c(F)c(F)c(F)c4F)c4nc(c(-c5c(F)c(F)c(F)c(F)c5F)c5ccc2[nH]5)C=C4)C=C3)cc1
REMARK SMILES IDX 24 1 23 2 21 3 22 4 20 6 15 7 16 8 17 9 19 10 18 11 14 12
REMARK SMILES IDX 13 13 11 14 10 15 12 17 9 18 3 19 4 20 5 21 8 22 6 23 7 24
REMARK SMILES IDX 2 25 1 26 25 27 26 28 27 29 28 30 29 31 30 33 31 34 32 35
REMARK SMILES IDX 93 36 33 37 92 38 34 39 35 40 36 41 86 42 37 43 91 44 85 45
REMARK SMILES IDX 87 46 38 47 90 48 84 49 83 50 39 52 71 53 51 54 70 55 52 56
REMARK SMILES IDX 55 57 69 58 88 59 53 60 54 61 68 63 89 64 56 65 40 66 41 67
REMARK SMILES IDX 49 68 42 69 43 70 47 71 50 72 44 73 45 74 48 75 46 76 72 77
REMARK SMILES IDX 73 78 81 79 74 80 75 81 79 82 82 83 76 84 77 85 80 86 78 87
REMARK SMILES IDX 57 88 58 89 66 90 59 91 60 92 64 93 67 94 61 95 62 96 65 97
REMARK SMILES IDX 63 98
REMARK H PARENT 23 5 10 16 28 32 87 51 55 62
REMARK Flexibility Score: inf
ROOT
ATOM      1  C   UNL A   1      37.500  21.961  25.235  1.00  0.00     0.116 C 
ENDROOT
BRANCH   1   2
ATOM      2  N   UNL A   1      36.371  21.830  26.168  1.00  0.00    -0.352 N 
ATOM      3  C   UNL A   1      34.984  21.660  26.168  1.00  0.00     0.255 C 
ATOM      4  O   UNL A   1      34.262  21.780  27.146  1.00  0.00    -0.269 OA
ATOM      5  H   UNL A   1      36.699  21.877  27.096  1.00  0.00     0.163 HD
BRANCH   3   6
ATOM      6  C   UNL A   1      34.357  21.109  25.007  1.00  0.00     0.081 A 
ATOM      7  C   UNL A   1      33.970  22.036  24.075  1.00  0.00     0.132 A 
ATOM      8  C   UNL A   1      32.808  21.706  23.391  1.00  0.00     0.047 A 
ATOM      9  C   UNL A   1      32.269  20.399  23.495  1.00  0.00     0.004 A 
ATOM     10  C   UNL A   1      34.008  19.761  24.994  1.00  0.00     0.018 A 
ATOM     11  C   UNL A   1      32.934  19.398  24.212  1.00  0.00     0.001 A 
BRANCH   7  12
ATOM     12  O   UNL A   1      34.569  23.274  24.005  1.00  0.00    -0.483 OA
BRANCH  12  13
ATOM     13  C   UNL A   1      33.942  24.443  24.579  1.00  0.00     0.329 C 
BRANCH  13  14
ATOM     14  C   UNL A   1      32.837  25.203  25.661  1.00  0.00     0.262 C 
ATOM     15  N   UNL A   1      32.484  26.439  26.155  1.00  0.00    -0.320 N 
ATOM     16  H   UNL A   1      31.825  26.206  26.848  1.00  0.00     0.170 HD
ATOM     17  O   UNL A   1      32.198  24.327  26.308  1.00  0.00    -0.271 OA
BRANCH  15  18
ATOM     18  C   UNL A   1      32.524  27.902  26.242  1.00  0.00     0.084 A 
ATOM     19  C   UNL A   1      31.808  28.580  25.241  1.00  0.00     0.143 A 
ATOM     20  C   UNL A   1      31.403  29.926  25.338  1.00  0.00     0.069 A 
ATOM     21  C   UNL A   1      31.857  30.699  26.390  1.00  0.00     0.044 A 
ATOM     22  C   UNL A   1      33.135  28.802  27.130  1.00  0.00     0.031 A 
ATOM     23  Cl  UNL A   1      31.388  32.338  26.565  1.00  0.00    -0.084 Cl
ATOM     24  C   UNL A   1      32.784  30.157  27.251  1.00  0.00     0.023 A 
BRANCH  19  25
ATOM     25  O   UNL A   1      31.646  27.954  24.020  1.00  0.00    -0.495 OA
ATOM     26  C   UNL A   1      32.623  28.548  23.137  1.00  0.00     0.278 C 
ENDBRANCH  19  25
ENDBRANCH  15  18
ENDBRANCH  13  14
ENDBRANCH  12  13
ENDBRANCH   7  12
ENDBRANCH   3   6
ENDBRANCH   1   2
BRANCH   1  27
ATOM     27  C   UNL A   1      38.819  22.238  26.004  1.00  0.00     0.023 C 
BRANCH  27  28
ATOM     28  C   UNL A   1      39.656  21.030  26.499  1.00  0.00     0.023 C 
BRANCH  28  29
ATOM     29  C   UNL A   1      39.534  19.717  25.725  1.00  0.00     0.116 C 
BRANCH  29  30
ATOM     30  N   UNL A   1      40.645  18.828  26.012  1.00  0.00    -0.352 N 
ATOM     31  C   UNL A   1      41.993  19.068  26.126  1.00  0.00     0.251 C 
ATOM     32  H   UNL A   1      40.386  17.888  26.152  1.00  0.00     0.163 HD
ATOM     33  O   UNL A   1      42.764  18.114  26.035  1.00  0.00    -0.269 OA
BRANCH  31  34
ATOM     34  C   UNL A   1      42.558  20.420  26.370  1.00  0.00     0.039 A 
ATOM     35  C   UNL A   1      42.546  20.919  27.681  1.00  0.00     0.014 A 
ATOM     36  C   UNL A   1      42.950  21.266  25.329  1.00  0.00     0.014 A 
ATOM     37  C   UNL A   1      42.942  22.236  27.950  1.00  0.00     0.010 A 
ATOM     38  C   UNL A   1      43.395  22.568  25.604  1.00  0.00     0.010 A 
ATOM     39  C   UNL A   1      43.384  23.074  26.915  1.00  0.00    -0.014 A 
BRANCH  39  40
ATOM     40  C   UNL A   1      43.814  24.478  27.183  1.00  0.00     0.031 A 
ATOM     41  C   UNL A   1      42.830  25.499  27.694  1.00  0.00     0.074 A 
ATOM     42  C   UNL A   1      45.081  24.858  26.919  1.00  0.00     0.049 A 
ATOM     43  N   UNL A   1      42.989  26.786  27.887  1.00  0.00    -0.248 NA
ATOM     44  C   UNL A   1      41.479  25.010  28.007  1.00  0.00     0.031 C 
ATOM     45  C   UNL A   1      46.132  23.983  26.400  1.00  0.00     0.029 A 
ATOM     46  N   UNL A   1      45.695  26.082  27.034  1.00  0.00    -0.354 N 
ATOM     47  C   UNL A   1      41.755  27.264  28.315  1.00  0.00     0.074 A 
ATOM     48  C   UNL A   1      40.849  26.134  28.319  1.00  0.00     0.031 C 
ATOM     49  C   UNL A   1      47.262  24.694  26.252  1.00  0.00     0.029 A 
ATOM     50  C   UNL A   1      47.008  26.081  26.628  1.00  0.00     0.049 A 
ATOM     51  H   UNL A   1      45.237  26.885  27.376  1.00  0.00     0.167 HD
ATOM     52  C   UNL A   1      41.413  28.522  28.688  1.00  0.00     0.037 A 
ATOM     53  C   UNL A   1      47.903  27.086  26.553  1.00  0.00     0.037 A 
ATOM     54  C   UNL A   1      42.321  29.640  28.720  1.00  0.00     0.049 A 
ATOM     55  C   UNL A   1      47.497  28.474  26.969  1.00  0.00     0.074 A 
ATOM     56  C   UNL A   1      42.081  30.937  29.142  1.00  0.00     0.029 A 
ATOM     57  N   UNL A   1      43.647  29.591  28.318  1.00  0.00    -0.354 N 
ATOM     58  N   UNL A   1      46.342  28.900  27.417  1.00  0.00    -0.248 NA
ATOM     59  C   UNL A   1      48.524  29.522  26.869  1.00  0.00     0.031 C 
ATOM     60  C   UNL A   1      43.251  31.683  28.957  1.00  0.00     0.029 A 
ATOM     61  C   UNL A   1      44.232  30.839  28.462  1.00  0.00     0.049 A 
ATOM     62  H   UNL A   1      44.105  28.789  27.978  1.00  0.00     0.167 HD
ATOM     63  C   UNL A   1      46.507  30.253  27.676  1.00  0.00     0.074 A 
ATOM     64  C   UNL A   1      47.881  30.578  27.349  1.00  0.00     0.031 C 
ATOM     65  C   UNL A   1      45.602  31.148  28.141  1.00  0.00     0.037 A 
BRANCH  52  66
ATOM     66  C   UNL A   1      39.986  28.762  29.094  1.00  0.00     0.064 A 
ATOM     67  C   UNL A   1      39.007  29.138  28.161  1.00  0.00     0.173 A 
ATOM     68  C   UNL A   1      39.582  28.580  30.426  1.00  0.00     0.173 A 
ATOM     69  F   UNL A   1      39.341  29.330  26.875  1.00  0.00    -0.203 F 
ATOM     70  C   UNL A   1      37.689  29.356  28.551  1.00  0.00     0.198 A 
ATOM     71  C   UNL A   1      38.255  28.769  30.807  1.00  0.00     0.198 A 
ATOM     72  F   UNL A   1      40.471  28.209  31.359  1.00  0.00    -0.203 F 
ATOM     73  F   UNL A   1      36.783  29.764  27.650  1.00  0.00    -0.200 F 
ATOM     74  C   UNL A   1      37.312  29.166  29.872  1.00  0.00     0.200 A 
ATOM     75  F   UNL A   1      37.889  28.570  32.081  1.00  0.00    -0.200 F 
ATOM     76  F   UNL A   1      36.042  29.373  30.245  1.00  0.00    -0.200 F 
ENDBRANCH  52  66
BRANCH  53  77
ATOM     77  C   UNL A   1      49.286  26.811  26.081  1.00  0.00     0.064 A 
ATOM     78  C   UNL A   1      49.630  26.985  24.732  1.00  0.00     0.173 A 
ATOM     79  C   UNL A   1      50.286  26.368  26.958  1.00  0.00     0.173 A 
ATOM     80  F   UNL A   1      48.701  27.383  23.851  1.00  0.00    -0.203 F 
ATOM     81  C   UNL A   1      50.917  26.711  24.278  1.00  0.00     0.198 A 
ATOM     82  C   UNL A   1      51.581  26.120  26.506  1.00  0.00     0.198 A 
ATOM     83  F   UNL A   1      50.007  26.185  28.257  1.00  0.00    -0.203 F 
ATOM     84  F   UNL A   1      51.208  26.844  22.976  1.00  0.00    -0.200 F 
ATOM     85  C   UNL A   1      51.893  26.285  25.165  1.00  0.00     0.200 A 
ATOM     86  F   UNL A   1      52.524  25.720  27.369  1.00  0.00    -0.200 F 
ATOM     87  F   UNL A   1      53.134  26.026  24.728  1.00  0.00    -0.200 F 
ENDBRANCH  53  77
BRANCH  65  88
ATOM     88  C   UNL A   1      46.074  32.557  28.357  1.00  0.00     0.064 A 
ATOM     89  C   UNL A   1      46.639  32.965  29.573  1.00  0.00     0.173 A 
ATOM     90  C   UNL A   1      45.994  33.500  27.320  1.00  0.00     0.173 A 
ATOM     91  F   UNL A   1      46.722  32.107  30.600  1.00  0.00    -0.203 F 
ATOM     92  C   UNL A   1      47.089  34.271  29.751  1.00  0.00     0.198 A 
ATOM     93  C   UNL A   1      46.469  34.797  27.492  1.00  0.00     0.198 A 
ATOM     94  F   UNL A   1      45.466  33.159  26.135  1.00  0.00    -0.203 F 
ATOM     95  F   UNL A   1      47.586  34.651  30.936  1.00  0.00    -0.200 F 
ATOM     96  C   UNL A   1      47.011  35.183  28.709  1.00  0.00     0.200 A 
ATOM     97  F   UNL A   1      46.403  35.673  26.480  1.00  0.00    -0.200 F 
ATOM     98  F   UNL A   1      47.450  36.438  28.880  1.00  0.00    -0.200 F 
ENDBRANCH  65  88
ENDBRANCH  39  40
ENDBRANCH  31  34
ENDBRANCH  29  30
ENDBRANCH  28  29
ENDBRANCH  27  28
ENDBRANCH   1  27
TORSDOF 16
ENDMDL
MODEL 3
REMARK VINA RESULT:     -12.4      5.643     11.362
REMARK SMILES COc1cc(Cl)ccc1NC(=O)COc1ccccc1C(=O)NCCCCNC(=O)c1ccc(-c2c3nc(c(-c4c(F)c(F)c(F)c(F)c4F)c4ccc([nH]4)c(-c4c(F)c(F)c(F)c(F)c4F)c4nc(c(-c5c(F)c(F)c(F)c(F)c5F)c5ccc2[nH]5)C=C4)C=C3)cc1
REMARK SMILES IDX 24 1 23 2 21 3 22 4 20 6 15 7 16 8 17 9 19 10 18 11 14 12
REMARK SMILES IDX 13 13 11 14 10 15 12 17 9 18 3 19 4 20 5 21 8 22 6 23 7 24
REMARK SMILES IDX 2 25 1 26 25 27 26 28 27 29 28 30 29 31 30 33 31 34 32 35
REMARK SMILES IDX 93 36 33 37 92 38 34 39 35 40 36 41 86 42 37 43 91 44 85 45
REMARK SMILES IDX 87 46 38 47 90 48 84 49 83 50 39 52 71 53 51 54 70 55 52 56
REMARK SMILES IDX 55 57 69 58 88 59 53 60 54 61 68 63 89 64 56 65 40 66 41 67
REMARK SMILES IDX 49 68 42 69 43 70 47 71 50 72 44 73 45 74 48 75 46 76 72 77
REMARK SMILES IDX 73 78 81 79 74 80 75 81 79 82 82 83 76 84 77 85 80 86 78 87
REMARK SMILES IDX 57 88 58 89 66 90 59 91 60 92 64 93 67 94 61 95 62 96 65 97
REMARK SMILES IDX 63 98
REMARK H PARENT 23 5 10 16 28 32 87 51 55 62
REMARK Flexibility Score: inf
ROOT
ATOM      1  C   UNL A   1      37.383  22.230  25.128  1.00  0.00     0.116 C 
ENDROOT
BRANCH   1   2
ATOM      2  N   UNL A   1      36.338  21.900  26.109  1.00  0.00    -0.352 N 
ATOM      3  C   UNL A   1      35.011  21.464  26.167  1.00  0.00     0.255 C 
ATOM      4  O   UNL A   1      34.319  21.460  27.174  1.00  0.00    -0.269 OA
ATOM      5  H   UNL A   1      36.686  22.026  27.022  1.00  0.00     0.163 HD
BRANCH   3   6
ATOM      6  C   UNL A   1      34.459  20.783  25.039  1.00  0.00     0.081 A 
ATOM      7  C   UNL A   1      33.698  21.570  24.214  1.00  0.00     0.132 A 
ATOM      8  C   UNL A   1      32.627  20.911  23.626  1.00  0.00     0.047 A 
ATOM      9  C   UNL A   1      32.538  19.497  23.695  1.00  0.00     0.004 A 
ATOM     10  C   UNL A   1      34.548  19.394  24.969  1.00  0.00     0.018 A 
ATOM     11  C   UNL A   1      33.558  18.736  24.273  1.00  0.00     0.001 A 
BRANCH   7  12
ATOM     12  O   UNL A   1      33.870  22.935  24.169  1.00  0.00    -0.483 OA
BRANCH  12  13
ATOM     13  C   UNL A   1      32.749  23.836  24.310  1.00  0.00     0.329 C 
BRANCH  13  14
ATOM     14  C   UNL A   1      31.116  24.182  24.740  1.00  0.00     0.262 C 
ATOM     15  N   UNL A   1      30.156  25.163  24.641  1.00  0.00    -0.320 N 
ATOM     16  H   UNL A   1      29.429  24.801  25.197  1.00  0.00     0.170 HD
ATOM     17  O   UNL A   1      30.672  23.276  25.500  1.00  0.00    -0.271 OA
BRANCH  15  18
ATOM     18  C   UNL A   1      29.592  26.437  24.182  1.00  0.00     0.084 A 
ATOM     19  C   UNL A   1      30.525  27.470  23.997  1.00  0.00     0.143 A 
ATOM     20  C   UNL A   1      30.279  28.624  23.226  1.00  0.00     0.069 A 
ATOM     21  C   UNL A   1      29.004  28.861  22.746  1.00  0.00     0.044 A 
ATOM     22  C   UNL A   1      28.290  26.865  23.878  1.00  0.00     0.031 A 
ATOM     23  Cl  UNL A   1      28.649  30.242  21.794  1.00  0.00    -0.084 Cl
ATOM     24  C   UNL A   1      27.989  28.017  23.133  1.00  0.00     0.023 A 
BRANCH  19  25
ATOM     25  O   UNL A   1      31.681  27.446  24.752  1.00  0.00    -0.495 OA
ATOM     26  C   UNL A   1      31.742  28.722  25.427  1.00  0.00     0.278 C 
ENDBRANCH  19  25
ENDBRANCH  15  18
ENDBRANCH  13  14
ENDBRANCH  12  13
ENDBRANCH   7  12
ENDBRANCH   3   6
ENDBRANCH   1   2
BRANCH   1  27
ATOM     27  C   UNL A   1      38.777  22.278  25.807  1.00  0.00     0.023 C 
BRANCH  27  28
ATOM     28  C   UNL A   1      39.360  20.969  26.399  1.00  0.00     0.023 C 
BRANCH  28  29
ATOM     29  C   UNL A   1      39.442  19.749  25.479  1.00  0.00     0.116 C 
BRANCH  29  30
ATOM     30  N   UNL A   1      40.503  18.847  25.890  1.00  0.00    -0.352 N 
ATOM     31  C   UNL A   1      41.840  19.063  26.116  1.00  0.00     0.251 C 
ATOM     32  H   UNL A   1      40.211  17.917  26.033  1.00  0.00     0.163 HD
ATOM     33  O   UNL A   1      42.594  18.091  26.122  1.00  0.00    -0.269 OA
BRANCH  31  34
ATOM     34  C   UNL A   1      42.413  20.410  26.370  1.00  0.00     0.039 A 
ATOM     35  C   UNL A   1      42.366  20.917  27.677  1.00  0.00     0.014 A 
ATOM     36  C   UNL A   1      42.847  21.246  25.337  1.00  0.00     0.014 A 
ATOM     37  C   UNL A   1      42.768  22.231  27.951  1.00  0.00     0.010 A 
ATOM     38  C   UNL A   1      43.297  22.544  25.619  1.00  0.00     0.010 A 
ATOM     39  C   UNL A   1      43.251  23.058  26.926  1.00  0.00    -0.014 A 
BRANCH  39  40
ATOM     40  C   UNL A   1      43.689  24.458  27.199  1.00  0.00     0.031 A 
ATOM     41  C   UNL A   1      42.712  25.481  27.721  1.00  0.00     0.074 A 
ATOM     42  C   UNL A   1      44.955  24.835  26.929  1.00  0.00     0.049 A 
ATOM     43  N   UNL A   1      42.877  26.766  27.921  1.00  0.00    -0.248 NA
ATOM     44  C   UNL A   1      41.361  24.996  28.040  1.00  0.00     0.031 C 
ATOM     45  C   UNL A   1      46.000  23.959  26.399  1.00  0.00     0.029 A 
ATOM     46  N   UNL A   1      45.575  26.056  27.048  1.00  0.00    -0.354 N 
ATOM     47  C   UNL A   1      41.648  27.246  28.360  1.00  0.00     0.074 A 
ATOM     48  C   UNL A   1      40.737  26.120  28.362  1.00  0.00     0.031 C 
ATOM     49  C   UNL A   1      47.132  24.666  26.248  1.00  0.00     0.029 A 
ATOM     50  C   UNL A   1      46.886  26.052  26.634  1.00  0.00     0.049 A 
ATOM     51  H   UNL A   1      45.123  26.858  27.397  1.00  0.00     0.167 HD
ATOM     52  C   UNL A   1      41.313  28.503  28.742  1.00  0.00     0.037 A 
ATOM     53  C   UNL A   1      47.784  27.053  26.560  1.00  0.00     0.037 A 
ATOM     54  C   UNL A   1      42.226  29.618  28.775  1.00  0.00     0.049 A 
ATOM     55  C   UNL A   1      47.386  28.441  26.985  1.00  0.00     0.074 A 
ATOM     56  C   UNL A   1      41.994  30.914  29.205  1.00  0.00     0.029 A 
ATOM     57  N   UNL A   1      43.550  29.566  28.364  1.00  0.00    -0.354 N 
ATOM     58  N   UNL A   1      46.236  28.869  27.443  1.00  0.00    -0.248 NA
ATOM     59  C   UNL A   1      48.417  29.486  26.885  1.00  0.00     0.031 C 
ATOM     60  C   UNL A   1      43.165  31.655  29.017  1.00  0.00     0.029 A 
ATOM     61  C   UNL A   1      44.140  30.811  28.512  1.00  0.00     0.049 A 
ATOM     62  H   UNL A   1      44.002  28.764  28.017  1.00  0.00     0.167 HD
ATOM     63  C   UNL A   1      46.408  30.220  27.709  1.00  0.00     0.074 A 
ATOM     64  C   UNL A   1      47.781  30.541  27.375  1.00  0.00     0.031 C 
ATOM     65  C   UNL A   1      45.510  31.116  28.184  1.00  0.00     0.037 A 
BRANCH  52  66
ATOM     66  C   UNL A   1      39.889  28.747  29.158  1.00  0.00     0.064 A 
ATOM     67  C   UNL A   1      39.455  28.513  30.472  1.00  0.00     0.173 A 
ATOM     68  C   UNL A   1      38.954  29.255  28.242  1.00  0.00     0.173 A 
ATOM     69  F   UNL A   1      40.307  28.024  31.386  1.00  0.00    -0.203 F 
ATOM     70  C   UNL A   1      38.134  28.745  30.844  1.00  0.00     0.198 A 
ATOM     71  C   UNL A   1      37.641  29.515  28.626  1.00  0.00     0.198 A 
ATOM     72  F   UNL A   1      39.316  29.509  26.976  1.00  0.00    -0.203 F 
ATOM     73  F   UNL A   1      37.731  28.466  32.092  1.00  0.00    -0.200 F 
ATOM     74  C   UNL A   1      37.229  29.251  29.922  1.00  0.00     0.200 A 
ATOM     75  F   UNL A   1      36.771  30.018  27.739  1.00  0.00    -0.200 F 
ATOM     76  F   UNL A   1      35.958  29.476  30.284  1.00  0.00    -0.200 F 
ENDBRANCH  52  66
BRANCH  53  77
ATOM     77  C   UNL A   1      49.163  26.776  26.077  1.00  0.00     0.064 A 
ATOM     78  C   UNL A   1      49.507  26.983  24.734  1.00  0.00     0.173 A 
ATOM     79  C   UNL A   1      50.159  26.297  26.940  1.00  0.00     0.173 A 
ATOM     80  F   UNL A   1      48.582  27.416  23.865  1.00  0.00    -0.203 F 
ATOM     81  C   UNL A   1      50.791  26.707  24.269  1.00  0.00     0.198 A 
ATOM     82  C   UNL A   1      51.450  26.048  26.480  1.00  0.00     0.198 A 
ATOM     83  F   UNL A   1      49.880  26.083  28.234  1.00  0.00    -0.203 F 
ATOM     84  F   UNL A   1      51.081  26.872  22.971  1.00  0.00    -0.200 F 
ATOM     85  C   UNL A   1      51.763  26.246  25.143  1.00  0.00     0.200 A 
ATOM     86  F   UNL A   1      52.391  25.613  27.329  1.00  0.00    -0.200 F 
ATOM     87  F   UNL A   1      52.999  25.984  24.696  1.00  0.00    -0.200 F 
ENDBRANCH  53  77
BRANCH  65  88
ATOM     88  C   UNL A   1      45.988  32.522  28.405  1.00  0.00     0.064 A 
ATOM     89  C   UNL A   1      45.870  33.503  27.411  1.00  0.00     0.173 A 
ATOM     90  C   UNL A   1      46.534  32.901  29.641  1.00  0.00     0.173 A 
ATOM     91  F   UNL A   1      45.370  33.187  26.207  1.00  0.00    -0.203 F 
ATOM     92  C   UNL A   1      46.301  34.808  27.638  1.00  0.00     0.198 A 
ATOM     93  C   UNL A   1      46.939  34.213  29.874  1.00  0.00     0.198 A 
ATOM     94  F   UNL A   1      46.664  32.001  30.628  1.00  0.00    -0.203 F 
ATOM     95  F   UNL A   1      46.219  35.719  26.658  1.00  0.00    -0.200 F 
ATOM     96  C   UNL A   1      46.828  35.163  28.870  1.00  0.00     0.200 A 
ATOM     97  F   UNL A   1      47.437  34.556  31.070  1.00  0.00    -0.200 F 
ATOM     98  F   UNL A   1      47.236  36.421  29.089  1.00  0.00    -0.200 F 
ENDBRANCH  65  88
ENDBRANCH  39  40
ENDBRANCH  31  34
ENDBRANCH  29  30
ENDBRANCH  28  29
ENDBRANCH  27  28
ENDBRANCH   1  27
TORSDOF 16
ENDMDL
