MODEL 1
REMARK VINA RESULT:     -12.0      0.000      0.000
REMARK SMILES COCc1cccc(O[C@@H](C)c2ccc(C(=O)NCCCCNC(=O)c3ccc(-c4c5nc(c(-c6c(F)c(F)c(F)c(F)c6F)c6ccc([nH]6)c(-c6c(F)c(F)c(F)c(F)c6F)c6nc(c(-c7c(F)c(F)c(F)c(F)c7F)c7ccc4[nH]7)C=C6)C=C5)cc3)o2)c1
REMARK SMILES IDX 19 1 18 2 16 3 17 4 15 6 12 7 13 8 89 9 14 10 10 11 11 12
REMARK SMILES IDX 9 13 8 14 4 15 5 16 90 17 6 18 7 19 3 20 2 21 1 22 20 23
REMARK SMILES IDX 21 24 22 25 23 26 24 27 25 29 26 30 27 31 88 32 28 33 87 34
REMARK SMILES IDX 29 35 30 36 31 37 81 38 32 39 86 40 80 41 82 42 33 43 85 44
REMARK SMILES IDX 79 45 78 46 34 48 66 49 46 50 65 51 47 52 50 53 64 54 83 55
REMARK SMILES IDX 48 56 49 57 63 59 84 60 51 61 35 62 36 63 44 64 37 65 38 66
REMARK SMILES IDX 42 67 45 68 39 69 40 70 43 71 41 72 67 73 68 74 76 75 69 76
REMARK SMILES IDX 70 77 74 78 77 79 71 80 72 81 75 82 73 83 52 84 53 85 61 86
REMARK SMILES IDX 54 87 55 88 59 89 62 90 56 91 57 92 60 93 58 94
REMARK H PARENT 18 5 23 28 82 47 50 58
REMARK Flexibility Score: inf
ROOT
ATOM      1  C   UNL A   1      35.836  21.162  25.450  1.00  0.00     0.116 C 
ENDROOT
BRANCH   1   2
ATOM      2  N   UNL A   1      34.978  20.018  25.217  1.00  0.00    -0.349 N 
ATOM      3  C   UNL A   1      33.735  19.952  24.629  1.00  0.00     0.286 C 
ATOM      4  O   UNL A   1      33.326  18.812  24.359  1.00  0.00    -0.266 OA
ATOM      5  H   UNL A   1      35.338  19.156  25.527  1.00  0.00     0.163 HD
BRANCH   3   6
ATOM      6  C   UNL A   1      32.969  21.150  24.345  1.00  0.00     0.191 A 
ATOM      7  C   UNL A   1      31.702  22.885  24.926  1.00  0.00     0.145 A 
ATOM      8  C   UNL A   1      31.951  23.006  23.574  1.00  0.00     0.050 A 
ATOM      9  O   UNL A   1      32.337  21.770  25.397  1.00  0.00    -0.452 OA
ATOM     10  C   UNL A   1      32.738  21.895  23.200  1.00  0.00     0.057 A 
BRANCH   7  11
ATOM     11  C   UNL A   1      30.957  23.732  25.922  1.00  0.00     0.236 C 
ATOM     12  C   UNL A   1      30.095  22.977  26.929  1.00  0.00     0.062 C 
BRANCH  11  13
ATOM     13  O   UNL A   1      30.230  24.828  25.310  1.00  0.00    -0.483 OA
BRANCH  13  14
ATOM     14  C   UNL A   1      30.787  26.070  25.193  1.00  0.00     0.120 A 
ATOM     15  C   UNL A   1      32.213  27.906  25.913  1.00  0.00    -0.019 A 
ATOM     16  C   UNL A   1      31.586  28.738  24.974  1.00  0.00     0.006 A 
ATOM     17  C   UNL A   1      31.828  26.561  25.976  1.00  0.00     0.052 A 
ATOM     18  C   UNL A   1      30.601  28.232  24.126  1.00  0.00     0.004 A 
ATOM     19  C   UNL A   1      30.202  26.900  24.237  1.00  0.00     0.046 A 
BRANCH  15  20
ATOM     20  C   UNL A   1      33.229  28.494  26.870  1.00  0.00     0.195 C 
BRANCH  20  21
ATOM     21  O   UNL A   1      33.739  29.766  26.466  1.00  0.00    -0.380 OA
ATOM     22  C   UNL A   1      33.468  30.805  27.400  1.00  0.00     0.195 C 
ENDBRANCH  20  21
ENDBRANCH  15  20
ENDBRANCH  13  14
ENDBRANCH  11  13
ENDBRANCH   7  11
ENDBRANCH   3   6
ENDBRANCH   1   2
BRANCH   1  23
ATOM     23  C   UNL A   1      37.135  21.089  24.649  1.00  0.00     0.023 C 
BRANCH  23  24
ATOM     24  C   UNL A   1      38.038  19.898  24.982  1.00  0.00     0.023 C 
BRANCH  24  25
ATOM     25  C   UNL A   1      39.312  20.225  25.757  1.00  0.00     0.116 C 
BRANCH  25  26
ATOM     26  N   UNL A   1      40.255  19.119  25.824  1.00  0.00    -0.352 N 
ATOM     27  C   UNL A   1      41.602  19.144  26.099  1.00  0.00     0.251 C 
ATOM     28  H   UNL A   1      39.876  18.227  25.648  1.00  0.00     0.163 HD
ATOM     29  O   UNL A   1      42.265  18.112  26.031  1.00  0.00    -0.269 OA
BRANCH  27  30
ATOM     30  C   UNL A   1      42.264  20.423  26.434  1.00  0.00     0.039 A 
ATOM     31  C   UNL A   1      42.845  21.167  25.403  1.00  0.00     0.014 A 
ATOM     32  C   UNL A   1      42.289  20.902  27.746  1.00  0.00     0.014 A 
ATOM     33  C   UNL A   1      43.374  22.431  25.673  1.00  0.00     0.010 A 
ATOM     34  C   UNL A   1      42.761  22.188  28.004  1.00  0.00     0.010 A 
ATOM     35  C   UNL A   1      43.293  22.970  26.968  1.00  0.00    -0.014 A 
BRANCH  35  36
ATOM     36  C   UNL A   1      43.722  24.364  27.247  1.00  0.00     0.031 A 
ATOM     37  C   UNL A   1      42.734  25.381  27.744  1.00  0.00     0.074 A 
ATOM     38  C   UNL A   1      44.990  24.732  26.978  1.00  0.00     0.049 A 
ATOM     39  N   UNL A   1      42.904  26.659  27.969  1.00  0.00    -0.248 NA
ATOM     40  C   UNL A   1      41.366  24.904  27.998  1.00  0.00     0.031 C 
ATOM     41  C   UNL A   1      46.031  23.850  26.444  1.00  0.00     0.029 A 
ATOM     42  N   UNL A   1      45.618  25.947  27.103  1.00  0.00    -0.354 N 
ATOM     43  C   UNL A   1      41.669  27.139  28.380  1.00  0.00     0.074 A 
ATOM     44  C   UNL A   1      40.744  26.026  28.327  1.00  0.00     0.031 C 
ATOM     45  C   UNL A   1      47.169  24.548  26.304  1.00  0.00     0.029 A 
ATOM     46  C   UNL A   1      46.931  25.931  26.702  1.00  0.00     0.049 A 
ATOM     47  H   UNL A   1      45.169  26.752  27.447  1.00  0.00     0.167 HD
ATOM     48  C   UNL A   1      41.341  28.389  28.786  1.00  0.00     0.037 A 
ATOM     49  C   UNL A   1      47.841  26.924  26.652  1.00  0.00     0.037 A 
ATOM     50  C   UNL A   1      42.267  29.489  28.859  1.00  0.00     0.049 A 
ATOM     51  C   UNL A   1      47.447  28.304  27.102  1.00  0.00     0.074 A 
ATOM     52  C   UNL A   1      42.044  30.776  29.316  1.00  0.00     0.029 A 
ATOM     53  N   UNL A   1      43.595  29.431  28.461  1.00  0.00    -0.354 N 
ATOM     54  N   UNL A   1      46.292  28.729  27.556  1.00  0.00    -0.248 NA
ATOM     55  C   UNL A   1      48.484  29.343  27.037  1.00  0.00     0.031 C 
ATOM     56  C   UNL A   1      43.225  31.509  29.155  1.00  0.00     0.029 A 
ATOM     57  C   UNL A   1      44.197  30.666  28.643  1.00  0.00     0.049 A 
ATOM     58  H   UNL A   1      44.044  28.630  28.105  1.00  0.00     0.167 HD
ATOM     59  C   UNL A   1      46.471  30.073  27.854  1.00  0.00     0.074 A 
ATOM     60  C   UNL A   1      47.850  30.390  27.545  1.00  0.00     0.031 C 
ATOM     61  C   UNL A   1      45.572  30.965  28.337  1.00  0.00     0.037 A 
BRANCH  48  62
ATOM     62  C   UNL A   1      39.918  28.637  29.193  1.00  0.00     0.064 A 
ATOM     63  C   UNL A   1      39.488  28.436  30.513  1.00  0.00     0.173 A 
ATOM     64  C   UNL A   1      38.986  29.130  28.267  1.00  0.00     0.173 A 
ATOM     65  F   UNL A   1      40.338  27.956  31.435  1.00  0.00    -0.203 F 
ATOM     66  C   UNL A   1      38.172  28.697  30.886  1.00  0.00     0.198 A 
ATOM     67  C   UNL A   1      37.678  29.415  28.650  1.00  0.00     0.198 A 
ATOM     68  F   UNL A   1      39.347  29.345  26.994  1.00  0.00    -0.203 F 
ATOM     69  F   UNL A   1      37.774  28.456  32.144  1.00  0.00    -0.200 F 
ATOM     70  C   UNL A   1      37.271  29.193  29.957  1.00  0.00     0.200 A 
ATOM     71  F   UNL A   1      36.811  29.907  27.754  1.00  0.00    -0.200 F 
ATOM     72  F   UNL A   1      36.007  29.453  30.320  1.00  0.00    -0.200 F 
ENDBRANCH  48  62
BRANCH  49  73
ATOM     73  C   UNL A   1      49.220  26.647  26.173  1.00  0.00     0.064 A 
ATOM     74  C   UNL A   1      50.197  26.148  27.046  1.00  0.00     0.173 A 
ATOM     75  C   UNL A   1      49.594  26.887  24.843  1.00  0.00     0.173 A 
ATOM     76  F   UNL A   1      49.891  25.923  28.333  1.00  0.00    -0.203 F 
ATOM     77  C   UNL A   1      51.500  25.920  26.613  1.00  0.00     0.198 A 
ATOM     78  C   UNL A   1      50.891  26.631  24.404  1.00  0.00     0.198 A 
ATOM     79  F   UNL A   1      48.696  27.360  23.967  1.00  0.00    -0.203 F 
ATOM     80  F   UNL A   1      52.426  25.488  27.481  1.00  0.00    -0.200 F 
ATOM     81  C   UNL A   1      51.846  26.157  25.291  1.00  0.00     0.200 A 
ATOM     82  F   UNL A   1      51.218  26.849  23.123  1.00  0.00    -0.200 F 
ATOM     83  F   UNL A   1      53.100  25.936  24.874  1.00  0.00    -0.200 F 
ENDBRANCH  49  73
BRANCH  61  84
ATOM     84  C   UNL A   1      46.059  32.362  28.590  1.00  0.00     0.064 A 
ATOM     85  C   UNL A   1      45.945  33.366  27.618  1.00  0.00     0.173 A 
ATOM     86  C   UNL A   1      46.613  32.706  29.831  1.00  0.00     0.173 A 
ATOM     87  F   UNL A   1      45.436  33.082  26.409  1.00  0.00    -0.203 F 
ATOM     88  C   UNL A   1      46.390  34.661  27.872  1.00  0.00     0.198 A 
ATOM     89  C   UNL A   1      47.031  34.008  30.092  1.00  0.00     0.198 A 
ATOM     90  F   UNL A   1      46.740  31.783  30.796  1.00  0.00    -0.203 F 
ATOM     91  F   UNL A   1      46.313  35.594  26.913  1.00  0.00    -0.200 F 
ATOM     92  C   UNL A   1      46.925  34.983  29.110  1.00  0.00     0.200 A 
ATOM     93  F   UNL A   1      47.537  34.321  31.293  1.00  0.00    -0.200 F 
ATOM     94  F   UNL A   1      47.347  36.230  29.356  1.00  0.00    -0.200 F 
ENDBRANCH  61  84
ENDBRANCH  35  36
ENDBRANCH  27  30
ENDBRANCH  25  26
ENDBRANCH  24  25
ENDBRANCH  23  24
ENDBRANCH   1  23
TORSDOF 16
ENDMDL
MODEL 2
REMARK VINA RESULT:     -11.9      1.229      2.152
REMARK SMILES COCc1cccc(O[C@@H](C)c2ccc(C(=O)NCCCCNC(=O)c3ccc(-c4c5nc(c(-c6c(F)c(F)c(F)c(F)c6F)c6ccc([nH]6)c(-c6c(F)c(F)c(F)c(F)c6F)c6nc(c(-c7c(F)c(F)c(F)c(F)c7F)c7ccc4[nH]7)C=C6)C=C5)cc3)o2)c1
REMARK SMILES IDX 19 1 18 2 16 3 17 4 15 6 12 7 13 8 89 9 14 10 10 11 11 12
REMARK SMILES IDX 9 13 8 14 4 15 5 16 90 17 6 18 7 19 3 20 2 21 1 22 20 23
REMARK SMILES IDX 21 24 22 25 23 26 24 27 25 29 26 30 27 31 88 32 28 33 87 34
REMARK SMILES IDX 29 35 30 36 31 37 81 38 32 39 86 40 80 41 82 42 33 43 85 44
REMARK SMILES IDX 79 45 78 46 34 48 66 49 46 50 65 51 47 52 50 53 64 54 83 55
REMARK SMILES IDX 48 56 49 57 63 59 84 60 51 61 35 62 36 63 44 64 37 65 38 66
REMARK SMILES IDX 42 67 45 68 39 69 40 70 43 71 41 72 67 73 68 74 76 75 69 76
REMARK SMILES IDX 70 77 74 78 77 79 71 80 72 81 75 82 73 83 52 84 53 85 61 86
REMARK SMILES IDX 54 87 55 88 59 89 62 90 56 91 57 92 60 93 58 94
REMARK H PARENT 18 5 23 28 82 47 50 58
REMARK Flexibility Score: inf
ROOT
ATOM      1  C   UNL A   1      36.038  21.321  25.752  1.00  0.00     0.116 C 
ENDROOT
BRANCH   1   2
ATOM      2  N   UNL A   1      34.827  20.554  25.537  1.00  0.00    -0.349 N 
ATOM      3  C   UNL A   1      33.527  20.983  25.383  1.00  0.00     0.286 C 
ATOM      4  O   UNL A   1      32.720  20.125  24.991  1.00  0.00    -0.266 OA
ATOM      5  H   UNL A   1      34.952  19.579  25.494  1.00  0.00     0.163 HD
BRANCH   3   6
ATOM      6  C   UNL A   1      33.145  22.353  25.662  1.00  0.00     0.191 A 
ATOM      7  C   UNL A   1      32.976  24.513  25.153  1.00  0.00     0.145 A 
ATOM      8  C   UNL A   1      32.347  24.338  26.369  1.00  0.00     0.050 A 
ATOM      9  O   UNL A   1      33.442  23.305  24.715  1.00  0.00    -0.452 OA
ATOM     10  C   UNL A   1      32.471  22.971  26.702  1.00  0.00     0.057 A 
BRANCH   7  11
ATOM     11  C   UNL A   1      33.178  25.703  24.254  1.00  0.00     0.236 C 
ATOM     12  C   UNL A   1      33.182  27.065  24.941  1.00  0.00     0.062 C 
BRANCH  11  13
ATOM     13  O   UNL A   1      32.317  25.693  23.089  1.00  0.00    -0.483 OA
BRANCH  13  14
ATOM     14  C   UNL A   1      31.162  26.422  23.054  1.00  0.00     0.120 A 
ATOM     15  C   UNL A   1      29.852  28.429  22.625  1.00  0.00    -0.019 A 
ATOM     16  C   UNL A   1      28.787  27.866  23.345  1.00  0.00     0.006 A 
ATOM     17  C   UNL A   1      31.017  27.670  22.454  1.00  0.00     0.052 A 
ATOM     18  C   UNL A   1      28.892  26.581  23.877  1.00  0.00     0.004 A 
ATOM     19  C   UNL A   1      30.080  25.862  23.733  1.00  0.00     0.046 A 
BRANCH  15  20
ATOM     20  C   UNL A   1      29.740  29.851  22.117  1.00  0.00     0.195 C 
BRANCH  20  21
ATOM     21  O   UNL A   1      28.626  30.072  21.251  1.00  0.00    -0.380 OA
ATOM     22  C   UNL A   1      28.335  31.451  21.049  1.00  0.00     0.195 C 
ENDBRANCH  20  21
ENDBRANCH  15  20
ENDBRANCH  13  14
ENDBRANCH  11  13
ENDBRANCH   7  11
ENDBRANCH   3   6
ENDBRANCH   1   2
BRANCH   1  23
ATOM     23  C   UNL A   1      37.097  21.049  24.684  1.00  0.00     0.023 C 
BRANCH  23  24
ATOM     24  C   UNL A   1      38.031  19.874  24.980  1.00  0.00     0.023 C 
BRANCH  24  25
ATOM     25  C   UNL A   1      39.300  20.211  25.759  1.00  0.00     0.116 C 
BRANCH  25  26
ATOM     26  N   UNL A   1      40.251  19.112  25.832  1.00  0.00    -0.352 N 
ATOM     27  C   UNL A   1      41.599  19.150  26.100  1.00  0.00     0.251 C 
ATOM     28  H   UNL A   1      39.877  18.217  25.668  1.00  0.00     0.163 HD
ATOM     29  O   UNL A   1      42.269  18.122  26.038  1.00  0.00    -0.269 OA
BRANCH  27  30
ATOM     30  C   UNL A   1      42.254  20.436  26.418  1.00  0.00     0.039 A 
ATOM     31  C   UNL A   1      42.829  21.171  25.377  1.00  0.00     0.014 A 
ATOM     32  C   UNL A   1      42.278  20.931  27.724  1.00  0.00     0.014 A 
ATOM     33  C   UNL A   1      43.351  22.442  25.631  1.00  0.00     0.010 A 
ATOM     34  C   UNL A   1      42.743  22.223  27.965  1.00  0.00     0.010 A 
ATOM     35  C   UNL A   1      43.269  22.995  26.919  1.00  0.00    -0.014 A 
BRANCH  35  36
ATOM     36  C   UNL A   1      43.690  24.396  27.180  1.00  0.00     0.031 A 
ATOM     37  C   UNL A   1      42.699  25.411  27.675  1.00  0.00     0.074 A 
ATOM     38  C   UNL A   1      44.954  24.769  26.898  1.00  0.00     0.049 A 
ATOM     39  N   UNL A   1      42.862  26.692  27.885  1.00  0.00    -0.248 NA
ATOM     40  C   UNL A   1      41.337  24.926  27.944  1.00  0.00     0.031 C 
ATOM     41  C   UNL A   1      45.996  23.890  26.364  1.00  0.00     0.029 A 
ATOM     42  N   UNL A   1      45.574  25.990  27.004  1.00  0.00    -0.354 N 
ATOM     43  C   UNL A   1      41.627  27.168  28.301  1.00  0.00     0.074 A 
ATOM     44  C   UNL A   1      40.709  26.048  28.266  1.00  0.00     0.031 C 
ATOM     45  C   UNL A   1      47.128  24.594  26.207  1.00  0.00     0.029 A 
ATOM     46  C   UNL A   1      46.884  25.979  26.593  1.00  0.00     0.049 A 
ATOM     47  H   UNL A   1      45.121  26.795  27.344  1.00  0.00     0.167 HD
ATOM     48  C   UNL A   1      41.293  28.420  28.697  1.00  0.00     0.037 A 
ATOM     49  C   UNL A   1      47.786  26.978  26.526  1.00  0.00     0.037 A 
ATOM     50  C   UNL A   1      42.211  29.526  28.751  1.00  0.00     0.049 A 
ATOM     51  C   UNL A   1      47.386  28.360  26.965  1.00  0.00     0.074 A 
ATOM     52  C   UNL A   1      41.983  30.817  29.196  1.00  0.00     0.029 A 
ATOM     53  N   UNL A   1      43.537  29.474  28.343  1.00  0.00    -0.354 N 
ATOM     54  N   UNL A   1      46.232  28.781  27.423  1.00  0.00    -0.248 NA
ATOM     55  C   UNL A   1      48.415  29.406  26.881  1.00  0.00     0.031 C 
ATOM     56  C   UNL A   1      43.157  31.557  29.018  1.00  0.00     0.029 A 
ATOM     57  C   UNL A   1      44.132  30.715  28.507  1.00  0.00     0.049 A 
ATOM     58  H   UNL A   1      43.988  28.673  27.992  1.00  0.00     0.167 HD
ATOM     59  C   UNL A   1      46.403  30.130  27.706  1.00  0.00     0.074 A 
ATOM     60  C   UNL A   1      47.777  30.453  27.383  1.00  0.00     0.031 C 
ATOM     61  C   UNL A   1      45.502  31.020  28.187  1.00  0.00     0.037 A 
BRANCH  48  62
ATOM     62  C   UNL A   1      39.871  28.662  29.112  1.00  0.00     0.064 A 
ATOM     63  C   UNL A   1      39.454  28.475  30.439  1.00  0.00     0.173 A 
ATOM     64  C   UNL A   1      38.927  29.135  28.188  1.00  0.00     0.173 A 
ATOM     65  F   UNL A   1      40.316  28.014  31.359  1.00  0.00    -0.203 F 
ATOM     66  C   UNL A   1      38.139  28.730  30.819  1.00  0.00     0.198 A 
ATOM     67  C   UNL A   1      37.621  29.415  28.578  1.00  0.00     0.198 A 
ATOM     68  F   UNL A   1      39.276  29.336  26.909  1.00  0.00    -0.203 F 
ATOM     69  F   UNL A   1      37.753  28.503  32.083  1.00  0.00    -0.200 F 
ATOM     70  C   UNL A   1      37.227  29.207  29.891  1.00  0.00     0.200 A 
ATOM     71  F   UNL A   1      36.742  29.888  27.683  1.00  0.00    -0.200 F 
ATOM     72  F   UNL A   1      35.963  29.462  30.261  1.00  0.00    -0.200 F 
ENDBRANCH  48  62
BRANCH  49  73
ATOM     73  C   UNL A   1      49.163  26.706  26.039  1.00  0.00     0.064 A 
ATOM     74  C   UNL A   1      49.518  26.965  24.708  1.00  0.00     0.173 A 
ATOM     75  C   UNL A   1      50.145  26.171  26.884  1.00  0.00     0.173 A 
ATOM     76  F   UNL A   1      48.606  27.457  23.856  1.00  0.00    -0.203 F 
ATOM     77  C   UNL A   1      50.797  26.679  24.235  1.00  0.00     0.198 A 
ATOM     78  C   UNL A   1      51.433  25.912  26.418  1.00  0.00     0.198 A 
ATOM     79  F   UNL A   1      49.858  25.909  28.167  1.00  0.00    -0.203 F 
ATOM     80  F   UNL A   1      51.095  26.892  22.946  1.00  0.00    -0.200 F 
ATOM     81  C   UNL A   1      51.754  26.158  25.091  1.00  0.00     0.200 A 
ATOM     82  F   UNL A   1      52.359  25.420  27.251  1.00  0.00    -0.200 F 
ATOM     83  F   UNL A   1      52.985  25.884  24.637  1.00  0.00    -0.200 F 
ENDBRANCH  49  73
BRANCH  61  84
ATOM     84  C   UNL A   1      45.981  32.423  28.422  1.00  0.00     0.064 A 
ATOM     85  C   UNL A   1      45.864  33.413  27.436  1.00  0.00     0.173 A 
ATOM     86  C   UNL A   1      46.530  32.788  29.660  1.00  0.00     0.173 A 
ATOM     87  F   UNL A   1      45.360  33.109  26.229  1.00  0.00    -0.203 F 
ATOM     88  C   UNL A   1      46.302  34.713  27.673  1.00  0.00     0.198 A 
ATOM     89  C   UNL A   1      46.940  34.095  29.903  1.00  0.00     0.198 A 
ATOM     90  F   UNL A   1      46.659  31.879  30.638  1.00  0.00    -0.203 F 
ATOM     91  F   UNL A   1      46.223  35.633  26.700  1.00  0.00    -0.200 F 
ATOM     92  C   UNL A   1      46.832  35.055  28.907  1.00  0.00     0.200 A 
ATOM     93  F   UNL A   1      47.441  34.428  31.101  1.00  0.00    -0.200 F 
ATOM     94  F   UNL A   1      47.246  36.309  29.136  1.00  0.00    -0.200 F 
ENDBRANCH  61  84
ENDBRANCH  35  36
ENDBRANCH  27  30
ENDBRANCH  25  26
ENDBRANCH  24  25
ENDBRANCH  23  24
ENDBRANCH   1  23
TORSDOF 16
ENDMDL
MODEL 3
REMARK VINA RESULT:     -11.7      1.247      7.492
REMARK SMILES COCc1cccc(O[C@@H](C)c2ccc(C(=O)NCCCCNC(=O)c3ccc(-c4c5nc(c(-c6c(F)c(F)c(F)c(F)c6F)c6ccc([nH]6)c(-c6c(F)c(F)c(F)c(F)c6F)c6nc(c(-c7c(F)c(F)c(F)c(F)c7F)c7ccc4[nH]7)C=C6)C=C5)cc3)o2)c1
REMARK SMILES IDX 19 1 18 2 16 3 17 4 15 6 12 7 13 8 89 9 14 10 10 11 11 12
REMARK SMILES IDX 9 13 8 14 4 15 5 16 90 17 6 18 7 19 3 20 2 21 1 22 20 23
REMARK SMILES IDX 21 24 22 25 23 26 24 27 25 29 26 30 27 31 88 32 28 33 87 34
REMARK SMILES IDX 29 35 30 36 31 37 81 38 32 39 86 40 80 41 82 42 33 43 85 44
REMARK SMILES IDX 79 45 78 46 34 48 66 49 46 50 65 51 47 52 50 53 64 54 83 55
REMARK SMILES IDX 48 56 49 57 63 59 84 60 51 61 35 62 36 63 44 64 37 65 38 66
REMARK SMILES IDX 42 67 45 68 39 69 40 70 43 71 41 72 67 73 68 74 76 75 69 76
REMARK SMILES IDX 70 77 74 78 77 79 71 80 72 81 75 82 73 83 52 84 53 85 61 86
REMARK SMILES IDX 54 87 55 88 59 89 62 90 56 91 57 92 60 93 58 94
REMARK H PARENT 18 5 23 28 82 47 50 58
REMARK Flexibility Score: inf
ROOT
ATOM      1  C   UNL A   1      35.980  21.214  25.680  1.00  0.00     0.116 C 
ENDROOT
BRANCH   1   2
ATOM      2  N   UNL A   1      34.764  20.441  25.526  1.00  0.00    -0.349 N 
ATOM      3  C   UNL A   1      33.455  20.861  25.451  1.00  0.00     0.286 C 
ATOM      4  O   UNL A   1      32.633  20.001  25.096  1.00  0.00    -0.266 OA
ATOM      5  H   UNL A   1      34.893  19.467  25.467  1.00  0.00     0.163 HD
BRANCH   3   6
ATOM      6  C   UNL A   1      33.080  22.226  25.764  1.00  0.00     0.191 A 
ATOM      7  C   UNL A   1      32.993  24.410  25.345  1.00  0.00     0.145 A 
ATOM      8  C   UNL A   1      32.270  24.195  26.501  1.00  0.00     0.050 A 
ATOM      9  O   UNL A   1      33.467  23.213  24.887  1.00  0.00    -0.452 OA
ATOM     10  C   UNL A   1      32.341  22.812  26.778  1.00  0.00     0.057 A 
BRANCH   7  11
ATOM     11  C   UNL A   1      33.286  25.635  24.521  1.00  0.00     0.236 C 
ATOM     12  C   UNL A   1      33.270  26.964  25.270  1.00  0.00     0.062 C 
BRANCH  11  13
ATOM     13  O   UNL A   1      32.512  25.700  23.297  1.00  0.00    -0.483 OA
BRANCH  13  14
ATOM     14  C   UNL A   1      31.317  26.361  23.248  1.00  0.00     0.120 A 
ATOM     15  C   UNL A   1      29.912  28.320  22.912  1.00  0.00    -0.019 A 
ATOM     16  C   UNL A   1      28.841  27.631  23.501  1.00  0.00     0.006 A 
ATOM     17  C   UNL A   1      31.132  27.649  22.755  1.00  0.00     0.052 A 
ATOM     18  C   UNL A   1      28.994  26.309  23.920  1.00  0.00     0.004 A 
ATOM     19  C   UNL A   1      30.231  25.677  23.796  1.00  0.00     0.046 A 
BRANCH  15  20
ATOM     20  C   UNL A   1      29.742  29.775  22.529  1.00  0.00     0.195 C 
BRANCH  20  21
ATOM     21  O   UNL A   1      29.138  29.972  21.249  1.00  0.00    -0.380 OA
ATOM     22  C   UNL A   1      28.103  30.949  21.259  1.00  0.00     0.195 C 
ENDBRANCH  20  21
ENDBRANCH  15  20
ENDBRANCH  13  14
ENDBRANCH  11  13
ENDBRANCH   7  11
ENDBRANCH   3   6
ENDBRANCH   1   2
BRANCH   1  23
ATOM     23  C   UNL A   1      37.032  20.860  24.629  1.00  0.00     0.023 C 
BRANCH  23  24
ATOM     24  C   UNL A   1      38.012  19.757  25.037  1.00  0.00     0.023 C 
BRANCH  24  25
ATOM     25  C   UNL A   1      39.305  20.226  25.700  1.00  0.00     0.116 C 
BRANCH  25  26
ATOM     26  N   UNL A   1      40.305  19.178  25.838  1.00  0.00    -0.352 N 
ATOM     27  C   UNL A   1      41.644  19.291  26.131  1.00  0.00     0.251 C 
ATOM     28  H   UNL A   1      39.978  18.259  25.703  1.00  0.00     0.163 HD
ATOM     29  O   UNL A   1      42.362  18.295  26.125  1.00  0.00    -0.269 OA
BRANCH  27  30
ATOM     30  C   UNL A   1      42.230  20.619  26.409  1.00  0.00     0.039 A 
ATOM     31  C   UNL A   1      42.652  21.404  25.331  1.00  0.00     0.014 A 
ATOM     32  C   UNL A   1      42.338  21.103  27.715  1.00  0.00     0.014 A 
ATOM     33  C   UNL A   1      43.102  22.707  25.557  1.00  0.00     0.010 A 
ATOM     34  C   UNL A   1      42.728  22.423  27.934  1.00  0.00     0.010 A 
ATOM     35  C   UNL A   1      43.099  23.241  26.856  1.00  0.00    -0.014 A 
BRANCH  35  36
ATOM     36  C   UNL A   1      43.439  24.666  27.100  1.00  0.00     0.031 A 
ATOM     37  C   UNL A   1      44.834  25.169  26.861  1.00  0.00     0.074 A 
ATOM     38  C   UNL A   1      42.503  25.490  27.611  1.00  0.00     0.049 A 
ATOM     39  N   UNL A   1      45.336  26.356  27.090  1.00  0.00    -0.248 NA
ATOM     40  C   UNL A   1      45.800  24.203  26.317  1.00  0.00     0.031 C 
ATOM     41  C   UNL A   1      41.127  25.109  27.935  1.00  0.00     0.029 A 
ATOM     42  N   UNL A   1      42.571  26.816  27.963  1.00  0.00    -0.354 N 
ATOM     43  C   UNL A   1      46.673  26.278  26.728  1.00  0.00     0.074 A 
ATOM     44  C   UNL A   1      46.919  24.913  26.311  1.00  0.00     0.031 C 
ATOM     45  C   UNL A   1      40.476  26.179  28.421  1.00  0.00     0.029 A 
ATOM     46  C   UNL A   1      41.397  27.310  28.477  1.00  0.00     0.049 A 
ATOM     47  H   UNL A   1      43.384  27.361  27.856  1.00  0.00     0.167 HD
ATOM     48  C   UNL A   1      47.606  27.260  26.723  1.00  0.00     0.037 A 
ATOM     49  C   UNL A   1      41.098  28.535  28.949  1.00  0.00     0.037 A 
ATOM     50  C   UNL A   1      47.355  28.621  27.117  1.00  0.00     0.049 A 
ATOM     51  C   UNL A   1      42.156  29.605  28.939  1.00  0.00     0.074 A 
ATOM     52  C   UNL A   1      48.219  29.702  27.089  1.00  0.00     0.029 A 
ATOM     53  N   UNL A   1      46.148  29.089  27.616  1.00  0.00    -0.354 N 
ATOM     54  N   UNL A   1      43.398  29.536  28.528  1.00  0.00    -0.248 NA
ATOM     55  C   UNL A   1      41.768  30.925  29.455  1.00  0.00     0.031 C 
ATOM     56  C   UNL A   1      47.549  30.814  27.609  1.00  0.00     0.029 A 
ATOM     57  C   UNL A   1      46.251  30.438  27.918  1.00  0.00     0.049 A 
ATOM     58  H   UNL A   1      45.336  28.544  27.735  1.00  0.00     0.167 HD
ATOM     59  C   UNL A   1      43.931  30.805  28.710  1.00  0.00     0.074 A 
ATOM     60  C   UNL A   1      42.873  31.629  29.254  1.00  0.00     0.031 C 
ATOM     61  C   UNL A   1      45.187  31.246  28.453  1.00  0.00     0.037 A 
BRANCH  48  62
ATOM     62  C   UNL A   1      48.991  26.902  26.268  1.00  0.00     0.064 A 
ATOM     63  C   UNL A   1      49.941  26.377  27.158  1.00  0.00     0.173 A 
ATOM     64  C   UNL A   1      49.359  27.035  24.921  1.00  0.00     0.173 A 
ATOM     65  F   UNL A   1      49.643  26.239  28.460  1.00  0.00    -0.203 F 
ATOM     66  C   UNL A   1      51.214  26.021  26.721  1.00  0.00     0.198 A 
ATOM     67  C   UNL A   1      50.623  26.653  24.482  1.00  0.00     0.198 A 
ATOM     68  F   UNL A   1      48.487  27.526  24.028  1.00  0.00    -0.203 F 
ATOM     69  F   UNL A   1      52.118  25.562  27.597  1.00  0.00    -0.200 F 
ATOM     70  C   UNL A   1      51.551  26.152  25.382  1.00  0.00     0.200 A 
ATOM     71  F   UNL A   1      50.944  26.768  23.186  1.00  0.00    -0.200 F 
ATOM     72  F   UNL A   1      52.774  25.800  24.960  1.00  0.00    -0.200 F 
ENDBRANCH  48  62
BRANCH  49  73
ATOM     73  C   UNL A   1      39.732  28.825  29.458  1.00  0.00     0.064 A 
ATOM     74  C   UNL A   1      39.403  28.599  30.802  1.00  0.00     0.173 A 
ATOM     75  C   UNL A   1      38.726  29.316  28.613  1.00  0.00     0.173 A 
ATOM     76  F   UNL A   1      40.326  28.109  31.642  1.00  0.00    -0.203 F 
ATOM     77  C   UNL A   1      38.115  28.834  31.277  1.00  0.00     0.198 A 
ATOM     78  C   UNL A   1      37.446  29.579  29.096  1.00  0.00     0.198 A 
ATOM     79  F   UNL A   1      38.990  29.553  27.320  1.00  0.00    -0.203 F 
ATOM     80  F   UNL A   1      37.816  28.564  32.555  1.00  0.00    -0.200 F 
ATOM     81  C   UNL A   1      37.138  29.328  30.425  1.00  0.00     0.200 A 
ATOM     82  F   UNL A   1      36.509  30.068  28.274  1.00  0.00    -0.200 F 
ATOM     83  F   UNL A   1      35.900  29.556  30.883  1.00  0.00    -0.200 F 
ENDBRANCH  49  73
BRANCH  61  84
ATOM     84  C   UNL A   1      45.476  32.693  28.729  1.00  0.00     0.064 A 
ATOM     85  C   UNL A   1      45.936  33.124  29.981  1.00  0.00     0.173 A 
ATOM     86  C   UNL A   1      45.324  33.652  27.717  1.00  0.00     0.173 A 
ATOM     87  F   UNL A   1      46.082  32.246  30.986  1.00  0.00    -0.203 F 
ATOM     88  C   UNL A   1      46.211  34.468  30.218  1.00  0.00     0.198 A 
ATOM     89  C   UNL A   1      45.628  34.991  27.949  1.00  0.00     0.198 A 
ATOM     90  F   UNL A   1      44.892  33.291  26.500  1.00  0.00    -0.203 F 
ATOM     91  F   UNL A   1      46.606  34.864  31.436  1.00  0.00    -0.200 F 
ATOM     92  C   UNL A   1      46.065  35.398  29.201  1.00  0.00     0.200 A 
ATOM     93  F   UNL A   1      45.498  35.887  26.961  1.00  0.00    -0.200 F 
ATOM     94  F   UNL A   1      46.337  36.690  29.428  1.00  0.00    -0.200 F 
ENDBRANCH  61  84
ENDBRANCH  35  36
ENDBRANCH  27  30
ENDBRANCH  25  26
ENDBRANCH  24  25
ENDBRANCH  23  24
ENDBRANCH   1  23
TORSDOF 16
ENDMDL
