MODEL 1
REMARK VINA RESULT:     -11.4      0.000      0.000
REMARK SMILES CN(CC1CCC1)C(=O)N(CC(=O)NCCCCNC(=O)c1ccc(-c2c3nc(c(-c4c(F)c(F)c(F)c(F)c4F)c4ccc([nH]4)c(-c4c(F)c(F)c(F)c(F)c4F)c4nc(c(-c5c(F)c(F)c(F)c(F)c5F)c5ccc2[nH]5)C=C4)C=C3)cc1)C(C)(C)C
REMARK SMILES IDX 15 1 14 2 12 3 13 4 11 6 10 7 8 8 9 9 2 10 1 11 3 12 4 13
REMARK SMILES IDX 5 14 7 15 6 16 85 17 86 18 87 19 88 20 16 21 17 22 18 23
REMARK SMILES IDX 19 24 20 25 21 27 22 28 23 29 84 30 24 31 83 32 25 33 26 34
REMARK SMILES IDX 27 35 77 36 28 37 82 38 76 39 78 40 29 41 81 42 75 43 74 44
REMARK SMILES IDX 30 46 62 47 42 48 61 49 43 50 46 51 60 52 79 53 44 54 45 55
REMARK SMILES IDX 59 57 80 58 47 59 31 60 32 61 40 62 33 63 34 64 38 65 41 66
REMARK SMILES IDX 35 67 36 68 39 69 37 70 63 71 64 72 72 73 65 74 66 75 70 76
REMARK SMILES IDX 73 77 67 78 68 79 71 80 69 81 48 82 49 83 57 84 50 85 51 86
REMARK SMILES IDX 55 87 58 88 52 89 53 90 56 91 54 92
REMARK H PARENT 14 5 19 26 78 45 46 56
REMARK Flexibility Score: inf
ROOT
ATOM      1  C   UNL A   1      31.850  29.841  25.284  1.00  0.00     0.116 C 
ENDROOT
BRANCH   1   2
ATOM      2  N   UNL A   1      32.960  29.698  24.360  1.00  0.00    -0.355 N 
ATOM      3  C   UNL A   1      33.606  28.596  23.895  1.00  0.00     0.239 C 
ATOM      4  O   UNL A   1      34.353  28.776  22.924  1.00  0.00    -0.273 OA
ATOM      5  H   UNL A   1      33.306  30.549  24.007  1.00  0.00     0.163 HD
BRANCH   3   6
ATOM      6  C   UNL A   1      33.320  27.161  24.368  1.00  0.00     0.221 C 
BRANCH   6   7
ATOM      7  N   UNL A   1      32.623  26.189  23.529  1.00  0.00    -0.311 N 
BRANCH   7   8
ATOM      8  C   UNL A   1      33.249  25.355  22.603  1.00  0.00     0.320 C 
ATOM      9  O   UNL A   1      33.444  25.775  21.456  1.00  0.00    -0.248 OA
BRANCH   8  10
ATOM     10  N   UNL A   1      33.699  24.069  22.907  1.00  0.00    -0.327 N 
ATOM     11  C   UNL A   1      33.405  23.082  21.865  1.00  0.00     0.148 C 
BRANCH  10  12
ATOM     12  C   UNL A   1      34.093  23.456  24.192  1.00  0.00     0.124 C 
BRANCH  12  13
ATOM     13  C   UNL A   1      35.539  23.826  24.562  1.00  0.00     0.008 C 
ATOM     14  C   UNL A   1      36.149  23.647  25.991  1.00  0.00     0.005 C 
ATOM     15  C   UNL A   1      36.730  22.945  24.089  1.00  0.00     0.005 C 
ATOM     16  C   UNL A   1      37.519  23.478  25.285  1.00  0.00     0.001 C 
ENDBRANCH  12  13
ENDBRANCH  10  12
ENDBRANCH   8  10
ENDBRANCH   7   8
BRANCH   7  17
ATOM     17  C   UNL A   1      31.093  26.253  23.547  1.00  0.00     0.037 C 
ATOM     18  C   UNL A   1      30.539  27.349  22.607  1.00  0.00     0.034 C 
ATOM     19  C   UNL A   1      30.469  24.895  23.145  1.00  0.00     0.034 C 
ATOM     20  C   UNL A   1      30.502  26.567  24.952  1.00  0.00     0.034 C 
ENDBRANCH   7  17
ENDBRANCH   6   7
ENDBRANCH   3   6
ENDBRANCH   1   2
BRANCH   1  21
ATOM     21  C   UNL A   1      32.285  30.289  26.673  1.00  0.00     0.023 C 
BRANCH  21  22
ATOM     22  C   UNL A   1      31.854  31.706  27.052  1.00  0.00     0.023 C 
BRANCH  22  23
ATOM     23  C   UNL A   1      32.976  32.663  27.444  1.00  0.00     0.116 C 
BRANCH  23  24
ATOM     24  N   UNL A   1      32.529  34.028  27.679  1.00  0.00    -0.352 N 
ATOM     25  C   UNL A   1      33.026  34.981  28.544  1.00  0.00     0.251 C 
ATOM     26  H   UNL A   1      31.756  34.314  27.141  1.00  0.00     0.163 HD
ATOM     27  O   UNL A   1      32.481  36.060  28.671  1.00  0.00    -0.269 OA
BRANCH  25  28
ATOM     28  C   UNL A   1      34.212  34.645  29.360  1.00  0.00     0.039 A 
ATOM     29  C   UNL A   1      34.019  34.211  30.672  1.00  0.00     0.014 A 
ATOM     30  C   UNL A   1      35.489  34.672  28.796  1.00  0.00     0.014 A 
ATOM     31  C   UNL A   1      35.101  33.699  31.389  1.00  0.00     0.010 A 
ATOM     32  C   UNL A   1      36.545  34.081  29.479  1.00  0.00     0.010 A 
ATOM     33  C   UNL A   1      36.358  33.574  30.775  1.00  0.00    -0.014 A 
BRANCH  33  34
ATOM     34  C   UNL A   1      37.483  32.884  31.456  1.00  0.00     0.031 A 
ATOM     35  C   UNL A   1      38.148  31.705  30.806  1.00  0.00     0.074 A 
ATOM     36  C   UNL A   1      37.840  33.260  32.701  1.00  0.00     0.049 A 
ATOM     37  N   UNL A   1      39.079  30.915  31.278  1.00  0.00    -0.248 NA
ATOM     38  C   UNL A   1      37.678  31.342  29.460  1.00  0.00     0.031 C 
ATOM     39  C   UNL A   1      37.224  34.343  33.468  1.00  0.00     0.029 A 
ATOM     40  N   UNL A   1      38.799  32.760  33.546  1.00  0.00    -0.354 N 
ATOM     41  C   UNL A   1      39.285  29.950  30.301  1.00  0.00     0.074 A 
ATOM     42  C   UNL A   1      38.348  30.222  29.233  1.00  0.00     0.031 C 
ATOM     43  C   UNL A   1      37.831  34.439  34.661  1.00  0.00     0.029 A 
ATOM     44  C   UNL A   1      38.855  33.404  34.759  1.00  0.00     0.049 A 
ATOM     45  H   UNL A   1      39.392  32.011  33.306  1.00  0.00     0.167 HD
ATOM     46  C   UNL A   1      40.190  28.944  30.287  1.00  0.00     0.037 A 
ATOM     47  C   UNL A   1      39.640  33.180  35.831  1.00  0.00     0.037 A 
ATOM     48  C   UNL A   1      41.147  28.702  31.333  1.00  0.00     0.049 A 
ATOM     49  C   UNL A   1      40.660  32.077  35.775  1.00  0.00     0.074 A 
ATOM     50  C   UNL A   1      42.165  27.766  31.371  1.00  0.00     0.029 A 
ATOM     51  N   UNL A   1      41.204  29.404  32.528  1.00  0.00    -0.354 N 
ATOM     52  N   UNL A   1      40.905  31.226  34.810  1.00  0.00    -0.248 NA
ATOM     53  C   UNL A   1      41.518  31.907  36.957  1.00  0.00     0.031 C 
ATOM     54  C   UNL A   1      42.812  27.872  32.607  1.00  0.00     0.029 A 
ATOM     55  C   UNL A   1      42.226  28.907  33.320  1.00  0.00     0.049 A 
ATOM     56  H   UNL A   1      40.606  30.146  32.776  1.00  0.00     0.167 HD
ATOM     57  C   UNL A   1      41.957  30.437  35.254  1.00  0.00     0.074 A 
ATOM     58  C   UNL A   1      42.314  30.921  36.572  1.00  0.00     0.031 C 
ATOM     59  C   UNL A   1      42.571  29.403  34.627  1.00  0.00     0.037 A 
BRANCH  46  60
ATOM     60  C   UNL A   1      40.191  28.032  29.095  1.00  0.00     0.064 A 
ATOM     61  C   UNL A   1      40.896  28.351  27.925  1.00  0.00     0.173 A 
ATOM     62  C   UNL A   1      39.498  26.814  29.132  1.00  0.00     0.173 A 
ATOM     63  F   UNL A   1      41.564  29.511  27.834  1.00  0.00    -0.203 F 
ATOM     64  C   UNL A   1      40.882  27.499  26.824  1.00  0.00     0.198 A 
ATOM     65  C   UNL A   1      39.510  25.949  28.040  1.00  0.00     0.198 A 
ATOM     66  F   UNL A   1      38.811  26.457  30.229  1.00  0.00    -0.203 F 
ATOM     67  F   UNL A   1      41.518  27.850  25.699  1.00  0.00    -0.200 F 
ATOM     68  C   UNL A   1      40.194  26.296  26.884  1.00  0.00     0.200 A 
ATOM     69  F   UNL A   1      38.855  24.781  28.104  1.00  0.00    -0.200 F 
ATOM     70  F   UNL A   1      40.183  25.475  25.826  1.00  0.00    -0.200 F 
ENDBRANCH  46  60
BRANCH  47  71
ATOM     71  C   UNL A   1      39.509  34.039  37.036  1.00  0.00     0.064 A 
ATOM     72  C   UNL A   1      38.738  33.625  38.132  1.00  0.00     0.173 A 
ATOM     73  C   UNL A   1      40.149  35.283  37.121  1.00  0.00     0.173 A 
ATOM     74  F   UNL A   1      38.090  32.451  38.089  1.00  0.00    -0.203 F 
ATOM     75  C   UNL A   1      38.597  34.432  39.258  1.00  0.00     0.198 A 
ATOM     76  C   UNL A   1      40.030  36.078  38.259  1.00  0.00     0.198 A 
ATOM     77  F   UNL A   1      40.902  35.721  36.102  1.00  0.00    -0.203 F 
ATOM     78  F   UNL A   1      37.820  34.031  40.274  1.00  0.00    -0.200 F 
ATOM     79  C   UNL A   1      39.247  35.655  39.324  1.00  0.00     0.200 A 
ATOM     80  F   UNL A   1      40.670  37.252  38.325  1.00  0.00    -0.200 F 
ATOM     81  F   UNL A   1      39.116  36.428  40.411  1.00  0.00    -0.200 F 
ENDBRANCH  47  71
BRANCH  59  82
ATOM     82  C   UNL A   1      43.709  28.742  35.347  1.00  0.00     0.064 A 
ATOM     83  C   UNL A   1      45.038  29.143  35.144  1.00  0.00     0.173 A 
ATOM     84  C   UNL A   1      43.463  27.727  36.283  1.00  0.00     0.173 A 
ATOM     85  F   UNL A   1      45.325  30.099  34.248  1.00  0.00    -0.203 F 
ATOM     86  C   UNL A   1      46.081  28.537  35.839  1.00  0.00     0.198 A 
ATOM     87  C   UNL A   1      44.506  27.142  36.996  1.00  0.00     0.198 A 
ATOM     88  F   UNL A   1      42.210  27.312  36.517  1.00  0.00    -0.203 F 
ATOM     89  F   UNL A   1      47.346  28.905  35.598  1.00  0.00    -0.200 F 
ATOM     90  C   UNL A   1      45.814  27.543  36.768  1.00  0.00     0.200 A 
ATOM     91  F   UNL A   1      44.245  26.191  37.903  1.00  0.00    -0.200 F 
ATOM     92  F   UNL A   1      46.819  26.965  37.442  1.00  0.00    -0.200 F 
ENDBRANCH  59  82
ENDBRANCH  33  34
ENDBRANCH  25  28
ENDBRANCH  23  24
ENDBRANCH  22  23
ENDBRANCH  21  22
ENDBRANCH   1  21
TORSDOF 17
ENDMDL
MODEL 2
REMARK VINA RESULT:     -11.4      0.130      1.669
REMARK SMILES CN(CC1CCC1)C(=O)N(CC(=O)NCCCCNC(=O)c1ccc(-c2c3nc(c(-c4c(F)c(F)c(F)c(F)c4F)c4ccc([nH]4)c(-c4c(F)c(F)c(F)c(F)c4F)c4nc(c(-c5c(F)c(F)c(F)c(F)c5F)c5ccc2[nH]5)C=C4)C=C3)cc1)C(C)(C)C
REMARK SMILES IDX 15 1 14 2 12 3 13 4 11 6 10 7 8 8 9 9 2 10 1 11 3 12 4 13
REMARK SMILES IDX 5 14 7 15 6 16 85 17 86 18 87 19 88 20 16 21 17 22 18 23
REMARK SMILES IDX 19 24 20 25 21 27 22 28 23 29 84 30 24 31 83 32 25 33 26 34
REMARK SMILES IDX 27 35 77 36 28 37 82 38 76 39 78 40 29 41 81 42 75 43 74 44
REMARK SMILES IDX 30 46 62 47 42 48 61 49 43 50 46 51 60 52 79 53 44 54 45 55
REMARK SMILES IDX 59 57 80 58 47 59 31 60 32 61 40 62 33 63 34 64 38 65 41 66
REMARK SMILES IDX 35 67 36 68 39 69 37 70 63 71 64 72 72 73 65 74 66 75 70 76
REMARK SMILES IDX 73 77 67 78 68 79 71 80 69 81 48 82 49 83 57 84 50 85 51 86
REMARK SMILES IDX 55 87 58 88 52 89 53 90 56 91 54 92
REMARK H PARENT 14 5 19 26 78 45 46 56
REMARK Flexibility Score: inf
ROOT
ATOM      1  C   UNL A   1      31.945  29.735  25.246  1.00  0.00     0.116 C 
ENDROOT
BRANCH   1   2
ATOM      2  N   UNL A   1      33.028  29.614  24.289  1.00  0.00    -0.355 N 
ATOM      3  C   UNL A   1      33.699  28.527  23.823  1.00  0.00     0.239 C 
ATOM      4  O   UNL A   1      34.407  28.715  22.824  1.00  0.00    -0.273 OA
ATOM      5  H   UNL A   1      33.331  30.470  23.909  1.00  0.00     0.163 HD
BRANCH   3   6
ATOM      6  C   UNL A   1      33.481  27.092  24.330  1.00  0.00     0.221 C 
BRANCH   6   7
ATOM      7  N   UNL A   1      32.727  26.101  23.566  1.00  0.00    -0.311 N 
BRANCH   7   8
ATOM      8  C   UNL A   1      33.270  25.300  22.562  1.00  0.00     0.320 C 
ATOM      9  O   UNL A   1      33.437  25.784  21.436  1.00  0.00    -0.248 OA
BRANCH   8  10
ATOM     10  N   UNL A   1      33.668  23.977  22.764  1.00  0.00    -0.327 N 
ATOM     11  C   UNL A   1      33.255  23.069  21.692  1.00  0.00     0.148 C 
BRANCH  10  12
ATOM     12  C   UNL A   1      34.108  23.271  23.985  1.00  0.00     0.124 C 
BRANCH  12  13
ATOM     13  C   UNL A   1      35.474  23.791  24.463  1.00  0.00     0.008 C 
ATOM     14  C   UNL A   1      35.990  23.668  25.934  1.00  0.00     0.005 C 
ATOM     15  C   UNL A   1      36.785  23.045  24.083  1.00  0.00     0.005 C 
ATOM     16  C   UNL A   1      37.420  23.652  25.335  1.00  0.00     0.001 C 
ENDBRANCH  12  13
ENDBRANCH  10  12
ENDBRANCH   8  10
ENDBRANCH   7   8
BRANCH   7  17
ATOM     17  C   UNL A   1      31.208  26.107  23.763  1.00  0.00     0.037 C 
ATOM     18  C   UNL A   1      30.556  24.767  23.352  1.00  0.00     0.034 C 
ATOM     19  C   UNL A   1      30.834  26.408  25.235  1.00  0.00     0.034 C 
ATOM     20  C   UNL A   1      30.480  27.202  22.933  1.00  0.00     0.034 C 
ENDBRANCH   7  17
ENDBRANCH   6   7
ENDBRANCH   3   6
ENDBRANCH   1   2
BRANCH   1  21
ATOM     21  C   UNL A   1      32.400  30.276  26.595  1.00  0.00     0.023 C 
BRANCH  21  22
ATOM     22  C   UNL A   1      31.957  31.710  26.890  1.00  0.00     0.023 C 
BRANCH  22  23
ATOM     23  C   UNL A   1      33.028  32.634  27.465  1.00  0.00     0.116 C 
BRANCH  23  24
ATOM     24  N   UNL A   1      32.561  33.991  27.713  1.00  0.00    -0.352 N 
ATOM     25  C   UNL A   1      33.038  34.939  28.593  1.00  0.00     0.251 C 
ATOM     26  H   UNL A   1      31.790  34.273  27.170  1.00  0.00     0.163 HD
ATOM     27  O   UNL A   1      32.479  36.010  28.728  1.00  0.00    -0.269 OA
BRANCH  25  28
ATOM     28  C   UNL A   1      34.220  34.607  29.417  1.00  0.00     0.039 A 
ATOM     29  C   UNL A   1      34.020  34.114  30.706  1.00  0.00     0.014 A 
ATOM     30  C   UNL A   1      35.505  34.700  28.878  1.00  0.00     0.014 A 
ATOM     31  C   UNL A   1      35.105  33.607  31.421  1.00  0.00     0.010 A 
ATOM     32  C   UNL A   1      36.568  34.115  29.555  1.00  0.00     0.010 A 
ATOM     33  C   UNL A   1      36.377  33.548  30.826  1.00  0.00    -0.014 A 
BRANCH  33  34
ATOM     34  C   UNL A   1      37.512  32.867  31.498  1.00  0.00     0.031 A 
ATOM     35  C   UNL A   1      38.176  31.689  30.847  1.00  0.00     0.074 A 
ATOM     36  C   UNL A   1      37.879  33.251  32.738  1.00  0.00     0.049 A 
ATOM     37  N   UNL A   1      39.116  30.906  31.314  1.00  0.00    -0.248 NA
ATOM     38  C   UNL A   1      37.695  31.318  29.508  1.00  0.00     0.031 C 
ATOM     39  C   UNL A   1      37.264  34.334  33.507  1.00  0.00     0.029 A 
ATOM     40  N   UNL A   1      38.849  32.760  33.576  1.00  0.00    -0.354 N 
ATOM     41  C   UNL A   1      39.318  29.939  30.338  1.00  0.00     0.074 A 
ATOM     42  C   UNL A   1      38.369  30.201  29.278  1.00  0.00     0.031 C 
ATOM     43  C   UNL A   1      37.883  34.438  34.694  1.00  0.00     0.029 A 
ATOM     44  C   UNL A   1      38.913  33.409  34.785  1.00  0.00     0.049 A 
ATOM     45  H   UNL A   1      39.443  32.013  33.334  1.00  0.00     0.167 HD
ATOM     46  C   UNL A   1      40.228  28.937  30.319  1.00  0.00     0.037 A 
ATOM     47  C   UNL A   1      39.709  33.194  35.850  1.00  0.00     0.037 A 
ATOM     48  C   UNL A   1      41.197  28.705  31.357  1.00  0.00     0.049 A 
ATOM     49  C   UNL A   1      40.736  32.096  35.790  1.00  0.00     0.074 A 
ATOM     50  C   UNL A   1      42.221  27.774  31.389  1.00  0.00     0.029 A 
ATOM     51  N   UNL A   1      41.262  29.412  32.549  1.00  0.00    -0.354 N 
ATOM     52  N   UNL A   1      40.976  31.242  34.826  1.00  0.00    -0.248 NA
ATOM     53  C   UNL A   1      41.605  31.936  36.963  1.00  0.00     0.031 C 
ATOM     54  C   UNL A   1      42.878  27.890  32.618  1.00  0.00     0.029 A 
ATOM     55  C   UNL A   1      42.294  28.924  33.332  1.00  0.00     0.049 A 
ATOM     56  H   UNL A   1      40.663  30.152  32.799  1.00  0.00     0.167 HD
ATOM     57  C   UNL A   1      42.036  30.460  35.262  1.00  0.00     0.074 A 
ATOM     58  C   UNL A   1      42.403  30.952  36.575  1.00  0.00     0.031 C 
ATOM     59  C   UNL A   1      42.649  29.428  34.634  1.00  0.00     0.037 A 
BRANCH  46  60
ATOM     60  C   UNL A   1      40.223  28.020  29.131  1.00  0.00     0.064 A 
ATOM     61  C   UNL A   1      39.501  26.817  29.133  1.00  0.00     0.173 A 
ATOM     62  C   UNL A   1      40.930  28.360  27.969  1.00  0.00     0.173 A 
ATOM     63  F   UNL A   1      38.818  26.441  30.224  1.00  0.00    -0.203 F 
ATOM     64  C   UNL A   1      39.512  25.973  28.026  1.00  0.00     0.198 A 
ATOM     65  C   UNL A   1      40.915  27.528  26.852  1.00  0.00     0.198 A 
ATOM     66  F   UNL A   1      41.634  29.501  27.913  1.00  0.00    -0.203 F 
ATOM     67  F   UNL A   1      38.858  24.805  28.071  1.00  0.00    -0.200 F 
ATOM     68  C   UNL A   1      40.214  26.331  26.885  1.00  0.00     0.200 A 
ATOM     69  F   UNL A   1      41.584  27.880  25.746  1.00  0.00    -0.200 F 
ATOM     70  F   UNL A   1      40.221  25.520  25.818  1.00  0.00    -0.200 F 
ENDBRANCH  46  60
BRANCH  47  71
ATOM     71  C   UNL A   1      39.585  34.057  37.054  1.00  0.00     0.064 A 
ATOM     72  C   UNL A   1      40.248  35.290  37.125  1.00  0.00     0.173 A 
ATOM     73  C   UNL A   1      38.804  33.671  38.152  1.00  0.00     0.173 A 
ATOM     74  F   UNL A   1      41.024  35.692  36.107  1.00  0.00    -0.203 F 
ATOM     75  C   UNL A   1      40.150  36.096  38.257  1.00  0.00     0.198 A 
ATOM     76  C   UNL A   1      38.684  34.490  39.273  1.00  0.00     0.198 A 
ATOM     77  F   UNL A   1      38.146  32.504  38.131  1.00  0.00    -0.203 F 
ATOM     78  F   UNL A   1      40.828  37.250  38.315  1.00  0.00    -0.200 F 
ATOM     79  C   UNL A   1      39.364  35.699  39.328  1.00  0.00     0.200 A 
ATOM     80  F   UNL A   1      37.914  34.109  40.300  1.00  0.00    -0.200 F 
ATOM     81  F   UNL A   1      39.264  36.477  40.414  1.00  0.00    -0.200 F 
ENDBRANCH  47  71
BRANCH  59  82
ATOM     82  C   UNL A   1      43.798  28.776  35.345  1.00  0.00     0.064 A 
ATOM     83  C   UNL A   1      45.117  29.219  35.171  1.00  0.00     0.173 A 
ATOM     84  C   UNL A   1      43.570  27.725  36.246  1.00  0.00     0.173 A 
ATOM     85  F   UNL A   1      45.386  30.211  34.308  1.00  0.00    -0.203 F 
ATOM     86  C   UNL A   1      46.170  28.621  35.857  1.00  0.00     0.198 A 
ATOM     87  C   UNL A   1      44.622  27.146  36.952  1.00  0.00     0.198 A 
ATOM     88  F   UNL A   1      42.327  27.268  36.453  1.00  0.00    -0.203 F 
ATOM     89  F   UNL A   1      47.426  29.031  35.642  1.00  0.00    -0.200 F 
ATOM     90  C   UNL A   1      45.921  27.590  36.752  1.00  0.00     0.200 A 
ATOM     91  F   UNL A   1      44.378  26.160  37.826  1.00  0.00    -0.200 F 
ATOM     92  F   UNL A   1      46.934  27.020  37.418  1.00  0.00    -0.200 F 
ENDBRANCH  59  82
ENDBRANCH  33  34
ENDBRANCH  25  28
ENDBRANCH  23  24
ENDBRANCH  22  23
ENDBRANCH  21  22
ENDBRANCH   1  21
TORSDOF 17
ENDMDL
MODEL 3
REMARK VINA RESULT:     -11.2      6.069     11.252
REMARK SMILES CN(CC1CCC1)C(=O)N(CC(=O)NCCCCNC(=O)c1ccc(-c2c3nc(c(-c4c(F)c(F)c(F)c(F)c4F)c4ccc([nH]4)c(-c4c(F)c(F)c(F)c(F)c4F)c4nc(c(-c5c(F)c(F)c(F)c(F)c5F)c5ccc2[nH]5)C=C4)C=C3)cc1)C(C)(C)C
REMARK SMILES IDX 15 1 14 2 12 3 13 4 11 6 10 7 8 8 9 9 2 10 1 11 3 12 4 13
REMARK SMILES IDX 5 14 7 15 6 16 85 17 86 18 87 19 88 20 16 21 17 22 18 23
REMARK SMILES IDX 19 24 20 25 21 27 22 28 23 29 84 30 24 31 83 32 25 33 26 34
REMARK SMILES IDX 27 35 77 36 28 37 82 38 76 39 78 40 29 41 81 42 75 43 74 44
REMARK SMILES IDX 30 46 62 47 42 48 61 49 43 50 46 51 60 52 79 53 44 54 45 55
REMARK SMILES IDX 59 57 80 58 47 59 31 60 32 61 40 62 33 63 34 64 38 65 41 66
REMARK SMILES IDX 35 67 36 68 39 69 37 70 63 71 64 72 72 73 65 74 66 75 70 76
REMARK SMILES IDX 73 77 67 78 68 79 71 80 69 81 48 82 49 83 57 84 50 85 51 86
REMARK SMILES IDX 55 87 58 88 52 89 53 90 56 91 54 92
REMARK H PARENT 14 5 19 26 78 45 46 56
REMARK Flexibility Score: inf
ROOT
ATOM      1  C   UNL A   1      35.901  21.783  24.928  1.00  0.00     0.116 C 
ENDROOT
BRANCH   1   2
ATOM      2  N   UNL A   1      35.433  21.797  26.301  1.00  0.00    -0.355 N 
ATOM      3  C   UNL A   1      34.420  22.477  26.899  1.00  0.00     0.239 C 
ATOM      4  O   UNL A   1      34.105  22.094  28.033  1.00  0.00    -0.273 OA
ATOM      5  H   UNL A   1      35.939  21.209  26.907  1.00  0.00     0.163 HD
BRANCH   3   6
ATOM      6  C   UNL A   1      33.548  23.528  26.193  1.00  0.00     0.221 C 
BRANCH   6   7
ATOM      7  N   UNL A   1      32.454  23.159  25.296  1.00  0.00    -0.311 N 
BRANCH   7   8
ATOM      8  C   UNL A   1      31.847  21.904  25.269  1.00  0.00     0.320 C 
ATOM      9  O   UNL A   1      30.712  21.778  25.745  1.00  0.00    -0.248 OA
BRANCH   8  10
ATOM     10  N   UNL A   1      32.441  20.774  24.703  1.00  0.00    -0.327 N 
ATOM     11  C   UNL A   1      32.259  20.680  23.252  1.00  0.00     0.148 C 
BRANCH  10  12
ATOM     12  C   UNL A   1      32.904  19.511  25.312  1.00  0.00     0.124 C 
BRANCH  12  13
ATOM     13  C   UNL A   1      33.446  18.547  24.243  1.00  0.00     0.008 C 
ATOM     14  C   UNL A   1      34.834  17.834  24.332  1.00  0.00     0.005 C 
ATOM     15  C   UNL A   1      32.867  17.110  24.103  1.00  0.00     0.005 C 
ATOM     16  C   UNL A   1      34.204  16.699  23.484  1.00  0.00     0.001 C 
ENDBRANCH  12  13
ENDBRANCH  10  12
ENDBRANCH   8  10
ENDBRANCH   7   8
BRANCH   7  17
ATOM     17  C   UNL A   1      32.113  24.167  24.194  1.00  0.00     0.037 C 
ATOM     18  C   UNL A   1      31.993  25.611  24.734  1.00  0.00     0.034 C 
ATOM     19  C   UNL A   1      33.173  24.147  23.066  1.00  0.00     0.034 C 
ATOM     20  C   UNL A   1      30.762  23.871  23.481  1.00  0.00     0.034 C 
ENDBRANCH   7  17
ENDBRANCH   6   7
ENDBRANCH   3   6
ENDBRANCH   1   2
BRANCH   1  21
ATOM     21  C   UNL A   1      37.417  21.880  24.813  1.00  0.00     0.023 C 
BRANCH  21  22
ATOM     22  C   UNL A   1      38.158  20.559  25.021  1.00  0.00     0.023 C 
BRANCH  22  23
ATOM     23  C   UNL A   1      39.330  20.597  25.999  1.00  0.00     0.116 C 
BRANCH  23  24
ATOM     24  N   UNL A   1      40.182  19.418  25.942  1.00  0.00    -0.352 N 
ATOM     25  C   UNL A   1      41.545  19.307  26.121  1.00  0.00     0.251 C 
ATOM     26  H   UNL A   1      39.715  18.574  25.747  1.00  0.00     0.163 HD
ATOM     27  O   UNL A   1      42.115  18.245  25.964  1.00  0.00    -0.269 OA
BRANCH  25  28
ATOM     28  C   UNL A   1      42.315  20.523  26.457  1.00  0.00     0.039 A 
ATOM     29  C   UNL A   1      42.910  21.245  25.422  1.00  0.00     0.014 A 
ATOM     30  C   UNL A   1      42.364  20.988  27.772  1.00  0.00     0.014 A 
ATOM     31  C   UNL A   1      43.465  22.496  25.692  1.00  0.00     0.010 A 
ATOM     32  C   UNL A   1      42.837  22.270  28.022  1.00  0.00     0.010 A 
ATOM     33  C   UNL A   1      43.378  23.044  26.982  1.00  0.00    -0.014 A 
BRANCH  33  34
ATOM     34  C   UNL A   1      43.812  24.436  27.261  1.00  0.00     0.031 A 
ATOM     35  C   UNL A   1      42.819  25.452  27.746  1.00  0.00     0.074 A 
ATOM     36  C   UNL A   1      45.079  24.807  26.984  1.00  0.00     0.049 A 
ATOM     37  N   UNL A   1      42.982  26.735  27.954  1.00  0.00    -0.248 NA
ATOM     38  C   UNL A   1      41.452  24.972  27.994  1.00  0.00     0.031 C 
ATOM     39  C   UNL A   1      46.118  23.931  26.441  1.00  0.00     0.029 A 
ATOM     40  N   UNL A   1      45.702  26.024  27.105  1.00  0.00    -0.354 N 
ATOM     41  C   UNL A   1      41.735  27.214  28.331  1.00  0.00     0.074 A 
ATOM     42  C   UNL A   1      40.815  26.099  28.274  1.00  0.00     0.031 C 
ATOM     43  C   UNL A   1      47.254  24.633  26.295  1.00  0.00     0.029 A 
ATOM     44  C   UNL A   1      47.015  26.015  26.699  1.00  0.00     0.049 A 
ATOM     45  H   UNL A   1      45.251  26.828  27.451  1.00  0.00     0.167 HD
ATOM     46  C   UNL A   1      41.394  28.467  28.714  1.00  0.00     0.037 A 
ATOM     47  C   UNL A   1      47.921  27.010  26.652  1.00  0.00     0.037 A 
ATOM     48  C   UNL A   1      42.319  29.565  28.809  1.00  0.00     0.049 A 
ATOM     49  C   UNL A   1      47.525  28.385  27.115  1.00  0.00     0.074 A 
ATOM     50  C   UNL A   1      42.092  30.848  29.273  1.00  0.00     0.029 A 
ATOM     51  N   UNL A   1      43.653  29.506  28.432  1.00  0.00    -0.354 N 
ATOM     52  N   UNL A   1      46.365  28.808  27.553  1.00  0.00    -0.248 NA
ATOM     53  C   UNL A   1      48.567  29.421  27.083  1.00  0.00     0.031 C 
ATOM     54  C   UNL A   1      43.277  31.579  29.137  1.00  0.00     0.029 A 
ATOM     55  C   UNL A   1      44.255  30.737  28.633  1.00  0.00     0.049 A 
ATOM     56  H   UNL A   1      44.105  28.707  28.075  1.00  0.00     0.167 HD
ATOM     57  C   UNL A   1      46.540  30.147  27.871  1.00  0.00     0.074 A 
ATOM     58  C   UNL A   1      47.926  30.464  27.589  1.00  0.00     0.031 C 
ATOM     59  C   UNL A   1      45.636  31.035  28.351  1.00  0.00     0.037 A 
BRANCH  46  60
ATOM     60  C   UNL A   1      39.956  28.716  29.066  1.00  0.00     0.064 A 
ATOM     61  C   UNL A   1      39.033  29.174  28.114  1.00  0.00     0.173 A 
ATOM     62  C   UNL A   1      39.491  28.470  30.366  1.00  0.00     0.173 A 
ATOM     63  F   UNL A   1      39.431  29.436  26.860  1.00  0.00    -0.203 F 
ATOM     64  C   UNL A   1      37.705  29.408  28.458  1.00  0.00     0.198 A 
ATOM     65  C   UNL A   1      38.154  28.676  30.700  1.00  0.00     0.198 A 
ATOM     66  F   UNL A   1      40.331  28.027  31.314  1.00  0.00    -0.203 F 
ATOM     67  F   UNL A   1      36.854  29.896  27.545  1.00  0.00    -0.200 F 
ATOM     68  C   UNL A   1      37.265  29.153  29.748  1.00  0.00     0.200 A 
ATOM     69  F   UNL A   1      37.728  28.418  31.944  1.00  0.00    -0.200 F 
ATOM     70  F   UNL A   1      35.985  29.375  30.078  1.00  0.00    -0.200 F 
ENDBRANCH  46  60
BRANCH  47  71
ATOM     71  C   UNL A   1      49.301  26.733  26.174  1.00  0.00     0.064 A 
ATOM     72  C   UNL A   1      50.273  26.222  27.045  1.00  0.00     0.173 A 
ATOM     73  C   UNL A   1      49.674  26.970  24.844  1.00  0.00     0.173 A 
ATOM     74  F   UNL A   1      49.968  26.000  28.332  1.00  0.00    -0.203 F 
ATOM     75  C   UNL A   1      51.573  25.977  26.608  1.00  0.00     0.198 A 
ATOM     76  C   UNL A   1      50.967  26.698  24.401  1.00  0.00     0.198 A 
ATOM     77  F   UNL A   1      48.779  27.452  23.971  1.00  0.00    -0.203 F 
ATOM     78  F   UNL A   1      52.494  25.528  27.472  1.00  0.00    -0.200 F 
ATOM     79  C   UNL A   1      51.918  26.209  25.285  1.00  0.00     0.200 A 
ATOM     80  F   UNL A   1      51.293  26.911  23.119  1.00  0.00    -0.200 F 
ATOM     81  F   UNL A   1      53.167  25.966  24.864  1.00  0.00    -0.200 F 
ENDBRANCH  47  71
BRANCH  59  82
ATOM     82  C   UNL A   1      46.120  32.427  28.628  1.00  0.00     0.064 A 
ATOM     83  C   UNL A   1      46.686  32.777  29.862  1.00  0.00     0.173 A 
ATOM     84  C   UNL A   1      46.059  33.411  27.629  1.00  0.00     0.173 A 
ATOM     85  F   UNL A   1      46.752  31.874  30.853  1.00  0.00    -0.203 F 
ATOM     86  C   UNL A   1      47.154  34.067  30.095  1.00  0.00     0.198 A 
ATOM     87  C   UNL A   1      46.554  34.693  27.856  1.00  0.00     0.198 A 
ATOM     88  F   UNL A   1      45.533  33.126  26.430  1.00  0.00    -0.203 F 
ATOM     89  F   UNL A   1      47.650  34.390  31.297  1.00  0.00    -0.200 F 
ATOM     90  C   UNL A   1      47.094  35.021  29.091  1.00  0.00     0.200 A 
ATOM     91  F   UNL A   1      46.507  35.610  26.880  1.00  0.00    -0.200 F 
ATOM     92  F   UNL A   1      47.552  36.260  29.314  1.00  0.00    -0.200 F 
ENDBRANCH  59  82
ENDBRANCH  33  34
ENDBRANCH  25  28
ENDBRANCH  23  24
ENDBRANCH  22  23
ENDBRANCH  21  22
ENDBRANCH   1  21
TORSDOF 17
ENDMDL
