MODEL 1
REMARK VINA RESULT:     -12.7      0.000      0.000
REMARK SMILES O=C(NCCCCNC(=O)[C@@H]1C=C[C@H](NC(=O)c2ccc(Br)cc2)C1)c1ccc(-c2c3nc(c(-c4c(F)c(F)c(F)c(F)c4F)c4ccc([nH]4)c(-c4c(F)c(F)c(F)c(F)c4F)c4nc(c(-c5c(F)c(F)c(F)c(F)c5F)c5ccc2[nH]5)C=C4)C=C3)cc1
REMARK SMILES IDX 5 1 4 2 3 3 1 4 2 5 26 7 27 8 88 9 28 10 87 11 29 12 30 13
REMARK SMILES IDX 31 14 81 15 32 16 86 17 80 18 82 19 33 20 85 21 79 22 78 23
REMARK SMILES IDX 34 25 66 26 46 27 65 28 47 29 50 30 64 31 83 32 48 33 49 34
REMARK SMILES IDX 63 36 84 37 51 38 35 39 36 40 44 41 37 42 38 43 42 44 45 45
REMARK SMILES IDX 39 46 40 47 43 48 41 49 67 50 68 51 76 52 69 53 70 54 74 55
REMARK SMILES IDX 77 56 71 57 72 58 75 59 73 60 52 61 53 62 61 63 54 64 55 65
REMARK SMILES IDX 59 66 62 67 56 68 57 69 60 70 58 71 6 72 7 73 8 74 9 75
REMARK SMILES IDX 10 77 11 78 12 79 25 80 13 81 14 82 15 83 16 84 17 86 18 87
REMARK SMILES IDX 19 88 24 89 20 90 23 91 21 92 22 93
REMARK H PARENT 3 6 82 24 50 35 8 76 15 85
REMARK Flexibility Score: inf
ROOT
ATOM      1  C   UNL A   1      31.436  32.296  26.746  1.00  0.00     0.023 C 
ENDROOT
BRANCH   1   2
ATOM      2  C   UNL A   1      32.691  33.048  27.173  1.00  0.00     0.116 C 
BRANCH   2   3
ATOM      3  N   UNL A   1      32.411  34.368  27.716  1.00  0.00    -0.352 N 
ATOM      4  O   UNL A   1      32.576  36.087  29.172  1.00  0.00    -0.269 OA
ATOM      5  C   UNL A   1      33.023  35.019  28.762  1.00  0.00     0.251 C 
ATOM      6  H   UNL A   1      31.685  34.864  27.272  1.00  0.00     0.163 HD
BRANCH   5   7
ATOM      7  C   UNL A   1      34.207  34.415  29.412  1.00  0.00     0.039 A 
ATOM      8  C   UNL A   1      35.486  34.638  28.901  1.00  0.00     0.014 A 
ATOM      9  C   UNL A   1      34.035  33.616  30.547  1.00  0.00     0.014 A 
ATOM     10  C   UNL A   1      36.569  33.946  29.431  1.00  0.00     0.010 A 
ATOM     11  C   UNL A   1      35.140  32.991  31.134  1.00  0.00     0.010 A 
ATOM     12  C   UNL A   1      36.414  33.128  30.563  1.00  0.00    -0.014 A 
BRANCH  12  13
ATOM     13  C   UNL A   1      37.620  32.497  31.158  1.00  0.00     0.031 A 
ATOM     14  C   UNL A   1      38.095  32.853  32.537  1.00  0.00     0.074 A 
ATOM     15  C   UNL A   1      38.251  31.540  30.450  1.00  0.00     0.049 A 
ATOM     16  N   UNL A   1      39.086  32.339  33.224  1.00  0.00    -0.248 NA
ATOM     17  C   UNL A   1      37.376  33.926  33.239  1.00  0.00     0.031 C 
ATOM     18  C   UNL A   1      37.892  31.128  29.090  1.00  0.00     0.029 A 
ATOM     19  N   UNL A   1      39.298  30.718  30.778  1.00  0.00    -0.354 N 
ATOM     20  C   UNL A   1      39.113  33.026  34.430  1.00  0.00     0.074 A 
ATOM     21  C   UNL A   1      38.060  34.017  34.373  1.00  0.00     0.031 C 
ATOM     22  C   UNL A   1      38.664  30.096  28.723  1.00  0.00     0.029 A 
ATOM     23  C   UNL A   1      39.610  29.812  29.795  1.00  0.00     0.049 A 
ATOM     24  H   UNL A   1      39.779  30.774  31.635  1.00  0.00     0.167 HD
ATOM     25  C   UNL A   1      39.938  32.837  35.490  1.00  0.00     0.037 A 
ATOM     26  C   UNL A   1      40.561  28.860  29.755  1.00  0.00     0.037 A 
ATOM     27  C   UNL A   1      40.979  31.841  35.544  1.00  0.00     0.049 A 
ATOM     28  C   UNL A   1      41.458  28.679  30.944  1.00  0.00     0.074 A 
ATOM     29  C   UNL A   1      41.857  31.564  36.580  1.00  0.00     0.029 A 
ATOM     30  N   UNL A   1      41.284  30.958  34.519  1.00  0.00    -0.354 N 
ATOM     31  N   UNL A   1      41.455  29.320  32.087  1.00  0.00    -0.248 NA
ATOM     32  C   UNL A   1      42.493  27.642  30.838  1.00  0.00     0.031 C 
ATOM     33  C   UNL A   1      42.715  30.539  36.168  1.00  0.00     0.029 A 
ATOM     34  C   UNL A   1      42.345  30.146  34.892  1.00  0.00     0.049 A 
ATOM     35  H   UNL A   1      40.815  30.913  33.654  1.00  0.00     0.167 HD
ATOM     36  C   UNL A   1      42.480  28.765  32.837  1.00  0.00     0.074 A 
ATOM     37  C   UNL A   1      43.059  27.708  32.033  1.00  0.00     0.031 C 
ATOM     38  C   UNL A   1      42.914  29.106  34.074  1.00  0.00     0.037 A 
BRANCH  25  39
ATOM     39  C   UNL A   1      39.757  33.724  36.687  1.00  0.00     0.064 A 
ATOM     40  C   UNL A   1      40.365  34.986  36.763  1.00  0.00     0.173 A 
ATOM     41  C   UNL A   1      38.903  33.345  37.735  1.00  0.00     0.173 A 
ATOM     42  F   UNL A   1      41.198  35.393  35.793  1.00  0.00    -0.203 F 
ATOM     43  C   UNL A   1      40.133  35.830  37.847  1.00  0.00     0.198 A 
ATOM     44  C   UNL A   1      38.655  34.201  38.805  1.00  0.00     0.198 A 
ATOM     45  F   UNL A   1      38.290  32.151  37.708  1.00  0.00    -0.203 F 
ATOM     46  F   UNL A   1      40.747  37.020  37.910  1.00  0.00    -0.200 F 
ATOM     47  C   UNL A   1      39.271  35.441  38.862  1.00  0.00     0.200 A 
ATOM     48  F   UNL A   1      37.812  33.828  39.778  1.00  0.00    -0.200 F 
ATOM     49  F   UNL A   1      39.038  36.261  39.896  1.00  0.00    -0.200 F 
ENDBRANCH  25  39
BRANCH  26  50
ATOM     50  C   UNL A   1      40.715  28.018  28.541  1.00  0.00     0.064 A 
ATOM     51  C   UNL A   1      41.508  28.434  27.464  1.00  0.00     0.173 A 
ATOM     52  C   UNL A   1      40.068  26.777  28.435  1.00  0.00     0.173 A 
ATOM     53  F   UNL A   1      42.132  29.621  27.511  1.00  0.00    -0.203 F 
ATOM     54  C   UNL A   1      41.633  27.651  26.318  1.00  0.00     0.198 A 
ATOM     55  C   UNL A   1      40.220  25.980  27.304  1.00  0.00     0.198 A 
ATOM     56  F   UNL A   1      39.301  26.331  29.441  1.00  0.00    -0.203 F 
ATOM     57  F   UNL A   1      42.359  28.094  25.284  1.00  0.00    -0.200 F 
ATOM     58  C   UNL A   1      40.995  26.422  26.242  1.00  0.00     0.200 A 
ATOM     59  F   UNL A   1      39.616  24.786  27.243  1.00  0.00    -0.200 F 
ATOM     60  F   UNL A   1      41.119  25.667  25.143  1.00  0.00    -0.200 F 
ENDBRANCH  26  50
BRANCH  38  61
ATOM     61  C   UNL A   1      44.065  28.319  34.627  1.00  0.00     0.064 A 
ATOM     62  C   UNL A   1      45.391  28.738  34.441  1.00  0.00     0.173 A 
ATOM     63  C   UNL A   1      43.842  27.138  35.348  1.00  0.00     0.173 A 
ATOM     64  F   UNL A   1      45.656  29.853  33.744  1.00  0.00    -0.203 F 
ATOM     65  C   UNL A   1      46.453  27.981  34.926  1.00  0.00     0.198 A 
ATOM     66  C   UNL A   1      44.906  26.398  35.856  1.00  0.00     0.198 A 
ATOM     67  F   UNL A   1      42.591  26.698  35.555  1.00  0.00    -0.203 F 
ATOM     68  F   UNL A   1      47.714  28.368  34.686  1.00  0.00    -0.200 F 
ATOM     69  C   UNL A   1      46.211  26.815  35.636  1.00  0.00     0.200 A 
ATOM     70  F   UNL A   1      44.669  25.276  36.550  1.00  0.00    -0.200 F 
ATOM     71  F   UNL A   1      47.235  26.084  36.097  1.00  0.00    -0.200 F 
ENDBRANCH  38  61
ENDBRANCH  12  13
ENDBRANCH   5   7
ENDBRANCH   2   3
ENDBRANCH   1   2
BRANCH   1  72
ATOM     72  C   UNL A   1      31.648  30.817  26.402  1.00  0.00     0.023 C 
BRANCH  72  73
ATOM     73  C   UNL A   1      33.099  30.345  26.508  1.00  0.00     0.116 C 
BRANCH  73  74
ATOM     74  N   UNL A   1      33.527  29.680  25.290  1.00  0.00    -0.356 N 
ATOM     75  C   UNL A   1      33.604  28.340  25.019  1.00  0.00     0.227 C 
ATOM     76  H   UNL A   1      33.800  30.276  24.556  1.00  0.00     0.163 HD
ATOM     77  O   UNL A   1      34.153  27.996  23.973  1.00  0.00    -0.274 OA
BRANCH  75  78
ATOM     78  C   UNL A   1      32.944  27.357  25.990  1.00  0.00     0.103 C 
ATOM     79  C   UNL A   1      33.555  25.989  26.005  1.00  0.00    -0.016 C 
ATOM     80  C   UNL A   1      31.514  27.054  25.520  1.00  0.00     0.047 C 
ATOM     81  C   UNL A   1      32.796  25.102  25.349  1.00  0.00    -0.006 C 
ATOM     82  C   UNL A   1      31.599  25.749  24.712  1.00  0.00     0.106 C 
BRANCH  82  83
ATOM     83  N   UNL A   1      31.918  25.872  23.302  1.00  0.00    -0.346 N 
ATOM     84  C   UNL A   1      31.262  26.549  22.311  1.00  0.00     0.251 C 
ATOM     85  H   UNL A   1      32.731  25.396  23.015  1.00  0.00     0.164 HD
ATOM     86  O   UNL A   1      31.414  26.254  21.129  1.00  0.00    -0.269 OA
BRANCH  84  87
ATOM     87  C   UNL A   1      30.401  27.688  22.653  1.00  0.00     0.039 A 
ATOM     88  C   UNL A   1      30.915  28.982  22.519  1.00  0.00     0.015 A 
ATOM     89  C   UNL A   1      29.057  27.485  22.972  1.00  0.00     0.015 A 
ATOM     90  C   UNL A   1      30.106  30.082  22.799  1.00  0.00     0.016 A 
ATOM     91  C   UNL A   1      28.242  28.589  23.234  1.00  0.00     0.016 A 
ATOM     92  C   UNL A   1      28.774  29.879  23.161  1.00  0.00     0.018 A 
ATOM     93  Br  UNL A   1      27.678  31.372  23.538  1.00  0.00    -0.051 Br
ENDBRANCH  84  87
ENDBRANCH  82  83
ENDBRANCH  75  78
ENDBRANCH  73  74
ENDBRANCH  72  73
ENDBRANCH   1  72
TORSDOF 13
ENDMDL
MODEL 2
REMARK VINA RESULT:     -12.5      0.180      1.611
REMARK SMILES O=C(NCCCCNC(=O)[C@@H]1C=C[C@H](NC(=O)c2ccc(Br)cc2)C1)c1ccc(-c2c3nc(c(-c4c(F)c(F)c(F)c(F)c4F)c4ccc([nH]4)c(-c4c(F)c(F)c(F)c(F)c4F)c4nc(c(-c5c(F)c(F)c(F)c(F)c5F)c5ccc2[nH]5)C=C4)C=C3)cc1
REMARK SMILES IDX 5 1 4 2 3 3 1 4 2 5 26 7 27 8 88 9 28 10 87 11 29 12 30 13
REMARK SMILES IDX 31 14 81 15 32 16 86 17 80 18 82 19 33 20 85 21 79 22 78 23
REMARK SMILES IDX 34 25 66 26 46 27 65 28 47 29 50 30 64 31 83 32 48 33 49 34
REMARK SMILES IDX 63 36 84 37 51 38 35 39 36 40 44 41 37 42 38 43 42 44 45 45
REMARK SMILES IDX 39 46 40 47 43 48 41 49 67 50 68 51 76 52 69 53 70 54 74 55
REMARK SMILES IDX 77 56 71 57 72 58 75 59 73 60 52 61 53 62 61 63 54 64 55 65
REMARK SMILES IDX 59 66 62 67 56 68 57 69 60 70 58 71 6 72 7 73 8 74 9 75
REMARK SMILES IDX 10 77 11 78 12 79 25 80 13 81 14 82 15 83 16 84 17 86 18 87
REMARK SMILES IDX 19 88 24 89 20 90 23 91 21 92 22 93
REMARK H PARENT 3 6 82 24 50 35 8 76 15 85
REMARK Flexibility Score: inf
ROOT
ATOM      1  C   UNL A   1      31.403  32.508  26.504  1.00  0.00     0.023 C 
ENDROOT
BRANCH   1   2
ATOM      2  C   UNL A   1      32.589  33.105  27.252  1.00  0.00     0.116 C 
BRANCH   2   3
ATOM      3  N   UNL A   1      32.337  34.449  27.748  1.00  0.00    -0.352 N 
ATOM      4  O   UNL A   1      32.546  36.216  29.139  1.00  0.00    -0.269 OA
ATOM      5  C   UNL A   1      32.970  35.126  28.764  1.00  0.00     0.251 C 
ATOM      6  H   UNL A   1      31.614  34.941  27.295  1.00  0.00     0.163 HD
BRANCH   5   7
ATOM      7  C   UNL A   1      34.151  34.527  29.424  1.00  0.00     0.039 A 
ATOM      8  C   UNL A   1      35.422  34.666  28.864  1.00  0.00     0.014 A 
ATOM      9  C   UNL A   1      33.985  33.816  30.617  1.00  0.00     0.014 A 
ATOM     10  C   UNL A   1      36.496  33.974  29.413  1.00  0.00     0.010 A 
ATOM     11  C   UNL A   1      35.084  33.194  31.218  1.00  0.00     0.010 A 
ATOM     12  C   UNL A   1      36.345  33.243  30.604  1.00  0.00    -0.014 A 
BRANCH  12  13
ATOM     13  C   UNL A   1      37.545  32.612  31.210  1.00  0.00     0.031 A 
ATOM     14  C   UNL A   1      38.021  32.984  32.585  1.00  0.00     0.074 A 
ATOM     15  C   UNL A   1      38.170  31.640  30.516  1.00  0.00     0.049 A 
ATOM     16  N   UNL A   1      39.006  32.472  33.281  1.00  0.00    -0.248 NA
ATOM     17  C   UNL A   1      37.309  34.073  33.270  1.00  0.00     0.031 C 
ATOM     18  C   UNL A   1      37.811  31.212  29.162  1.00  0.00     0.029 A 
ATOM     19  N   UNL A   1      39.211  30.816  30.858  1.00  0.00    -0.354 N 
ATOM     20  C   UNL A   1      39.037  33.176  34.477  1.00  0.00     0.074 A 
ATOM     21  C   UNL A   1      37.991  34.174  34.405  1.00  0.00     0.031 C 
ATOM     22  C   UNL A   1      38.575  30.169  28.811  1.00  0.00     0.029 A 
ATOM     23  C   UNL A   1      39.518  29.893  29.889  1.00  0.00     0.049 A 
ATOM     24  H   UNL A   1      39.691  30.880  31.715  1.00  0.00     0.167 HD
ATOM     25  C   UNL A   1      39.858  32.996  35.541  1.00  0.00     0.037 A 
ATOM     26  C   UNL A   1      40.461  28.934  29.864  1.00  0.00     0.037 A 
ATOM     27  C   UNL A   1      40.892  31.994  35.611  1.00  0.00     0.049 A 
ATOM     28  C   UNL A   1      41.355  28.763  31.057  1.00  0.00     0.074 A 
ATOM     29  C   UNL A   1      41.766  31.725  36.652  1.00  0.00     0.029 A 
ATOM     30  N   UNL A   1      41.192  31.094  34.599  1.00  0.00    -0.354 N 
ATOM     31  N   UNL A   1      41.355  29.420  32.191  1.00  0.00    -0.248 NA
ATOM     32  C   UNL A   1      42.382  27.716  30.967  1.00  0.00     0.031 C 
ATOM     33  C   UNL A   1      42.617  30.687  36.256  1.00  0.00     0.029 A 
ATOM     34  C   UNL A   1      42.246  30.279  34.985  1.00  0.00     0.049 A 
ATOM     35  H   UNL A   1      40.724  31.040  33.734  1.00  0.00     0.167 HD
ATOM     36  C   UNL A   1      42.375  28.868  32.950  1.00  0.00     0.074 A 
ATOM     37  C   UNL A   1      42.947  27.795  32.163  1.00  0.00     0.031 C 
ATOM     38  C   UNL A   1      42.809  29.224  34.183  1.00  0.00     0.037 A 
BRANCH  25  39
ATOM     39  C   UNL A   1      39.682  33.901  36.725  1.00  0.00     0.064 A 
ATOM     40  C   UNL A   1      38.898  33.524  37.826  1.00  0.00     0.173 A 
ATOM     41  C   UNL A   1      40.367  35.125  36.798  1.00  0.00     0.173 A 
ATOM     42  F   UNL A   1      38.214  32.370  37.804  1.00  0.00    -0.203 F 
ATOM     43  C   UNL A   1      38.799  34.342  38.949  1.00  0.00     0.198 A 
ATOM     44  C   UNL A   1      40.285  35.928  37.931  1.00  0.00     0.198 A 
ATOM     45  F   UNL A   1      41.137  35.529  35.775  1.00  0.00    -0.203 F 
ATOM     46  F   UNL A   1      38.022  33.973  39.978  1.00  0.00    -0.200 F 
ATOM     47  C   UNL A   1      39.500  35.538  39.005  1.00  0.00     0.200 A 
ATOM     48  F   UNL A   1      40.972  37.077  37.988  1.00  0.00    -0.200 F 
ATOM     49  F   UNL A   1      39.415  36.316  40.093  1.00  0.00    -0.200 F 
ENDBRANCH  25  39
BRANCH  26  50
ATOM     50  C   UNL A   1      40.610  28.074  28.662  1.00  0.00     0.064 A 
ATOM     51  C   UNL A   1      39.956  26.839  28.567  1.00  0.00     0.173 A 
ATOM     52  C   UNL A   1      41.412  28.474  27.582  1.00  0.00     0.173 A 
ATOM     53  F   UNL A   1      39.193  26.405  29.582  1.00  0.00    -0.203 F 
ATOM     54  C   UNL A   1      40.116  26.025  27.447  1.00  0.00     0.198 A 
ATOM     55  C   UNL A   1      41.545  27.675  26.449  1.00  0.00     0.198 A 
ATOM     56  F   UNL A   1      42.055  29.650  27.620  1.00  0.00    -0.203 F 
ATOM     57  F   UNL A   1      39.517  24.828  27.403  1.00  0.00    -0.200 F 
ATOM     58  C   UNL A   1      40.903  26.447  26.387  1.00  0.00     0.200 A 
ATOM     59  F   UNL A   1      42.292  28.095  25.420  1.00  0.00    -0.200 F 
ATOM     60  F   UNL A   1      41.052  25.667  25.308  1.00  0.00    -0.200 F 
ENDBRANCH  26  50
BRANCH  38  61
ATOM     61  C   UNL A   1      43.953  28.436  34.749  1.00  0.00     0.064 A 
ATOM     62  C   UNL A   1      45.283  28.842  34.560  1.00  0.00     0.173 A 
ATOM     63  C   UNL A   1      43.720  27.266  35.485  1.00  0.00     0.173 A 
ATOM     64  F   UNL A   1      45.557  29.946  33.849  1.00  0.00    -0.203 F 
ATOM     65  C   UNL A   1      46.338  28.085  35.058  1.00  0.00     0.198 A 
ATOM     66  C   UNL A   1      44.777  26.525  36.006  1.00  0.00     0.198 A 
ATOM     67  F   UNL A   1      42.466  26.838  35.696  1.00  0.00    -0.203 F 
ATOM     68  F   UNL A   1      47.602  28.459  34.815  1.00  0.00    -0.200 F 
ATOM     69  C   UNL A   1      46.086  26.930  35.783  1.00  0.00     0.200 A 
ATOM     70  F   UNL A   1      44.531  25.415  36.714  1.00  0.00    -0.200 F 
ATOM     71  F   UNL A   1      47.104  26.199  36.257  1.00  0.00    -0.200 F 
ENDBRANCH  38  61
ENDBRANCH  12  13
ENDBRANCH   5   7
ENDBRANCH   2   3
ENDBRANCH   1   2
BRANCH   1  72
ATOM     72  C   UNL A   1      31.468  30.994  26.280  1.00  0.00     0.023 C 
BRANCH  72  73
ATOM     73  C   UNL A   1      32.847  30.378  26.522  1.00  0.00     0.116 C 
BRANCH  73  74
ATOM     74  N   UNL A   1      33.356  29.739  25.322  1.00  0.00    -0.356 N 
ATOM     75  C   UNL A   1      33.519  28.405  25.055  1.00  0.00     0.227 C 
ATOM     76  H   UNL A   1      33.623  30.350  24.598  1.00  0.00     0.163 HD
ATOM     77  O   UNL A   1      34.125  28.093  24.032  1.00  0.00    -0.274 OA
BRANCH  75  78
ATOM     78  C   UNL A   1      32.879  27.386  26.003  1.00  0.00     0.103 C 
ATOM     79  C   UNL A   1      33.531  26.038  26.002  1.00  0.00    -0.016 C 
ATOM     80  C   UNL A   1      31.464  27.047  25.511  1.00  0.00     0.047 C 
ATOM     81  C   UNL A   1      32.807  25.139  25.323  1.00  0.00    -0.006 C 
ATOM     82  C   UNL A   1      31.598  25.759  24.683  1.00  0.00     0.106 C 
BRANCH  82  83
ATOM     83  N   UNL A   1      31.928  25.916  23.279  1.00  0.00    -0.346 N 
ATOM     84  C   UNL A   1      31.272  26.604  22.295  1.00  0.00     0.251 C 
ATOM     85  H   UNL A   1      32.751  25.459  22.990  1.00  0.00     0.164 HD
ATOM     86  O   UNL A   1      31.438  26.335  21.110  1.00  0.00    -0.269 OA
BRANCH  84  87
ATOM     87  C   UNL A   1      30.391  27.723  22.653  1.00  0.00     0.039 A 
ATOM     88  C   UNL A   1      30.880  29.027  22.530  1.00  0.00     0.015 A 
ATOM     89  C   UNL A   1      29.052  27.491  22.975  1.00  0.00     0.015 A 
ATOM     90  C   UNL A   1      30.051  30.109  22.824  1.00  0.00     0.016 A 
ATOM     91  C   UNL A   1      28.217  28.578  23.251  1.00  0.00     0.016 A 
ATOM     92  C   UNL A   1      28.725  29.879  23.189  1.00  0.00     0.018 A 
ATOM     93  Br  UNL A   1      27.602  31.347  23.585  1.00  0.00    -0.051 Br
ENDBRANCH  84  87
ENDBRANCH  82  83
ENDBRANCH  75  78
ENDBRANCH  73  74
ENDBRANCH  72  73
ENDBRANCH   1  72
TORSDOF 13
ENDMDL
MODEL 3
REMARK VINA RESULT:     -12.5      2.019      3.164
REMARK SMILES O=C(NCCCCNC(=O)[C@@H]1C=C[C@H](NC(=O)c2ccc(Br)cc2)C1)c1ccc(-c2c3nc(c(-c4c(F)c(F)c(F)c(F)c4F)c4ccc([nH]4)c(-c4c(F)c(F)c(F)c(F)c4F)c4nc(c(-c5c(F)c(F)c(F)c(F)c5F)c5ccc2[nH]5)C=C4)C=C3)cc1
REMARK SMILES IDX 5 1 4 2 3 3 1 4 2 5 26 7 27 8 88 9 28 10 87 11 29 12 30 13
REMARK SMILES IDX 31 14 81 15 32 16 86 17 80 18 82 19 33 20 85 21 79 22 78 23
REMARK SMILES IDX 34 25 66 26 46 27 65 28 47 29 50 30 64 31 83 32 48 33 49 34
REMARK SMILES IDX 63 36 84 37 51 38 35 39 36 40 44 41 37 42 38 43 42 44 45 45
REMARK SMILES IDX 39 46 40 47 43 48 41 49 67 50 68 51 76 52 69 53 70 54 74 55
REMARK SMILES IDX 77 56 71 57 72 58 75 59 73 60 52 61 53 62 61 63 54 64 55 65
REMARK SMILES IDX 59 66 62 67 56 68 57 69 60 70 58 71 6 72 7 73 8 74 9 75
REMARK SMILES IDX 10 77 11 78 12 79 25 80 13 81 14 82 15 83 16 84 17 86 18 87
REMARK SMILES IDX 19 88 24 89 20 90 23 91 21 92 22 93
REMARK H PARENT 3 6 82 24 50 35 8 76 15 85
REMARK Flexibility Score: inf
ROOT
ATOM      1  C   UNL A   1      31.228  32.134  26.669  1.00  0.00     0.023 C 
ENDROOT
BRANCH   1   2
ATOM      2  C   UNL A   1      32.496  32.784  27.209  1.00  0.00     0.116 C 
BRANCH   2   3
ATOM      3  N   UNL A   1      32.299  34.161  27.633  1.00  0.00    -0.352 N 
ATOM      4  O   UNL A   1      32.605  36.000  28.909  1.00  0.00    -0.269 OA
ATOM      5  C   UNL A   1      32.986  34.878  28.586  1.00  0.00     0.251 C 
ATOM      6  H   UNL A   1      31.575  34.647  27.176  1.00  0.00     0.163 HD
BRANCH   5   7
ATOM      7  C   UNL A   1      34.172  34.283  29.240  1.00  0.00     0.039 A 
ATOM      8  C   UNL A   1      35.457  34.588  28.791  1.00  0.00     0.014 A 
ATOM      9  C   UNL A   1      33.996  33.407  30.316  1.00  0.00     0.014 A 
ATOM     10  C   UNL A   1      36.550  33.910  29.316  1.00  0.00     0.010 A 
ATOM     11  C   UNL A   1      35.106  32.792  30.904  1.00  0.00     0.010 A 
ATOM     12  C   UNL A   1      36.392  33.016  30.389  1.00  0.00    -0.014 A 
BRANCH  12  13
ATOM     13  C   UNL A   1      37.603  32.398  30.988  1.00  0.00     0.031 A 
ATOM     14  C   UNL A   1      38.069  32.758  32.369  1.00  0.00     0.074 A 
ATOM     15  C   UNL A   1      38.246  31.448  30.282  1.00  0.00     0.049 A 
ATOM     16  N   UNL A   1      39.063  32.254  33.060  1.00  0.00    -0.248 NA
ATOM     17  C   UNL A   1      37.336  33.823  33.070  1.00  0.00     0.031 C 
ATOM     18  C   UNL A   1      37.897  31.034  28.921  1.00  0.00     0.029 A 
ATOM     19  N   UNL A   1      39.302  30.638  30.613  1.00  0.00    -0.354 N 
ATOM     20  C   UNL A   1      39.079  32.941  34.266  1.00  0.00     0.074 A 
ATOM     21  C   UNL A   1      38.015  33.920  34.206  1.00  0.00     0.031 C 
ATOM     22  C   UNL A   1      38.681  30.010  28.555  1.00  0.00     0.029 A 
ATOM     23  C   UNL A   1      39.627  29.736  29.630  1.00  0.00     0.049 A 
ATOM     24  H   UNL A   1      39.779  30.699  31.472  1.00  0.00     0.167 HD
ATOM     25  C   UNL A   1      39.902  32.761  35.329  1.00  0.00     0.037 A 
ATOM     26  C   UNL A   1      40.589  28.795  29.593  1.00  0.00     0.037 A 
ATOM     27  C   UNL A   1      40.954  31.777  35.385  1.00  0.00     0.049 A 
ATOM     28  C   UNL A   1      41.483  28.623  30.786  1.00  0.00     0.074 A 
ATOM     29  C   UNL A   1      41.831  31.509  36.424  1.00  0.00     0.029 A 
ATOM     30  N   UNL A   1      41.272  30.898  34.361  1.00  0.00    -0.354 N 
ATOM     31  N   UNL A   1      41.469  29.263  31.929  1.00  0.00    -0.248 NA
ATOM     32  C   UNL A   1      42.530  27.597  30.682  1.00  0.00     0.031 C 
ATOM     33  C   UNL A   1      42.702  30.494  36.014  1.00  0.00     0.029 A 
ATOM     34  C   UNL A   1      42.340  30.097  34.737  1.00  0.00     0.049 A 
ATOM     35  H   UNL A   1      40.807  30.848  33.495  1.00  0.00     0.167 HD
ATOM     36  C   UNL A   1      42.498  28.719  32.682  1.00  0.00     0.074 A 
ATOM     37  C   UNL A   1      43.092  27.669  31.880  1.00  0.00     0.031 C 
ATOM     38  C   UNL A   1      42.924  29.064  33.921  1.00  0.00     0.037 A 
BRANCH  25  39
ATOM     39  C   UNL A   1      39.707  33.645  36.526  1.00  0.00     0.064 A 
ATOM     40  C   UNL A   1      40.290  34.919  36.598  1.00  0.00     0.173 A 
ATOM     41  C   UNL A   1      38.864  33.250  37.576  1.00  0.00     0.173 A 
ATOM     42  F   UNL A   1      41.112  35.342  35.625  1.00  0.00    -0.203 F 
ATOM     43  C   UNL A   1      40.045  35.759  37.682  1.00  0.00     0.198 A 
ATOM     44  C   UNL A   1      38.602  34.101  38.646  1.00  0.00     0.198 A 
ATOM     45  F   UNL A   1      38.275  32.044  37.552  1.00  0.00    -0.203 F 
ATOM     46  F   UNL A   1      40.635  36.961  37.743  1.00  0.00    -0.200 F 
ATOM     47  C   UNL A   1      39.194  35.354  38.700  1.00  0.00     0.200 A 
ATOM     48  F   UNL A   1      37.770  33.713  39.622  1.00  0.00    -0.200 F 
ATOM     49  F   UNL A   1      38.947  36.170  39.734  1.00  0.00    -0.200 F 
ENDBRANCH  25  39
BRANCH  26  50
ATOM     50  C   UNL A   1      40.755  27.956  28.379  1.00  0.00     0.064 A 
ATOM     51  C   UNL A   1      40.142  26.701  28.274  1.00  0.00     0.173 A 
ATOM     52  C   UNL A   1      41.534  28.395  27.297  1.00  0.00     0.173 A 
ATOM     53  F   UNL A   1      39.402  26.229  29.289  1.00  0.00    -0.203 F 
ATOM     54  C   UNL A   1      40.318  25.907  27.142  1.00  0.00     0.198 A 
ATOM     55  C   UNL A   1      41.682  27.616  26.153  1.00  0.00     0.198 A 
ATOM     56  F   UNL A   1      42.137  29.592  27.345  1.00  0.00    -0.203 F 
ATOM     57  F   UNL A   1      39.760  24.691  27.087  1.00  0.00    -0.200 F 
ATOM     58  C   UNL A   1      41.081  26.368  26.080  1.00  0.00     0.200 A 
ATOM     59  F   UNL A   1      42.406  28.074  25.123  1.00  0.00    -0.200 F 
ATOM     60  F   UNL A   1      41.246  25.607  24.991  1.00  0.00    -0.200 F 
ENDBRANCH  26  50
BRANCH  38  61
ATOM     61  C   UNL A   1      44.081  28.290  34.477  1.00  0.00     0.064 A 
ATOM     62  C   UNL A   1      45.402  28.739  34.322  1.00  0.00     0.173 A 
ATOM     63  C   UNL A   1      43.871  27.089  35.170  1.00  0.00     0.173 A 
ATOM     64  F   UNL A   1      45.655  29.873  33.652  1.00  0.00    -0.203 F 
ATOM     65  C   UNL A   1      46.471  27.994  34.810  1.00  0.00     0.198 A 
ATOM     66  C   UNL A   1      44.941  26.361  35.681  1.00  0.00     0.198 A 
ATOM     67  F   UNL A   1      42.627  26.620  35.347  1.00  0.00    -0.203 F 
ATOM     68  F   UNL A   1      47.727  28.412  34.599  1.00  0.00    -0.200 F 
ATOM     69  C   UNL A   1      46.241  26.809  35.492  1.00  0.00     0.200 A 
ATOM     70  F   UNL A   1      44.717  25.221  36.347  1.00  0.00    -0.200 F 
ATOM     71  F   UNL A   1      47.272  26.090  35.955  1.00  0.00    -0.200 F 
ENDBRANCH  38  61
ENDBRANCH  12  13
ENDBRANCH   5   7
ENDBRANCH   2   3
ENDBRANCH   1   2
BRANCH   1  72
ATOM     72  C   UNL A   1      31.452  30.899  25.789  1.00  0.00     0.023 C 
BRANCH  72  73
ATOM     73  C   UNL A   1      32.676  30.065  26.172  1.00  0.00     0.116 C 
BRANCH  73  74
ATOM     74  N   UNL A   1      32.297  28.904  26.957  1.00  0.00    -0.356 N 
ATOM     75  C   UNL A   1      31.668  27.756  26.554  1.00  0.00     0.227 C 
ATOM     76  H   UNL A   1      32.524  28.948  27.914  1.00  0.00     0.163 HD
ATOM     77  O   UNL A   1      31.294  26.969  27.423  1.00  0.00    -0.274 OA
BRANCH  75  78
ATOM     78  C   UNL A   1      31.530  27.484  25.053  1.00  0.00     0.103 C 
ATOM     79  C   UNL A   1      30.121  27.499  24.543  1.00  0.00    -0.016 C 
ATOM     80  C   UNL A   1      31.954  26.040  24.752  1.00  0.00     0.047 C 
ATOM     81  C   UNL A   1      29.664  26.261  24.319  1.00  0.00    -0.006 C 
ATOM     82  C   UNL A   1      30.659  25.212  24.726  1.00  0.00     0.106 C 
BRANCH  82  83
ATOM     83  N   UNL A   1      30.190  24.692  25.997  1.00  0.00    -0.346 N 
ATOM     84  C   UNL A   1      30.493  23.518  26.630  1.00  0.00     0.251 C 
ATOM     85  H   UNL A   1      29.557  25.273  26.477  1.00  0.00     0.164 HD
ATOM     86  O   UNL A   1      29.748  23.040  27.479  1.00  0.00    -0.269 OA
BRANCH  84  87
ATOM     87  C   UNL A   1      31.760  22.837  26.333  1.00  0.00     0.039 A 
ATOM     88  C   UNL A   1      31.779  21.860  25.333  1.00  0.00     0.015 A 
ATOM     89  C   UNL A   1      32.945  23.255  26.942  1.00  0.00     0.015 A 
ATOM     90  C   UNL A   1      32.976  21.227  25.003  1.00  0.00     0.016 A 
ATOM     91  C   UNL A   1      34.148  22.633  26.597  1.00  0.00     0.016 A 
ATOM     92  C   UNL A   1      34.154  21.612  25.642  1.00  0.00     0.018 A 
ATOM     93  Br  UNL A   1      35.777  20.754  25.192  1.00  0.00    -0.051 Br
ENDBRANCH  84  87
ENDBRANCH  82  83
ENDBRANCH  75  78
ENDBRANCH  73  74
ENDBRANCH  72  73
ENDBRANCH   1  72
TORSDOF 13
ENDMDL
