MODEL 1
REMARK VINA RESULT:     -12.4      0.000      0.000
REMARK SMILES O=C(NCCCCNC(=O)[C@@H]1CC[C@@H](CNC(=O)c2cc(Cl)ccc2Cl)O1)c1ccc(-c2c3nc(c(-c4c(F)c(F)c(F)c(F)c4F)c4ccc([nH]4)c(-c4c(F)c(F)c(F)c(F)c4F)c4nc(c(-c5c(F)c(F)c(F)c(F)c5F)c5ccc2[nH]5)C=C4)C=C3)cc1
REMARK SMILES IDX 6 1 5 2 4 3 3 4 1 5 2 6 28 8 29 9 90 10 30 11 89 12 31 13
REMARK SMILES IDX 32 14 33 15 83 16 34 17 88 18 82 19 84 20 35 21 87 22 81 23
REMARK SMILES IDX 80 24 36 26 68 27 48 28 67 29 49 30 52 31 66 32 85 33 50 34
REMARK SMILES IDX 51 35 65 37 86 38 53 39 37 40 38 41 46 42 39 43 40 44 44 45
REMARK SMILES IDX 47 46 41 47 42 48 45 49 43 50 69 51 70 52 78 53 71 54 72 55
REMARK SMILES IDX 76 56 79 57 73 58 74 59 77 60 75 61 54 62 55 63 63 64 56 65
REMARK SMILES IDX 57 66 61 67 64 68 58 69 59 70 62 71 60 72 7 73 8 74 9 75
REMARK SMILES IDX 10 77 11 78 12 79 27 80 13 81 14 82 15 83 16 84 17 85 18 87
REMARK SMILES IDX 19 88 20 89 25 90 21 91 24 92 26 93 22 94 23 95
REMARK H PARENT 3 7 84 25 52 36 8 76 16 86
REMARK Flexibility Score: inf
ROOT
ATOM      1  C   UNL A   1      31.925  30.101  26.838  1.00  0.00     0.023 C 
ENDROOT
BRANCH   1   2
ATOM      2  C   UNL A   1      31.606  31.596  26.881  1.00  0.00     0.023 C 
BRANCH   2   3
ATOM      3  C   UNL A   1      32.817  32.518  26.988  1.00  0.00     0.116 C 
BRANCH   3   4
ATOM      4  N   UNL A   1      32.476  33.852  27.458  1.00  0.00    -0.352 N 
ATOM      5  O   UNL A   1      32.528  35.646  28.824  1.00  0.00    -0.269 OA
ATOM      6  C   UNL A   1      33.031  34.582  28.479  1.00  0.00     0.251 C 
ATOM      7  H   UNL A   1      31.742  34.295  26.974  1.00  0.00     0.163 HD
BRANCH   6   8
ATOM      8  C   UNL A   1      34.220  34.066  29.184  1.00  0.00     0.039 A 
ATOM      9  C   UNL A   1      35.509  34.401  28.758  1.00  0.00     0.014 A 
ATOM     10  C   UNL A   1      34.037  33.234  30.291  1.00  0.00     0.014 A 
ATOM     11  C   UNL A   1      36.614  33.807  29.360  1.00  0.00     0.010 A 
ATOM     12  C   UNL A   1      35.148  32.692  30.937  1.00  0.00     0.010 A 
ATOM     13  C   UNL A   1      36.443  32.952  30.459  1.00  0.00    -0.014 A 
BRANCH  13  14
ATOM     14  C   UNL A   1      37.619  32.361  31.140  1.00  0.00     0.031 A 
ATOM     15  C   UNL A   1      38.359  31.210  30.525  1.00  0.00     0.074 A 
ATOM     16  C   UNL A   1      37.991  32.844  32.339  1.00  0.00     0.049 A 
ATOM     17  N   UNL A   1      39.337  30.494  31.021  1.00  0.00    -0.248 NA
ATOM     18  C   UNL A   1      37.936  30.799  29.179  1.00  0.00     0.031 C 
ATOM     19  C   UNL A   1      37.346  33.960  33.032  1.00  0.00     0.029 A 
ATOM     20  N   UNL A   1      38.985  32.447  33.195  1.00  0.00    -0.354 N 
ATOM     21  C   UNL A   1      39.628  29.534  30.062  1.00  0.00     0.074 A 
ATOM     22  C   UNL A   1      38.710  29.745  28.962  1.00  0.00     0.031 C 
ATOM     23  C   UNL A   1      37.959  34.159  34.207  1.00  0.00     0.029 A 
ATOM     24  C   UNL A   1      38.996  33.147  34.376  1.00  0.00     0.049 A 
ATOM     25  H   UNL A   1      39.627  31.731  32.985  1.00  0.00     0.167 HD
ATOM     26  C   UNL A   1      40.579  28.569  30.099  1.00  0.00     0.037 A 
ATOM     27  C   UNL A   1      39.731  32.969  35.490  1.00  0.00     0.037 A 
ATOM     28  C   UNL A   1      41.491  28.375  31.198  1.00  0.00     0.049 A 
ATOM     29  C   UNL A   1      40.752  31.868  35.526  1.00  0.00     0.074 A 
ATOM     30  C   UNL A   1      42.518  27.456  31.315  1.00  0.00     0.029 A 
ATOM     31  N   UNL A   1      41.475  29.108  32.377  1.00  0.00    -0.354 N 
ATOM     32  N   UNL A   1      41.047  30.988  34.601  1.00  0.00    -0.248 NA
ATOM     33  C   UNL A   1      41.542  31.736  36.757  1.00  0.00     0.031 C 
ATOM     34  C   UNL A   1      43.087  27.596  32.585  1.00  0.00     0.029 A 
ATOM     35  C   UNL A   1      42.456  28.643  33.237  1.00  0.00     0.049 A 
ATOM     36  H   UNL A   1      40.857  29.850  32.572  1.00  0.00     0.167 HD
ATOM     37  C   UNL A   1      42.073  30.213  35.123  1.00  0.00     0.074 A 
ATOM     38  C   UNL A   1      42.350  30.729  36.449  1.00  0.00     0.031 C 
ATOM     39  C   UNL A   1      42.727  29.173  34.551  1.00  0.00     0.037 A 
BRANCH  26  40
ATOM     40  C   UNL A   1      40.653  27.624  28.933  1.00  0.00     0.064 A 
ATOM     41  C   UNL A   1      41.536  27.832  27.863  1.00  0.00     0.173 A 
ATOM     42  C   UNL A   1      39.838  26.481  28.895  1.00  0.00     0.173 A 
ATOM     43  F   UNL A   1      42.331  28.912  27.844  1.00  0.00    -0.203 F 
ATOM     44  C   UNL A   1      41.571  26.955  26.780  1.00  0.00     0.198 A 
ATOM     45  C   UNL A   1      39.899  25.590  27.827  1.00  0.00     0.198 A 
ATOM     46  F   UNL A   1      38.982  26.226  29.896  1.00  0.00    -0.203 F 
ATOM     47  F   UNL A   1      42.380  27.208  25.741  1.00  0.00    -0.200 F 
ATOM     48  C   UNL A   1      40.757  25.833  26.765  1.00  0.00     0.200 A 
ATOM     49  F   UNL A   1      39.120  24.499  27.821  1.00  0.00    -0.200 F 
ATOM     50  F   UNL A   1      40.791  24.992  25.722  1.00  0.00    -0.200 F 
ENDBRANCH  26  40
BRANCH  27  51
ATOM     51  C   UNL A   1      39.503  33.860  36.654  1.00  0.00     0.064 A 
ATOM     52  C   UNL A   1      38.705  33.452  37.730  1.00  0.00     0.173 A 
ATOM     53  C   UNL A   1      40.134  35.110  36.742  1.00  0.00     0.173 A 
ATOM     54  F   UNL A   1      38.071  32.273  37.683  1.00  0.00    -0.203 F 
ATOM     55  C   UNL A   1      38.545  34.264  38.852  1.00  0.00     0.198 A 
ATOM     56  C   UNL A   1      39.997  35.907  37.876  1.00  0.00     0.198 A 
ATOM     57  F   UNL A   1      40.919  35.539  35.741  1.00  0.00    -0.203 F 
ATOM     58  F   UNL A   1      37.760  33.860  39.859  1.00  0.00    -0.200 F 
ATOM     59  C   UNL A   1      39.200  35.484  38.928  1.00  0.00     0.200 A 
ATOM     60  F   UNL A   1      40.647  37.076  37.954  1.00  0.00    -0.200 F 
ATOM     61  F   UNL A   1      39.064  36.253  40.017  1.00  0.00    -0.200 F 
ENDBRANCH  27  51
BRANCH  39  62
ATOM     62  C   UNL A   1      43.844  28.546  35.331  1.00  0.00     0.064 A 
ATOM     63  C   UNL A   1      43.630  27.453  36.182  1.00  0.00     0.173 A 
ATOM     64  C   UNL A   1      45.161  29.002  35.163  1.00  0.00     0.173 A 
ATOM     65  F   UNL A   1      42.387  26.992  36.387  1.00  0.00    -0.203 F 
ATOM     66  C   UNL A   1      44.692  26.844  36.845  1.00  0.00     0.198 A 
ATOM     67  C   UNL A   1      46.224  28.375  35.806  1.00  0.00     0.198 A 
ATOM     68  F   UNL A   1      45.419  30.043  34.357  1.00  0.00    -0.203 F 
ATOM     69  F   UNL A   1      44.462  25.819  37.677  1.00  0.00    -0.200 F 
ATOM     70  C   UNL A   1      45.989  27.298  36.647  1.00  0.00     0.200 A 
ATOM     71  F   UNL A   1      47.476  28.805  35.603  1.00  0.00    -0.200 F 
ATOM     72  F   UNL A   1      47.012  26.699  37.271  1.00  0.00    -0.200 F 
ENDBRANCH  39  62
ENDBRANCH  13  14
ENDBRANCH   6   8
ENDBRANCH   3   4
ENDBRANCH   2   3
ENDBRANCH   1   2
BRANCH   1  73
ATOM     73  C   UNL A   1      33.075  29.723  25.910  1.00  0.00     0.116 C 
BRANCH  73  74
ATOM     74  N   UNL A   1      32.669  29.696  24.519  1.00  0.00    -0.354 N 
ATOM     75  C   UNL A   1      32.601  28.687  23.608  1.00  0.00     0.249 C 
ATOM     76  H   UNL A   1      32.388  30.572  24.168  1.00  0.00     0.163 HD
ATOM     77  O   UNL A   1      32.248  29.000  22.465  1.00  0.00    -0.272 OA
BRANCH  75  78
ATOM     78  C   UNL A   1      32.863  27.201  23.957  1.00  0.00     0.207 C 
ATOM     79  C   UNL A   1      33.522  26.514  22.753  1.00  0.00     0.045 C 
ATOM     80  O   UNL A   1      31.776  26.363  24.356  1.00  0.00    -0.363 OA
ATOM     81  C   UNL A   1      32.912  25.130  22.749  1.00  0.00     0.037 C 
ATOM     82  C   UNL A   1      31.532  25.437  23.281  1.00  0.00     0.138 C 
BRANCH  82  83
ATOM     83  C   UNL A   1      30.644  24.276  23.738  1.00  0.00     0.148 C 
BRANCH  83  84
ATOM     84  N   UNL A   1      30.504  24.125  25.176  1.00  0.00    -0.349 N 
ATOM     85  C   UNL A   1      31.146  23.308  26.067  1.00  0.00     0.252 C 
ATOM     86  H   UNL A   1      29.828  24.714  25.582  1.00  0.00     0.163 HD
ATOM     87  O   UNL A   1      30.827  23.348  27.253  1.00  0.00    -0.269 OA
BRANCH  85  88
ATOM     88  C   UNL A   1      32.240  22.419  25.641  1.00  0.00     0.059 A 
ATOM     89  C   UNL A   1      31.925  21.135  25.172  1.00  0.00     0.036 A 
ATOM     90  C   UNL A   1      33.559  22.887  25.565  1.00  0.00     0.053 A 
ATOM     91  C   UNL A   1      32.934  20.314  24.675  1.00  0.00     0.041 A 
ATOM     92  C   UNL A   1      34.558  22.062  25.038  1.00  0.00     0.023 A 
ATOM     93  Cl  UNL A   1      34.032  24.450  26.127  1.00  0.00    -0.083 Cl
ATOM     94  Cl  UNL A   1      32.553  18.724  24.140  1.00  0.00    -0.084 Cl
ATOM     95  C   UNL A   1      34.248  20.773  24.598  1.00  0.00     0.022 A 
ENDBRANCH  85  88
ENDBRANCH  83  84
ENDBRANCH  82  83
ENDBRANCH  75  78
ENDBRANCH  73  74
ENDBRANCH   1  73
TORSDOF 14
ENDMDL
MODEL 2
REMARK VINA RESULT:     -12.4      1.055      1.778
REMARK SMILES O=C(NCCCCNC(=O)[C@@H]1CC[C@@H](CNC(=O)c2cc(Cl)ccc2Cl)O1)c1ccc(-c2c3nc(c(-c4c(F)c(F)c(F)c(F)c4F)c4ccc([nH]4)c(-c4c(F)c(F)c(F)c(F)c4F)c4nc(c(-c5c(F)c(F)c(F)c(F)c5F)c5ccc2[nH]5)C=C4)C=C3)cc1
REMARK SMILES IDX 6 1 5 2 4 3 3 4 1 5 2 6 28 8 29 9 90 10 30 11 89 12 31 13
REMARK SMILES IDX 32 14 33 15 83 16 34 17 88 18 82 19 84 20 35 21 87 22 81 23
REMARK SMILES IDX 80 24 36 26 68 27 48 28 67 29 49 30 52 31 66 32 85 33 50 34
REMARK SMILES IDX 51 35 65 37 86 38 53 39 37 40 38 41 46 42 39 43 40 44 44 45
REMARK SMILES IDX 47 46 41 47 42 48 45 49 43 50 69 51 70 52 78 53 71 54 72 55
REMARK SMILES IDX 76 56 79 57 73 58 74 59 77 60 75 61 54 62 55 63 63 64 56 65
REMARK SMILES IDX 57 66 61 67 64 68 58 69 59 70 62 71 60 72 7 73 8 74 9 75
REMARK SMILES IDX 10 77 11 78 12 79 27 80 13 81 14 82 15 83 16 84 17 85 18 87
REMARK SMILES IDX 19 88 20 89 25 90 21 91 24 92 26 93 22 94 23 95
REMARK H PARENT 3 7 84 25 52 36 8 76 16 86
REMARK Flexibility Score: inf
ROOT
ATOM      1  C   UNL A   1      31.606  30.980  25.814  1.00  0.00     0.023 C 
ENDROOT
BRANCH   1   2
ATOM      2  C   UNL A   1      31.336  32.224  26.660  1.00  0.00     0.023 C 
BRANCH   2   3
ATOM      3  C   UNL A   1      32.576  32.907  27.230  1.00  0.00     0.116 C 
BRANCH   3   4
ATOM      4  N   UNL A   1      32.325  34.273  27.662  1.00  0.00    -0.352 N 
ATOM      5  O   UNL A   1      32.538  36.115  28.947  1.00  0.00    -0.269 OA
ATOM      6  C   UNL A   1      32.971  35.015  28.619  1.00  0.00     0.251 C 
ATOM      7  H   UNL A   1      31.586  34.732  27.201  1.00  0.00     0.163 HD
BRANCH   6   8
ATOM      8  C   UNL A   1      34.174  34.470  29.278  1.00  0.00     0.039 A 
ATOM      9  C   UNL A   1      35.442  34.649  28.718  1.00  0.00     0.014 A 
ATOM     10  C   UNL A   1      34.024  33.770  30.477  1.00  0.00     0.014 A 
ATOM     11  C   UNL A   1      36.546  34.024  29.290  1.00  0.00     0.010 A 
ATOM     12  C   UNL A   1      35.142  33.200  31.086  1.00  0.00     0.010 A 
ATOM     13  C   UNL A   1      36.406  33.299  30.482  1.00  0.00    -0.014 A 
BRANCH  13  14
ATOM     14  C   UNL A   1      37.588  32.678  31.126  1.00  0.00     0.031 A 
ATOM     15  C   UNL A   1      38.315  31.548  30.459  1.00  0.00     0.074 A 
ATOM     16  C   UNL A   1      37.976  33.114  32.338  1.00  0.00     0.049 A 
ATOM     17  N   UNL A   1      39.296  30.810  30.916  1.00  0.00    -0.248 NA
ATOM     18  C   UNL A   1      37.874  31.190  29.103  1.00  0.00     0.031 C 
ATOM     19  C   UNL A   1      37.345  34.205  33.080  1.00  0.00     0.029 A 
ATOM     20  N   UNL A   1      38.979  32.681  33.166  1.00  0.00    -0.354 N 
ATOM     21  C   UNL A   1      39.572  29.886  29.917  1.00  0.00     0.074 A 
ATOM     22  C   UNL A   1      38.641  30.142  28.838  1.00  0.00     0.031 C 
ATOM     23  C   UNL A   1      37.973  34.358  34.254  1.00  0.00     0.029 A 
ATOM     24  C   UNL A   1      39.008  33.336  34.372  1.00  0.00     0.049 A 
ATOM     25  H   UNL A   1      39.615  31.971  32.921  1.00  0.00     0.167 HD
ATOM     26  C   UNL A   1      40.519  28.916  29.907  1.00  0.00     0.037 A 
ATOM     27  C   UNL A   1      39.755  33.113  35.469  1.00  0.00     0.037 A 
ATOM     28  C   UNL A   1      41.443  28.678  30.986  1.00  0.00     0.049 A 
ATOM     29  C   UNL A   1      40.771  32.008  35.451  1.00  0.00     0.074 A 
ATOM     30  C   UNL A   1      42.468  27.751  31.055  1.00  0.00     0.029 A 
ATOM     31  N   UNL A   1      41.445  29.366  32.192  1.00  0.00    -0.354 N 
ATOM     32  N   UNL A   1      41.051  31.162  34.490  1.00  0.00    -0.248 NA
ATOM     33  C   UNL A   1      41.576  31.826  36.667  1.00  0.00     0.031 C 
ATOM     34  C   UNL A   1      43.053  27.841  32.323  1.00  0.00     0.029 A 
ATOM     35  C   UNL A   1      42.434  28.865  33.022  1.00  0.00     0.049 A 
ATOM     36  H   UNL A   1      40.833  30.102  32.422  1.00  0.00     0.167 HD
ATOM     37  C   UNL A   1      42.080  30.364  34.970  1.00  0.00     0.074 A 
ATOM     38  C   UNL A   1      42.376  30.829  36.311  1.00  0.00     0.031 C 
ATOM     39  C   UNL A   1      42.723  29.344  34.351  1.00  0.00     0.037 A 
BRANCH  26  40
ATOM     40  C   UNL A   1      40.575  28.016  28.705  1.00  0.00     0.064 A 
ATOM     41  C   UNL A   1      41.349  28.328  27.578  1.00  0.00     0.173 A 
ATOM     42  C   UNL A   1      39.854  26.811  28.689  1.00  0.00     0.173 A 
ATOM     43  F   UNL A   1      42.051  29.470  27.537  1.00  0.00    -0.203 F 
ATOM     44  C   UNL A   1      41.368  27.490  26.465  1.00  0.00     0.198 A 
ATOM     45  C   UNL A   1      39.900  25.960  27.588  1.00  0.00     0.198 A 
ATOM     46  F   UNL A   1      39.104  26.457  29.743  1.00  0.00    -0.203 F 
ATOM     47  F   UNL A   1      42.067  27.840  25.376  1.00  0.00    -0.200 F 
ATOM     48  C   UNL A   1      40.647  26.305  26.472  1.00  0.00     0.200 A 
ATOM     49  F   UNL A   1      39.213  24.809  27.603  1.00  0.00    -0.200 F 
ATOM     50  F   UNL A   1      40.665  25.501  25.400  1.00  0.00    -0.200 F 
ENDBRANCH  26  40
BRANCH  27  51
ATOM     51  C   UNL A   1      39.545  33.960  36.669  1.00  0.00     0.064 A 
ATOM     52  C   UNL A   1      38.743  33.523  37.730  1.00  0.00     0.173 A 
ATOM     53  C   UNL A   1      40.197  35.196  36.804  1.00  0.00     0.173 A 
ATOM     54  F   UNL A   1      38.090  32.356  37.639  1.00  0.00    -0.203 F 
ATOM     55  C   UNL A   1      38.601  34.291  38.885  1.00  0.00     0.198 A 
ATOM     56  C   UNL A   1      40.075  35.949  37.969  1.00  0.00     0.198 A 
ATOM     57  F   UNL A   1      40.985  35.652  35.819  1.00  0.00    -0.203 F 
ATOM     58  F   UNL A   1      37.812  33.861  39.878  1.00  0.00    -0.200 F 
ATOM     59  C   UNL A   1      39.275  35.497  39.007  1.00  0.00     0.200 A 
ATOM     60  F   UNL A   1      40.745  37.103  38.092  1.00  0.00    -0.200 F 
ATOM     61  F   UNL A   1      39.154  36.224  40.127  1.00  0.00    -0.200 F 
ENDBRANCH  27  51
BRANCH  39  62
ATOM     62  C   UNL A   1      43.847  28.684  35.093  1.00  0.00     0.064 A 
ATOM     63  C   UNL A   1      45.166  29.152  35.007  1.00  0.00     0.173 A 
ATOM     64  C   UNL A   1      43.583  27.615  35.963  1.00  0.00     0.173 A 
ATOM     65  F   UNL A   1      45.471  30.160  34.176  1.00  0.00    -0.203 F 
ATOM     66  C   UNL A   1      46.183  28.566  35.757  1.00  0.00     0.198 A 
ATOM     67  C   UNL A   1      44.596  27.049  36.732  1.00  0.00     0.198 A 
ATOM     68  F   UNL A   1      42.336  27.134  36.085  1.00  0.00    -0.203 F 
ATOM     69  F   UNL A   1      47.442  29.007  35.637  1.00  0.00    -0.200 F 
ATOM     70  C   UNL A   1      45.895  27.523  36.627  1.00  0.00     0.200 A 
ATOM     71  F   UNL A   1      44.314  26.052  37.581  1.00  0.00    -0.200 F 
ATOM     72  F   UNL A   1      46.870  26.974  37.361  1.00  0.00    -0.200 F 
ENDBRANCH  39  62
ENDBRANCH  13  14
ENDBRANCH   6   8
ENDBRANCH   3   4
ENDBRANCH   2   3
ENDBRANCH   1   2
BRANCH   1  73
ATOM     73  C   UNL A   1      32.655  30.035  26.391  1.00  0.00     0.116 C 
BRANCH  73  74
ATOM     74  N   UNL A   1      32.057  28.894  27.054  1.00  0.00    -0.354 N 
ATOM     75  C   UNL A   1      31.590  27.706  26.582  1.00  0.00     0.249 C 
ATOM     76  H   UNL A   1      31.975  28.996  28.030  1.00  0.00     0.163 HD
ATOM     77  O   UNL A   1      31.088  26.941  27.415  1.00  0.00    -0.272 OA
BRANCH  75  78
ATOM     78  C   UNL A   1      31.730  27.258  25.106  1.00  0.00     0.207 C 
ATOM     79  C   UNL A   1      30.559  27.833  24.296  1.00  0.00     0.045 C 
ATOM     80  O   UNL A   1      31.795  25.865  24.790  1.00  0.00    -0.363 OA
ATOM     81  C   UNL A   1      30.224  26.732  23.314  1.00  0.00     0.037 C 
ATOM     82  C   UNL A   1      30.556  25.514  24.144  1.00  0.00     0.138 C 
BRANCH  82  83
ATOM     83  C   UNL A   1      30.659  24.154  23.447  1.00  0.00     0.148 C 
BRANCH  83  84
ATOM     84  N   UNL A   1      31.677  24.055  22.416  1.00  0.00    -0.349 N 
ATOM     85  C   UNL A   1      32.821  23.308  22.343  1.00  0.00     0.252 C 
ATOM     86  H   UNL A   1      31.516  24.626  21.630  1.00  0.00     0.163 HD
ATOM     87  O   UNL A   1      33.547  23.419  21.358  1.00  0.00    -0.269 OA
BRANCH  85  88
ATOM     88  C   UNL A   1      33.175  22.342  23.397  1.00  0.00     0.059 A 
ATOM     89  C   UNL A   1      32.642  21.046  23.333  1.00  0.00     0.036 A 
ATOM     90  C   UNL A   1      34.136  22.654  24.367  1.00  0.00     0.053 A 
ATOM     91  C   UNL A   1      33.037  20.088  24.264  1.00  0.00     0.041 A 
ATOM     92  C   UNL A   1      34.546  21.675  25.279  1.00  0.00     0.023 A 
ATOM     93  Cl  UNL A   1      34.837  24.226  24.519  1.00  0.00    -0.083 Cl
ATOM     94  Cl  UNL A   1      32.350  18.512  24.210  1.00  0.00    -0.084 Cl
ATOM     95  C   UNL A   1      33.992  20.394  25.232  1.00  0.00     0.022 A 
ENDBRANCH  85  88
ENDBRANCH  83  84
ENDBRANCH  82  83
ENDBRANCH  75  78
ENDBRANCH  73  74
ENDBRANCH   1  73
TORSDOF 14
ENDMDL
MODEL 3
REMARK VINA RESULT:     -12.3      1.590      2.961
REMARK SMILES O=C(NCCCCNC(=O)[C@@H]1CC[C@@H](CNC(=O)c2cc(Cl)ccc2Cl)O1)c1ccc(-c2c3nc(c(-c4c(F)c(F)c(F)c(F)c4F)c4ccc([nH]4)c(-c4c(F)c(F)c(F)c(F)c4F)c4nc(c(-c5c(F)c(F)c(F)c(F)c5F)c5ccc2[nH]5)C=C4)C=C3)cc1
REMARK SMILES IDX 6 1 5 2 4 3 3 4 1 5 2 6 28 8 29 9 90 10 30 11 89 12 31 13
REMARK SMILES IDX 32 14 33 15 83 16 34 17 88 18 82 19 84 20 35 21 87 22 81 23
REMARK SMILES IDX 80 24 36 26 68 27 48 28 67 29 49 30 52 31 66 32 85 33 50 34
REMARK SMILES IDX 51 35 65 37 86 38 53 39 37 40 38 41 46 42 39 43 40 44 44 45
REMARK SMILES IDX 47 46 41 47 42 48 45 49 43 50 69 51 70 52 78 53 71 54 72 55
REMARK SMILES IDX 76 56 79 57 73 58 74 59 77 60 75 61 54 62 55 63 63 64 56 65
REMARK SMILES IDX 57 66 61 67 64 68 58 69 59 70 62 71 60 72 7 73 8 74 9 75
REMARK SMILES IDX 10 77 11 78 12 79 27 80 13 81 14 82 15 83 16 84 17 85 18 87
REMARK SMILES IDX 19 88 20 89 25 90 21 91 24 92 26 93 22 94 23 95
REMARK H PARENT 3 7 84 25 52 36 8 76 16 86
REMARK Flexibility Score: inf
ROOT
ATOM      1  C   UNL A   1      31.588  30.634  26.298  1.00  0.00     0.023 C 
ENDROOT
BRANCH   1   2
ATOM      2  C   UNL A   1      31.405  32.115  26.631  1.00  0.00     0.023 C 
BRANCH   2   3
ATOM      3  C   UNL A   1      32.651  32.823  27.154  1.00  0.00     0.116 C 
BRANCH   3   4
ATOM      4  N   UNL A   1      32.381  34.172  27.629  1.00  0.00    -0.352 N 
ATOM      5  O   UNL A   1      32.566  35.974  28.973  1.00  0.00    -0.269 OA
ATOM      6  C   UNL A   1      33.015  34.890  28.612  1.00  0.00     0.251 C 
ATOM      7  H   UNL A   1      31.637  34.636  27.181  1.00  0.00     0.163 HD
BRANCH   6   8
ATOM      8  C   UNL A   1      34.222  34.340  29.257  1.00  0.00     0.039 A 
ATOM      9  C   UNL A   1      35.495  34.620  28.753  1.00  0.00     0.014 A 
ATOM     10  C   UNL A   1      34.071  33.532  30.387  1.00  0.00     0.014 A 
ATOM     11  C   UNL A   1      36.610  33.993  29.302  1.00  0.00     0.010 A 
ATOM     12  C   UNL A   1      35.196  32.958  30.978  1.00  0.00     0.010 A 
ATOM     13  C   UNL A   1      36.470  33.161  30.423  1.00  0.00    -0.014 A 
BRANCH  13  14
ATOM     14  C   UNL A   1      37.661  32.536  31.046  1.00  0.00     0.031 A 
ATOM     15  C   UNL A   1      38.382  31.414  30.359  1.00  0.00     0.074 A 
ATOM     16  C   UNL A   1      38.063  32.960  32.258  1.00  0.00     0.049 A 
ATOM     17  N   UNL A   1      39.370  30.673  30.796  1.00  0.00    -0.248 NA
ATOM     18  C   UNL A   1      37.926  31.069  29.005  1.00  0.00     0.031 C 
ATOM     19  C   UNL A   1      37.439  34.043  33.018  1.00  0.00     0.029 A 
ATOM     20  N   UNL A   1      39.077  32.520  33.070  1.00  0.00    -0.354 N 
ATOM     21  C   UNL A   1      39.635  29.760  29.785  1.00  0.00     0.074 A 
ATOM     22  C   UNL A   1      38.690  30.025  28.719  1.00  0.00     0.031 C 
ATOM     23  C   UNL A   1      38.080  34.184  34.186  1.00  0.00     0.029 A 
ATOM     24  C   UNL A   1      39.118  33.163  34.282  1.00  0.00     0.049 A 
ATOM     25  H   UNL A   1      39.710  31.814  32.810  1.00  0.00     0.167 HD
ATOM     26  C   UNL A   1      40.583  28.792  29.753  1.00  0.00     0.037 A 
ATOM     27  C   UNL A   1      39.879  32.929  35.368  1.00  0.00     0.037 A 
ATOM     28  C   UNL A   1      41.521  28.544  30.819  1.00  0.00     0.049 A 
ATOM     29  C   UNL A   1      40.896  31.826  35.326  1.00  0.00     0.074 A 
ATOM     30  C   UNL A   1      42.548  27.618  30.867  1.00  0.00     0.029 A 
ATOM     31  N   UNL A   1      41.535  29.220  32.032  1.00  0.00    -0.354 N 
ATOM     32  N   UNL A   1      41.166  30.991  34.353  1.00  0.00    -0.248 NA
ATOM     33  C   UNL A   1      41.715  31.634  36.530  1.00  0.00     0.031 C 
ATOM     34  C   UNL A   1      43.147  27.696  32.128  1.00  0.00     0.029 A 
ATOM     35  C   UNL A   1      42.535  28.711  32.845  1.00  0.00     0.049 A 
ATOM     36  H   UNL A   1      40.925  29.952  32.277  1.00  0.00     0.167 HD
ATOM     37  C   UNL A   1      42.202  30.190  34.813  1.00  0.00     0.074 A 
ATOM     38  C   UNL A   1      42.513  30.642  36.154  1.00  0.00     0.031 C 
ATOM     39  C   UNL A   1      42.839  29.178  34.176  1.00  0.00     0.037 A 
BRANCH  26  40
ATOM     40  C   UNL A   1      40.626  27.904  28.542  1.00  0.00     0.064 A 
ATOM     41  C   UNL A   1      39.937  26.683  28.490  1.00  0.00     0.173 A 
ATOM     42  C   UNL A   1      41.359  28.290  27.407  1.00  0.00     0.173 A 
ATOM     43  F   UNL A   1      39.229  26.262  29.549  1.00  0.00    -0.203 F 
ATOM     44  C   UNL A   1      40.011  25.864  27.365  1.00  0.00     0.198 A 
ATOM     45  C   UNL A   1      41.404  27.484  26.273  1.00  0.00     0.198 A 
ATOM     46  F   UNL A   1      42.029  29.451  27.397  1.00  0.00    -0.203 F 
ATOM     47  F   UNL A   1      39.393  24.675  27.362  1.00  0.00    -0.200 F 
ATOM     48  C   UNL A   1      40.740  26.266  26.256  1.00  0.00     0.200 A 
ATOM     49  F   UNL A   1      42.099  27.882  25.197  1.00  0.00    -0.200 F 
ATOM     50  F   UNL A   1      40.812  25.477  25.176  1.00  0.00    -0.200 F 
ENDBRANCH  26  40
BRANCH  27  51
ATOM     51  C   UNL A   1      39.681  33.764  36.578  1.00  0.00     0.064 A 
ATOM     52  C   UNL A   1      40.271  35.029  36.687  1.00  0.00     0.173 A 
ATOM     53  C   UNL A   1      38.843  33.338  37.621  1.00  0.00     0.173 A 
ATOM     54  F   UNL A   1      41.089  35.471  35.723  1.00  0.00    -0.203 F 
ATOM     55  C   UNL A   1      40.030  35.839  37.796  1.00  0.00     0.198 A 
ATOM     56  C   UNL A   1      38.581  34.160  38.714  1.00  0.00     0.198 A 
ATOM     57  F   UNL A   1      38.246  32.139  37.556  1.00  0.00    -0.203 F 
ATOM     58  F   UNL A   1      40.622  37.038  37.887  1.00  0.00    -0.200 F 
ATOM     59  C   UNL A   1      39.178  35.409  38.802  1.00  0.00     0.200 A 
ATOM     60  F   UNL A   1      37.741  33.749  39.674  1.00  0.00    -0.200 F 
ATOM     61  F   UNL A   1      38.930  36.198  39.856  1.00  0.00    -0.200 F 
ENDBRANCH  27  51
BRANCH  39  62
ATOM     62  C   UNL A   1      43.973  28.512  34.898  1.00  0.00     0.064 A 
ATOM     63  C   UNL A   1      45.280  29.017  34.848  1.00  0.00     0.173 A 
ATOM     64  C   UNL A   1      43.729  27.395  35.712  1.00  0.00     0.173 A 
ATOM     65  F   UNL A   1      45.566  30.073  34.071  1.00  0.00    -0.203 F 
ATOM     66  C   UNL A   1      46.304  28.422  35.581  1.00  0.00     0.198 A 
ATOM     67  C   UNL A   1      44.749  26.819  36.463  1.00  0.00     0.198 A 
ATOM     68  F   UNL A   1      42.494  26.876  35.796  1.00  0.00    -0.203 F 
ATOM     69  F   UNL A   1      47.552  28.902  35.496  1.00  0.00    -0.200 F 
ATOM     70  C   UNL A   1      46.035  27.331  36.396  1.00  0.00     0.200 A 
ATOM     71  F   UNL A   1      44.485  25.775  37.260  1.00  0.00    -0.200 F 
ATOM     72  F   UNL A   1      47.018  26.772  37.114  1.00  0.00    -0.200 F 
ENDBRANCH  39  62
ENDBRANCH  13  14
ENDBRANCH   6   8
ENDBRANCH   3   4
ENDBRANCH   2   3
ENDBRANCH   1   2
BRANCH   1  73
ATOM     73  C   UNL A   1      31.047  30.217  24.934  1.00  0.00     0.116 C 
BRANCH  73  74
ATOM     74  N   UNL A   1      30.134  31.199  24.385  1.00  0.00    -0.354 N 
ATOM     75  C   UNL A   1      29.182  31.117  23.415  1.00  0.00     0.249 C 
ATOM     76  H   UNL A   1      30.217  32.093  24.789  1.00  0.00     0.163 HD
ATOM     77  O   UNL A   1      28.587  32.166  23.138  1.00  0.00    -0.272 OA
BRANCH  75  78
ATOM     78  C   UNL A   1      28.774  29.792  22.727  1.00  0.00     0.207 C 
ATOM     79  C   UNL A   1      27.321  29.463  23.097  1.00  0.00     0.045 C 
ATOM     80  O   UNL A   1      29.532  28.604  22.969  1.00  0.00    -0.363 OA
ATOM     81  C   UNL A   1      27.318  27.957  23.244  1.00  0.00     0.037 C 
ATOM     82  C   UNL A   1      28.715  27.731  23.772  1.00  0.00     0.138 C 
BRANCH  82  83
ATOM     83  C   UNL A   1      29.274  26.305  23.788  1.00  0.00     0.148 C 
BRANCH  83  84
ATOM     84  N   UNL A   1      29.165  25.605  25.056  1.00  0.00    -0.349 N 
ATOM     85  C   UNL A   1      30.121  25.148  25.922  1.00  0.00     0.252 C 
ATOM     86  H   UNL A   1      28.241  25.428  25.344  1.00  0.00     0.163 HD
ATOM     87  O   UNL A   1      29.772  24.552  26.938  1.00  0.00    -0.269 OA
BRANCH  85  88
ATOM     88  C   UNL A   1      31.553  25.398  25.685  1.00  0.00     0.059 A 
ATOM     89  C   UNL A   1      32.129  26.572  26.192  1.00  0.00     0.036 A 
ATOM     90  C   UNL A   1      32.365  24.422  25.091  1.00  0.00     0.053 A 
ATOM     91  C   UNL A   1      33.500  26.782  26.063  1.00  0.00     0.041 A 
ATOM     92  C   UNL A   1      33.745  24.633  24.993  1.00  0.00     0.023 A 
ATOM     93  Cl  UNL A   1      31.736  22.953  24.435  1.00  0.00    -0.083 Cl
ATOM     94  Cl  UNL A   1      34.197  28.242  26.648  1.00  0.00    -0.084 Cl
ATOM     95  C   UNL A   1      34.312  25.815  25.473  1.00  0.00     0.022 A 
ENDBRANCH  85  88
ENDBRANCH  83  84
ENDBRANCH  82  83
ENDBRANCH  75  78
ENDBRANCH  73  74
ENDBRANCH   1  73
TORSDOF 14
ENDMDL
