MODEL 1
REMARK VINA RESULT:     -13.9      0.000      0.000
REMARK SMILES C[N@H+]1CCO[C@H](c2noc(-c3ccccc3C(=O)NCCCCNC(=O)c3ccc(-c4c5nc(c(-c6c(F)c(F)c(F)c(F)c6F)c6ccc([nH]6)c(-c6c(F)c(F)c(F)c(F)c6F)c6nc(c(-c7c(F)c(F)c(F)c(F)c7F)c7ccc4[nH]7)C=C6)C=C5)cc3)n2)C1
REMARK SMILES IDX 21 1 20 2 19 3 17 4 18 5 16 7 11 8 12 9 13 10 15 11 14 12
REMARK SMILES IDX 10 13 7 14 8 15 90 16 9 17 6 18 1 19 2 20 3 21 91 22 4 24
REMARK SMILES IDX 5 25 22 26 23 27 24 28 25 29 26 31 27 32 28 33 89 34 29 35
REMARK SMILES IDX 88 36 30 37 31 38 32 39 82 40 33 41 87 42 81 43 83 44 34 45
REMARK SMILES IDX 86 46 80 47 79 48 35 50 67 51 47 52 66 53 48 54 51 55 65 56
REMARK SMILES IDX 84 57 49 58 50 59 64 61 85 62 52 63 36 64 37 65 45 66 38 67
REMARK SMILES IDX 39 68 43 69 46 70 40 71 41 72 44 73 42 74 68 75 69 76 77 77
REMARK SMILES IDX 70 78 71 79 75 80 78 81 72 82 73 83 76 84 74 85 53 86 54 87
REMARK SMILES IDX 62 88 55 89 56 90 60 91 63 92 57 93 58 94 61 95 59 96
REMARK H PARENT 19 6 2 23 24 30 83 49 51 60
REMARK Flexibility Score: inf
ROOT
ATOM      1  C   UNL A   1      35.529  20.865  25.010  1.00  0.00     0.023 C 
ENDROOT
BRANCH   1   2
ATOM      2  C   UNL A   1      35.402  22.204  25.728  1.00  0.00     0.116 C 
BRANCH   2   3
ATOM      3  N   UNL A   1      34.615  22.223  26.944  1.00  0.00    -0.352 N 
ATOM      4  C   UNL A   1      33.289  22.521  27.183  1.00  0.00     0.252 C 
ATOM      5  O   UNL A   1      32.851  22.220  28.298  1.00  0.00    -0.269 OA
ATOM      6  H   UNL A   1      35.122  21.978  27.752  1.00  0.00     0.163 HD
BRANCH   4   7
ATOM      7  C   UNL A   1      32.383  23.301  26.273  1.00  0.00     0.052 A 
ATOM      8  C   UNL A   1      31.833  22.917  25.037  1.00  0.00     0.053 A 
ATOM      9  C   UNL A   1      31.038  23.839  24.315  1.00  0.00     0.015 A 
ATOM     10  C   UNL A   1      30.714  25.088  24.835  1.00  0.00     0.001 A 
ATOM     11  C   UNL A   1      32.009  24.563  26.795  1.00  0.00     0.014 A 
ATOM     12  C   UNL A   1      31.179  25.441  26.091  1.00  0.00     0.001 A 
BRANCH   8  13
ATOM     13  C   UNL A   1      31.952  21.588  24.479  1.00  0.00     0.258 A 
ATOM     14  C   UNL A   1      32.242  19.569  24.021  1.00  0.00     0.206 A 
ATOM     15  N   UNL A   1      32.412  20.173  22.835  1.00  0.00    -0.059 NA
ATOM     16  N   UNL A   1      31.936  20.416  25.061  1.00  0.00    -0.189 NA
ATOM     17  O   UNL A   1      32.211  21.521  23.136  1.00  0.00    -0.334 OA
BRANCH  14  18
ATOM     18  C   UNL A   1      32.568  18.129  24.239  1.00  0.00     0.245 C 
ATOM     19  C   UNL A   1      32.297  15.434  25.866  1.00  0.00     0.332 C 
ATOM     20  N   UNL A   1      33.315  16.465  26.056  1.00  0.00    -0.333 N 
ATOM     21  C   UNL A   1      34.480  16.224  25.191  1.00  0.00     0.290 C 
ATOM     22  C   UNL A   1      32.793  17.823  25.748  1.00  0.00     0.303 C 
ATOM     23  H   UNL A   1      33.585  16.417  27.039  1.00  0.00     0.348 HD
ATOM     24  C   UNL A   1      34.147  16.455  23.717  1.00  0.00     0.222 C 
ATOM     25  O   UNL A   1      33.750  17.799  23.479  1.00  0.00    -0.358 OA
ENDBRANCH  14  18
ENDBRANCH   8  13
ENDBRANCH   4   7
ENDBRANCH   2   3
ENDBRANCH   1   2
BRANCH   1  26
ATOM     26  C   UNL A   1      36.905  20.201  24.956  1.00  0.00     0.023 C 
BRANCH  26  27
ATOM     27  C   UNL A   1      38.121  21.056  25.316  1.00  0.00     0.116 C 
BRANCH  27  28
ATOM     28  N   UNL A   1      39.268  20.329  25.834  1.00  0.00    -0.352 N 
ATOM     29  C   UNL A   1      40.354  20.753  26.575  1.00  0.00     0.251 C 
ATOM     30  H   UNL A   1      39.271  19.368  25.621  1.00  0.00     0.163 HD
ATOM     31  O   UNL A   1      41.201  19.924  26.898  1.00  0.00    -0.269 OA
BRANCH  29  32
ATOM     32  C   UNL A   1      40.541  22.171  27.016  1.00  0.00     0.039 A 
ATOM     33  C   UNL A   1      41.424  22.423  28.080  1.00  0.00     0.014 A 
ATOM     34  C   UNL A   1      39.836  23.248  26.466  1.00  0.00     0.014 A 
ATOM     35  C   UNL A   1      41.691  23.735  28.488  1.00  0.00     0.010 A 
ATOM     36  C   UNL A   1      40.085  24.551  26.870  1.00  0.00     0.010 A 
ATOM     37  C   UNL A   1      41.068  24.802  27.829  1.00  0.00    -0.014 A 
BRANCH  37  38
ATOM     38  C   UNL A   1      41.630  26.167  27.835  1.00  0.00     0.031 A 
ATOM     39  C   UNL A   1      43.013  26.454  27.352  1.00  0.00     0.074 A 
ATOM     40  C   UNL A   1      40.936  27.069  28.555  1.00  0.00     0.049 A 
ATOM     41  N   UNL A   1      43.675  27.580  27.390  1.00  0.00    -0.248 NA
ATOM     42  C   UNL A   1      43.769  25.324  26.795  1.00  0.00     0.031 C 
ATOM     43  C   UNL A   1      39.652  26.801  29.219  1.00  0.00     0.029 A 
ATOM     44  N   UNL A   1      41.227  28.355  28.913  1.00  0.00    -0.354 N 
ATOM     45  C   UNL A   1      44.921  27.305  26.846  1.00  0.00     0.074 A 
ATOM     46  C   UNL A   1      44.946  25.888  26.547  1.00  0.00     0.031 C 
ATOM     47  C   UNL A   1      39.275  27.882  29.911  1.00  0.00     0.029 A 
ATOM     48  C   UNL A   1      40.283  28.918  29.738  1.00  0.00     0.049 A 
ATOM     49  H   UNL A   1      42.032  28.832  28.609  1.00  0.00     0.167 HD
ATOM     50  C   UNL A   1      45.933  28.175  26.608  1.00  0.00     0.037 A 
ATOM     51  C   UNL A   1      40.232  30.144  30.284  1.00  0.00     0.037 A 
ATOM     52  C   UNL A   1      45.875  29.573  26.959  1.00  0.00     0.049 A 
ATOM     53  C   UNL A   1      41.333  31.104  29.949  1.00  0.00     0.074 A 
ATOM     54  C   UNL A   1      46.782  30.578  26.677  1.00  0.00     0.029 A 
ATOM     55  N   UNL A   1      44.852  30.156  27.698  1.00  0.00    -0.354 N 
ATOM     56  N   UNL A   1      42.430  30.892  29.265  1.00  0.00    -0.248 NA
ATOM     57  C   UNL A   1      41.173  32.479  30.430  1.00  0.00     0.031 C 
ATOM     58  C   UNL A   1      46.336  31.755  27.291  1.00  0.00     0.029 A 
ATOM     59  C   UNL A   1      45.119  31.500  27.906  1.00  0.00     0.049 A 
ATOM     60  H   UNL A   1      44.053  29.683  28.026  1.00  0.00     0.167 HD
ATOM     61  C   UNL A   1      43.083  32.111  29.204  1.00  0.00     0.074 A 
ATOM     62  C   UNL A   1      42.242  33.063  29.907  1.00  0.00     0.031 C 
ATOM     63  C   UNL A   1      44.267  32.420  28.621  1.00  0.00     0.037 A 
BRANCH  50  64
ATOM     64  C   UNL A   1      47.164  27.652  25.918  1.00  0.00     0.064 A 
ATOM     65  C   UNL A   1      47.278  27.665  24.518  1.00  0.00     0.173 A 
ATOM     66  C   UNL A   1      48.265  27.187  26.654  1.00  0.00     0.173 A 
ATOM     67  F   UNL A   1      46.259  28.099  23.761  1.00  0.00    -0.203 F 
ATOM     68  C   UNL A   1      48.429  27.204  23.883  1.00  0.00     0.198 A 
ATOM     69  C   UNL A   1      49.427  26.756  26.017  1.00  0.00     0.198 A 
ATOM     70  F   UNL A   1      48.221  27.160  27.995  1.00  0.00    -0.203 F 
ATOM     71  F   UNL A   1      48.491  27.183  22.544  1.00  0.00    -0.200 F 
ATOM     72  C   UNL A   1      49.505  26.757  24.632  1.00  0.00     0.200 A 
ATOM     73  F   UNL A   1      50.474  26.340  26.743  1.00  0.00    -0.200 F 
ATOM     74  F   UNL A   1      50.616  26.324  24.020  1.00  0.00    -0.200 F 
ENDBRANCH  50  64
BRANCH  51  75
ATOM     75  C   UNL A   1      39.052  30.537  31.091  1.00  0.00     0.064 A 
ATOM     76  C   UNL A   1      39.080  30.418  32.487  1.00  0.00     0.173 A 
ATOM     77  C   UNL A   1      37.909  31.098  30.505  1.00  0.00     0.173 A 
ATOM     78  F   UNL A   1      40.156  29.894  33.092  1.00  0.00    -0.203 F 
ATOM     79  C   UNL A   1      37.997  30.818  33.266  1.00  0.00     0.198 A 
ATOM     80  C   UNL A   1      36.836  31.523  31.288  1.00  0.00     0.198 A 
ATOM     81  F   UNL A   1      37.846  31.264  29.175  1.00  0.00    -0.203 F 
ATOM     82  F   UNL A   1      38.039  30.660  34.595  1.00  0.00    -0.200 F 
ATOM     83  C   UNL A   1      36.878  31.375  32.666  1.00  0.00     0.200 A 
ATOM     84  F   UNL A   1      35.768  32.085  30.707  1.00  0.00    -0.200 F 
ATOM     85  F   UNL A   1      35.841  31.770  33.417  1.00  0.00    -0.200 F 
ENDBRANCH  51  75
BRANCH  63  86
ATOM     86  C   UNL A   1      44.707  33.850  28.712  1.00  0.00     0.064 A 
ATOM     87  C   UNL A   1      45.530  34.300  29.756  1.00  0.00     0.173 A 
ATOM     88  C   UNL A   1      44.319  34.776  27.733  1.00  0.00     0.173 A 
ATOM     89  F   UNL A   1      45.910  33.456  30.727  1.00  0.00    -0.203 F 
ATOM     90  C   UNL A   1      45.923  35.633  29.831  1.00  0.00     0.198 A 
ATOM     91  C   UNL A   1      44.742  36.099  27.792  1.00  0.00     0.198 A 
ATOM     92  F   UNL A   1      43.534  34.393  26.714  1.00  0.00    -0.203 F 
ATOM     93  F   UNL A   1      46.661  36.052  30.868  1.00  0.00    -0.200 F 
ATOM     94  C   UNL A   1      45.536  36.528  28.846  1.00  0.00     0.200 A 
ATOM     95  F   UNL A   1      44.379  36.961  26.832  1.00  0.00    -0.200 F 
ATOM     96  F   UNL A   1      45.922  37.809  28.916  1.00  0.00    -0.200 F 
ENDBRANCH  63  86
ENDBRANCH  37  38
ENDBRANCH  29  32
ENDBRANCH  27  28
ENDBRANCH  26  27
ENDBRANCH   1  26
TORSDOF 13
ENDMDL
MODEL 2
REMARK VINA RESULT:     -13.7      5.309      8.700
REMARK SMILES C[N@H+]1CCO[C@H](c2noc(-c3ccccc3C(=O)NCCCCNC(=O)c3ccc(-c4c5nc(c(-c6c(F)c(F)c(F)c(F)c6F)c6ccc([nH]6)c(-c6c(F)c(F)c(F)c(F)c6F)c6nc(c(-c7c(F)c(F)c(F)c(F)c7F)c7ccc4[nH]7)C=C6)C=C5)cc3)n2)C1
REMARK SMILES IDX 21 1 20 2 19 3 17 4 18 5 16 7 11 8 12 9 13 10 15 11 14 12
REMARK SMILES IDX 10 13 7 14 8 15 90 16 9 17 6 18 1 19 2 20 3 21 91 22 4 24
REMARK SMILES IDX 5 25 22 26 23 27 24 28 25 29 26 31 27 32 28 33 89 34 29 35
REMARK SMILES IDX 88 36 30 37 31 38 32 39 82 40 33 41 87 42 81 43 83 44 34 45
REMARK SMILES IDX 86 46 80 47 79 48 35 50 67 51 47 52 66 53 48 54 51 55 65 56
REMARK SMILES IDX 84 57 49 58 50 59 64 61 85 62 52 63 36 64 37 65 45 66 38 67
REMARK SMILES IDX 39 68 43 69 46 70 40 71 41 72 44 73 42 74 68 75 69 76 77 77
REMARK SMILES IDX 70 78 71 79 75 80 78 81 72 82 73 83 76 84 74 85 53 86 54 87
REMARK SMILES IDX 62 88 55 89 56 90 60 91 63 92 57 93 58 94 61 95 59 96
REMARK H PARENT 19 6 2 23 24 30 83 49 51 60
REMARK Flexibility Score: inf
ROOT
ATOM      1  C   UNL A   1      31.399  29.512  25.230  1.00  0.00     0.023 C 
ENDROOT
BRANCH   1   2
ATOM      2  C   UNL A   1      32.668  28.668  25.206  1.00  0.00     0.116 C 
BRANCH   2   3
ATOM      3  N   UNL A   1      33.416  28.646  23.966  1.00  0.00    -0.352 N 
ATOM      4  C   UNL A   1      33.415  27.768  22.901  1.00  0.00     0.252 C 
ATOM      5  O   UNL A   1      33.996  28.145  21.878  1.00  0.00    -0.269 OA
ATOM      6  H   UNL A   1      34.043  29.398  23.863  1.00  0.00     0.163 HD
BRANCH   4   7
ATOM      7  C   UNL A   1      32.904  26.355  22.924  1.00  0.00     0.052 A 
ATOM      8  C   UNL A   1      31.575  25.899  22.988  1.00  0.00     0.053 A 
ATOM      9  C   UNL A   1      31.320  24.509  23.052  1.00  0.00     0.015 A 
ATOM     10  C   UNL A   1      32.347  23.573  22.967  1.00  0.00     0.001 A 
ATOM     11  C   UNL A   1      33.926  25.383  22.803  1.00  0.00     0.014 A 
ATOM     12  C   UNL A   1      33.652  24.012  22.815  1.00  0.00     0.001 A 
BRANCH   8  13
ATOM     13  C   UNL A   1      30.420  26.766  22.904  1.00  0.00     0.258 A 
ATOM     14  C   UNL A   1      29.004  28.289  22.692  1.00  0.00     0.206 A 
ATOM     15  N   UNL A   1      28.416  27.451  23.559  1.00  0.00    -0.059 NA
ATOM     16  N   UNL A   1      30.242  27.886  22.250  1.00  0.00    -0.189 NA
ATOM     17  O   UNL A   1      29.356  26.429  23.696  1.00  0.00    -0.334 OA
BRANCH  14  18
ATOM     18  C   UNL A   1      28.459  29.648  22.398  1.00  0.00     0.245 C 
ATOM     19  C   UNL A   1      28.079  32.135  20.487  1.00  0.00     0.332 C 
ATOM     20  N   UNL A   1      29.136  31.956  21.479  1.00  0.00    -0.333 N 
ATOM     21  C   UNL A   1      28.721  32.470  22.794  1.00  0.00     0.290 C 
ATOM     22  C   UNL A   1      29.503  30.525  21.647  1.00  0.00     0.303 C 
ATOM     23  H   UNL A   1      29.942  32.477  21.132  1.00  0.00     0.348 HD
ATOM     24  C   UNL A   1      27.627  31.605  23.419  1.00  0.00     0.222 C 
ATOM     25  O   UNL A   1      28.079  30.276  23.641  1.00  0.00    -0.358 OA
ENDBRANCH  14  18
ENDBRANCH   8  13
ENDBRANCH   4   7
ENDBRANCH   2   3
ENDBRANCH   1   2
BRANCH   1  26
ATOM     26  C   UNL A   1      31.472  30.911  25.843  1.00  0.00     0.023 C 
BRANCH  26  27
ATOM     27  C   UNL A   1      32.449  31.130  26.999  1.00  0.00     0.116 C 
BRANCH  27  28
ATOM     28  N   UNL A   1      32.590  32.505  27.449  1.00  0.00    -0.352 N 
ATOM     29  C   UNL A   1      33.666  33.175  27.997  1.00  0.00     0.251 C 
ATOM     30  H   UNL A   1      31.780  33.053  27.344  1.00  0.00     0.163 HD
ATOM     31  O   UNL A   1      33.528  34.359  28.294  1.00  0.00    -0.269 OA
BRANCH  29  32
ATOM     32  C   UNL A   1      34.997  32.533  28.233  1.00  0.00     0.039 A 
ATOM     33  C   UNL A   1      36.136  33.357  28.253  1.00  0.00     0.014 A 
ATOM     34  C   UNL A   1      35.173  31.151  28.372  1.00  0.00     0.014 A 
ATOM     35  C   UNL A   1      37.398  32.821  28.539  1.00  0.00     0.010 A 
ATOM     36  C   UNL A   1      36.419  30.608  28.644  1.00  0.00     0.010 A 
ATOM     37  C   UNL A   1      37.520  31.451  28.803  1.00  0.00    -0.014 A 
BRANCH  37  38
ATOM     38  C   UNL A   1      38.651  30.897  29.573  1.00  0.00     0.031 A 
ATOM     39  C   UNL A   1      39.482  29.769  29.057  1.00  0.00     0.074 A 
ATOM     40  C   UNL A   1      38.704  31.275  30.865  1.00  0.00     0.049 A 
ATOM     41  N   UNL A   1      40.438  29.115  29.662  1.00  0.00    -0.248 NA
ATOM     42  C   UNL A   1      39.171  29.280  27.707  1.00  0.00     0.031 C 
ATOM     43  C   UNL A   1      37.796  32.246  31.490  1.00  0.00     0.029 A 
ATOM     44  N   UNL A   1      39.493  30.852  31.898  1.00  0.00    -0.354 N 
ATOM     45  C   UNL A   1      40.860  28.147  28.762  1.00  0.00     0.074 A 
ATOM     46  C   UNL A   1      40.010  28.256  27.595  1.00  0.00     0.031 C 
ATOM     47  C   UNL A   1      38.071  32.334  32.797  1.00  0.00     0.029 A 
ATOM     48  C   UNL A   1      39.172  31.433  33.101  1.00  0.00     0.049 A 
ATOM     49  H   UNL A   1      40.219  30.197  31.791  1.00  0.00     0.167 HD
ATOM     50  C   UNL A   1      41.882  27.268  28.908  1.00  0.00     0.037 A 
ATOM     51  C   UNL A   1      39.719  31.264  34.315  1.00  0.00     0.037 A 
ATOM     52  C   UNL A   1      42.678  27.171  30.107  1.00  0.00     0.049 A 
ATOM     53  C   UNL A   1      40.888  30.334  34.432  1.00  0.00     0.074 A 
ATOM     54  C   UNL A   1      43.804  26.402  30.343  1.00  0.00     0.029 A 
ATOM     55  N   UNL A   1      42.409  27.856  31.287  1.00  0.00    -0.354 N 
ATOM     56  N   UNL A   1      41.413  29.553  33.520  1.00  0.00    -0.248 NA
ATOM     57  C   UNL A   1      41.563  30.287  35.733  1.00  0.00     0.031 C 
ATOM     58  C   UNL A   1      44.183  26.581  31.679  1.00  0.00     0.029 A 
ATOM     59  C   UNL A   1      43.330  27.507  32.262  1.00  0.00     0.049 A 
ATOM     60  H   UNL A   1      41.672  28.496  31.412  1.00  0.00     0.167 HD
ATOM     61  C   UNL A   1      42.499  28.941  34.122  1.00  0.00     0.074 A 
ATOM     62  C   UNL A   1      42.567  29.461  35.475  1.00  0.00     0.031 C 
ATOM     63  C   UNL A   1      43.364  28.034  33.606  1.00  0.00     0.037 A 
BRANCH  50  64
ATOM     64  C   UNL A   1      42.210  26.370  27.746  1.00  0.00     0.064 A 
ATOM     65  C   UNL A   1      43.225  26.699  26.833  1.00  0.00     0.173 A 
ATOM     66  C   UNL A   1      41.552  25.143  27.570  1.00  0.00     0.173 A 
ATOM     67  F   UNL A   1      43.892  27.858  26.951  1.00  0.00    -0.203 F 
ATOM     68  C   UNL A   1      43.545  25.854  25.773  1.00  0.00     0.198 A 
ATOM     69  C   UNL A   1      41.896  24.284  26.526  1.00  0.00     0.198 A 
ATOM     70  F   UNL A   1      40.581  24.766  28.415  1.00  0.00    -0.203 F 
ATOM     71  F   UNL A   1      44.486  26.216  24.889  1.00  0.00    -0.200 F 
ATOM     72  C   UNL A   1      42.886  24.644  25.625  1.00  0.00     0.200 A 
ATOM     73  F   UNL A   1      41.270  23.107  26.394  1.00  0.00    -0.200 F 
ATOM     74  F   UNL A   1      43.202  23.827  24.610  1.00  0.00    -0.200 F 
ENDBRANCH  50  64
BRANCH  51  75
ATOM     75  C   UNL A   1      39.232  32.075  35.457  1.00  0.00     0.064 A 
ATOM     76  C   UNL A   1      38.388  31.504  36.419  1.00  0.00     0.173 A 
ATOM     77  C   UNL A   1      39.644  33.401  35.652  1.00  0.00     0.173 A 
ATOM     78  F   UNL A   1      37.973  30.237  36.278  1.00  0.00    -0.203 F 
ATOM     79  C   UNL A   1      37.950  32.237  37.519  1.00  0.00     0.198 A 
ATOM     80  C   UNL A   1      39.227  34.125  36.768  1.00  0.00     0.198 A 
ATOM     81  F   UNL A   1      40.478  33.982  34.778  1.00  0.00    -0.203 F 
ATOM     82  F   UNL A   1      37.115  31.676  38.404  1.00  0.00    -0.200 F 
ATOM     83  C   UNL A   1      38.374  33.545  37.696  1.00  0.00     0.200 A 
ATOM     84  F   UNL A   1      39.660  35.380  36.950  1.00  0.00    -0.200 F 
ATOM     85  F   UNL A   1      37.961  34.247  38.760  1.00  0.00    -0.200 F 
ENDBRANCH  51  75
BRANCH  63  86
ATOM     86  C   UNL A   1      44.461  27.562  34.511  1.00  0.00     0.064 A 
ATOM     87  C   UNL A   1      45.682  28.247  34.604  1.00  0.00     0.173 A 
ATOM     88  C   UNL A   1      44.282  26.424  35.311  1.00  0.00     0.173 A 
ATOM     89  F   UNL A   1      45.909  29.329  33.844  1.00  0.00    -0.203 F 
ATOM     90  C   UNL A   1      46.694  27.791  35.444  1.00  0.00     0.198 A 
ATOM     91  C   UNL A   1      45.282  25.992  36.175  1.00  0.00     0.198 A 
ATOM     92  F   UNL A   1      43.131  25.736  35.259  1.00  0.00    -0.203 F 
ATOM     93  F   UNL A   1      47.873  28.428  35.473  1.00  0.00    -0.200 F 
ATOM     94  C   UNL A   1      46.491  26.670  36.234  1.00  0.00     0.200 A 
ATOM     95  F   UNL A   1      45.079  24.916  36.948  1.00  0.00    -0.200 F 
ATOM     96  F   UNL A   1      47.464  26.238  37.046  1.00  0.00    -0.200 F 
ENDBRANCH  63  86
ENDBRANCH  37  38
ENDBRANCH  29  32
ENDBRANCH  27  28
ENDBRANCH  26  27
ENDBRANCH   1  26
TORSDOF 13
ENDMDL
MODEL 3
REMARK VINA RESULT:     -13.7      0.523      7.437
REMARK SMILES C[N@H+]1CCO[C@H](c2noc(-c3ccccc3C(=O)NCCCCNC(=O)c3ccc(-c4c5nc(c(-c6c(F)c(F)c(F)c(F)c6F)c6ccc([nH]6)c(-c6c(F)c(F)c(F)c(F)c6F)c6nc(c(-c7c(F)c(F)c(F)c(F)c7F)c7ccc4[nH]7)C=C6)C=C5)cc3)n2)C1
REMARK SMILES IDX 21 1 20 2 19 3 17 4 18 5 16 7 11 8 12 9 13 10 15 11 14 12
REMARK SMILES IDX 10 13 7 14 8 15 90 16 9 17 6 18 1 19 2 20 3 21 91 22 4 24
REMARK SMILES IDX 5 25 22 26 23 27 24 28 25 29 26 31 27 32 28 33 89 34 29 35
REMARK SMILES IDX 88 36 30 37 31 38 32 39 82 40 33 41 87 42 81 43 83 44 34 45
REMARK SMILES IDX 86 46 80 47 79 48 35 50 67 51 47 52 66 53 48 54 51 55 65 56
REMARK SMILES IDX 84 57 49 58 50 59 64 61 85 62 52 63 36 64 37 65 45 66 38 67
REMARK SMILES IDX 39 68 43 69 46 70 40 71 41 72 44 73 42 74 68 75 69 76 77 77
REMARK SMILES IDX 70 78 71 79 75 80 78 81 72 82 73 83 76 84 74 85 53 86 54 87
REMARK SMILES IDX 62 88 55 89 56 90 60 91 63 92 57 93 58 94 61 95 59 96
REMARK H PARENT 19 6 2 23 24 30 83 49 51 60
REMARK Flexibility Score: inf
ROOT
ATOM      1  C   UNL A   1      35.593  20.755  25.069  1.00  0.00     0.023 C 
ENDROOT
BRANCH   1   2
ATOM      2  C   UNL A   1      35.393  22.128  25.700  1.00  0.00     0.116 C 
BRANCH   2   3
ATOM      3  N   UNL A   1      34.639  22.176  26.936  1.00  0.00    -0.352 N 
ATOM      4  C   UNL A   1      33.323  22.493  27.204  1.00  0.00     0.252 C 
ATOM      5  O   UNL A   1      32.911  22.215  28.335  1.00  0.00    -0.269 OA
ATOM      6  H   UNL A   1      35.163  21.937  27.735  1.00  0.00     0.163 HD
BRANCH   4   7
ATOM      7  C   UNL A   1      32.403  23.270  26.306  1.00  0.00     0.052 A 
ATOM      8  C   UNL A   1      31.844  22.887  25.074  1.00  0.00     0.053 A 
ATOM      9  C   UNL A   1      31.035  23.805  24.362  1.00  0.00     0.015 A 
ATOM     10  C   UNL A   1      30.707  25.050  24.889  1.00  0.00     0.001 A 
ATOM     11  C   UNL A   1      32.023  24.527  26.836  1.00  0.00     0.014 A 
ATOM     12  C   UNL A   1      31.181  25.402  26.144  1.00  0.00     0.001 A 
BRANCH   8  13
ATOM     13  C   UNL A   1      31.968  21.561  24.509  1.00  0.00     0.258 A 
ATOM     14  C   UNL A   1      32.264  19.545  24.042  1.00  0.00     0.206 A 
ATOM     15  N   UNL A   1      32.438  20.156  22.860  1.00  0.00    -0.059 NA
ATOM     16  N   UNL A   1      31.952  20.386  25.084  1.00  0.00    -0.189 NA
ATOM     17  O   UNL A   1      32.233  21.501  23.167  1.00  0.00    -0.334 OA
BRANCH  14  18
ATOM     18  C   UNL A   1      32.592  18.104  24.254  1.00  0.00     0.245 C 
ATOM     19  C   UNL A   1      32.266  15.383  25.825  1.00  0.00     0.332 C 
ATOM     20  N   UNL A   1      33.265  16.419  26.080  1.00  0.00    -0.333 N 
ATOM     21  C   UNL A   1      34.473  16.201  25.268  1.00  0.00     0.290 C 
ATOM     22  C   UNL A   1      32.747  17.777  25.767  1.00  0.00     0.303 C 
ATOM     23  H   UNL A   1      33.488  16.358  27.074  1.00  0.00     0.348 HD
ATOM     24  C   UNL A   1      34.208  16.451  23.784  1.00  0.00     0.222 C 
ATOM     25  O   UNL A   1      33.812  17.795  23.547  1.00  0.00    -0.358 OA
ENDBRANCH  14  18
ENDBRANCH   8  13
ENDBRANCH   4   7
ENDBRANCH   2   3
ENDBRANCH   1   2
BRANCH   1  26
ATOM     26  C   UNL A   1      37.020  20.221  24.935  1.00  0.00     0.023 C 
BRANCH  26  27
ATOM     27  C   UNL A   1      38.151  21.059  25.535  1.00  0.00     0.116 C 
BRANCH  27  28
ATOM     28  N   UNL A   1      39.416  20.366  25.717  1.00  0.00    -0.352 N 
ATOM     29  C   UNL A   1      40.585  20.759  26.338  1.00  0.00     0.251 C 
ATOM     30  H   UNL A   1      39.443  19.461  25.332  1.00  0.00     0.163 HD
ATOM     31  O   UNL A   1      41.528  19.972  26.361  1.00  0.00    -0.269 OA
BRANCH  29  32
ATOM     32  C   UNL A   1      40.755  22.092  26.997  1.00  0.00     0.039 A 
ATOM     33  C   UNL A   1      41.602  22.174  28.116  1.00  0.00     0.014 A 
ATOM     34  C   UNL A   1      40.066  23.243  26.597  1.00  0.00     0.014 A 
ATOM     35  C   UNL A   1      41.853  23.407  28.730  1.00  0.00     0.010 A 
ATOM     36  C   UNL A   1      40.298  24.467  27.204  1.00  0.00     0.010 A 
ATOM     37  C   UNL A   1      41.249  24.565  28.222  1.00  0.00    -0.014 A 
BRANCH  37  38
ATOM     38  C   UNL A   1      41.808  25.911  28.456  1.00  0.00     0.031 A 
ATOM     39  C   UNL A   1      40.975  27.032  28.982  1.00  0.00     0.074 A 
ATOM     40  C   UNL A   1      43.017  26.132  27.906  1.00  0.00     0.049 A 
ATOM     41  N   UNL A   1      41.301  28.288  29.141  1.00  0.00    -0.248 NA
ATOM     42  C   UNL A   1      39.582  26.718  29.331  1.00  0.00     0.031 C 
ATOM     43  C   UNL A   1      43.817  25.116  27.207  1.00  0.00     0.029 A 
ATOM     44  N   UNL A   1      43.757  27.274  27.780  1.00  0.00    -0.354 N 
ATOM     45  C   UNL A   1      40.163  28.914  29.628  1.00  0.00     0.074 A 
ATOM     46  C   UNL A   1      39.117  27.914  29.674  1.00  0.00     0.031 C 
ATOM     47  C   UNL A   1      44.925  25.684  26.716  1.00  0.00     0.029 A 
ATOM     48  C   UNL A   1      44.918  27.096  27.068  1.00  0.00     0.049 A 
ATOM     49  H   UNL A   1      43.485  28.139  28.163  1.00  0.00     0.167 HD
ATOM     50  C   UNL A   1      40.028  30.207  30.015  1.00  0.00     0.037 A 
ATOM     51  C   UNL A   1      45.879  27.977  26.746  1.00  0.00     0.037 A 
ATOM     52  C   UNL A   1      41.091  31.178  29.915  1.00  0.00     0.049 A 
ATOM     53  C   UNL A   1      45.733  29.383  27.243  1.00  0.00     0.074 A 
ATOM     54  C   UNL A   1      41.119  32.484  30.369  1.00  0.00     0.029 A 
ATOM     55  N   UNL A   1      42.311  30.947  29.291  1.00  0.00    -0.354 N 
ATOM     56  N   UNL A   1      44.727  29.931  27.879  1.00  0.00    -0.248 NA
ATOM     57  C   UNL A   1      46.867  30.282  27.012  1.00  0.00     0.031 C 
ATOM     58  C   UNL A   1      42.333  33.059  29.972  1.00  0.00     0.029 A 
ATOM     59  C   UNL A   1      43.089  32.094  29.322  1.00  0.00     0.049 A 
ATOM     60  H   UNL A   1      42.584  30.092  28.885  1.00  0.00     0.167 HD
ATOM     61  C   UNL A   1      45.112  31.232  28.153  1.00  0.00     0.074 A 
ATOM     62  C   UNL A   1      46.457  31.381  27.629  1.00  0.00     0.031 C 
ATOM     63  C   UNL A   1      44.421  32.215  28.781  1.00  0.00     0.037 A 
BRANCH  50  64
ATOM     64  C   UNL A   1      38.710  30.634  30.601  1.00  0.00     0.064 A 
ATOM     65  C   UNL A   1      38.496  30.642  31.990  1.00  0.00     0.173 A 
ATOM     66  C   UNL A   1      37.668  31.094  29.782  1.00  0.00     0.173 A 
ATOM     67  F   UNL A   1      39.456  30.214  32.824  1.00  0.00    -0.203 F 
ATOM     68  C   UNL A   1      37.284  31.061  32.531  1.00  0.00     0.198 A 
ATOM     69  C   UNL A   1      36.466  31.543  30.329  1.00  0.00     0.198 A 
ATOM     70  F   UNL A   1      37.814  31.121  28.449  1.00  0.00    -0.203 F 
ATOM     71  F   UNL A   1      37.091  31.013  33.857  1.00  0.00    -0.200 F 
ATOM     72  C   UNL A   1      36.273  31.519  31.702  1.00  0.00     0.200 A 
ATOM     73  F   UNL A   1      35.496  32.002  29.527  1.00  0.00    -0.200 F 
ATOM     74  F   UNL A   1      35.110  31.933  32.225  1.00  0.00    -0.200 F 
ENDBRANCH  50  64
BRANCH  51  75
ATOM     75  C   UNL A   1      47.086  27.511  26.021  1.00  0.00     0.064 A 
ATOM     76  C   UNL A   1      47.149  27.601  24.624  1.00  0.00     0.173 A 
ATOM     77  C   UNL A   1      48.217  27.035  26.698  1.00  0.00     0.173 A 
ATOM     78  F   UNL A   1      46.093  28.057  23.935  1.00  0.00    -0.203 F 
ATOM     79  C   UNL A   1      48.288  27.205  23.928  1.00  0.00     0.198 A 
ATOM     80  C   UNL A   1      49.367  26.665  26.002  1.00  0.00     0.198 A 
ATOM     81  F   UNL A   1      48.220  26.961  28.037  1.00  0.00    -0.203 F 
ATOM     82  F   UNL A   1      48.307  27.270  22.589  1.00  0.00    -0.200 F 
ATOM     83  C   UNL A   1      49.398  26.742  24.617  1.00  0.00     0.200 A 
ATOM     84  F   UNL A   1      50.447  26.243  26.673  1.00  0.00    -0.200 F 
ATOM     85  F   UNL A   1      50.498  26.371  23.947  1.00  0.00    -0.200 F 
ENDBRANCH  51  75
BRANCH  63  86
ATOM     86  C   UNL A   1      45.122  33.529  28.942  1.00  0.00     0.064 A 
ATOM     87  C   UNL A   1      44.990  34.554  27.993  1.00  0.00     0.173 A 
ATOM     88  C   UNL A   1      45.919  33.776  30.070  1.00  0.00     0.173 A 
ATOM     89  F   UNL A   1      44.256  34.358  26.887  1.00  0.00    -0.203 F 
ATOM     90  C   UNL A   1      45.654  35.766  28.153  1.00  0.00     0.198 A 
ATOM     91  C   UNL A   1      46.553  35.001  30.245  1.00  0.00     0.198 A 
ATOM     92  F   UNL A   1      46.075  32.828  31.008  1.00  0.00    -0.203 F 
ATOM     93  F   UNL A   1      45.560  36.708  27.205  1.00  0.00    -0.200 F 
ATOM     94  C   UNL A   1      46.428  35.991  29.281  1.00  0.00     0.200 A 
ATOM     95  F   UNL A   1      47.289  35.222  31.342  1.00  0.00    -0.200 F 
ATOM     96  F   UNL A   1      47.061  37.162  29.437  1.00  0.00    -0.200 F 
ENDBRANCH  63  86
ENDBRANCH  37  38
ENDBRANCH  29  32
ENDBRANCH  27  28
ENDBRANCH  26  27
ENDBRANCH   1  26
TORSDOF 13
ENDMDL
