MODEL 1
REMARK VINA RESULT:     -12.7      0.000      0.000
REMARK SMILES C[C@@H]1CCCN(C(=O)c2ccc(=O)n([C@H](C)C(=O)NCCCCNC(=O)c3ccc(-c4c5nc(c(-c6c(F)c(F)c(F)c(F)c6F)c6ccc([nH]6)c(-c6c(F)c(F)c(F)c(F)c6F)c6nc(c(-c7c(F)c(F)c(F)c(F)c7F)c7ccc4[nH]7)C=C6)C=C5)cc3)n2)C1
REMARK SMILES IDX 21 1 20 2 19 3 17 4 18 5 15 7 16 8 14 9 9 10 10 11 90 12
REMARK SMILES IDX 11 13 12 14 13 15 7 16 8 17 6 18 1 19 2 20 3 21 91 22 4 23
REMARK SMILES IDX 5 24 22 25 23 26 24 27 25 28 26 30 27 31 28 32 89 33 29 34
REMARK SMILES IDX 88 35 30 36 31 37 32 38 82 39 33 40 87 41 81 42 83 43 34 44
REMARK SMILES IDX 86 45 80 46 79 47 35 49 67 50 47 51 66 52 48 53 51 54 65 55
REMARK SMILES IDX 84 56 49 57 50 58 64 60 85 61 52 62 36 63 37 64 45 65 38 66
REMARK SMILES IDX 39 67 43 68 46 69 40 70 41 71 44 72 42 73 68 74 69 75 77 76
REMARK SMILES IDX 70 77 71 78 75 79 78 80 72 81 73 82 76 83 74 84 53 85 54 86
REMARK SMILES IDX 62 87 55 88 56 89 60 90 63 91 57 92 58 93 61 94 59 95
REMARK H PARENT 19 6 24 29 83 48 51 59
REMARK Flexibility Score: inf
ROOT
ATOM      1  C   UNL A   1      36.539  20.467  25.018  1.00  0.00     0.023 C 
ENDROOT
BRANCH   1   2
ATOM      2  C   UNL A   1      35.383  21.066  25.817  1.00  0.00     0.116 C 
BRANCH   2   3
ATOM      3  N   UNL A   1      34.153  20.330  25.656  1.00  0.00    -0.354 N 
ATOM      4  C   UNL A   1      33.176  20.451  24.712  1.00  0.00     0.244 C 
ATOM      5  O   UNL A   1      32.199  19.704  24.846  1.00  0.00    -0.273 OA
ATOM      6  H   UNL A   1      33.995  19.631  26.332  1.00  0.00     0.163 HD
BRANCH   4   7
ATOM      7  C   UNL A   1      33.222  21.501  23.581  1.00  0.00     0.197 C 
ATOM      8  C   UNL A   1      32.087  21.310  22.574  1.00  0.00     0.044 C 
BRANCH   7   9
ATOM      9  N   UNL A   1      33.396  22.882  24.072  1.00  0.00    -0.217 N 
ATOM     10  C   UNL A   1      32.605  24.623  25.346  1.00  0.00     0.149 A 
ATOM     11  C   UNL A   1      33.645  25.548  24.871  1.00  0.00     0.042 A 
ATOM     12  N   UNL A   1      32.472  23.385  24.981  1.00  0.00    -0.164 NA
ATOM     13  C   UNL A   1      34.528  25.046  24.008  1.00  0.00     0.076 A 
ATOM     14  C   UNL A   1      34.443  23.640  23.552  1.00  0.00     0.267 A 
ATOM     15  O   UNL A   1      35.280  23.238  22.751  1.00  0.00    -0.268 OA
BRANCH  10  16
ATOM     16  C   UNL A   1      31.628  25.205  26.352  1.00  0.00     0.274 C 
ATOM     17  O   UNL A   1      31.333  24.507  27.314  1.00  0.00    -0.267 OA
BRANCH  16  18
ATOM     18  N   UNL A   1      31.107  26.468  26.086  1.00  0.00    -0.337 N 
ATOM     19  C   UNL A   1      32.476  29.885  27.078  1.00  0.00     0.009 C 
ATOM     20  C   UNL A   1      32.186  28.672  26.197  1.00  0.00     0.005 C 
ATOM     21  C   UNL A   1      31.393  29.096  24.952  1.00  0.00     0.007 C 
ATOM     22  C   UNL A   1      31.432  27.583  26.972  1.00  0.00     0.123 C 
ATOM     23  C   UNL A   1      31.017  27.886  24.100  1.00  0.00     0.022 C 
ATOM     24  C   UNL A   1      30.306  26.816  24.918  1.00  0.00     0.120 C 
ENDBRANCH  16  18
ENDBRANCH  10  16
ENDBRANCH   7   9
ENDBRANCH   4   7
ENDBRANCH   2   3
ENDBRANCH   1   2
BRANCH   1  25
ATOM     25  C   UNL A   1      37.778  21.356  24.895  1.00  0.00     0.023 C 
BRANCH  25  26
ATOM     26  C   UNL A   1      38.861  21.140  25.951  1.00  0.00     0.116 C 
BRANCH  26  27
ATOM     27  N   UNL A   1      39.666  19.944  25.755  1.00  0.00    -0.352 N 
ATOM     28  C   UNL A   1      41.009  19.749  26.009  1.00  0.00     0.251 C 
ATOM     29  H   UNL A   1      39.186  19.166  25.392  1.00  0.00     0.163 HD
ATOM     30  O   UNL A   1      41.534  18.674  25.772  1.00  0.00    -0.269 OA
BRANCH  28  31
ATOM     31  C   UNL A   1      41.833  20.879  26.490  1.00  0.00     0.039 A 
ATOM     32  C   UNL A   1      42.069  21.085  27.849  1.00  0.00     0.014 A 
ATOM     33  C   UNL A   1      42.307  21.796  25.545  1.00  0.00     0.014 A 
ATOM     34  C   UNL A   1      42.582  22.305  28.275  1.00  0.00     0.010 A 
ATOM     35  C   UNL A   1      42.892  22.988  25.970  1.00  0.00     0.010 A 
ATOM     36  C   UNL A   1      42.957  23.283  27.339  1.00  0.00    -0.014 A 
BRANCH  36  37
ATOM     37  C   UNL A   1      43.323  24.639  27.818  1.00  0.00     0.031 A 
ATOM     38  C   UNL A   1      44.765  25.069  27.825  1.00  0.00     0.074 A 
ATOM     39  C   UNL A   1      42.351  25.506  28.154  1.00  0.00     0.049 A 
ATOM     40  N   UNL A   1      45.277  26.232  28.143  1.00  0.00    -0.248 NA
ATOM     41  C   UNL A   1      45.766  24.066  27.425  1.00  0.00     0.031 C 
ATOM     42  C   UNL A   1      40.921  25.201  28.163  1.00  0.00     0.029 A 
ATOM     43  N   UNL A   1      42.417  26.827  28.513  1.00  0.00    -0.354 N 
ATOM     44  C   UNL A   1      46.652  26.092  28.002  1.00  0.00     0.074 A 
ATOM     45  C   UNL A   1      46.902  24.729  27.591  1.00  0.00     0.031 C 
ATOM     46  C   UNL A   1      40.239  26.320  28.450  1.00  0.00     0.029 A 
ATOM     47  C   UNL A   1      41.186  27.406  28.688  1.00  0.00     0.049 A 
ATOM     48  H   UNL A   1      43.265  27.312  28.635  1.00  0.00     0.167 HD
ATOM     49  C   UNL A   1      47.617  27.024  28.185  1.00  0.00     0.037 A 
ATOM     50  C   UNL A   1      40.858  28.675  28.995  1.00  0.00     0.037 A 
ATOM     51  C   UNL A   1      47.365  28.389  28.556  1.00  0.00     0.049 A 
ATOM     52  C   UNL A   1      41.948  29.687  29.198  1.00  0.00     0.074 A 
ATOM     53  C   UNL A   1      48.276  29.413  28.755  1.00  0.00     0.029 A 
ATOM     54  N   UNL A   1      46.104  28.926  28.772  1.00  0.00    -0.354 N 
ATOM     55  N   UNL A   1      43.244  29.539  29.073  1.00  0.00    -0.248 NA
ATOM     56  C   UNL A   1      41.533  31.040  29.595  1.00  0.00     0.031 C 
ATOM     57  C   UNL A   1      47.567  30.563  29.116  1.00  0.00     0.029 A 
ATOM     58  C   UNL A   1      46.215  30.263  29.112  1.00  0.00     0.049 A 
ATOM     59  H   UNL A   1      45.259  28.429  28.696  1.00  0.00     0.167 HD
ATOM     60  C   UNL A   1      43.799  30.774  29.368  1.00  0.00     0.074 A 
ATOM     61  C   UNL A   1      42.698  31.669  29.662  1.00  0.00     0.031 C 
ATOM     62  C   UNL A   1      45.105  31.133  29.399  1.00  0.00     0.037 A 
BRANCH  49  63
ATOM     63  C   UNL A   1      49.043  26.601  27.990  1.00  0.00     0.064 A 
ATOM     64  C   UNL A   1      49.614  26.518  26.713  1.00  0.00     0.173 A 
ATOM     65  C   UNL A   1      49.863  26.339  29.097  1.00  0.00     0.173 A 
ATOM     66  F   UNL A   1      48.865  26.746  25.622  1.00  0.00    -0.203 F 
ATOM     67  C   UNL A   1      50.955  26.180  26.549  1.00  0.00     0.198 A 
ATOM     68  C   UNL A   1      51.208  26.020  28.932  1.00  0.00     0.198 A 
ATOM     69  F   UNL A   1      49.363  26.408  30.340  1.00  0.00    -0.203 F 
ATOM     70  F   UNL A   1      51.474  26.081  25.318  1.00  0.00    -0.200 F 
ATOM     71  C   UNL A   1      51.752  25.939  27.659  1.00  0.00     0.200 A 
ATOM     72  F   UNL A   1      51.979  25.795  30.005  1.00  0.00    -0.200 F 
ATOM     73  F   UNL A   1      53.045  25.623  27.501  1.00  0.00    -0.200 F 
ENDBRANCH  49  63
BRANCH  50  74
ATOM     74  C   UNL A   1      39.426  29.051  29.093  1.00  0.00     0.064 A 
ATOM     75  C   UNL A   1      38.701  29.406  27.948  1.00  0.00     0.173 A 
ATOM     76  C   UNL A   1      38.744  29.010  30.316  1.00  0.00     0.173 A 
ATOM     77  F   UNL A   1      39.317  29.473  26.759  1.00  0.00    -0.203 F 
ATOM     78  C   UNL A   1      37.342  29.703  28.023  1.00  0.00     0.198 A 
ATOM     79  C   UNL A   1      37.381  29.287  30.387  1.00  0.00     0.198 A 
ATOM     80  F   UNL A   1      39.397  28.671  31.437  1.00  0.00    -0.203 F 
ATOM     81  F   UNL A   1      36.672  30.053  26.918  1.00  0.00    -0.200 F 
ATOM     82  C   UNL A   1      36.682  29.635  29.242  1.00  0.00     0.200 A 
ATOM     83  F   UNL A   1      36.744  29.205  31.563  1.00  0.00    -0.200 F 
ATOM     84  F   UNL A   1      35.371  29.900  29.311  1.00  0.00    -0.200 F 
ENDBRANCH  50  74
BRANCH  62  85
ATOM     85  C   UNL A   1      45.421  32.551  29.759  1.00  0.00     0.064 A 
ATOM     86  C   UNL A   1      45.477  33.551  28.779  1.00  0.00     0.173 A 
ATOM     87  C   UNL A   1      45.589  32.925  31.100  1.00  0.00     0.173 A 
ATOM     88  F   UNL A   1      45.330  33.234  27.484  1.00  0.00    -0.203 F 
ATOM     89  C   UNL A   1      45.698  34.880  29.129  1.00  0.00     0.198 A 
ATOM     90  C   UNL A   1      45.793  34.257  31.448  1.00  0.00     0.198 A 
ATOM     91  F   UNL A   1      45.536  32.002  32.071  1.00  0.00    -0.203 F 
ATOM     92  F   UNL A   1      45.768  35.819  28.176  1.00  0.00    -0.200 F 
ATOM     93  C   UNL A   1      45.848  35.232  30.462  1.00  0.00     0.200 A 
ATOM     94  F   UNL A   1      45.929  34.598  32.736  1.00  0.00    -0.200 F 
ATOM     95  F   UNL A   1      46.048  36.514  30.799  1.00  0.00    -0.200 F 
ENDBRANCH  62  85
ENDBRANCH  36  37
ENDBRANCH  28  31
ENDBRANCH  26  27
ENDBRANCH  25  26
ENDBRANCH   1  25
TORSDOF 14
ENDMDL
MODEL 2
REMARK VINA RESULT:     -12.6      4.489      9.495
REMARK SMILES C[C@@H]1CCCN(C(=O)c2ccc(=O)n([C@H](C)C(=O)NCCCCNC(=O)c3ccc(-c4c5nc(c(-c6c(F)c(F)c(F)c(F)c6F)c6ccc([nH]6)c(-c6c(F)c(F)c(F)c(F)c6F)c6nc(c(-c7c(F)c(F)c(F)c(F)c7F)c7ccc4[nH]7)C=C6)C=C5)cc3)n2)C1
REMARK SMILES IDX 21 1 20 2 19 3 17 4 18 5 15 7 16 8 14 9 9 10 10 11 90 12
REMARK SMILES IDX 11 13 12 14 13 15 7 16 8 17 6 18 1 19 2 20 3 21 91 22 4 23
REMARK SMILES IDX 5 24 22 25 23 26 24 27 25 28 26 30 27 31 28 32 89 33 29 34
REMARK SMILES IDX 88 35 30 36 31 37 32 38 82 39 33 40 87 41 81 42 83 43 34 44
REMARK SMILES IDX 86 45 80 46 79 47 35 49 67 50 47 51 66 52 48 53 51 54 65 55
REMARK SMILES IDX 84 56 49 57 50 58 64 60 85 61 52 62 36 63 37 64 45 65 38 66
REMARK SMILES IDX 39 67 43 68 46 69 40 70 41 71 44 72 42 73 68 74 69 75 77 76
REMARK SMILES IDX 70 77 71 78 75 79 78 80 72 81 73 82 76 83 74 84 53 85 54 86
REMARK SMILES IDX 62 87 55 88 56 89 60 90 63 91 57 92 58 93 61 94 59 95
REMARK H PARENT 19 6 24 29 83 48 51 59
REMARK Flexibility Score: inf
ROOT
ATOM      1  C   UNL A   1      32.327  28.467  27.637  1.00  0.00     0.023 C 
ENDROOT
BRANCH   1   2
ATOM      2  C   UNL A   1      32.375  27.265  26.695  1.00  0.00     0.116 C 
BRANCH   2   3
ATOM      3  N   UNL A   1      31.089  26.633  26.532  1.00  0.00    -0.354 N 
ATOM      4  C   UNL A   1      30.758  25.310  26.525  1.00  0.00     0.244 C 
ATOM      5  O   UNL A   1      29.565  25.052  26.320  1.00  0.00    -0.273 OA
ATOM      6  H   UNL A   1      30.334  27.252  26.406  1.00  0.00     0.163 HD
BRANCH   4   7
ATOM      7  C   UNL A   1      31.798  24.179  26.682  1.00  0.00     0.197 C 
ATOM      8  C   UNL A   1      31.136  22.819  26.907  1.00  0.00     0.044 C 
BRANCH   7   9
ATOM      9  N   UNL A   1      32.845  24.201  25.643  1.00  0.00    -0.217 N 
ATOM     10  C   UNL A   1      33.446  24.669  23.475  1.00  0.00     0.149 A 
ATOM     11  C   UNL A   1      34.788  24.089  23.637  1.00  0.00     0.042 A 
ATOM     12  N   UNL A   1      32.530  24.723  24.393  1.00  0.00    -0.164 NA
ATOM     13  C   UNL A   1      35.076  23.603  24.844  1.00  0.00     0.076 A 
ATOM     14  C   UNL A   1      34.084  23.638  25.943  1.00  0.00     0.267 A 
ATOM     15  O   UNL A   1      34.404  23.167  27.029  1.00  0.00    -0.268 OA
BRANCH  10  16
ATOM     16  C   UNL A   1      33.149  25.245  22.102  1.00  0.00     0.274 C 
ATOM     17  O   UNL A   1      33.330  24.513  21.136  1.00  0.00    -0.267 OA
BRANCH  16  18
ATOM     18  N   UNL A   1      32.733  26.572  22.037  1.00  0.00    -0.337 N 
ATOM     19  C   UNL A   1      29.404  28.098  23.098  1.00  0.00     0.009 C 
ATOM     20  C   UNL A   1      30.875  27.698  23.184  1.00  0.00     0.005 C 
ATOM     21  C   UNL A   1      31.758  28.946  23.335  1.00  0.00     0.007 C 
ATOM     22  C   UNL A   1      31.307  26.878  21.961  1.00  0.00     0.123 C 
ATOM     23  C   UNL A   1      33.239  28.577  23.336  1.00  0.00     0.022 C 
ATOM     24  C   UNL A   1      33.613  27.731  22.125  1.00  0.00     0.120 C 
ENDBRANCH  16  18
ENDBRANCH  10  16
ENDBRANCH   7   9
ENDBRANCH   4   7
ENDBRANCH   2   3
ENDBRANCH   1   2
BRANCH   1  25
ATOM     25  C   UNL A   1      31.672  29.723  27.060  1.00  0.00     0.023 C 
BRANCH  25  26
ATOM     26  C   UNL A   1      32.625  30.760  26.468  1.00  0.00     0.116 C 
BRANCH  26  27
ATOM     27  N   UNL A   1      32.546  32.075  27.085  1.00  0.00    -0.352 N 
ATOM     28  C   UNL A   1      33.516  32.769  27.780  1.00  0.00     0.251 C 
ATOM     29  H   UNL A   1      31.680  32.534  26.994  1.00  0.00     0.163 HD
ATOM     30  O   UNL A   1      33.276  33.870  28.248  1.00  0.00    -0.269 OA
BRANCH  28  31
ATOM     31  C   UNL A   1      34.829  32.136  28.031  1.00  0.00     0.039 A 
ATOM     32  C   UNL A   1      34.946  30.771  28.286  1.00  0.00     0.014 A 
ATOM     33  C   UNL A   1      35.957  32.964  28.091  1.00  0.00     0.014 A 
ATOM     34  C   UNL A   1      36.134  30.273  28.810  1.00  0.00     0.010 A 
ATOM     35  C   UNL A   1      37.170  32.448  28.544  1.00  0.00     0.010 A 
ATOM     36  C   UNL A   1      37.242  31.119  28.984  1.00  0.00    -0.014 A 
BRANCH  36  37
ATOM     37  C   UNL A   1      38.429  30.612  29.714  1.00  0.00     0.031 A 
ATOM     38  C   UNL A   1      38.640  30.986  31.157  1.00  0.00     0.074 A 
ATOM     39  C   UNL A   1      39.260  29.746  29.107  1.00  0.00     0.049 A 
ATOM     40  N   UNL A   1      39.577  30.592  31.983  1.00  0.00    -0.248 NA
ATOM     41  C   UNL A   1      37.676  31.925  31.754  1.00  0.00     0.031 C 
ATOM     42  C   UNL A   1      39.138  29.299  27.720  1.00  0.00     0.029 A 
ATOM     43  N   UNL A   1      40.343  29.058  29.589  1.00  0.00    -0.354 N 
ATOM     44  C   UNL A   1      39.327  31.248  33.182  1.00  0.00     0.074 A 
ATOM     45  C   UNL A   1      38.165  32.083  32.976  1.00  0.00     0.031 C 
ATOM     46  C   UNL A   1      40.071  28.366  27.479  1.00  0.00     0.029 A 
ATOM     47  C   UNL A   1      40.880  28.182  28.681  1.00  0.00     0.049 A 
ATOM     48  H   UNL A   1      40.701  29.182  30.498  1.00  0.00     0.167 HD
ATOM     49  C   UNL A   1      39.999  31.150  34.353  1.00  0.00     0.037 A 
ATOM     50  C   UNL A   1      41.907  27.320  28.806  1.00  0.00     0.037 A 
ATOM     51  C   UNL A   1      41.131  30.291  34.567  1.00  0.00     0.049 A 
ATOM     52  C   UNL A   1      42.639  27.235  30.115  1.00  0.00     0.074 A 
ATOM     53  C   UNL A   1      41.874  30.113  35.722  1.00  0.00     0.029 A 
ATOM     54  N   UNL A   1      41.677  29.454  33.605  1.00  0.00    -0.354 N 
ATOM     55  N   UNL A   1      42.398  27.869  31.235  1.00  0.00    -0.248 NA
ATOM     56  C   UNL A   1      43.789  26.323  30.173  1.00  0.00     0.031 C 
ATOM     57  C   UNL A   1      42.886  29.186  35.451  1.00  0.00     0.029 A 
ATOM     58  C   UNL A   1      42.752  28.765  34.138  1.00  0.00     0.049 A 
ATOM     59  H   UNL A   1      41.348  29.364  32.683  1.00  0.00     0.167 HD
ATOM     60  C   UNL A   1      43.360  27.432  32.133  1.00  0.00     0.074 A 
ATOM     61  C   UNL A   1      44.179  26.463  31.433  1.00  0.00     0.031 C 
ATOM     62  C   UNL A   1      43.551  27.806  33.422  1.00  0.00     0.037 A 
BRANCH  49  63
ATOM     63  C   UNL A   1      39.533  31.996  35.500  1.00  0.00     0.064 A 
ATOM     64  C   UNL A   1      39.953  33.326  35.646  1.00  0.00     0.173 A 
ATOM     65  C   UNL A   1      38.607  31.492  36.424  1.00  0.00     0.173 A 
ATOM     66  F   UNL A   1      40.849  33.849  34.794  1.00  0.00    -0.203 F 
ATOM     67  C   UNL A   1      39.468  34.119  36.684  1.00  0.00     0.198 A 
ATOM     68  C   UNL A   1      38.110  32.293  37.449  1.00  0.00     0.198 A 
ATOM     69  F   UNL A   1      38.174  30.226  36.325  1.00  0.00    -0.203 F 
ATOM     70  F   UNL A   1      39.902  35.379  36.821  1.00  0.00    -0.200 F 
ATOM     71  C   UNL A   1      38.542  33.604  37.578  1.00  0.00     0.200 A 
ATOM     72  F   UNL A   1      37.209  31.796  38.309  1.00  0.00    -0.200 F 
ATOM     73  F   UNL A   1      38.068  34.371  38.570  1.00  0.00    -0.200 F 
ENDBRANCH  49  63
BRANCH  50  74
ATOM     74  C   UNL A   1      42.267  26.449  27.660  1.00  0.00     0.064 A 
ATOM     75  C   UNL A   1      43.279  26.825  26.768  1.00  0.00     0.173 A 
ATOM     76  C   UNL A   1      41.649  25.206  27.468  1.00  0.00     0.173 A 
ATOM     77  F   UNL A   1      43.887  28.012  26.906  1.00  0.00    -0.203 F 
ATOM     78  C   UNL A   1      43.663  25.986  25.725  1.00  0.00     0.198 A 
ATOM     79  C   UNL A   1      42.048  24.359  26.437  1.00  0.00     0.198 A 
ATOM     80  F   UNL A   1      40.678  24.803  28.301  1.00  0.00    -0.203 F 
ATOM     81  F   UNL A   1      44.624  26.372  24.876  1.00  0.00    -0.200 F 
ATOM     82  C   UNL A   1      43.053  24.750  25.565  1.00  0.00     0.200 A 
ATOM     83  F   UNL A   1      41.467  23.160  26.296  1.00  0.00    -0.200 F 
ATOM     84  F   UNL A   1      43.436  23.934  24.574  1.00  0.00    -0.200 F 
ENDBRANCH  50  74
BRANCH  62  85
ATOM     85  C   UNL A   1      44.684  27.167  34.162  1.00  0.00     0.064 A 
ATOM     86  C   UNL A   1      44.518  25.941  34.819  1.00  0.00     0.173 A 
ATOM     87  C   UNL A   1      45.961  27.746  34.147  1.00  0.00     0.173 A 
ATOM     88  F   UNL A   1      43.311  25.358  34.866  1.00  0.00    -0.203 F 
ATOM     89  C   UNL A   1      45.595  25.316  35.443  1.00  0.00     0.198 A 
ATOM     90  C   UNL A   1      47.038  27.111  34.758  1.00  0.00     0.198 A 
ATOM     91  F   UNL A   1      46.166  28.915  33.524  1.00  0.00    -0.203 F 
ATOM     92  F   UNL A   1      45.413  24.153  36.084  1.00  0.00    -0.200 F 
ATOM     93  C   UNL A   1      46.854  25.897  35.405  1.00  0.00     0.200 A 
ATOM     94  F   UNL A   1      48.256  27.667  34.712  1.00  0.00    -0.200 F 
ATOM     95  F   UNL A   1      47.891  25.288  35.996  1.00  0.00    -0.200 F 
ENDBRANCH  62  85
ENDBRANCH  36  37
ENDBRANCH  28  31
ENDBRANCH  26  27
ENDBRANCH  25  26
ENDBRANCH   1  25
TORSDOF 14
ENDMDL
MODEL 3
REMARK VINA RESULT:     -12.5      4.705      9.540
REMARK SMILES C[C@@H]1CCCN(C(=O)c2ccc(=O)n([C@H](C)C(=O)NCCCCNC(=O)c3ccc(-c4c5nc(c(-c6c(F)c(F)c(F)c(F)c6F)c6ccc([nH]6)c(-c6c(F)c(F)c(F)c(F)c6F)c6nc(c(-c7c(F)c(F)c(F)c(F)c7F)c7ccc4[nH]7)C=C6)C=C5)cc3)n2)C1
REMARK SMILES IDX 21 1 20 2 19 3 17 4 18 5 15 7 16 8 14 9 9 10 10 11 90 12
REMARK SMILES IDX 11 13 12 14 13 15 7 16 8 17 6 18 1 19 2 20 3 21 91 22 4 23
REMARK SMILES IDX 5 24 22 25 23 26 24 27 25 28 26 30 27 31 28 32 89 33 29 34
REMARK SMILES IDX 88 35 30 36 31 37 32 38 82 39 33 40 87 41 81 42 83 43 34 44
REMARK SMILES IDX 86 45 80 46 79 47 35 49 67 50 47 51 66 52 48 53 51 54 65 55
REMARK SMILES IDX 84 56 49 57 50 58 64 60 85 61 52 62 36 63 37 64 45 65 38 66
REMARK SMILES IDX 39 67 43 68 46 69 40 70 41 71 44 72 42 73 68 74 69 75 77 76
REMARK SMILES IDX 70 77 71 78 75 79 78 80 72 81 73 82 76 83 74 84 53 85 54 86
REMARK SMILES IDX 62 87 55 88 56 89 60 90 63 91 57 92 58 93 61 94 59 95
REMARK H PARENT 19 6 24 29 83 48 51 59
REMARK Flexibility Score: inf
ROOT
ATOM      1  C   UNL A   1      32.091  28.200  27.596  1.00  0.00     0.023 C 
ENDROOT
BRANCH   1   2
ATOM      2  C   UNL A   1      32.276  26.993  26.679  1.00  0.00     0.116 C 
BRANCH   2   3
ATOM      3  N   UNL A   1      31.369  25.914  26.986  1.00  0.00    -0.354 N 
ATOM      4  C   UNL A   1      31.031  24.816  26.250  1.00  0.00     0.244 C 
ATOM      5  O   UNL A   1      30.183  24.069  26.753  1.00  0.00    -0.273 OA
ATOM      6  H   UNL A   1      30.926  25.981  27.863  1.00  0.00     0.163 HD
BRANCH   4   7
ATOM      7  C   UNL A   1      31.595  24.541  24.840  1.00  0.00     0.197 C 
ATOM      8  C   UNL A   1      31.008  23.269  24.226  1.00  0.00     0.044 C 
BRANCH   7   9
ATOM      9  N   UNL A   1      31.576  25.726  23.961  1.00  0.00    -0.217 N 
ATOM     10  C   UNL A   1      30.409  27.506  23.095  1.00  0.00     0.149 A 
ATOM     11  C   UNL A   1      31.494  27.873  22.174  1.00  0.00     0.042 A 
ATOM     12  N   UNL A   1      30.428  26.509  23.926  1.00  0.00    -0.164 NA
ATOM     13  C   UNL A   1      32.592  27.117  22.228  1.00  0.00     0.076 A 
ATOM     14  C   UNL A   1      32.688  25.968  23.156  1.00  0.00     0.267 A 
ATOM     15  O   UNL A   1      33.720  25.305  23.155  1.00  0.00    -0.268 OA
BRANCH  10  16
ATOM     16  C   UNL A   1      29.181  28.397  23.040  1.00  0.00     0.274 C 
ATOM     17  O   UNL A   1      28.089  27.853  23.159  1.00  0.00    -0.267 OA
BRANCH  16  18
ATOM     18  N   UNL A   1      29.381  29.756  22.817  1.00  0.00    -0.337 N 
ATOM     19  C   UNL A   1      27.897  31.985  20.104  1.00  0.00     0.009 C 
ATOM     20  C   UNL A   1      28.067  31.342  21.477  1.00  0.00     0.005 C 
ATOM     21  C   UNL A   1      28.330  32.419  22.540  1.00  0.00     0.007 C 
ATOM     22  C   UNL A   1      29.195  30.301  21.475  1.00  0.00     0.123 C 
ATOM     23  C   UNL A   1      28.589  31.792  23.908  1.00  0.00     0.022 C 
ATOM     24  C   UNL A   1      29.688  30.739  23.849  1.00  0.00     0.120 C 
ENDBRANCH  16  18
ENDBRANCH  10  16
ENDBRANCH   7   9
ENDBRANCH   4   7
ENDBRANCH   2   3
ENDBRANCH   1   2
BRANCH   1  25
ATOM     25  C   UNL A   1      31.532  29.454  26.921  1.00  0.00     0.023 C 
BRANCH  25  26
ATOM     26  C   UNL A   1      32.568  30.449  26.400  1.00  0.00     0.116 C 
BRANCH  26  27
ATOM     27  N   UNL A   1      32.456  31.786  26.963  1.00  0.00    -0.352 N 
ATOM     28  C   UNL A   1      33.411  32.534  27.622  1.00  0.00     0.251 C 
ATOM     29  H   UNL A   1      31.578  32.218  26.859  1.00  0.00     0.163 HD
ATOM     30  O   UNL A   1      33.143  33.646  28.046  1.00  0.00    -0.269 OA
BRANCH  28  31
ATOM     31  C   UNL A   1      34.742  31.947  27.892  1.00  0.00     0.039 A 
ATOM     32  C   UNL A   1      34.904  30.584  28.135  1.00  0.00     0.014 A 
ATOM     33  C   UNL A   1      35.836  32.815  27.982  1.00  0.00     0.014 A 
ATOM     34  C   UNL A   1      36.100  30.125  28.676  1.00  0.00     0.010 A 
ATOM     35  C   UNL A   1      37.060  32.339  28.453  1.00  0.00     0.010 A 
ATOM     36  C   UNL A   1      37.172  31.009  28.880  1.00  0.00    -0.014 A 
BRANCH  36  37
ATOM     37  C   UNL A   1      38.364  30.539  29.627  1.00  0.00     0.031 A 
ATOM     38  C   UNL A   1      38.548  30.927  31.070  1.00  0.00     0.074 A 
ATOM     39  C   UNL A   1      39.224  29.691  29.036  1.00  0.00     0.049 A 
ATOM     40  N   UNL A   1      39.486  30.564  31.909  1.00  0.00    -0.248 NA
ATOM     41  C   UNL A   1      37.553  31.844  31.650  1.00  0.00     0.031 C 
ATOM     42  C   UNL A   1      39.130  29.232  27.650  1.00  0.00     0.029 A 
ATOM     43  N   UNL A   1      40.319  29.035  29.535  1.00  0.00    -0.354 N 
ATOM     44  C   UNL A   1      39.204  31.220  33.100  1.00  0.00     0.074 A 
ATOM     45  C   UNL A   1      38.023  32.023  32.876  1.00  0.00     0.031 C 
ATOM     46  C   UNL A   1      40.090  28.322  27.426  1.00  0.00     0.029 A 
ATOM     47  C   UNL A   1      40.890  28.167  28.638  1.00  0.00     0.049 A 
ATOM     48  H   UNL A   1      40.663  29.174  30.447  1.00  0.00     0.167 HD
ATOM     49  C   UNL A   1      39.865  31.148  34.280  1.00  0.00     0.037 A 
ATOM     50  C   UNL A   1      41.937  27.333  28.782  1.00  0.00     0.037 A 
ATOM     51  C   UNL A   1      41.017  30.320  34.513  1.00  0.00     0.049 A 
ATOM     52  C   UNL A   1      42.656  27.276  30.099  1.00  0.00     0.074 A 
ATOM     53  C   UNL A   1      41.750  30.169  35.677  1.00  0.00     0.029 A 
ATOM     54  N   UNL A   1      41.595  29.492  33.563  1.00  0.00    -0.354 N 
ATOM     55  N   UNL A   1      42.386  27.911  31.212  1.00  0.00    -0.248 NA
ATOM     56  C   UNL A   1      43.829  26.395  30.177  1.00  0.00     0.031 C 
ATOM     57  C   UNL A   1      42.789  29.267  35.424  1.00  0.00     0.029 A 
ATOM     58  C   UNL A   1      42.682  28.835  34.112  1.00  0.00     0.049 A 
ATOM     59  H   UNL A   1      41.280  29.387  32.637  1.00  0.00     0.167 HD
ATOM     60  C   UNL A   1      43.348  27.505  32.124  1.00  0.00     0.074 A 
ATOM     61  C   UNL A   1      44.200  26.554  31.440  1.00  0.00     0.031 C 
ATOM     62  C   UNL A   1      43.515  27.892  33.412  1.00  0.00     0.037 A 
BRANCH  49  63
ATOM     63  C   UNL A   1      39.364  31.989  35.415  1.00  0.00     0.064 A 
ATOM     64  C   UNL A   1      38.498  31.467  36.387  1.00  0.00     0.173 A 
ATOM     65  C   UNL A   1      39.805  33.311  35.568  1.00  0.00     0.173 A 
ATOM     66  F   UNL A   1      38.037  30.211  36.275  1.00  0.00    -0.203 F 
ATOM     67  C   UNL A   1      38.085  32.242  37.467  1.00  0.00     0.198 A 
ATOM     68  C   UNL A   1      39.405  34.078  36.660  1.00  0.00     0.198 A 
ATOM     69  F   UNL A   1      40.636  33.855  34.666  1.00  0.00    -0.203 F 
ATOM     70  F   UNL A   1      37.237  31.732  38.371  1.00  0.00    -0.200 F 
ATOM     71  C   UNL A   1      38.545  33.543  37.607  1.00  0.00     0.200 A 
ATOM     72  F   UNL A   1      39.858  35.332  36.797  1.00  0.00    -0.200 F 
ATOM     73  F   UNL A   1      38.155  34.284  38.653  1.00  0.00    -0.200 F 
ENDBRANCH  49  63
BRANCH  50  74
ATOM     74  C   UNL A   1      42.334  26.465  27.646  1.00  0.00     0.064 A 
ATOM     75  C   UNL A   1      43.346  26.861  26.764  1.00  0.00     0.173 A 
ATOM     76  C   UNL A   1      41.750  25.205  27.454  1.00  0.00     0.173 A 
ATOM     77  F   UNL A   1      43.922  28.064  26.901  1.00  0.00    -0.203 F 
ATOM     78  C   UNL A   1      43.764  26.025  25.730  1.00  0.00     0.198 A 
ATOM     79  C   UNL A   1      42.183  24.362  26.434  1.00  0.00     0.198 A 
ATOM     80  F   UNL A   1      40.780  24.783  28.278  1.00  0.00    -0.203 F 
ATOM     81  F   UNL A   1      44.725  26.431  24.890  1.00  0.00    -0.200 F 
ATOM     82  C   UNL A   1      43.188  24.773  25.572  1.00  0.00     0.200 A 
ATOM     83  F   UNL A   1      41.634  23.147  26.294  1.00  0.00    -0.200 F 
ATOM     84  F   UNL A   1      43.604  23.961  24.591  1.00  0.00    -0.200 F 
ENDBRANCH  50  74
BRANCH  62  85
ATOM     85  C   UNL A   1      44.655  27.288  34.170  1.00  0.00     0.064 A 
ATOM     86  C   UNL A   1      45.885  27.952  34.275  1.00  0.00     0.173 A 
ATOM     87  C   UNL A   1      44.491  26.080  34.861  1.00  0.00     0.173 A 
ATOM     88  F   UNL A   1      46.087  29.106  33.622  1.00  0.00    -0.203 F 
ATOM     89  C   UNL A   1      46.917  27.421  35.043  1.00  0.00     0.198 A 
ATOM     90  C   UNL A   1      45.519  25.560  35.641  1.00  0.00     0.198 A 
ATOM     91  F   UNL A   1      43.328  25.415  34.794  1.00  0.00    -0.203 F 
ATOM     92  F   UNL A   1      48.093  28.059  35.116  1.00  0.00    -0.200 F 
ATOM     93  C   UNL A   1      46.731  26.230  35.731  1.00  0.00     0.200 A 
ATOM     94  F   UNL A   1      45.336  24.415  36.313  1.00  0.00    -0.200 F 
ATOM     95  F   UNL A   1      47.722  25.726  36.480  1.00  0.00    -0.200 F 
ENDBRANCH  62  85
ENDBRANCH  36  37
ENDBRANCH  28  31
ENDBRANCH  26  27
ENDBRANCH  25  26
ENDBRANCH   1  25
TORSDOF 14
ENDMDL
