MODEL 1
REMARK VINA RESULT:     -12.0      0.000      0.000
REMARK SMILES Nc1ccc(O)c(C(=O)NCCCCNC(=O)c2ccc(-c3c4nc(c(-c5c(F)c(F)c(F)c(F)c5F)c5ccc([nH]5)c(-c5c(F)c(F)c(F)c(F)c5F)c5nc(c(-c6c(F)c(F)c(F)c(F)c6F)c6ccc3[nH]6)C=C5)C=C4)cc2)c1
REMARK SMILES IDX 13 1 12 2 11 3 10 4 8 5 9 6 7 8 2 9 3 10 81 11 4 12 5 13
REMARK SMILES IDX 1 14 6 17 14 19 15 20 16 21 17 23 18 24 19 25 80 26 20 27
REMARK SMILES IDX 79 28 21 29 22 30 23 31 73 32 24 33 78 34 72 35 74 36 25 37
REMARK SMILES IDX 77 38 71 39 70 40 26 42 58 43 38 44 57 45 39 46 42 47 56 48
REMARK SMILES IDX 75 49 40 50 41 51 55 53 76 54 43 55 27 56 28 57 36 58 29 59
REMARK SMILES IDX 30 60 34 61 37 62 31 63 32 64 35 65 33 66 59 67 60 68 68 69
REMARK SMILES IDX 61 70 62 71 66 72 69 73 63 74 64 75 67 76 65 77 44 78 45 79
REMARK SMILES IDX 53 80 46 81 47 82 51 83 54 84 48 85 49 86 52 87 50 88
REMARK H PARENT 10 7 1 15 1 16 6 18 15 22 74 41 42 52
REMARK Flexibility Score: inf
ROOT
ATOM      1  C   UNL A   1      31.449  31.975  26.909  1.00  0.00     0.023 C 
ENDROOT
BRANCH   1   2
ATOM      2  C   UNL A   1      31.747  30.834  25.930  1.00  0.00     0.023 C 
BRANCH   2   3
ATOM      3  C   UNL A   1      33.016  30.044  26.257  1.00  0.00     0.116 C 
BRANCH   3   4
ATOM      4  N   UNL A   1      33.665  29.604  25.037  1.00  0.00    -0.352 N 
ATOM      5  C   UNL A   1      33.240  28.859  23.970  1.00  0.00     0.255 C 
ATOM      6  O   UNL A   1      34.058  28.680  23.060  1.00  0.00    -0.269 OA
ATOM      7  H   UNL A   1      34.601  29.903  24.962  1.00  0.00     0.163 HD
BRANCH   5   8
ATOM      8  C   UNL A   1      31.864  28.306  23.796  1.00  0.00     0.083 A 
ATOM      9  C   UNL A   1      30.015  26.821  24.399  1.00  0.00     0.032 A 
ATOM     10  C   UNL A   1      29.228  27.398  23.404  1.00  0.00     0.029 A 
ATOM     11  C   UNL A   1      31.347  27.235  24.538  1.00  0.00     0.043 A 
ATOM     12  C   UNL A   1      29.738  28.420  22.606  1.00  0.00     0.049 A 
ATOM     13  C   UNL A   1      31.041  28.872  22.806  1.00  0.00     0.128 A 
BRANCH   9  14
ATOM     14  N   UNL A   1      29.528  25.762  25.151  1.00  0.00    -0.399 N 
ATOM     15  H   UNL A   1      29.186  24.956  24.702  1.00  0.00     0.156 HD
ATOM     16  H   UNL A   1      29.523  25.817  26.134  1.00  0.00     0.156 HD
ENDBRANCH   9  14
BRANCH  13  17
ATOM     17  O   UNL A   1      31.446  29.879  21.967  1.00  0.00    -0.507 OA
ATOM     18  H   UNL A   1      31.889  30.628  22.313  1.00  0.00     0.293 HD
ENDBRANCH  13  17
ENDBRANCH   5   8
ENDBRANCH   3   4
ENDBRANCH   2   3
ENDBRANCH   1   2
BRANCH   1  19
ATOM     19  C   UNL A   1      32.667  32.782  27.349  1.00  0.00     0.116 C 
BRANCH  19  20
ATOM     20  N   UNL A   1      32.363  34.175  27.639  1.00  0.00    -0.352 N 
ATOM     21  C   UNL A   1      32.974  35.018  28.536  1.00  0.00     0.251 C 
ATOM     22  H   UNL A   1      31.619  34.565  27.123  1.00  0.00     0.163 HD
ATOM     23  O   UNL A   1      32.534  36.142  28.732  1.00  0.00    -0.269 OA
BRANCH  21  24
ATOM     24  C   UNL A   1      34.145  34.535  29.297  1.00  0.00     0.039 A 
ATOM     25  C   UNL A   1      33.934  33.957  30.552  1.00  0.00     0.014 A 
ATOM     26  C   UNL A   1      35.432  34.623  28.763  1.00  0.00     0.014 A 
ATOM     27  C   UNL A   1      35.011  33.401  31.242  1.00  0.00     0.010 A 
ATOM     28  C   UNL A   1      36.494  34.013  29.423  1.00  0.00     0.010 A 
ATOM     29  C   UNL A   1      36.293  33.393  30.666  1.00  0.00    -0.014 A 
BRANCH  29  30
ATOM     30  C   UNL A   1      37.434  32.730  31.342  1.00  0.00     0.031 A 
ATOM     31  C   UNL A   1      38.134  31.577  30.682  1.00  0.00     0.074 A 
ATOM     32  C   UNL A   1      37.788  33.119  32.581  1.00  0.00     0.049 A 
ATOM     33  N   UNL A   1      39.099  30.821  31.143  1.00  0.00    -0.248 NA
ATOM     34  C   UNL A   1      37.668  31.205  29.338  1.00  0.00     0.031 C 
ATOM     35  C   UNL A   1      37.148  34.190  33.347  1.00  0.00     0.029 A 
ATOM     36  N   UNL A   1      38.765  32.648  33.422  1.00  0.00    -0.354 N 
ATOM     37  C   UNL A   1      39.341  29.877  30.155  1.00  0.00     0.074 A 
ATOM     38  C   UNL A   1      38.391  30.122  29.091  1.00  0.00     0.031 C 
ATOM     39  C   UNL A   1      37.760  34.307  34.536  1.00  0.00     0.029 A 
ATOM     40  C   UNL A   1      38.812  33.299  34.630  1.00  0.00     0.049 A 
ATOM     41  H   UNL A   1      39.375  31.912  33.182  1.00  0.00     0.167 HD
ATOM     42  C   UNL A   1      40.286  28.907  30.128  1.00  0.00     0.037 A 
ATOM     43  C   UNL A   1      39.611  33.102  35.696  1.00  0.00     0.037 A 
ATOM     44  C   UNL A   1      41.248  28.685  31.175  1.00  0.00     0.049 A 
ATOM     45  C   UNL A   1      40.661  32.026  35.636  1.00  0.00     0.074 A 
ATOM     46  C   UNL A   1      42.288  27.773  31.215  1.00  0.00     0.029 A 
ATOM     47  N   UNL A   1      41.285  29.385  32.373  1.00  0.00    -0.354 N 
ATOM     48  N   UNL A   1      40.929  31.185  34.666  1.00  0.00    -0.248 NA
ATOM     49  C   UNL A   1      41.524  31.877  36.815  1.00  0.00     0.031 C 
ATOM     50  C   UNL A   1      42.930  27.894  32.451  1.00  0.00     0.029 A 
ATOM     51  C   UNL A   1      42.319  28.914  33.165  1.00  0.00     0.049 A 
ATOM     52  H   UNL A   1      40.668  30.112  32.622  1.00  0.00     0.167 HD
ATOM     53  C   UNL A   1      42.006  30.428  35.105  1.00  0.00     0.074 A 
ATOM     54  C   UNL A   1      42.350  30.916  36.425  1.00  0.00     0.031 C 
ATOM     55  C   UNL A   1      42.653  29.418  34.472  1.00  0.00     0.037 A 
BRANCH  42  56
ATOM     56  C   UNL A   1      40.327  28.015  28.922  1.00  0.00     0.064 A 
ATOM     57  C   UNL A   1      41.068  28.356  27.779  1.00  0.00     0.173 A 
ATOM     58  C   UNL A   1      39.638  26.793  28.915  1.00  0.00     0.173 A 
ATOM     59  F   UNL A   1      41.735  29.520  27.731  1.00  0.00    -0.203 F 
ATOM     60  C   UNL A   1      41.091  27.523  26.665  1.00  0.00     0.198 A 
ATOM     61  C   UNL A   1      39.687  25.948  27.809  1.00  0.00     0.198 A 
ATOM     62  F   UNL A   1      38.918  26.415  29.983  1.00  0.00    -0.203 F 
ATOM     63  F   UNL A   1      41.763  27.895  25.566  1.00  0.00    -0.200 F 
ATOM     64  C   UNL A   1      40.407  26.318  26.683  1.00  0.00     0.200 A 
ATOM     65  F   UNL A   1      39.034  24.778  27.832  1.00  0.00    -0.200 F 
ATOM     66  F   UNL A   1      40.431  25.515  25.610  1.00  0.00    -0.200 F 
ENDBRANCH  42  56
BRANCH  43  67
ATOM     67  C   UNL A   1      39.471  33.965  36.895  1.00  0.00     0.064 A 
ATOM     68  C   UNL A   1      38.716  33.543  37.998  1.00  0.00     0.173 A 
ATOM     69  C   UNL A   1      40.090  35.221  36.970  1.00  0.00     0.173 A 
ATOM     70  F   UNL A   1      38.090  32.358  37.965  1.00  0.00    -0.203 F 
ATOM     71  C   UNL A   1      38.571  34.351  39.123  1.00  0.00     0.198 A 
ATOM     72  C   UNL A   1      39.966  36.018  38.106  1.00  0.00     0.198 A 
ATOM     73  F   UNL A   1      40.828  35.668  35.943  1.00  0.00    -0.203 F 
ATOM     74  F   UNL A   1      37.811  33.939  40.148  1.00  0.00    -0.200 F 
ATOM     75  C   UNL A   1      39.201  35.586  39.179  1.00  0.00     0.200 A 
ATOM     76  F   UNL A   1      40.587  37.204  38.162  1.00  0.00    -0.200 F 
ATOM     77  F   UNL A   1      39.066  36.360  40.264  1.00  0.00    -0.200 F 
ENDBRANCH  43  67
BRANCH  55  78
ATOM     78  C   UNL A   1      43.819  28.797  35.182  1.00  0.00     0.064 A 
ATOM     79  C   UNL A   1      43.661  27.688  36.025  1.00  0.00     0.173 A 
ATOM     80  C   UNL A   1      45.117  29.292  34.981  1.00  0.00     0.173 A 
ATOM     81  F   UNL A   1      42.439  27.188  36.261  1.00  0.00    -0.203 F 
ATOM     82  C   UNL A   1      44.758  27.109  36.658  1.00  0.00     0.198 A 
ATOM     83  C   UNL A   1      46.213  28.694  35.593  1.00  0.00     0.198 A 
ATOM     84  F   UNL A   1      45.321  30.348  34.180  1.00  0.00    -0.203 F 
ATOM     85  F   UNL A   1      44.578  26.076  37.493  1.00  0.00    -0.200 F 
ATOM     86  C   UNL A   1      46.033  27.608  36.436  1.00  0.00     0.200 A 
ATOM     87  F   UNL A   1      47.446  29.169  35.368  1.00  0.00    -0.200 F 
ATOM     88  F   UNL A   1      47.088  27.044  37.040  1.00  0.00    -0.200 F 
ENDBRANCH  55  78
ENDBRANCH  29  30
ENDBRANCH  21  24
ENDBRANCH  19  20
ENDBRANCH   1  19
TORSDOF 13
ENDMDL
MODEL 2
REMARK VINA RESULT:     -12.0      0.566      7.859
REMARK SMILES Nc1ccc(O)c(C(=O)NCCCCNC(=O)c2ccc(-c3c4nc(c(-c5c(F)c(F)c(F)c(F)c5F)c5ccc([nH]5)c(-c5c(F)c(F)c(F)c(F)c5F)c5nc(c(-c6c(F)c(F)c(F)c(F)c6F)c6ccc3[nH]6)C=C5)C=C4)cc2)c1
REMARK SMILES IDX 13 1 12 2 11 3 10 4 8 5 9 6 7 8 2 9 3 10 81 11 4 12 5 13
REMARK SMILES IDX 1 14 6 17 14 19 15 20 16 21 17 23 18 24 19 25 80 26 20 27
REMARK SMILES IDX 79 28 21 29 22 30 23 31 73 32 24 33 78 34 72 35 74 36 25 37
REMARK SMILES IDX 77 38 71 39 70 40 26 42 58 43 38 44 57 45 39 46 42 47 56 48
REMARK SMILES IDX 75 49 40 50 41 51 55 53 76 54 43 55 27 56 28 57 36 58 29 59
REMARK SMILES IDX 30 60 34 61 37 62 31 63 32 64 35 65 33 66 59 67 60 68 68 69
REMARK SMILES IDX 61 70 62 71 66 72 69 73 63 74 64 75 67 76 65 77 44 78 45 79
REMARK SMILES IDX 53 80 46 81 47 82 51 83 54 84 48 85 49 86 52 87 50 88
REMARK H PARENT 10 7 1 15 1 16 6 18 15 22 74 41 42 52
REMARK Flexibility Score: inf
ROOT
ATOM      1  C   UNL A   1      31.395  32.049  26.877  1.00  0.00     0.023 C 
ENDROOT
BRANCH   1   2
ATOM      2  C   UNL A   1      31.588  30.879  25.905  1.00  0.00     0.023 C 
BRANCH   2   3
ATOM      3  C   UNL A   1      32.882  30.092  26.123  1.00  0.00     0.116 C 
BRANCH   3   4
ATOM      4  N   UNL A   1      33.476  29.732  24.851  1.00  0.00    -0.352 N 
ATOM      5  C   UNL A   1      33.023  29.008  23.780  1.00  0.00     0.255 C 
ATOM      6  O   UNL A   1      33.791  28.905  22.817  1.00  0.00    -0.269 OA
ATOM      7  H   UNL A   1      34.390  30.081  24.732  1.00  0.00     0.163 HD
BRANCH   5   8
ATOM      8  C   UNL A   1      31.667  28.393  23.666  1.00  0.00     0.083 A 
ATOM      9  C   UNL A   1      29.921  26.817  24.339  1.00  0.00     0.032 A 
ATOM     10  C   UNL A   1      29.060  27.367  23.390  1.00  0.00     0.029 A 
ATOM     11  C   UNL A   1      31.237  27.292  24.418  1.00  0.00     0.043 A 
ATOM     12  C   UNL A   1      29.483  28.419  22.580  1.00  0.00     0.049 A 
ATOM     13  C   UNL A   1      30.771  28.930  22.723  1.00  0.00     0.128 A 
BRANCH   9  14
ATOM     14  N   UNL A   1      29.519  25.729  25.099  1.00  0.00    -0.399 N 
ATOM     15  H   UNL A   1      28.764  25.172  24.803  1.00  0.00     0.156 HD
ATOM     16  H   UNL A   1      29.991  25.513  25.936  1.00  0.00     0.156 HD
ENDBRANCH   9  14
BRANCH  13  17
ATOM     17  O   UNL A   1      31.088  29.963  21.878  1.00  0.00    -0.507 OA
ATOM     18  H   UNL A   1      31.713  29.832  21.193  1.00  0.00     0.293 HD
ENDBRANCH  13  17
ENDBRANCH   5   8
ENDBRANCH   3   4
ENDBRANCH   2   3
ENDBRANCH   1   2
BRANCH   1  19
ATOM     19  C   UNL A   1      32.661  32.839  27.196  1.00  0.00     0.116 C 
BRANCH  19  20
ATOM     20  N   UNL A   1      32.398  34.212  27.599  1.00  0.00    -0.352 N 
ATOM     21  C   UNL A   1      33.029  34.958  28.566  1.00  0.00     0.251 C 
ATOM     22  H   UNL A   1      31.671  34.666  27.115  1.00  0.00     0.163 HD
ATOM     23  O   UNL A   1      32.623  36.075  28.852  1.00  0.00    -0.269 OA
BRANCH  21  24
ATOM     24  C   UNL A   1      34.179  34.376  29.289  1.00  0.00     0.039 A 
ATOM     25  C   UNL A   1      33.931  33.583  30.412  1.00  0.00     0.014 A 
ATOM     26  C   UNL A   1      35.486  34.587  28.844  1.00  0.00     0.014 A 
ATOM     27  C   UNL A   1      34.992  32.940  31.049  1.00  0.00     0.010 A 
ATOM     28  C   UNL A   1      36.536  33.896  29.440  1.00  0.00     0.010 A 
ATOM     29  C   UNL A   1      36.298  33.062  30.545  1.00  0.00    -0.014 A 
BRANCH  29  30
ATOM     30  C   UNL A   1      37.428  32.318  31.152  1.00  0.00     0.031 A 
ATOM     31  C   UNL A   1      37.923  32.683  32.521  1.00  0.00     0.074 A 
ATOM     32  C   UNL A   1      38.054  31.365  30.436  1.00  0.00     0.049 A 
ATOM     33  N   UNL A   1      38.943  32.204  33.188  1.00  0.00    -0.248 NA
ATOM     34  C   UNL A   1      37.194  33.751  33.222  1.00  0.00     0.031 C 
ATOM     35  C   UNL A   1      37.700  30.958  29.075  1.00  0.00     0.029 A 
ATOM     36  N   UNL A   1      39.131  30.573  30.748  1.00  0.00    -0.354 N 
ATOM     37  C   UNL A   1      38.987  32.921  34.375  1.00  0.00     0.074 A 
ATOM     38  C   UNL A   1      37.924  33.902  34.318  1.00  0.00     0.031 C 
ATOM     39  C   UNL A   1      38.531  29.982  28.676  1.00  0.00     0.029 A 
ATOM     40  C   UNL A   1      39.496  29.716  29.739  1.00  0.00     0.049 A 
ATOM     41  H   UNL A   1      39.598  30.616  31.614  1.00  0.00     0.167 HD
ATOM     42  C   UNL A   1      39.824  32.761  35.427  1.00  0.00     0.037 A 
ATOM     43  C   UNL A   1      40.499  28.821  29.677  1.00  0.00     0.037 A 
ATOM     44  C   UNL A   1      40.861  31.765  35.492  1.00  0.00     0.049 A 
ATOM     45  C   UNL A   1      41.408  28.654  30.864  1.00  0.00     0.074 A 
ATOM     46  C   UNL A   1      41.718  31.477  36.539  1.00  0.00     0.029 A 
ATOM     47  N   UNL A   1      41.182  30.894  34.462  1.00  0.00    -0.354 N 
ATOM     48  N   UNL A   1      41.395  29.288  32.011  1.00  0.00    -0.248 NA
ATOM     49  C   UNL A   1      42.466  27.640  30.751  1.00  0.00     0.031 C 
ATOM     50  C   UNL A   1      42.584  30.458  36.129  1.00  0.00     0.029 A 
ATOM     51  C   UNL A   1      42.236  30.079  34.842  1.00  0.00     0.049 A 
ATOM     52  H   UNL A   1      40.726  30.858  33.589  1.00  0.00     0.167 HD
ATOM     53  C   UNL A   1      42.421  28.735  32.765  1.00  0.00     0.074 A 
ATOM     54  C   UNL A   1      43.029  27.703  31.949  1.00  0.00     0.031 C 
ATOM     55  C   UNL A   1      42.822  29.051  34.020  1.00  0.00     0.037 A 
BRANCH  42  56
ATOM     56  C   UNL A   1      39.648  33.684  36.598  1.00  0.00     0.064 A 
ATOM     57  C   UNL A   1      38.844  33.335  37.695  1.00  0.00     0.173 A 
ATOM     58  C   UNL A   1      40.308  34.921  36.637  1.00  0.00     0.173 A 
ATOM     59  F   UNL A   1      38.181  32.169  37.701  1.00  0.00    -0.203 F 
ATOM     60  C   UNL A   1      38.683  34.204  38.770  1.00  0.00     0.198 A 
ATOM     61  C   UNL A   1      40.168  35.775  37.728  1.00  0.00     0.198 A 
ATOM     62  F   UNL A   1      41.093  35.302  35.616  1.00  0.00    -0.203 F 
ATOM     63  F   UNL A   1      37.869  33.872  39.781  1.00  0.00    -0.200 F 
ATOM     64  C   UNL A   1      39.350  35.419  38.789  1.00  0.00     0.200 A 
ATOM     65  F   UNL A   1      40.822  36.944  37.750  1.00  0.00    -0.200 F 
ATOM     66  F   UNL A   1      39.196  36.254  39.826  1.00  0.00    -0.200 F 
ENDBRANCH  42  56
BRANCH  43  67
ATOM     67  C   UNL A   1      40.674  27.990  28.459  1.00  0.00     0.064 A 
ATOM     68  C   UNL A   1      41.456  28.445  27.387  1.00  0.00     0.173 A 
ATOM     69  C   UNL A   1      40.075  26.728  28.341  1.00  0.00     0.173 A 
ATOM     70  F   UNL A   1      42.034  29.653  27.447  1.00  0.00    -0.203 F 
ATOM     71  C   UNL A   1      41.617  27.676  26.237  1.00  0.00     0.198 A 
ATOM     72  C   UNL A   1      40.257  25.949  27.201  1.00  0.00     0.198 A 
ATOM     73  F   UNL A   1      39.322  26.247  29.341  1.00  0.00    -0.203 F 
ATOM     74  F   UNL A   1      42.338  28.151  25.212  1.00  0.00    -0.200 F 
ATOM     75  C   UNL A   1      41.023  26.426  26.147  1.00  0.00     0.200 A 
ATOM     76  F   UNL A   1      39.693  24.736  27.122  1.00  0.00    -0.200 F 
ATOM     77  F   UNL A   1      41.182  25.684  25.043  1.00  0.00    -0.200 F 
ENDBRANCH  43  67
BRANCH  55  78
ATOM     78  C   UNL A   1      43.951  28.252  34.603  1.00  0.00     0.064 A 
ATOM     79  C   UNL A   1      45.281  28.686  34.514  1.00  0.00     0.173 A 
ATOM     80  C   UNL A   1      43.690  27.060  35.296  1.00  0.00     0.173 A 
ATOM     81  F   UNL A   1      45.582  29.811  33.849  1.00  0.00    -0.203 F 
ATOM     82  C   UNL A   1      46.314  27.943  35.081  1.00  0.00     0.198 A 
ATOM     83  C   UNL A   1      44.721  26.335  35.884  1.00  0.00     0.198 A 
ATOM     84  F   UNL A   1      42.434  26.606  35.412  1.00  0.00    -0.203 F 
ATOM     85  F   UNL A   1      47.582  28.354  34.948  1.00  0.00    -0.200 F 
ATOM     86  C   UNL A   1      46.032  26.773  35.772  1.00  0.00     0.200 A 
ATOM     87  F   UNL A   1      44.447  25.211  36.561  1.00  0.00    -0.200 F 
ATOM     88  F   UNL A   1      47.027  26.064  36.323  1.00  0.00    -0.200 F 
ENDBRANCH  55  78
ENDBRANCH  29  30
ENDBRANCH  21  24
ENDBRANCH  19  20
ENDBRANCH   1  19
TORSDOF 13
ENDMDL
MODEL 3
REMARK VINA RESULT:     -12.0      0.559      7.680
REMARK SMILES Nc1ccc(O)c(C(=O)NCCCCNC(=O)c2ccc(-c3c4nc(c(-c5c(F)c(F)c(F)c(F)c5F)c5ccc([nH]5)c(-c5c(F)c(F)c(F)c(F)c5F)c5nc(c(-c6c(F)c(F)c(F)c(F)c6F)c6ccc3[nH]6)C=C5)C=C4)cc2)c1
REMARK SMILES IDX 13 1 12 2 11 3 10 4 8 5 9 6 7 8 2 9 3 10 81 11 4 12 5 13
REMARK SMILES IDX 1 14 6 17 14 19 15 20 16 21 17 23 18 24 19 25 80 26 20 27
REMARK SMILES IDX 79 28 21 29 22 30 23 31 73 32 24 33 78 34 72 35 74 36 25 37
REMARK SMILES IDX 77 38 71 39 70 40 26 42 58 43 38 44 57 45 39 46 42 47 56 48
REMARK SMILES IDX 75 49 40 50 41 51 55 53 76 54 43 55 27 56 28 57 36 58 29 59
REMARK SMILES IDX 30 60 34 61 37 62 31 63 32 64 35 65 33 66 59 67 60 68 68 69
REMARK SMILES IDX 61 70 62 71 66 72 69 73 63 74 64 75 67 76 65 77 44 78 45 79
REMARK SMILES IDX 53 80 46 81 47 82 51 83 54 84 48 85 49 86 52 87 50 88
REMARK H PARENT 10 7 1 15 1 16 6 18 15 22 74 41 42 52
REMARK Flexibility Score: inf
ROOT
ATOM      1  C   UNL A   1      31.400  32.060  26.878  1.00  0.00     0.023 C 
ENDROOT
BRANCH   1   2
ATOM      2  C   UNL A   1      31.596  30.911  25.883  1.00  0.00     0.023 C 
BRANCH   2   3
ATOM      3  C   UNL A   1      32.873  30.099  26.109  1.00  0.00     0.116 C 
BRANCH   3   4
ATOM      4  N   UNL A   1      33.470  29.733  24.840  1.00  0.00    -0.352 N 
ATOM      5  C   UNL A   1      33.021  28.999  23.774  1.00  0.00     0.255 C 
ATOM      6  O   UNL A   1      33.792  28.892  22.813  1.00  0.00    -0.269 OA
ATOM      7  H   UNL A   1      34.383  30.084  24.720  1.00  0.00     0.163 HD
BRANCH   5   8
ATOM      8  C   UNL A   1      31.668  28.378  23.663  1.00  0.00     0.083 A 
ATOM      9  C   UNL A   1      29.946  26.765  24.311  1.00  0.00     0.032 A 
ATOM     10  C   UNL A   1      29.064  27.341  23.397  1.00  0.00     0.029 A 
ATOM     11  C   UNL A   1      31.260  27.247  24.383  1.00  0.00     0.043 A 
ATOM     12  C   UNL A   1      29.465  28.424  22.618  1.00  0.00     0.049 A 
ATOM     13  C   UNL A   1      30.752  28.940  22.756  1.00  0.00     0.128 A 
BRANCH   9  14
ATOM     14  N   UNL A   1      29.566  25.648  25.040  1.00  0.00    -0.399 N 
ATOM     15  H   UNL A   1      29.127  25.756  25.914  1.00  0.00     0.156 HD
ATOM     16  H   UNL A   1      29.737  24.746  24.682  1.00  0.00     0.156 HD
ENDBRANCH   9  14
BRANCH  13  17
ATOM     17  O   UNL A   1      31.045  30.005  21.942  1.00  0.00    -0.507 OA
ATOM     18  H   UNL A   1      31.608  29.888  21.202  1.00  0.00     0.293 HD
ENDBRANCH  13  17
ENDBRANCH   5   8
ENDBRANCH   3   4
ENDBRANCH   2   3
ENDBRANCH   1   2
BRANCH   1  19
ATOM     19  C   UNL A   1      32.666  32.842  27.219  1.00  0.00     0.116 C 
BRANCH  19  20
ATOM     20  N   UNL A   1      32.405  34.216  27.620  1.00  0.00    -0.352 N 
ATOM     21  C   UNL A   1      33.039  34.964  28.584  1.00  0.00     0.251 C 
ATOM     22  H   UNL A   1      31.676  34.670  27.137  1.00  0.00     0.163 HD
ATOM     23  O   UNL A   1      32.635  36.082  28.869  1.00  0.00    -0.269 OA
BRANCH  21  24
ATOM     24  C   UNL A   1      34.191  34.383  29.304  1.00  0.00     0.039 A 
ATOM     25  C   UNL A   1      33.945  33.593  30.431  1.00  0.00     0.014 A 
ATOM     26  C   UNL A   1      35.496  34.590  28.854  1.00  0.00     0.014 A 
ATOM     27  C   UNL A   1      35.009  32.951  31.066  1.00  0.00     0.010 A 
ATOM     28  C   UNL A   1      36.547  33.900  29.449  1.00  0.00     0.010 A 
ATOM     29  C   UNL A   1      36.313  33.070  30.557  1.00  0.00    -0.014 A 
BRANCH  29  30
ATOM     30  C   UNL A   1      37.444  32.326  31.162  1.00  0.00     0.031 A 
ATOM     31  C   UNL A   1      37.945  32.695  32.528  1.00  0.00     0.074 A 
ATOM     32  C   UNL A   1      38.066  31.370  30.446  1.00  0.00     0.049 A 
ATOM     33  N   UNL A   1      38.966  32.216  33.193  1.00  0.00    -0.248 NA
ATOM     34  C   UNL A   1      37.219  33.765  33.229  1.00  0.00     0.031 C 
ATOM     35  C   UNL A   1      37.707  30.960  29.088  1.00  0.00     0.029 A 
ATOM     36  N   UNL A   1      39.143  30.578  30.758  1.00  0.00    -0.354 N 
ATOM     37  C   UNL A   1      39.015  32.937  34.378  1.00  0.00     0.074 A 
ATOM     38  C   UNL A   1      37.953  33.919  34.321  1.00  0.00     0.031 C 
ATOM     39  C   UNL A   1      38.535  29.981  28.690  1.00  0.00     0.029 A 
ATOM     40  C   UNL A   1      39.503  29.718  29.750  1.00  0.00     0.049 A 
ATOM     41  H   UNL A   1      39.613  30.623  31.622  1.00  0.00     0.167 HD
ATOM     42  C   UNL A   1      39.856  32.779  35.427  1.00  0.00     0.037 A 
ATOM     43  C   UNL A   1      40.505  28.821  29.687  1.00  0.00     0.037 A 
ATOM     44  C   UNL A   1      40.891  31.782  35.492  1.00  0.00     0.049 A 
ATOM     45  C   UNL A   1      41.418  28.656  30.871  1.00  0.00     0.074 A 
ATOM     46  C   UNL A   1      41.752  31.496  36.537  1.00  0.00     0.029 A 
ATOM     47  N   UNL A   1      41.207  30.907  34.463  1.00  0.00    -0.354 N 
ATOM     48  N   UNL A   1      41.410  29.294  32.016  1.00  0.00    -0.248 NA
ATOM     49  C   UNL A   1      42.474  27.641  30.757  1.00  0.00     0.031 C 
ATOM     50  C   UNL A   1      42.615  30.475  36.126  1.00  0.00     0.029 A 
ATOM     51  C   UNL A   1      42.262  30.092  34.842  1.00  0.00     0.049 A 
ATOM     52  H   UNL A   1      40.749  30.869  33.592  1.00  0.00     0.167 HD
ATOM     53  C   UNL A   1      42.438  28.741  32.768  1.00  0.00     0.074 A 
ATOM     54  C   UNL A   1      43.042  27.707  31.953  1.00  0.00     0.031 C 
ATOM     55  C   UNL A   1      42.844  29.061  34.021  1.00  0.00     0.037 A 
BRANCH  42  56
ATOM     56  C   UNL A   1      39.684  33.706  36.596  1.00  0.00     0.064 A 
ATOM     57  C   UNL A   1      40.324  34.955  36.644  1.00  0.00     0.173 A 
ATOM     58  C   UNL A   1      38.853  33.354  37.669  1.00  0.00     0.173 A 
ATOM     59  F   UNL A   1      41.140  35.334  35.648  1.00  0.00    -0.203 F 
ATOM     60  C   UNL A   1      40.163  35.801  37.737  1.00  0.00     0.198 A 
ATOM     61  C   UNL A   1      38.670  34.216  38.748  1.00  0.00     0.198 A 
ATOM     62  F   UNL A   1      38.213  32.174  37.671  1.00  0.00    -0.203 F 
ATOM     63  F   UNL A   1      40.825  36.965  37.785  1.00  0.00    -0.200 F 
ATOM     64  C   UNL A   1      39.331  35.434  38.784  1.00  0.00     0.200 A 
ATOM     65  F   UNL A   1      37.857  33.865  39.754  1.00  0.00    -0.200 F 
ATOM     66  F   UNL A   1      39.175  36.251  39.836  1.00  0.00    -0.200 F 
ENDBRANCH  42  56
BRANCH  43  67
ATOM     67  C   UNL A   1      40.675  27.986  28.471  1.00  0.00     0.064 A 
ATOM     68  C   UNL A   1      40.057  26.732  28.370  1.00  0.00     0.173 A 
ATOM     69  C   UNL A   1      41.448  28.423  27.385  1.00  0.00     0.173 A 
ATOM     70  F   UNL A   1      39.324  26.265  29.390  1.00  0.00    -0.203 F 
ATOM     71  C   UNL A   1      40.220  25.939  27.236  1.00  0.00     0.198 A 
ATOM     72  C   UNL A   1      41.590  27.639  26.242  1.00  0.00     0.198 A 
ATOM     73  F   UNL A   1      42.056  29.618  27.432  1.00  0.00    -0.203 F 
ATOM     74  F   UNL A   1      39.650  24.726  27.182  1.00  0.00    -0.200 F 
ATOM     75  C   UNL A   1      40.981  26.395  26.171  1.00  0.00     0.200 A 
ATOM     76  F   UNL A   1      42.315  28.090  25.209  1.00  0.00    -0.200 F 
ATOM     77  F   UNL A   1      41.134  25.634  25.079  1.00  0.00    -0.200 F 
ENDBRANCH  43  67
BRANCH  55  78
ATOM     78  C   UNL A   1      43.974  28.263  34.602  1.00  0.00     0.064 A 
ATOM     79  C   UNL A   1      45.305  28.692  34.504  1.00  0.00     0.173 A 
ATOM     80  C   UNL A   1      43.714  27.075  35.303  1.00  0.00     0.173 A 
ATOM     81  F   UNL A   1      45.605  29.812  33.831  1.00  0.00    -0.203 F 
ATOM     82  C   UNL A   1      46.339  27.950  35.070  1.00  0.00     0.198 A 
ATOM     83  C   UNL A   1      44.746  26.351  35.890  1.00  0.00     0.198 A 
ATOM     84  F   UNL A   1      42.457  26.625  35.429  1.00  0.00    -0.203 F 
ATOM     85  F   UNL A   1      47.607  28.357  34.927  1.00  0.00    -0.200 F 
ATOM     86  C   UNL A   1      46.057  26.784  35.768  1.00  0.00     0.200 A 
ATOM     87  F   UNL A   1      44.473  25.231  36.575  1.00  0.00    -0.200 F 
ATOM     88  F   UNL A   1      47.053  26.076  36.318  1.00  0.00    -0.200 F 
ENDBRANCH  55  78
ENDBRANCH  29  30
ENDBRANCH  21  24
ENDBRANCH  19  20
ENDBRANCH   1  19
TORSDOF 13
ENDMDL
