MODEL 1
REMARK VINA RESULT:     -14.4      0.000      0.000
REMARK SMILES C[C@@H]1CCCN(C(=O)CSc2nnc3c4ccccc4n(CC(=O)NCCCCNC(=O)c4ccc(-c5c6nc(c(-c7c(F)c(F)c(F)c(F)c7F)c7ccc([nH]7)c(-c7c(F)c(F)c(F)c(F)c7F)c7nc(c(-c8c(F)c(F)c(F)c(F)c8F)c8ccc5[nH]8)C=C7)C=C6)cc4)c3n2)C1
REMARK SMILES IDX 26 1 25 2 23 3 24 4 22 6 21 7 11 8 12 9 97 10 13 11 96 12
REMARK SMILES IDX 14 13 15 14 20 15 16 16 19 17 17 18 18 19 10 20 9 21 7 22
REMARK SMILES IDX 8 23 6 24 1 25 2 26 3 27 98 28 4 29 5 30 27 31 28 32 29 33
REMARK SMILES IDX 30 34 31 35 32 37 33 38 34 39 95 40 35 41 94 42 36 43 37 44
REMARK SMILES IDX 38 45 88 46 39 47 93 48 87 49 89 50 40 51 92 52 86 53 85 54
REMARK SMILES IDX 41 56 73 57 53 58 72 59 54 60 57 61 71 62 90 63 55 64 56 65
REMARK SMILES IDX 70 67 91 68 58 69 42 70 43 71 51 72 44 73 45 74 49 75 52 76
REMARK SMILES IDX 46 77 47 78 50 79 48 80 74 81 75 82 83 83 76 84 77 85 81 86
REMARK SMILES IDX 84 87 78 88 79 89 82 90 80 91 59 92 60 93 68 94 61 95 62 96
REMARK SMILES IDX 66 97 69 98 63 99 64 100 67 101 65 102
REMARK H PARENT 25 5 30 36 89 55 57 66
REMARK Flexibility Score: inf
ROOT
ATOM      1  C   UNL A   1      38.601  23.118  26.309  1.00  0.00     0.116 C 
ENDROOT
BRANCH   1   2
ATOM      2  N   UNL A   1      38.039  22.995  24.982  1.00  0.00    -0.355 N 
ATOM      3  C   UNL A   1      36.893  22.335  24.642  1.00  0.00     0.240 C 
ATOM      4  O   UNL A   1      36.543  22.329  23.460  1.00  0.00    -0.273 OA
ATOM      5  H   UNL A   1      38.531  23.432  24.251  1.00  0.00     0.163 HD
BRANCH   3   6
ATOM      6  C   UNL A   1      36.062  21.676  25.733  1.00  0.00     0.224 C 
BRANCH   6   7
ATOM      7  N   UNL A   1      34.734  21.272  25.280  1.00  0.00    -0.314 N 
ATOM      8  C   UNL A   1      32.225  23.794  25.667  1.00  0.00     0.211 A 
ATOM      9  N   UNL A   1      31.145  23.053  25.317  1.00  0.00    -0.122 NA
ATOM     10  N   UNL A   1      33.508  23.355  25.688  1.00  0.00    -0.201 NA
ATOM     11  N   UNL A   1      31.276  21.775  24.922  1.00  0.00    -0.144 NA
ATOM     12  C   UNL A   1      33.602  22.063  25.293  1.00  0.00     0.165 A 
ATOM     13  C   UNL A   1      32.534  21.260  24.925  1.00  0.00     0.138 A 
ATOM     14  C   UNL A   1      33.039  19.960  24.620  1.00  0.00     0.030 A 
ATOM     15  C   UNL A   1      34.421  19.992  24.850  1.00  0.00     0.053 A 
ATOM     16  C   UNL A   1      32.468  18.747  24.175  1.00  0.00     0.013 A 
ATOM     17  C   UNL A   1      35.240  18.864  24.665  1.00  0.00     0.027 A 
ATOM     18  C   UNL A   1      33.285  17.626  23.963  1.00  0.00     0.001 A 
ATOM     19  C   UNL A   1      34.651  17.685  24.210  1.00  0.00     0.002 A 
BRANCH   8  20
ATOM     20  S   UNL A   1      31.922  25.341  26.508  1.00  0.00    -0.074 SA
BRANCH  20  21
ATOM     21  C   UNL A   1      30.889  26.278  25.323  1.00  0.00     0.178 C 
BRANCH  21  22
ATOM     22  C   UNL A   1      31.683  27.171  24.378  1.00  0.00     0.233 C 
ATOM     23  O   UNL A   1      31.565  27.000  23.161  1.00  0.00    -0.274 OA
BRANCH  22  24
ATOM     24  N   UNL A   1      32.458  28.204  24.897  1.00  0.00    -0.342 N 
ATOM     25  C   UNL A   1      31.455  31.498  26.555  1.00  0.00     0.009 C 
ATOM     26  C   UNL A   1      32.020  30.086  26.434  1.00  0.00     0.005 C 
ATOM     27  C   UNL A   1      33.491  30.051  26.873  1.00  0.00     0.007 C 
ATOM     28  C   UNL A   1      31.890  29.552  25.001  1.00  0.00     0.122 C 
ATOM     29  C   UNL A   1      34.059  28.643  26.725  1.00  0.00     0.022 C 
ATOM     30  C   UNL A   1      33.854  28.098  25.316  1.00  0.00     0.119 C 
ENDBRANCH  22  24
ENDBRANCH  21  22
ENDBRANCH  20  21
ENDBRANCH   8  20
ENDBRANCH   6   7
ENDBRANCH   3   6
ENDBRANCH   1   2
BRANCH   1  31
ATOM     31  C   UNL A   1      38.926  24.566  26.655  1.00  0.00     0.023 C 
BRANCH  31  32
ATOM     32  C   UNL A   1      40.347  24.691  27.199  1.00  0.00     0.023 C 
BRANCH  32  33
ATOM     33  C   UNL A   1      41.137  25.814  26.528  1.00  0.00     0.116 C 
BRANCH  33  34
ATOM     34  N   UNL A   1      40.455  27.095  26.588  1.00  0.00    -0.352 N 
ATOM     35  C   UNL A   1      40.140  27.957  27.608  1.00  0.00     0.251 C 
ATOM     36  H   UNL A   1      40.155  27.414  25.706  1.00  0.00     0.163 HD
ATOM     37  O   UNL A   1      39.572  29.006  27.294  1.00  0.00    -0.269 OA
BRANCH  35  38
ATOM     38  C   UNL A   1      40.281  27.669  29.071  1.00  0.00     0.039 A 
ATOM     39  C   UNL A   1      39.362  26.968  29.784  1.00  0.00     0.014 A 
ATOM     40  C   UNL A   1      40.849  28.726  29.822  1.00  0.00     0.014 A 
ATOM     41  C   UNL A   1      38.788  27.756  30.923  1.00  0.00     0.010 A 
ATOM     42  C   UNL A   1      40.588  28.933  31.166  1.00  0.00     0.010 A 
ATOM     43  C   UNL A   1      39.266  29.243  31.249  1.00  0.00    -0.014 A 
BRANCH  43  44
ATOM     44  C   UNL A   1      39.119  30.674  32.386  1.00  0.00     0.031 A 
ATOM     45  C   UNL A   1      37.743  31.122  31.177  1.00  0.00     0.074 A 
ATOM     46  C   UNL A   1      39.869  31.278  33.904  1.00  0.00     0.049 A 
ATOM     47  N   UNL A   1      37.927  31.629  29.942  1.00  0.00    -0.248 NA
ATOM     48  C   UNL A   1      36.190  30.418  30.678  1.00  0.00     0.031 C 
ATOM     49  C   UNL A   1      40.958  31.052  35.341  1.00  0.00     0.029 A 
ATOM     50  N   UNL A   1      39.857  32.638  34.631  1.00  0.00    -0.354 N 
ATOM     51  C   UNL A   1      36.658  32.177  29.572  1.00  0.00     0.074 A 
ATOM     52  C   UNL A   1      35.607  31.292  29.820  1.00  0.00     0.031 C 
ATOM     53  C   UNL A   1      40.725  31.822  36.569  1.00  0.00     0.029 A 
ATOM     54  C   UNL A   1      39.909  32.881  36.154  1.00  0.00     0.049 A 
ATOM     55  H   UNL A   1      39.811  33.440  34.061  1.00  0.00     0.167 HD
ATOM     56  C   UNL A   1      36.460  33.490  29.773  1.00  0.00     0.037 A 
ATOM     57  C   UNL A   1      39.389  33.909  36.964  1.00  0.00     0.037 A 
ATOM     58  C   UNL A   1      37.744  34.049  29.982  1.00  0.00     0.049 A 
ATOM     59  C   UNL A   1      38.826  34.664  35.825  1.00  0.00     0.074 A 
ATOM     60  C   UNL A   1      38.886  34.014  29.214  1.00  0.00     0.029 A 
ATOM     61  N   UNL A   1      38.125  34.004  31.281  1.00  0.00    -0.354 N 
ATOM     62  N   UNL A   1      39.605  35.243  34.932  1.00  0.00    -0.248 NA
ATOM     63  C   UNL A   1      37.577  34.036  35.369  1.00  0.00     0.031 C 
ATOM     64  C   UNL A   1      39.978  33.995  30.108  1.00  0.00     0.029 A 
ATOM     65  C   UNL A   1      39.473  34.076  31.394  1.00  0.00     0.049 A 
ATOM     66  H   UNL A   1      37.505  33.930  32.041  1.00  0.00     0.167 HD
ATOM     67  C   UNL A   1      39.181  34.724  33.707  1.00  0.00     0.074 A 
ATOM     68  C   UNL A   1      37.838  34.033  34.054  1.00  0.00     0.031 C 
ATOM     69  C   UNL A   1      40.055  34.359  32.665  1.00  0.00     0.037 A 
BRANCH  56  70
ATOM     70  C   UNL A   1      35.193  34.138  30.201  1.00  0.00     0.064 A 
ATOM     71  C   UNL A   1      34.607  34.866  29.173  1.00  0.00     0.173 A 
ATOM     72  C   UNL A   1      34.590  34.212  31.485  1.00  0.00     0.173 A 
ATOM     73  F   UNL A   1      35.140  34.825  27.944  1.00  0.00    -0.203 F 
ATOM     74  C   UNL A   1      33.485  35.637  29.386  1.00  0.00     0.198 A 
ATOM     75  C   UNL A   1      33.436  34.968  31.688  1.00  0.00     0.198 A 
ATOM     76  F   UNL A   1      35.097  33.596  32.565  1.00  0.00    -0.203 F 
ATOM     77  F   UNL A   1      32.982  36.332  28.360  1.00  0.00    -0.200 F 
ATOM     78  C   UNL A   1      32.895  35.687  30.636  1.00  0.00     0.200 A 
ATOM     79  F   UNL A   1      32.859  35.013  32.900  1.00  0.00    -0.200 F 
ATOM     80  F   UNL A   1      31.803  36.436  30.823  1.00  0.00    -0.200 F 
ENDBRANCH  56  70
BRANCH  57  81
ATOM     81  C   UNL A   1      38.668  33.688  38.347  1.00  0.00     0.064 A 
ATOM     82  C   UNL A   1      37.972  32.545  38.845  1.00  0.00     0.173 A 
ATOM     83  C   UNL A   1      38.891  34.668  39.343  1.00  0.00     0.173 A 
ATOM     84  F   UNL A   1      37.588  31.558  38.021  1.00  0.00    -0.203 F 
ATOM     85  C   UNL A   1      37.636  32.386  40.227  1.00  0.00     0.198 A 
ATOM     86  C   UNL A   1      38.577  34.508  40.704  1.00  0.00     0.198 A 
ATOM     87  F   UNL A   1      39.490  35.817  39.009  1.00  0.00    -0.203 F 
ATOM     88  F   UNL A   1      37.025  31.271  40.666  1.00  0.00    -0.200 F 
ATOM     89  C   UNL A   1      37.974  33.356  41.156  1.00  0.00     0.200 A 
ATOM     90  F   UNL A   1      38.921  35.466  41.579  1.00  0.00    -0.200 F 
ATOM     91  F   UNL A   1      37.745  33.178  42.467  1.00  0.00    -0.200 F 
ENDBRANCH  57  81
BRANCH  69  92
ATOM     92  C   UNL A   1      41.619  34.456  32.649  1.00  0.00     0.064 A 
ATOM     93  C   UNL A   1      42.486  35.471  33.158  1.00  0.00     0.173 A 
ATOM     94  C   UNL A   1      42.292  33.301  32.261  1.00  0.00     0.173 A 
ATOM     95  F   UNL A   1      42.029  36.535  33.812  1.00  0.00    -0.203 F 
ATOM     96  C   UNL A   1      43.886  35.423  33.079  1.00  0.00     0.198 A 
ATOM     97  C   UNL A   1      43.690  33.207  32.261  1.00  0.00     0.198 A 
ATOM     98  F   UNL A   1      41.582  32.212  31.944  1.00  0.00    -0.203 F 
ATOM     99  F   UNL A   1      44.630  36.483  33.443  1.00  0.00    -0.200 F 
ATOM    100  C   UNL A   1      44.489  34.278  32.627  1.00  0.00     0.200 A 
ATOM    101  F   UNL A   1      44.263  32.056  31.896  1.00  0.00    -0.200 F 
ATOM    102  F   UNL A   1      45.824  34.195  32.568  1.00  0.00    -0.200 F 
ENDBRANCH  69  92
ENDBRANCH  43  44
ENDBRANCH  35  38
ENDBRANCH  33  34
ENDBRANCH  32  33
ENDBRANCH  31  32
ENDBRANCH   1  31
TORSDOF 16
ENDMDL
MODEL 2
REMARK VINA RESULT:     -13.9      1.873      4.715
REMARK SMILES C[C@@H]1CCCN(C(=O)CSc2nnc3c4ccccc4n(CC(=O)NCCCCNC(=O)c4ccc(-c5c6nc(c(-c7c(F)c(F)c(F)c(F)c7F)c7ccc([nH]7)c(-c7c(F)c(F)c(F)c(F)c7F)c7nc(c(-c8c(F)c(F)c(F)c(F)c8F)c8ccc5[nH]8)C=C7)C=C6)cc4)c3n2)C1
REMARK SMILES IDX 26 1 25 2 23 3 24 4 22 6 21 7 11 8 12 9 97 10 13 11 96 12
REMARK SMILES IDX 14 13 15 14 20 15 16 16 19 17 17 18 18 19 10 20 9 21 7 22
REMARK SMILES IDX 8 23 6 24 1 25 2 26 3 27 98 28 4 29 5 30 27 31 28 32 29 33
REMARK SMILES IDX 30 34 31 35 32 37 33 38 34 39 95 40 35 41 94 42 36 43 37 44
REMARK SMILES IDX 38 45 88 46 39 47 93 48 87 49 89 50 40 51 92 52 86 53 85 54
REMARK SMILES IDX 41 56 73 57 53 58 72 59 54 60 57 61 71 62 90 63 55 64 56 65
REMARK SMILES IDX 70 67 91 68 58 69 42 70 43 71 51 72 44 73 45 74 49 75 52 76
REMARK SMILES IDX 46 77 47 78 50 79 48 80 74 81 75 82 83 83 76 84 77 85 81 86
REMARK SMILES IDX 84 87 78 88 79 89 82 90 80 91 59 92 60 93 68 94 61 95 62 96
REMARK SMILES IDX 66 97 69 98 63 99 64 100 67 101 65 102
REMARK H PARENT 25 5 30 36 89 55 57 66
REMARK Flexibility Score: inf
ROOT
ATOM      1  C   UNL A   1      33.818  30.292  26.947  1.00  0.00     0.116 C 
ENDROOT
BRANCH   1   2
ATOM      2  N   UNL A   1      32.823  29.529  27.667  1.00  0.00    -0.355 N 
ATOM      3  C   UNL A   1      32.304  28.320  27.303  1.00  0.00     0.240 C 
ATOM      4  O   UNL A   1      31.462  27.793  28.034  1.00  0.00    -0.273 OA
ATOM      5  H   UNL A   1      32.487  29.921  28.505  1.00  0.00     0.163 HD
BRANCH   3   6
ATOM      6  C   UNL A   1      32.815  27.640  26.042  1.00  0.00     0.224 C 
BRANCH   6   7
ATOM      7  N   UNL A   1      31.749  27.269  25.115  1.00  0.00    -0.314 N 
ATOM      8  C   UNL A   1      31.609  23.771  24.371  1.00  0.00     0.211 A 
ATOM      9  N   UNL A   1      30.659  23.814  23.404  1.00  0.00    -0.122 NA
ATOM     10  N   UNL A   1      32.077  24.840  25.063  1.00  0.00    -0.201 NA
ATOM     11  N   UNL A   1      30.065  24.969  23.063  1.00  0.00    -0.144 NA
ATOM     12  C   UNL A   1      31.462  25.987  24.688  1.00  0.00     0.165 A 
ATOM     13  C   UNL A   1      30.487  26.089  23.709  1.00  0.00     0.138 A 
ATOM     14  C   UNL A   1      30.127  27.464  23.580  1.00  0.00     0.030 A 
ATOM     15  C   UNL A   1      30.932  28.185  24.472  1.00  0.00     0.053 A 
ATOM     16  C   UNL A   1      29.200  28.183  22.793  1.00  0.00     0.013 A 
ATOM     17  C   UNL A   1      30.853  29.584  24.594  1.00  0.00     0.027 A 
ATOM     18  C   UNL A   1      29.099  29.576  22.929  1.00  0.00     0.001 A 
ATOM     19  C   UNL A   1      29.919  30.265  23.815  1.00  0.00     0.002 A 
BRANCH   8  20
ATOM     20  S   UNL A   1      32.582  22.279  24.502  1.00  0.00    -0.074 SA
BRANCH  20  21
ATOM     21  C   UNL A   1      32.676  21.986  26.306  1.00  0.00     0.178 C 
BRANCH  21  22
ATOM     22  C   UNL A   1      33.889  22.617  26.976  1.00  0.00     0.233 C 
ATOM     23  O   UNL A   1      33.807  22.951  28.161  1.00  0.00    -0.274 OA
BRANCH  22  24
ATOM     24  N   UNL A   1      35.083  22.733  26.268  1.00  0.00    -0.342 N 
ATOM     25  C   UNL A   1      37.329  20.072  24.693  1.00  0.00     0.009 C 
ATOM     26  C   UNL A   1      36.350  21.240  24.763  1.00  0.00     0.005 C 
ATOM     27  C   UNL A   1      36.920  22.472  24.046  1.00  0.00     0.007 C 
ATOM     28  C   UNL A   1      36.007  21.595  26.217  1.00  0.00     0.122 C 
ATOM     29  C   UNL A   1      35.949  23.644  24.143  1.00  0.00     0.022 C 
ATOM     30  C   UNL A   1      35.559  23.935  25.588  1.00  0.00     0.119 C 
ENDBRANCH  22  24
ENDBRANCH  21  22
ENDBRANCH  20  21
ENDBRANCH   8  20
ENDBRANCH   6   7
ENDBRANCH   3   6
ENDBRANCH   1   2
BRANCH   1  31
ATOM     31  C   UNL A   1      35.084  30.493  27.771  1.00  0.00     0.023 C 
BRANCH  31  32
ATOM     32  C   UNL A   1      35.951  29.237  27.755  1.00  0.00     0.023 C 
BRANCH  32  33
ATOM     33  C   UNL A   1      37.246  29.404  28.551  1.00  0.00     0.116 C 
BRANCH  33  34
ATOM     34  N   UNL A   1      38.387  28.780  27.905  1.00  0.00    -0.352 N 
ATOM     35  C   UNL A   1      39.408  27.977  28.349  1.00  0.00     0.251 C 
ATOM     36  H   UNL A   1      38.439  28.975  26.941  1.00  0.00     0.163 HD
ATOM     37  O   UNL A   1      40.214  27.583  27.501  1.00  0.00    -0.269 OA
BRANCH  35  38
ATOM     38  C   UNL A   1      39.719  27.668  29.781  1.00  0.00     0.039 A 
ATOM     39  C   UNL A   1      38.841  27.058  30.618  1.00  0.00     0.014 A 
ATOM     40  C   UNL A   1      40.488  28.658  30.438  1.00  0.00     0.014 A 
ATOM     41  C   UNL A   1      38.511  27.893  31.819  1.00  0.00     0.010 A 
ATOM     42  C   UNL A   1      40.436  28.881  31.803  1.00  0.00     0.010 A 
ATOM     43  C   UNL A   1      39.176  29.321  32.065  1.00  0.00    -0.014 A 
BRANCH  43  44
ATOM     44  C   UNL A   1      39.331  30.753  33.201  1.00  0.00     0.031 A 
ATOM     45  C   UNL A   1      37.848  31.340  32.196  1.00  0.00     0.074 A 
ATOM     46  C   UNL A   1      40.344  31.272  34.593  1.00  0.00     0.049 A 
ATOM     47  N   UNL A   1      37.904  31.834  30.943  1.00  0.00    -0.248 NA
ATOM     48  C   UNL A   1      36.179  30.794  31.927  1.00  0.00     0.031 C 
ATOM     49  C   UNL A   1      41.598  30.931  35.863  1.00  0.00     0.029 A 
ATOM     50  N   UNL A   1      40.567  32.622  35.305  1.00  0.00    -0.354 N 
ATOM     51  C   UNL A   1      36.654  32.505  30.753  1.00  0.00     0.074 A 
ATOM     52  C   UNL A   1      35.568  31.725  31.154  1.00  0.00     0.031 C 
ATOM     53  C   UNL A   1      41.617  31.713  37.106  1.00  0.00     0.029 A 
ATOM     54  C   UNL A   1      40.857  32.849  36.802  1.00  0.00     0.049 A 
ATOM     55  H   UNL A   1      40.518  33.428  34.741  1.00  0.00     0.167 HD
ATOM     56  C   UNL A   1      36.615  33.831  30.970  1.00  0.00     0.037 A 
ATOM     57  C   UNL A   1      40.560  33.917  37.670  1.00  0.00     0.037 A 
ATOM     58  C   UNL A   1      37.964  34.261  30.991  1.00  0.00     0.049 A 
ATOM     59  C   UNL A   1      39.916  34.730  36.617  1.00  0.00     0.074 A 
ATOM     60  C   UNL A   1      38.976  34.120  30.069  1.00  0.00     0.029 A 
ATOM     61  N   UNL A   1      38.519  34.171  32.223  1.00  0.00    -0.354 N 
ATOM     62  N   UNL A   1      40.614  35.237  35.619  1.00  0.00    -0.248 NA
ATOM     63  C   UNL A   1      38.561  34.230  36.347  1.00  0.00     0.031 C 
ATOM     64  C   UNL A   1      40.177  33.990  30.800  1.00  0.00     0.029 A 
ATOM     65  C   UNL A   1      39.869  34.111  32.144  1.00  0.00     0.049 A 
ATOM     66  H   UNL A   1      38.008  34.153  33.064  1.00  0.00     0.167 HD
ATOM     67  C   UNL A   1      39.972  34.769  34.470  1.00  0.00     0.074 A 
ATOM     68  C   UNL A   1      38.632  34.210  35.009  1.00  0.00     0.031 C 
ATOM     69  C   UNL A   1      40.650  34.328  33.317  1.00  0.00     0.037 A 
BRANCH  56  70
ATOM     70  C   UNL A   1      35.491  34.596  31.568  1.00  0.00     0.064 A 
ATOM     71  C   UNL A   1      34.504  34.889  30.634  1.00  0.00     0.173 A 
ATOM     72  C   UNL A   1      35.346  35.146  32.869  1.00  0.00     0.173 A 
ATOM     73  F   UNL A   1      34.597  34.390  29.393  1.00  0.00    -0.203 F 
ATOM     74  C   UNL A   1      33.426  35.687  30.951  1.00  0.00     0.198 A 
ATOM     75  C   UNL A   1      34.238  35.926  33.194  1.00  0.00     0.198 A 
ATOM     76  F   UNL A   1      36.261  34.976  33.838  1.00  0.00    -0.203 F 
ATOM     77  F   UNL A   1      32.524  35.951  30.000  1.00  0.00    -0.200 F 
ATOM     78  C   UNL A   1      33.287  36.202  32.227  1.00  0.00     0.200 A 
ATOM     79  F   UNL A   1      34.098  36.423  34.435  1.00  0.00    -0.200 F 
ATOM     80  F   UNL A   1      32.232  36.971  32.519  1.00  0.00    -0.200 F 
ENDBRANCH  56  70
BRANCH  57  81
ATOM     81  C   UNL A   1      40.024  33.758  39.143  1.00  0.00     0.064 A 
ATOM     82  C   UNL A   1      39.031  32.875  39.667  1.00  0.00     0.173 A 
ATOM     83  C   UNL A   1      40.745  34.432  40.157  1.00  0.00     0.173 A 
ATOM     84  F   UNL A   1      38.186  32.226  38.852  1.00  0.00    -0.203 F 
ATOM     85  C   UNL A   1      38.871  32.637  41.069  1.00  0.00     0.198 A 
ATOM     86  C   UNL A   1      40.601  34.189  41.534  1.00  0.00     0.198 A 
ATOM     87  F   UNL A   1      41.674  35.330  39.813  1.00  0.00    -0.203 F 
ATOM     88  F   UNL A   1      37.958  31.759  41.521  1.00  0.00    -0.200 F 
ATOM     89  C   UNL A   1      39.683  33.271  41.994  1.00  0.00     0.200 A 
ATOM     90  F   UNL A   1      41.406  34.817  42.404  1.00  0.00    -0.200 F 
ATOM     91  F   UNL A   1      39.603  32.989  43.305  1.00  0.00    -0.200 F 
ENDBRANCH  57  81
BRANCH  69  92
ATOM     92  C   UNL A   1      42.198  34.272  33.079  1.00  0.00     0.064 A 
ATOM     93  C   UNL A   1      43.026  33.192  32.642  1.00  0.00     0.173 A 
ATOM     94  C   UNL A   1      42.859  35.497  33.104  1.00  0.00     0.173 A 
ATOM     95  F   UNL A   1      42.530  32.006  32.305  1.00  0.00    -0.203 F 
ATOM     96  C   UNL A   1      44.414  33.288  32.465  1.00  0.00     0.198 A 
ATOM     97  C   UNL A   1      44.229  35.620  32.842  1.00  0.00     0.198 A 
ATOM     98  F   UNL A   1      42.149  36.612  33.314  1.00  0.00    -0.203 F 
ATOM     99  F   UNL A   1      45.148  32.192  32.197  1.00  0.00    -0.200 F 
ATOM    100  C   UNL A   1      45.017  34.515  32.566  1.00  0.00     0.200 A 
ATOM    101  F   UNL A   1      44.788  36.834  32.863  1.00  0.00    -0.200 F 
ATOM    102  F   UNL A   1      46.337  34.638  32.373  1.00  0.00    -0.200 F 
ENDBRANCH  69  92
ENDBRANCH  43  44
ENDBRANCH  35  38
ENDBRANCH  33  34
ENDBRANCH  32  33
ENDBRANCH  31  32
ENDBRANCH   1  31
TORSDOF 16
ENDMDL
MODEL 3
REMARK VINA RESULT:     -13.6      6.468     12.684
REMARK SMILES C[C@@H]1CCCN(C(=O)CSc2nnc3c4ccccc4n(CC(=O)NCCCCNC(=O)c4ccc(-c5c6nc(c(-c7c(F)c(F)c(F)c(F)c7F)c7ccc([nH]7)c(-c7c(F)c(F)c(F)c(F)c7F)c7nc(c(-c8c(F)c(F)c(F)c(F)c8F)c8ccc5[nH]8)C=C7)C=C6)cc4)c3n2)C1
REMARK SMILES IDX 26 1 25 2 23 3 24 4 22 6 21 7 11 8 12 9 97 10 13 11 96 12
REMARK SMILES IDX 14 13 15 14 20 15 16 16 19 17 17 18 18 19 10 20 9 21 7 22
REMARK SMILES IDX 8 23 6 24 1 25 2 26 3 27 98 28 4 29 5 30 27 31 28 32 29 33
REMARK SMILES IDX 30 34 31 35 32 37 33 38 34 39 95 40 35 41 94 42 36 43 37 44
REMARK SMILES IDX 38 45 88 46 39 47 93 48 87 49 89 50 40 51 92 52 86 53 85 54
REMARK SMILES IDX 41 56 73 57 53 58 72 59 54 60 57 61 71 62 90 63 55 64 56 65
REMARK SMILES IDX 70 67 91 68 58 69 42 70 43 71 51 72 44 73 45 74 49 75 52 76
REMARK SMILES IDX 46 77 47 78 50 79 48 80 74 81 75 82 83 83 76 84 77 85 81 86
REMARK SMILES IDX 84 87 78 88 79 89 82 90 80 91 59 92 60 93 68 94 61 95 62 96
REMARK SMILES IDX 66 97 69 98 63 99 64 100 67 101 65 102
REMARK H PARENT 25 5 30 36 89 55 57 66
REMARK Flexibility Score: inf
ROOT
ATOM      1  C   UNL A   1      34.747  30.060  27.340  1.00  0.00     0.116 C 
ENDROOT
BRANCH   1   2
ATOM      2  N   UNL A   1      33.510  29.548  27.887  1.00  0.00    -0.355 N 
ATOM      3  C   UNL A   1      32.750  28.537  27.373  1.00  0.00     0.240 C 
ATOM      4  O   UNL A   1      31.719  28.211  27.966  1.00  0.00    -0.273 OA
ATOM      5  H   UNL A   1      33.184  29.970  28.714  1.00  0.00     0.163 HD
BRANCH   3   6
ATOM      6  C   UNL A   1      33.223  27.813  26.121  1.00  0.00     0.224 C 
BRANCH   6   7
ATOM      7  N   UNL A   1      32.138  27.176  25.379  1.00  0.00    -0.314 N 
ATOM      8  C   UNL A   1      32.181  23.600  25.508  1.00  0.00     0.211 A 
ATOM      9  N   UNL A   1      31.184  23.359  24.622  1.00  0.00    -0.122 NA
ATOM     10  N   UNL A   1      32.614  24.826  25.892  1.00  0.00    -0.201 NA
ATOM     11  N   UNL A   1      30.502  24.366  24.051  1.00  0.00    -0.144 NA
ATOM     12  C   UNL A   1      31.911  25.816  25.292  1.00  0.00     0.165 A 
ATOM     13  C   UNL A   1      30.885  25.628  24.381  1.00  0.00     0.138 A 
ATOM     14  C   UNL A   1      30.433  26.912  23.949  1.00  0.00     0.030 A 
ATOM     15  C   UNL A   1      31.234  27.866  24.588  1.00  0.00     0.053 A 
ATOM     16  C   UNL A   1      29.425  27.371  23.071  1.00  0.00     0.013 A 
ATOM     17  C   UNL A   1      31.074  29.247  24.375  1.00  0.00     0.027 A 
ATOM     18  C   UNL A   1      29.244  28.748  22.875  1.00  0.00     0.001 A 
ATOM     19  C   UNL A   1      30.061  29.672  23.515  1.00  0.00     0.002 A 
BRANCH   8  20
ATOM     20  S   UNL A   1      33.251  22.233  25.933  1.00  0.00    -0.074 SA
BRANCH  20  21
ATOM     21  C   UNL A   1      33.940  21.712  24.319  1.00  0.00     0.178 C 
BRANCH  21  22
ATOM     22  C   UNL A   1      34.975  22.671  23.747  1.00  0.00     0.233 C 
ATOM     23  O   UNL A   1      34.599  23.562  22.980  1.00  0.00    -0.274 OA
BRANCH  22  24
ATOM     24  N   UNL A   1      36.302  22.575  24.156  1.00  0.00    -0.342 N 
ATOM     25  C   UNL A   1      38.221  24.440  26.885  1.00  0.00     0.009 C 
ATOM     26  C   UNL A   1      37.540  23.273  26.176  1.00  0.00     0.005 C 
ATOM     27  C   UNL A   1      38.530  22.122  25.948  1.00  0.00     0.007 C 
ATOM     28  C   UNL A   1      36.933  23.711  24.836  1.00  0.00     0.122 C 
ATOM     29  C   UNL A   1      37.852  20.970  25.215  1.00  0.00     0.022 C 
ATOM     30  C   UNL A   1      37.189  21.436  23.924  1.00  0.00     0.119 C 
ENDBRANCH  22  24
ENDBRANCH  21  22
ENDBRANCH  20  21
ENDBRANCH   8  20
ENDBRANCH   6   7
ENDBRANCH   3   6
ENDBRANCH   1   2
BRANCH   1  31
ATOM     31  C   UNL A   1      35.356  31.138  28.228  1.00  0.00     0.023 C 
BRANCH  31  32
ATOM     32  C   UNL A   1      36.752  30.735  28.696  1.00  0.00     0.023 C 
BRANCH  32  33
ATOM     33  C   UNL A   1      36.994  29.229  28.596  1.00  0.00     0.116 C 
BRANCH  33  34
ATOM     34  N   UNL A   1      37.986  28.755  29.545  1.00  0.00    -0.352 N 
ATOM     35  C   UNL A   1      39.349  28.884  29.638  1.00  0.00     0.251 C 
ATOM     36  H   UNL A   1      37.596  28.229  30.280  1.00  0.00     0.163 HD
ATOM     37  O   UNL A   1      39.891  28.371  30.622  1.00  0.00    -0.269 OA
BRANCH  35  38
ATOM     38  C   UNL A   1      40.249  29.448  28.583  1.00  0.00     0.039 A 
ATOM     39  C   UNL A   1      40.014  29.312  27.252  1.00  0.00     0.014 A 
ATOM     40  C   UNL A   1      41.629  29.380  28.893  1.00  0.00     0.014 A 
ATOM     41  C   UNL A   1      41.127  28.607  26.537  1.00  0.00     0.010 A 
ATOM     42  C   UNL A   1      42.623  29.310  27.933  1.00  0.00     0.010 A 
ATOM     43  C   UNL A   1      42.446  28.124  27.292  1.00  0.00    -0.014 A 
BRANCH  43  44
ATOM     44  C   UNL A   1      44.101  27.351  27.123  1.00  0.00     0.031 A 
ATOM     45  C   UNL A   1      43.037  25.817  26.861  1.00  0.00     0.074 A 
ATOM     46  C   UNL A   1      45.830  27.842  27.136  1.00  0.00     0.049 A 
ATOM     47  N   UNL A   1      42.394  25.141  27.834  1.00  0.00    -0.248 NA
ATOM     48  C   UNL A   1      41.844  25.268  25.664  1.00  0.00     0.031 C 
ATOM     49  C   UNL A   1      47.122  29.119  27.141  1.00  0.00     0.029 A 
ATOM     50  N   UNL A   1      47.158  27.066  27.257  1.00  0.00    -0.354 N 
ATOM     51  C   UNL A   1      42.075  23.871  27.255  1.00  0.00     0.074 A 
ATOM     52  C   UNL A   1      41.502  23.997  25.989  1.00  0.00     0.031 C 
ATOM     53  C   UNL A   1      48.458  28.817  26.612  1.00  0.00     0.029 A 
ATOM     54  C   UNL A   1      48.506  27.418  26.596  1.00  0.00     0.049 A 
ATOM     55  H   UNL A   1      47.143  26.256  27.817  1.00  0.00     0.167 HD
ATOM     56  C   UNL A   1      42.912  22.848  27.489  1.00  0.00     0.037 A 
ATOM     57  C   UNL A   1      49.581  26.620  26.159  1.00  0.00     0.037 A 
ATOM     58  C   UNL A   1      43.726  23.251  28.576  1.00  0.00     0.049 A 
ATOM     59  C   UNL A   1      48.956  25.355  26.600  1.00  0.00     0.074 A 
ATOM     60  C   UNL A   1      43.400  23.690  29.840  1.00  0.00     0.029 A 
ATOM     61  N   UNL A   1      44.824  23.936  28.177  1.00  0.00    -0.354 N 
ATOM     62  N   UNL A   1      48.780  25.085  27.879  1.00  0.00    -0.248 NA
ATOM     63  C   UNL A   1      47.920  24.941  25.643  1.00  0.00     0.031 C 
ATOM     64  C   UNL A   1      44.381  24.637  30.207  1.00  0.00     0.029 A 
ATOM     65  C   UNL A   1      45.307  24.706  29.181  1.00  0.00     0.049 A 
ATOM     66  H   UNL A   1      45.219  23.879  27.278  1.00  0.00     0.167 HD
ATOM     67  C   UNL A   1      47.414  24.818  27.996  1.00  0.00     0.074 A 
ATOM     68  C   UNL A   1      46.950  24.662  26.526  1.00  0.00     0.031 C 
ATOM     69  C   UNL A   1      46.619  25.255  29.073  1.00  0.00     0.037 A 
BRANCH  56  70
ATOM     70  C   UNL A   1      43.279  21.769  26.535  1.00  0.00     0.064 A 
ATOM     71  C   UNL A   1      42.584  20.592  26.788  1.00  0.00     0.173 A 
ATOM     72  C   UNL A   1      44.277  21.737  25.526  1.00  0.00     0.173 A 
ATOM     73  F   UNL A   1      41.630  20.574  27.730  1.00  0.00    -0.203 F 
ATOM     74  C   UNL A   1      42.853  19.433  26.093  1.00  0.00     0.198 A 
ATOM     75  C   UNL A   1      44.524  20.571  24.803  1.00  0.00     0.198 A 
ATOM     76  F   UNL A   1      45.049  22.797  25.231  1.00  0.00    -0.203 F 
ATOM     77  F   UNL A   1      42.165  18.328  26.399  1.00  0.00    -0.200 F 
ATOM     78  C   UNL A   1      43.816  19.420  25.099  1.00  0.00     0.200 A 
ATOM     79  F   UNL A   1      45.455  20.558  23.835  1.00  0.00    -0.200 F 
ATOM     80  F   UNL A   1      44.060  18.287  24.430  1.00  0.00    -0.200 F 
ENDBRANCH  56  70
BRANCH  57  81
ATOM     81  C   UNL A   1      50.359  26.819  24.804  1.00  0.00     0.064 A 
ATOM     82  C   UNL A   1      49.904  27.340  23.554  1.00  0.00     0.173 A 
ATOM     83  C   UNL A   1      51.763  26.655  24.848  1.00  0.00     0.173 A 
ATOM     84  F   UNL A   1      48.593  27.469  23.297  1.00  0.00    -0.203 F 
ATOM     85  C   UNL A   1      50.799  27.740  22.512  1.00  0.00     0.198 A 
ATOM     86  C   UNL A   1      52.647  27.062  23.833  1.00  0.00     0.198 A 
ATOM     87  F   UNL A   1      52.328  26.128  25.941  1.00  0.00    -0.203 F 
ATOM     88  F   UNL A   1      50.334  28.274  21.368  1.00  0.00    -0.200 F 
ATOM     89  C   UNL A   1      52.170  27.631  22.673  1.00  0.00     0.200 A 
ATOM     90  F   UNL A   1      53.970  26.946  24.022  1.00  0.00    -0.200 F 
ATOM     91  F   UNL A   1      53.022  28.086  21.740  1.00  0.00    -0.200 F 
ENDBRANCH  57  81
BRANCH  69  92
ATOM     92  C   UNL A   1      47.070  26.092  30.319  1.00  0.00     0.064 A 
ATOM     93  C   UNL A   1      48.256  25.999  31.112  1.00  0.00     0.173 A 
ATOM     94  C   UNL A   1      46.312  27.226  30.594  1.00  0.00     0.173 A 
ATOM     95  F   UNL A   1      49.235  25.144  30.832  1.00  0.00    -0.203 F 
ATOM     96  C   UNL A   1      48.535  26.828  32.209  1.00  0.00     0.198 A 
ATOM     97  C   UNL A   1      46.629  28.112  31.632  1.00  0.00     0.198 A 
ATOM     98  F   UNL A   1      45.280  27.525  29.795  1.00  0.00    -0.203 F 
ATOM     99  F   UNL A   1      49.597  26.585  32.999  1.00  0.00    -0.200 F 
ATOM    100  C   UNL A   1      47.712  27.893  32.467  1.00  0.00     0.200 A 
ATOM    101  F   UNL A   1      45.863  29.192  31.819  1.00  0.00    -0.200 F 
ATOM    102  F   UNL A   1      47.971  28.717  33.491  1.00  0.00    -0.200 F 
ENDBRANCH  69  92
ENDBRANCH  43  44
ENDBRANCH  35  38
ENDBRANCH  33  34
ENDBRANCH  32  33
ENDBRANCH  31  32
ENDBRANCH   1  31
TORSDOF 16
ENDMDL
