MODEL 1
REMARK VINA RESULT:     -10.6      0.000      0.000
REMARK SMILES CCCN1C(=O)/C(=C\c2ccc(OC)c(OC)c2C(=O)NCCCCNC(=O)c2ccc(-c3c4nc(c(-c5c(F)c(F)c(F)c(F)c5F)c5ccc([nH]5)c(-c5c(F)c(F)c(F)c(F)c5F)c5nc(c(-c6c(F)c(F)c(F)c(F)c6F)c6ccc3[nH]6)C=C5)C=C4)cc2)S/C1=[NH+]\c1nccs1
REMARK SMILES IDX 23 1 22 2 21 3 19 4 20 5 18 7 9 8 10 9 11 10 15 11 12 12
REMARK SMILES IDX 8 13 4 14 5 15 93 16 6 17 7 18 92 19 94 20 3 22 2 23 1 24
REMARK SMILES IDX 95 25 96 26 99 27 97 28 98 29 16 30 17 31 13 32 14 33 24 34
REMARK SMILES IDX 25 35 26 36 27 37 28 39 29 40 30 41 91 42 31 43 90 44 32 45
REMARK SMILES IDX 33 46 34 47 84 48 35 49 89 50 83 51 85 52 36 53 88 54 82 55
REMARK SMILES IDX 81 56 37 58 69 59 49 60 68 61 50 62 53 63 67 64 86 65 51 66
REMARK SMILES IDX 52 67 66 69 87 70 54 71 38 72 39 73 47 74 40 75 41 76 45 77
REMARK SMILES IDX 48 78 42 79 43 80 46 81 44 82 70 83 71 84 79 85 72 86 73 87
REMARK SMILES IDX 77 88 80 89 74 90 75 91 78 92 76 93 55 94 56 95 64 96 57 97
REMARK SMILES IDX 58 98 62 99 65 100 59 101 60 102 63 103 61 104
REMARK H PARENT 21 6 94 21 26 38 85 57 53 68
REMARK Flexibility Score: inf
ROOT
ATOM      1  C   UNL A   1      37.096  33.126  35.346  1.00  0.00     0.023 C 
ENDROOT
BRANCH   1   2
ATOM      2  C   UNL A   1      37.442  33.158  36.828  1.00  0.00     0.116 C 
BRANCH   2   3
ATOM      3  N   UNL A   1      38.743  32.644  37.185  1.00  0.00    -0.352 N 
ATOM      4  C   UNL A   1      39.644  33.131  38.104  1.00  0.00     0.255 C 
ATOM      5  O   UNL A   1      40.549  32.391  38.482  1.00  0.00    -0.269 OA
ATOM      6  H   UNL A   1      39.026  31.834  36.703  1.00  0.00     0.163 HD
BRANCH   4   7
ATOM      7  C   UNL A   1      39.553  34.502  38.669  1.00  0.00     0.092 A 
ATOM      8  C   UNL A   1      39.872  35.650  37.899  1.00  0.00    -0.007 A 
ATOM      9  C   UNL A   1      39.730  36.923  38.462  1.00  0.00     0.013 A 
ATOM     10  C   UNL A   1      39.257  37.068  39.763  1.00  0.00     0.051 A 
ATOM     11  C   UNL A   1      39.049  34.657  39.976  1.00  0.00     0.174 A 
ATOM     12  C   UNL A   1      38.907  35.946  40.512  1.00  0.00     0.161 A 
BRANCH   8  13
ATOM     13  C   UNL A   1      40.459  35.571  36.558  1.00  0.00     0.032 C 
ATOM     14  N   UNL A   1      43.694  37.094  36.612  1.00  0.00    -0.219 N 
ATOM     15  C   UNL A   1      42.852  36.155  37.167  1.00  0.00     0.321 C 
ATOM     16  C   UNL A   1      43.361  37.522  35.344  1.00  0.00     0.271 C 
ATOM     17  O   UNL A   1      43.010  35.534  38.208  1.00  0.00    -0.250 OA
ATOM     18  C   UNL A   1      41.712  35.918  36.249  1.00  0.00     0.100 C 
ATOM     19  S   UNL A   1      42.137  36.468  34.681  1.00  0.00    -0.012 SA
ATOM     20  N   UNL A   1      43.899  38.562  34.811  1.00  0.00    -0.228 N 
ATOM     21  H   UNL A   1      44.703  38.960  35.216  1.00  0.00     0.268 HD
BRANCH  14  22
ATOM     22  C   UNL A   1      44.864  37.579  37.333  1.00  0.00     0.206 C 
BRANCH  22  23
ATOM     23  C   UNL A   1      46.029  36.590  37.423  1.00  0.00     0.035 C 
ATOM     24  C   UNL A   1      46.245  35.770  36.159  1.00  0.00     0.007 C 
ENDBRANCH  22  23
ENDBRANCH  14  22
BRANCH  20  25
ATOM     25  C   UNL A   1      43.362  39.114  33.684  1.00  0.00     0.319 A 
ATOM     26  N   UNL A   1      42.681  40.583  33.593  1.00  0.00    -0.101 NA
ATOM     27  S   UNL A   1      44.294  38.372  31.739  1.00  0.00    -0.070 S 
ATOM     28  C   UNL A   1      42.730  41.471  31.932  1.00  0.00     0.219 A 
ATOM     29  C   UNL A   1      43.679  40.315  30.646  1.00  0.00     0.110 A 
ENDBRANCH  20  25
ENDBRANCH   8  13
BRANCH  11  30
ATOM     30  O   UNL A   1      38.846  33.588  40.814  1.00  0.00    -0.492 OA
ATOM     31  C   UNL A   1      37.490  33.141  40.830  1.00  0.00     0.278 C 
ENDBRANCH  11  30
BRANCH  12  32
ATOM     32  O   UNL A   1      38.513  36.195  41.800  1.00  0.00    -0.493 OA
ATOM     33  C   UNL A   1      39.616  36.410  42.676  1.00  0.00     0.278 C 
ENDBRANCH  12  32
ENDBRANCH   4   7
ENDBRANCH   2   3
ENDBRANCH   1   2
BRANCH   1  34
ATOM     34  C   UNL A   1      36.073  34.127  34.796  1.00  0.00     0.023 C 
BRANCH  34  35
ATOM     35  C   UNL A   1      36.205  34.654  33.369  1.00  0.00     0.116 C 
BRANCH  35  36
ATOM     36  N   UNL A   1      35.176  34.264  32.423  1.00  0.00    -0.352 N 
ATOM     37  C   UNL A   1      34.981  33.018  31.839  1.00  0.00     0.251 C 
ATOM     38  H   UNL A   1      34.540  34.967  32.164  1.00  0.00     0.163 HD
ATOM     39  O   UNL A   1      33.959  32.838  31.178  1.00  0.00    -0.269 OA
BRANCH  37  40
ATOM     40  C   UNL A   1      36.123  31.955  31.781  1.00  0.00     0.039 A 
ATOM     41  C   UNL A   1      36.634  32.147  30.065  1.00  0.00     0.014 A 
ATOM     42  C   UNL A   1      37.239  30.647  32.930  1.00  0.00     0.014 A 
ATOM     43  C   UNL A   1      38.025  31.260  29.509  1.00  0.00     0.010 A 
ATOM     44  C   UNL A   1      38.650  29.849  32.186  1.00  0.00     0.010 A 
ATOM     45  C   UNL A   1      39.005  30.195  30.514  1.00  0.00    -0.014 A 
BRANCH  45  46
ATOM     46  C   UNL A   1      40.316  29.677  30.010  1.00  0.00     0.031 A 
ATOM     47  C   UNL A   1      41.460  30.633  29.810  1.00  0.00     0.074 A 
ATOM     48  C   UNL A   1      40.426  28.413  29.553  1.00  0.00     0.049 A 
ATOM     49  N   UNL A   1      42.530  30.511  29.063  1.00  0.00    -0.248 NA
ATOM     50  C   UNL A   1      41.356  31.928  30.498  1.00  0.00     0.031 C 
ATOM     51  C   UNL A   1      39.391  27.380  29.607  1.00  0.00     0.029 A 
ATOM     52  N   UNL A   1      41.466  27.788  28.899  1.00  0.00    -0.354 N 
ATOM     53  C   UNL A   1      43.165  31.745  29.107  1.00  0.00     0.074 A 
ATOM     54  C   UNL A   1      42.369  32.597  29.964  1.00  0.00     0.031 C 
ATOM     55  C   UNL A   1      39.843  26.256  29.031  1.00  0.00     0.029 A 
ATOM     56  C   UNL A   1      41.176  26.504  28.500  1.00  0.00     0.049 A 
ATOM     57  H   UNL A   1      42.334  28.221  28.733  1.00  0.00     0.167 HD
ATOM     58  C   UNL A   1      44.303  32.132  28.481  1.00  0.00     0.037 A 
ATOM     59  C   UNL A   1      41.879  25.628  27.756  1.00  0.00     0.037 A 
ATOM     60  C   UNL A   1      45.154  31.249  27.726  1.00  0.00     0.049 A 
ATOM     61  C   UNL A   1      43.214  26.034  27.204  1.00  0.00     0.074 A 
ATOM     62  C   UNL A   1      46.383  31.518  27.147  1.00  0.00     0.029 A 
ATOM     63  N   UNL A   1      44.879  29.914  27.474  1.00  0.00    -0.354 N 
ATOM     64  N   UNL A   1      43.808  27.200  27.258  1.00  0.00    -0.248 NA
ATOM     65  C   UNL A   1      43.976  25.004  26.483  1.00  0.00     0.031 C 
ATOM     66  C   UNL A   1      46.847  30.347  26.538  1.00  0.00     0.029 A 
ATOM     67  C   UNL A   1      45.921  29.343  26.762  1.00  0.00     0.049 A 
ATOM     68  H   UNL A   1      44.063  29.442  27.760  1.00  0.00     0.167 HD
ATOM     69  C   UNL A   1      45.015  27.042  26.595  1.00  0.00     0.074 A 
ATOM     70  C   UNL A   1      45.080  25.663  26.161  1.00  0.00     0.031 C 
ATOM     71  C   UNL A   1      45.980  27.963  26.361  1.00  0.00     0.037 A 
BRANCH  58  72
ATOM     72  C   UNL A   1      44.697  33.578  28.574  1.00  0.00     0.064 A 
ATOM     73  C   UNL A   1      45.520  34.061  29.600  1.00  0.00     0.173 A 
ATOM     74  C   UNL A   1      44.270  34.489  27.596  1.00  0.00     0.173 A 
ATOM     75  F   UNL A   1      45.950  33.235  30.564  1.00  0.00    -0.203 F 
ATOM     76  C   UNL A   1      45.869  35.408  29.664  1.00  0.00     0.198 A 
ATOM     77  C   UNL A   1      44.647  35.829  27.646  1.00  0.00     0.198 A 
ATOM     78  F   UNL A   1      43.491  34.078  26.584  1.00  0.00    -0.203 F 
ATOM     79  F   UNL A   1      46.612  35.857  30.684  1.00  0.00    -0.200 F 
ATOM     80  C   UNL A   1      45.438  36.290  28.685  1.00  0.00     0.200 A 
ATOM     81  F   UNL A   1      44.241  36.675  26.690  1.00  0.00    -0.200 F 
ATOM     82  F   UNL A   1      45.779  37.583  28.748  1.00  0.00    -0.200 F 
ENDBRANCH  58  72
BRANCH  59  83
ATOM     83  C   UNL A   1      41.331  24.274  27.491  1.00  0.00     0.064 A 
ATOM     84  C   UNL A   1      40.242  24.101  26.627  1.00  0.00     0.173 A 
ATOM     85  C   UNL A   1      41.879  23.129  28.084  1.00  0.00     0.173 A 
ATOM     86  F   UNL A   1      39.672  25.170  26.050  1.00  0.00    -0.203 F 
ATOM     87  C   UNL A   1      39.709  22.838  26.383  1.00  0.00     0.198 A 
ATOM     88  C   UNL A   1      41.362  21.862  27.820  1.00  0.00     0.198 A 
ATOM     89  F   UNL A   1      42.930  23.240  28.910  1.00  0.00    -0.203 F 
ATOM     90  F   UNL A   1      38.641  22.707  25.584  1.00  0.00    -0.200 F 
ATOM     91  C   UNL A   1      40.272  21.719  26.975  1.00  0.00     0.200 A 
ATOM     92  F   UNL A   1      41.919  20.781  28.381  1.00  0.00    -0.200 F 
ATOM     93  F   UNL A   1      39.762  20.504  26.736  1.00  0.00    -0.200 F 
ENDBRANCH  59  83
BRANCH  71  94
ATOM     94  C   UNL A   1      47.209  27.497  25.644  1.00  0.00     0.064 A 
ATOM     95  C   UNL A   1      47.350  27.642  24.258  1.00  0.00     0.173 A 
ATOM     96  C   UNL A   1      48.276  26.936  26.361  1.00  0.00     0.173 A 
ATOM     97  F   UNL A   1      46.347  28.156  23.529  1.00  0.00    -0.203 F 
ATOM     98  C   UNL A   1      48.511  27.228  23.611  1.00  0.00     0.198 A 
ATOM     99  C   UNL A   1      49.442  26.541  25.714  1.00  0.00     0.198 A 
ATOM    100  F   UNL A   1      48.186  26.777  27.690  1.00  0.00    -0.203 F 
ATOM    101  F   UNL A   1      48.612  27.345  22.280  1.00  0.00    -0.200 F 
ATOM    102  C   UNL A   1      49.558  26.685  24.340  1.00  0.00     0.200 A 
ATOM    103  F   UNL A   1      50.455  26.020  26.420  1.00  0.00    -0.200 F 
ATOM    104  F   UNL A   1      50.676  26.291  23.716  1.00  0.00    -0.200 F 
ENDBRANCH  71  94
ENDBRANCH  45  46
ENDBRANCH  37  40
ENDBRANCH  35  36
ENDBRANCH  34  35
ENDBRANCH   1  34
TORSDOF 17
ENDMDL
MODEL 2
REMARK VINA RESULT:     -10.5     10.045     15.136
REMARK SMILES CCCN1C(=O)/C(=C\c2ccc(OC)c(OC)c2C(=O)NCCCCNC(=O)c2ccc(-c3c4nc(c(-c5c(F)c(F)c(F)c(F)c5F)c5ccc([nH]5)c(-c5c(F)c(F)c(F)c(F)c5F)c5nc(c(-c6c(F)c(F)c(F)c(F)c6F)c6ccc3[nH]6)C=C5)C=C4)cc2)S/C1=[NH+]\c1nccs1
REMARK SMILES IDX 23 1 22 2 21 3 19 4 20 5 18 7 9 8 10 9 11 10 15 11 12 12
REMARK SMILES IDX 8 13 4 14 5 15 93 16 6 17 7 18 92 19 94 20 3 22 2 23 1 24
REMARK SMILES IDX 95 25 96 26 99 27 97 28 98 29 16 30 17 31 13 32 14 33 24 34
REMARK SMILES IDX 25 35 26 36 27 37 28 39 29 40 30 41 91 42 31 43 90 44 32 45
REMARK SMILES IDX 33 46 34 47 84 48 35 49 89 50 83 51 85 52 36 53 88 54 82 55
REMARK SMILES IDX 81 56 37 58 69 59 49 60 68 61 50 62 53 63 67 64 86 65 51 66
REMARK SMILES IDX 52 67 66 69 87 70 54 71 38 72 39 73 47 74 40 75 41 76 45 77
REMARK SMILES IDX 48 78 42 79 43 80 46 81 44 82 70 83 71 84 79 85 72 86 73 87
REMARK SMILES IDX 77 88 80 89 74 90 75 91 78 92 76 93 55 94 56 95 64 96 57 97
REMARK SMILES IDX 58 98 62 99 65 100 59 101 60 102 63 103 61 104
REMARK H PARENT 21 6 94 21 26 38 85 57 53 68
REMARK Flexibility Score: inf
ROOT
ATOM      1  C   UNL A   1      45.885  23.393  38.892  1.00  0.00     0.023 C 
ENDROOT
BRANCH   1   2
ATOM      2  C   UNL A   1      45.954  21.902  39.189  1.00  0.00     0.116 C 
BRANCH   2   3
ATOM      3  N   UNL A   1      46.074  21.033  38.044  1.00  0.00    -0.352 N 
ATOM      4  C   UNL A   1      46.670  19.796  37.953  1.00  0.00     0.255 C 
ATOM      5  O   UNL A   1      46.402  19.088  36.985  1.00  0.00    -0.269 OA
ATOM      6  H   UNL A   1      45.675  21.373  37.210  1.00  0.00     0.163 HD
BRANCH   4   7
ATOM      7  C   UNL A   1      47.604  19.277  38.985  1.00  0.00     0.092 A 
ATOM      8  C   UNL A   1      47.311  18.114  39.742  1.00  0.00    -0.007 A 
ATOM      9  C   UNL A   1      48.242  17.640  40.672  1.00  0.00     0.013 A 
ATOM     10  C   UNL A   1      49.462  18.290  40.840  1.00  0.00     0.051 A 
ATOM     11  C   UNL A   1      48.852  19.915  39.141  1.00  0.00     0.174 A 
ATOM     12  C   UNL A   1      49.771  19.412  40.073  1.00  0.00     0.161 A 
BRANCH   8  13
ATOM     13  C   UNL A   1      46.015  17.432  39.683  1.00  0.00     0.032 C 
ATOM     14  N   UNL A   1      44.300  17.920  42.783  1.00  0.00    -0.219 N 
ATOM     15  C   UNL A   1      44.937  18.509  41.712  1.00  0.00     0.321 C 
ATOM     16  C   UNL A   1      43.853  16.632  42.579  1.00  0.00     0.271 C 
ATOM     17  O   UNL A   1      45.298  19.672  41.606  1.00  0.00    -0.250 OA
ATOM     18  C   UNL A   1      45.060  17.522  40.613  1.00  0.00     0.100 C 
ATOM     19  S   UNL A   1      43.933  16.255  40.876  1.00  0.00    -0.012 SA
ATOM     20  N   UNL A   1      43.473  15.879  43.550  1.00  0.00    -0.228 N 
ATOM     21  H   UNL A   1      43.306  16.271  44.438  1.00  0.00     0.268 HD
BRANCH  14  22
ATOM     22  C   UNL A   1      44.111  18.639  44.037  1.00  0.00     0.206 C 
BRANCH  22  23
ATOM     23  C   UNL A   1      45.312  18.618  44.987  1.00  0.00     0.035 C 
ATOM     24  C   UNL A   1      45.018  19.180  46.370  1.00  0.00     0.007 C 
ENDBRANCH  22  23
ENDBRANCH  14  22
BRANCH  20  25
ATOM     25  C   UNL A   1      43.298  14.539  43.356  1.00  0.00     0.319 A 
ATOM     26  N   UNL A   1      43.949  13.367  44.267  1.00  0.00    -0.101 NA
ATOM     27  S   UNL A   1      41.323  13.987  42.358  1.00  0.00    -0.070 S 
ATOM     28  C   UNL A   1      43.027  11.728  44.379  1.00  0.00     0.219 A 
ATOM     29  C   UNL A   1      41.382  11.876  43.299  1.00  0.00     0.110 A 
ENDBRANCH  20  25
ENDBRANCH   8  13
BRANCH  11  30
ATOM     30  O   UNL A   1      49.143  21.112  38.535  1.00  0.00    -0.492 OA
ATOM     31  C   UNL A   1      49.907  20.963  37.339  1.00  0.00     0.278 C 
ENDBRANCH  11  30
BRANCH  12  32
ATOM     32  O   UNL A   1      50.969  20.012  40.361  1.00  0.00    -0.493 OA
ATOM     33  C   UNL A   1      51.328  19.881  41.734  1.00  0.00     0.278 C 
ENDBRANCH  12  32
ENDBRANCH   4   7
ENDBRANCH   2   3
ENDBRANCH   1   2
BRANCH   1  34
ATOM     34  C   UNL A   1      47.147  24.248  39.062  1.00  0.00     0.023 C 
BRANCH  34  35
ATOM     35  C   UNL A   1      47.884  24.784  37.837  1.00  0.00     0.116 C 
BRANCH  35  36
ATOM     36  N   UNL A   1      48.713  25.959  38.027  1.00  0.00    -0.352 N 
ATOM     37  C   UNL A   1      48.519  27.235  37.509  1.00  0.00     0.251 C 
ATOM     38  H   UNL A   1      49.511  25.837  38.590  1.00  0.00     0.163 HD
ATOM     39  O   UNL A   1      49.249  28.142  37.908  1.00  0.00    -0.269 OA
BRANCH  37  40
ATOM     40  C   UNL A   1      47.600  27.482  36.272  1.00  0.00     0.039 A 
ATOM     41  C   UNL A   1      46.024  26.929  36.946  1.00  0.00     0.014 A 
ATOM     42  C   UNL A   1      47.550  28.291  34.370  1.00  0.00     0.014 A 
ATOM     43  C   UNL A   1      44.589  27.138  35.983  1.00  0.00     0.010 A 
ATOM     44  C   UNL A   1      45.974  28.447  33.550  1.00  0.00     0.010 A 
ATOM     45  C   UNL A   1      44.551  27.885  34.388  1.00  0.00    -0.014 A 
BRANCH  45  46
ATOM     46  C   UNL A   1      43.243  28.241  33.753  1.00  0.00     0.031 A 
ATOM     47  C   UNL A   1      42.960  27.795  32.344  1.00  0.00     0.074 A 
ATOM     48  C   UNL A   1      42.403  29.110  34.350  1.00  0.00     0.049 A 
ATOM     49  N   UNL A   1      42.103  28.270  31.474  1.00  0.00    -0.248 NA
ATOM     50  C   UNL A   1      43.798  26.704  31.824  1.00  0.00     0.031 C 
ATOM     51  C   UNL A   1      42.563  29.692  35.683  1.00  0.00     0.029 A 
ATOM     52  N   UNL A   1      41.250  29.702  33.881  1.00  0.00    -0.354 N 
ATOM     53  C   UNL A   1      42.373  27.613  30.280  1.00  0.00     0.074 A 
ATOM     54  C   UNL A   1      43.462  26.697  30.542  1.00  0.00     0.031 C 
ATOM     55  C   UNL A   1      41.553  30.538  35.932  1.00  0.00     0.029 A 
ATOM     56  C   UNL A   1      40.705  30.618  34.751  1.00  0.00     0.049 A 
ATOM     57  H   UNL A   1      40.854  29.489  33.005  1.00  0.00     0.167 HD
ATOM     58  C   UNL A   1      41.770  27.769  29.076  1.00  0.00     0.037 A 
ATOM     59  C   UNL A   1      39.665  31.463  34.610  1.00  0.00     0.037 A 
ATOM     60  C   UNL A   1      40.611  28.593  28.849  1.00  0.00     0.049 A 
ATOM     61  C   UNL A   1      38.916  31.501  33.310  1.00  0.00     0.074 A 
ATOM     62  C   UNL A   1      39.862  28.732  27.693  1.00  0.00     0.029 A 
ATOM     63  N   UNL A   1      40.013  29.393  29.810  1.00  0.00    -0.354 N 
ATOM     64  N   UNL A   1      39.175  30.871  32.192  1.00  0.00    -0.248 NA
ATOM     65  C   UNL A   1      37.732  32.371  33.251  1.00  0.00     0.031 C 
ATOM     66  C   UNL A   1      38.815  29.622  27.952  1.00  0.00     0.029 A 
ATOM     67  C   UNL A   1      38.896  30.016  29.277  1.00  0.00     0.049 A 
ATOM     68  H   UNL A   1      40.335  29.503  30.734  1.00  0.00     0.167 HD
ATOM     69  C   UNL A   1      38.183  31.254  31.302  1.00  0.00     0.074 A 
ATOM     70  C   UNL A   1      37.305  32.158  32.014  1.00  0.00     0.031 C 
ATOM     71  C   UNL A   1      38.020  30.892  30.008  1.00  0.00     0.037 A 
BRANCH  58  72
ATOM     72  C   UNL A   1      42.356  27.041  27.900  1.00  0.00     0.064 A 
ATOM     73  C   UNL A   1      41.965  25.740  27.559  1.00  0.00     0.173 A 
ATOM     74  C   UNL A   1      43.303  27.674  27.081  1.00  0.00     0.173 A 
ATOM     75  F   UNL A   1      41.068  25.087  28.312  1.00  0.00    -0.203 F 
ATOM     76  C   UNL A   1      42.525  25.087  26.464  1.00  0.00     0.198 A 
ATOM     77  C   UNL A   1      43.838  27.029  25.969  1.00  0.00     0.198 A 
ATOM     78  F   UNL A   1      43.705  28.925  27.354  1.00  0.00    -0.203 F 
ATOM     79  F   UNL A   1      42.174  23.824  26.189  1.00  0.00    -0.200 F 
ATOM     80  C   UNL A   1      43.457  25.733  25.666  1.00  0.00     0.200 A 
ATOM     81  F   UNL A   1      44.728  27.661  25.191  1.00  0.00    -0.200 F 
ATOM     82  F   UNL A   1      43.990  25.103  24.612  1.00  0.00    -0.200 F 
ENDBRANCH  58  72
BRANCH  59  83
ATOM     83  C   UNL A   1      39.269  32.345  35.737  1.00  0.00     0.064 A 
ATOM     84  C   UNL A   1      39.800  33.635  35.855  1.00  0.00     0.173 A 
ATOM     85  C   UNL A   1      38.354  31.924  36.713  1.00  0.00     0.173 A 
ATOM     86  F   UNL A   1      40.693  34.074  34.955  1.00  0.00    -0.203 F 
ATOM     87  C   UNL A   1      39.448  34.464  36.916  1.00  0.00     0.198 A 
ATOM     88  C   UNL A   1      37.984  32.764  37.761  1.00  0.00     0.198 A 
ATOM     89  F   UNL A   1      37.809  30.702  36.639  1.00  0.00    -0.203 F 
ATOM     90  F   UNL A   1      40.003  35.679  37.027  1.00  0.00    -0.200 F 
ATOM     91  C   UNL A   1      38.536  34.031  37.866  1.00  0.00     0.200 A 
ATOM     92  F   UNL A   1      37.089  32.348  38.668  1.00  0.00    -0.200 F 
ATOM     93  F   UNL A   1      38.195  34.832  38.885  1.00  0.00    -0.200 F 
ENDBRANCH  59  83
BRANCH  71  94
ATOM     94  C   UNL A   1      36.822  31.437  29.292  1.00  0.00     0.064 A 
ATOM     95  C   UNL A   1      36.748  32.781  28.904  1.00  0.00     0.173 A 
ATOM     96  C   UNL A   1      35.756  30.591  28.954  1.00  0.00     0.173 A 
ATOM     97  F   UNL A   1      37.736  33.630  29.223  1.00  0.00    -0.203 F 
ATOM     98  C   UNL A   1      35.639  33.264  28.216  1.00  0.00     0.198 A 
ATOM     99  C   UNL A   1      34.658  31.073  28.250  1.00  0.00     0.198 A 
ATOM    100  F   UNL A   1      35.784  29.297  29.306  1.00  0.00    -0.203 F 
ATOM    101  F   UNL A   1      35.572  34.561  27.882  1.00  0.00    -0.200 F 
ATOM    102  C   UNL A   1      34.599  32.409  27.883  1.00  0.00     0.200 A 
ATOM    103  F   UNL A   1      33.656  30.245  27.925  1.00  0.00    -0.200 F 
ATOM    104  F   UNL A   1      33.535  32.876  27.216  1.00  0.00    -0.200 F 
ENDBRANCH  71  94
ENDBRANCH  45  46
ENDBRANCH  37  40
ENDBRANCH  35  36
ENDBRANCH  34  35
ENDBRANCH   1  34
TORSDOF 17
ENDMDL
MODEL 3
REMARK VINA RESULT:     -10.3      6.660     14.203
REMARK SMILES CCCN1C(=O)/C(=C\c2ccc(OC)c(OC)c2C(=O)NCCCCNC(=O)c2ccc(-c3c4nc(c(-c5c(F)c(F)c(F)c(F)c5F)c5ccc([nH]5)c(-c5c(F)c(F)c(F)c(F)c5F)c5nc(c(-c6c(F)c(F)c(F)c(F)c6F)c6ccc3[nH]6)C=C5)C=C4)cc2)S/C1=[NH+]\c1nccs1
REMARK SMILES IDX 23 1 22 2 21 3 19 4 20 5 18 7 9 8 10 9 11 10 15 11 12 12
REMARK SMILES IDX 8 13 4 14 5 15 93 16 6 17 7 18 92 19 94 20 3 22 2 23 1 24
REMARK SMILES IDX 95 25 96 26 99 27 97 28 98 29 16 30 17 31 13 32 14 33 24 34
REMARK SMILES IDX 25 35 26 36 27 37 28 39 29 40 30 41 91 42 31 43 90 44 32 45
REMARK SMILES IDX 33 46 34 47 84 48 35 49 89 50 83 51 85 52 36 53 88 54 82 55
REMARK SMILES IDX 81 56 37 58 69 59 49 60 68 61 50 62 53 63 67 64 86 65 51 66
REMARK SMILES IDX 52 67 66 69 87 70 54 71 38 72 39 73 47 74 40 75 41 76 45 77
REMARK SMILES IDX 48 78 42 79 43 80 46 81 44 82 70 83 71 84 79 85 72 86 73 87
REMARK SMILES IDX 77 88 80 89 74 90 75 91 78 92 76 93 55 94 56 95 64 96 57 97
REMARK SMILES IDX 58 98 62 99 65 100 59 101 60 102 63 103 61 104
REMARK H PARENT 21 6 94 21 26 38 85 57 53 68
REMARK Flexibility Score: inf
ROOT
ATOM      1  C   UNL A   1      46.492  24.570  24.988  1.00  0.00     0.023 C 
ENDROOT
BRANCH   1   2
ATOM      2  C   UNL A   1      47.941  25.029  24.916  1.00  0.00     0.116 C 
BRANCH   2   3
ATOM      3  N   UNL A   1      48.221  26.099  23.989  1.00  0.00    -0.352 N 
ATOM      4  C   UNL A   1      48.976  27.233  24.178  1.00  0.00     0.255 C 
ATOM      5  O   UNL A   1      49.345  27.861  23.188  1.00  0.00    -0.269 OA
ATOM      6  H   UNL A   1      47.813  26.005  23.098  1.00  0.00     0.163 HD
BRANCH   4   7
ATOM      7  C   UNL A   1      49.378  27.716  25.525  1.00  0.00     0.092 A 
ATOM      8  C   UNL A   1      50.726  27.674  25.961  1.00  0.00    -0.007 A 
ATOM      9  C   UNL A   1      51.063  28.180  27.222  1.00  0.00     0.013 A 
ATOM     10  C   UNL A   1      50.085  28.743  28.037  1.00  0.00     0.051 A 
ATOM     11  C   UNL A   1      48.398  28.312  26.343  1.00  0.00     0.174 A 
ATOM     12  C   UNL A   1      48.764  28.821  27.598  1.00  0.00     0.161 A 
BRANCH   8  13
ATOM     13  C   UNL A   1      51.791  27.016  25.198  1.00  0.00     0.032 C 
ATOM     14  N   UNL A   1      52.752  29.131  22.479  1.00  0.00    -0.219 N 
ATOM     15  C   UNL A   1      52.562  29.016  23.839  1.00  0.00     0.321 C 
ATOM     16  C   UNL A   1      52.910  27.945  21.793  1.00  0.00     0.271 C 
ATOM     17  O   UNL A   1      52.533  29.914  24.667  1.00  0.00    -0.250 OA
ATOM     18  C   UNL A   1      52.479  27.580  24.201  1.00  0.00     0.100 C 
ATOM     19  S   UNL A   1      53.164  26.647  22.934  1.00  0.00    -0.012 SA
ATOM     20  N   UNL A   1      52.843  27.883  20.511  1.00  0.00    -0.228 N 
ATOM     21  H   UNL A   1      52.876  28.711  19.978  1.00  0.00     0.268 HD
BRANCH  14  22
ATOM     22  C   UNL A   1      52.795  30.436  21.831  1.00  0.00     0.206 C 
BRANCH  22  23
ATOM     23  C   UNL A   1      51.479  30.888  21.192  1.00  0.00     0.035 C 
ATOM     24  C   UNL A   1      51.596  31.249  19.719  1.00  0.00     0.007 C 
ENDBRANCH  22  23
ENDBRANCH  14  22
BRANCH  20  25
ATOM     25  C   UNL A   1      52.730  26.676  19.884  1.00  0.00     0.319 A 
ATOM     26  N   UNL A   1      51.483  25.651  20.041  1.00  0.00    -0.101 NA
ATOM     27  S   UNL A   1      53.821  26.551  17.885  1.00  0.00    -0.070 S 
ATOM     28  C   UNL A   1      51.104  24.502  18.598  1.00  0.00     0.219 A 
ATOM     29  C   UNL A   1      52.398  24.880  17.157  1.00  0.00     0.110 A 
ENDBRANCH  20  25
ENDBRANCH   8  13
BRANCH  11  30
ATOM     30  O   UNL A   1      47.060  28.268  26.034  1.00  0.00    -0.492 OA
ATOM     31  C   UNL A   1      46.485  29.561  25.851  1.00  0.00     0.278 C 
ENDBRANCH  11  30
BRANCH  12  32
ATOM     32  O   UNL A   1      47.871  29.336  28.500  1.00  0.00    -0.493 OA
ATOM     33  C   UNL A   1      48.201  30.664  28.896  1.00  0.00     0.278 C 
ENDBRANCH  12  32
ENDBRANCH   4   7
ENDBRANCH   2   3
ENDBRANCH   1   2
BRANCH   1  34
ATOM     34  C   UNL A   1      46.160  23.096  24.720  1.00  0.00     0.023 C 
BRANCH  34  35
ATOM     35  C   UNL A   1      44.926  22.722  23.902  1.00  0.00     0.116 C 
BRANCH  35  36
ATOM     36  N   UNL A   1      43.917  21.915  24.561  1.00  0.00    -0.352 N 
ATOM     37  C   UNL A   1      42.756  22.345  25.192  1.00  0.00     0.251 C 
ATOM     38  H   UNL A   1      44.075  20.944  24.562  1.00  0.00     0.163 HD
ATOM     39  O   UNL A   1      41.944  21.497  25.560  1.00  0.00    -0.269 OA
BRANCH  37  40
ATOM     40  C   UNL A   1      42.586  23.822  25.670  1.00  0.00     0.039 A 
ATOM     41  C   UNL A   1      41.479  23.567  27.066  1.00  0.00     0.014 A 
ATOM     42  C   UNL A   1      43.256  25.755  25.371  1.00  0.00     0.014 A 
ATOM     43  C   UNL A   1      41.079  24.932  28.070  1.00  0.00     0.010 A 
ATOM     44  C   UNL A   1      42.757  27.019  26.526  1.00  0.00     0.010 A 
ATOM     45  C   UNL A   1      41.705  26.564  27.841  1.00  0.00    -0.014 A 
BRANCH  45  46
ATOM     46  C   UNL A   1      41.500  27.605  28.897  1.00  0.00     0.031 A 
ATOM     47  C   UNL A   1      42.314  27.546  30.161  1.00  0.00     0.074 A 
ATOM     48  C   UNL A   1      40.471  28.473  28.815  1.00  0.00     0.049 A 
ATOM     49  N   UNL A   1      42.075  28.079  31.334  1.00  0.00    -0.248 NA
ATOM     50  C   UNL A   1      43.533  26.725  30.115  1.00  0.00     0.031 C 
ATOM     51  C   UNL A   1      39.545  28.614  27.692  1.00  0.00     0.029 A 
ATOM     52  N   UNL A   1      39.998  29.384  29.735  1.00  0.00    -0.354 N 
ATOM     53  C   UNL A   1      43.048  27.572  32.185  1.00  0.00     0.074 A 
ATOM     54  C   UNL A   1      43.888  26.701  31.391  1.00  0.00     0.031 C 
ATOM     55  C   UNL A   1      38.631  29.555  27.975  1.00  0.00     0.029 A 
ATOM     56  C   UNL A   1      38.858  30.039  29.329  1.00  0.00     0.049 A 
ATOM     57  H   UNL A   1      40.435  29.551  30.601  1.00  0.00     0.167 HD
ATOM     58  C   UNL A   1      43.217  27.806  33.510  1.00  0.00     0.037 A 
ATOM     59  C   UNL A   1      38.054  30.902  29.979  1.00  0.00     0.037 A 
ATOM     60  C   UNL A   1      42.453  28.763  34.268  1.00  0.00     0.049 A 
ATOM     61  C   UNL A   1      38.358  31.264  31.403  1.00  0.00     0.074 A 
ATOM     62  C   UNL A   1      42.619  29.154  35.586  1.00  0.00     0.029 A 
ATOM     63  N   UNL A   1      41.396  29.506  33.763  1.00  0.00    -0.354 N 
ATOM     64  N   UNL A   1      39.284  30.785  32.195  1.00  0.00    -0.248 NA
ATOM     65  C   UNL A   1      37.502  32.285  32.026  1.00  0.00     0.031 C 
ATOM     66  C   UNL A   1      41.659  30.127  35.881  1.00  0.00     0.029 A 
ATOM     67  C   UNL A   1      40.912  30.362  34.739  1.00  0.00     0.049 A 
ATOM     68  H   UNL A   1      41.042  29.434  32.847  1.00  0.00     0.167 HD
ATOM     69  C   UNL A   1      39.135  31.453  33.401  1.00  0.00     0.074 A 
ATOM     70  C   UNL A   1      38.039  32.384  33.234  1.00  0.00     0.031 C 
ATOM     71  C   UNL A   1      39.839  31.300  34.547  1.00  0.00     0.037 A 
BRANCH  58  72
ATOM     72  C   UNL A   1      44.263  27.010  34.234  1.00  0.00     0.064 A 
ATOM     73  C   UNL A   1      45.583  27.460  34.366  1.00  0.00     0.173 A 
ATOM     74  C   UNL A   1      43.927  25.789  34.838  1.00  0.00     0.173 A 
ATOM     75  F   UNL A   1      45.960  28.617  33.802  1.00  0.00    -0.203 F 
ATOM     76  C   UNL A   1      46.536  26.701  35.042  1.00  0.00     0.198 A 
ATOM     77  C   UNL A   1      44.874  25.048  35.540  1.00  0.00     0.198 A 
ATOM     78  F   UNL A   1      42.674  25.316  34.755  1.00  0.00    -0.203 F 
ATOM     79  F   UNL A   1      47.804  27.126  35.108  1.00  0.00    -0.200 F 
ATOM     80  C   UNL A   1      46.180  25.498  35.633  1.00  0.00     0.200 A 
ATOM     81  F   UNL A   1      44.523  23.893  36.123  1.00  0.00    -0.200 F 
ATOM     82  F   UNL A   1      47.097  24.773  36.286  1.00  0.00    -0.200 F 
ENDBRANCH  58  72
BRANCH  59  83
ATOM     83  C   UNL A   1      36.879  31.487  29.284  1.00  0.00     0.064 A 
ATOM     84  C   UNL A   1      35.750  30.705  29.008  1.00  0.00     0.173 A 
ATOM     85  C   UNL A   1      36.854  32.831  28.885  1.00  0.00     0.173 A 
ATOM     86  F   UNL A   1      35.736  29.409  29.354  1.00  0.00    -0.203 F 
ATOM     87  C   UNL A   1      34.650  31.239  28.343  1.00  0.00     0.198 A 
ATOM     88  C   UNL A   1      35.743  33.370  28.242  1.00  0.00     0.198 A 
ATOM     89  F   UNL A   1      37.906  33.624  29.136  1.00  0.00    -0.203 F 
ATOM     90  F   UNL A   1      33.600  30.457  28.056  1.00  0.00    -0.200 F 
ATOM     91  C   UNL A   1      34.644  32.572  27.965  1.00  0.00     0.200 A 
ATOM     92  F   UNL A   1      35.734  34.664  27.892  1.00  0.00    -0.200 F 
ATOM     93  F   UNL A   1      33.583  33.086  27.329  1.00  0.00    -0.200 F 
ENDBRANCH  59  83
BRANCH  71  94
ATOM     94  C   UNL A   1      39.479  32.193  35.694  1.00  0.00     0.064 A 
ATOM     95  C   UNL A   1      40.048  33.465  35.840  1.00  0.00     0.173 A 
ATOM     96  C   UNL A   1      38.522  31.785  36.635  1.00  0.00     0.173 A 
ATOM     97  F   UNL A   1      40.981  33.889  34.974  1.00  0.00    -0.203 F 
ATOM     98  C   UNL A   1      39.682  34.293  36.897  1.00  0.00     0.198 A 
ATOM     99  C   UNL A   1      38.145  32.622  37.679  1.00  0.00     0.198 A 
ATOM    100  F   UNL A   1      37.952  30.575  36.535  1.00  0.00    -0.203 F 
ATOM    101  F   UNL A   1      40.261  35.493  37.038  1.00  0.00    -0.200 F 
ATOM    102  C   UNL A   1      38.727  33.874  37.811  1.00  0.00     0.200 A 
ATOM    103  F   UNL A   1      37.219  32.219  38.559  1.00  0.00    -0.200 F 
ATOM    104  F   UNL A   1      38.373  34.675  38.825  1.00  0.00    -0.200 F 
ENDBRANCH  71  94
ENDBRANCH  45  46
ENDBRANCH  37  40
ENDBRANCH  35  36
ENDBRANCH  34  35
ENDBRANCH   1  34
TORSDOF 17
ENDMDL
