MODEL 1
REMARK VINA RESULT:     -12.9      0.000      0.000
REMARK SMILES Cc1ccc(C(=O)[C@@H]2CCC[C@H]2C(=O)NCCCCNC(=O)c2ccc(-c3c4nc(c(-c5c(F)c(F)c(F)c(F)c5F)c5ccc([nH]5)c(-c5c(F)c(F)c(F)c(F)c5F)c5nc(c(-c6c(F)c(F)c(F)c(F)c6F)c6ccc3[nH]6)C=C5)C=C4)cc2)c(C)c1
REMARK SMILES IDX 17 1 16 2 15 3 13 4 14 5 12 7 8 8 9 9 10 10 11 11 6 12 7 13
REMARK SMILES IDX 5 14 1 15 2 16 3 17 88 18 4 19 86 20 87 21 18 22 19 23 20 24
REMARK SMILES IDX 21 25 22 27 23 28 24 29 85 30 25 31 84 32 26 33 27 34 28 35
REMARK SMILES IDX 78 36 29 37 83 38 77 39 79 40 30 41 82 42 76 43 75 44 31 46
REMARK SMILES IDX 63 47 43 48 62 49 44 50 47 51 61 52 80 53 45 54 46 55 60 57
REMARK SMILES IDX 81 58 48 59 32 60 33 61 41 62 34 63 35 64 39 65 42 66 36 67
REMARK SMILES IDX 37 68 40 69 38 70 64 71 65 72 73 73 66 74 67 75 71 76 74 77
REMARK SMILES IDX 68 78 69 79 72 80 70 81 49 82 50 83 58 84 51 85 52 86 56 87
REMARK SMILES IDX 59 88 53 89 54 90 57 91 55 92
REMARK H PARENT 15 6 20 26 79 45 47 56
REMARK Flexibility Score: inf
ROOT
ATOM      1  C   UNL A   1      31.665  30.661  26.261  1.00  0.00     0.023 C 
ENDROOT
BRANCH   1   2
ATOM      2  C   UNL A   1      33.074  30.121  26.514  1.00  0.00     0.116 C 
BRANCH   2   3
ATOM      3  N   UNL A   1      33.713  29.703  25.282  1.00  0.00    -0.356 N 
ATOM      4  C   UNL A   1      33.596  28.570  24.545  1.00  0.00     0.223 C 
ATOM      5  O   UNL A   1      34.330  28.468  23.558  1.00  0.00    -0.275 OA
ATOM      6  H   UNL A   1      34.348  30.358  24.915  1.00  0.00     0.163 HD
BRANCH   4   7
ATOM      7  C   UNL A   1      32.601  27.461  24.861  1.00  0.00     0.089 C 
ATOM      8  C   UNL A   1      32.377  26.451  23.736  1.00  0.00     0.073 C 
ATOM      9  C   UNL A   1      32.001  25.147  24.436  1.00  0.00     0.013 C 
ATOM     10  C   UNL A   1      32.766  25.170  25.749  1.00  0.00     0.002 C 
ATOM     11  C   UNL A   1      32.982  26.640  26.102  1.00  0.00     0.014 C 
BRANCH   8  12
ATOM     12  C   UNL A   1      31.404  26.798  22.610  1.00  0.00     0.167 C 
ATOM     13  O   UNL A   1      31.412  26.103  21.591  1.00  0.00    -0.294 OA
BRANCH  12  14
ATOM     14  C   UNL A   1      30.384  27.890  22.716  1.00  0.00     0.021 A 
ATOM     15  C   UNL A   1      27.653  31.185  23.336  1.00  0.00     0.044 C 
ATOM     16  C   UNL A   1      28.590  30.041  23.088  1.00  0.00    -0.051 A 
ATOM     17  C   UNL A   1      29.813  30.246  22.454  1.00  0.00     0.004 A 
ATOM     18  C   UNL A   1      28.266  28.755  23.533  1.00  0.00     0.007 A 
ATOM     19  C   UNL A   1      30.703  29.185  22.280  1.00  0.00     0.012 A 
ATOM     20  C   UNL A   1      29.138  27.665  23.341  1.00  0.00    -0.040 A 
ATOM     21  C   UNL A   1      28.700  26.328  23.876  1.00  0.00     0.045 C 
ENDBRANCH  12  14
ENDBRANCH   8  12
ENDBRANCH   4   7
ENDBRANCH   2   3
ENDBRANCH   1   2
BRANCH   1  22
ATOM     22  C   UNL A   1      31.403  32.058  26.826  1.00  0.00     0.023 C 
BRANCH  22  23
ATOM     23  C   UNL A   1      32.635  32.801  27.326  1.00  0.00     0.116 C 
BRANCH  23  24
ATOM     24  N   UNL A   1      32.378  34.203  27.626  1.00  0.00    -0.352 N 
ATOM     25  C   UNL A   1      32.996  35.009  28.551  1.00  0.00     0.251 C 
ATOM     26  H   UNL A   1      31.667  34.629  27.095  1.00  0.00     0.163 HD
ATOM     27  O   UNL A   1      32.597  36.152  28.752  1.00  0.00    -0.269 OA
BRANCH  25  28
ATOM     28  C   UNL A   1      34.121  34.468  29.335  1.00  0.00     0.039 A 
ATOM     29  C   UNL A   1      33.851  33.827  30.547  1.00  0.00     0.014 A 
ATOM     30  C   UNL A   1      35.426  34.539  28.844  1.00  0.00     0.014 A 
ATOM     31  C   UNL A   1      34.881  33.177  31.225  1.00  0.00     0.010 A 
ATOM     32  C   UNL A   1      36.440  33.837  29.488  1.00  0.00     0.010 A 
ATOM     33  C   UNL A   1      36.173  33.138  30.676  1.00  0.00    -0.014 A 
BRANCH  33  34
ATOM     34  C   UNL A   1      37.258  32.346  31.305  1.00  0.00     0.031 A 
ATOM     35  C   UNL A   1      37.768  32.719  32.665  1.00  0.00     0.074 A 
ATOM     36  C   UNL A   1      37.843  31.352  30.609  1.00  0.00     0.049 A 
ATOM     37  N   UNL A   1      38.788  32.238  33.329  1.00  0.00    -0.248 NA
ATOM     38  C   UNL A   1      37.050  33.797  33.365  1.00  0.00     0.031 C 
ATOM     39  C   UNL A   1      37.466  30.929  29.259  1.00  0.00     0.029 A 
ATOM     40  N   UNL A   1      38.898  30.534  30.930  1.00  0.00    -0.354 N 
ATOM     41  C   UNL A   1      38.841  32.958  34.513  1.00  0.00     0.074 A 
ATOM     42  C   UNL A   1      37.783  33.943  34.458  1.00  0.00     0.031 C 
ATOM     43  C   UNL A   1      38.273  29.930  28.870  1.00  0.00     0.029 A 
ATOM     44  C   UNL A   1      39.250  29.669  29.923  1.00  0.00     0.049 A 
ATOM     45  H   UNL A   1      39.359  30.565  31.800  1.00  0.00     0.167 HD
ATOM     46  C   UNL A   1      39.683  32.795  35.561  1.00  0.00     0.037 A 
ATOM     47  C   UNL A   1      40.260  28.782  29.850  1.00  0.00     0.037 A 
ATOM     48  C   UNL A   1      40.721  31.800  35.619  1.00  0.00     0.049 A 
ATOM     49  C   UNL A   1      41.195  28.635  31.019  1.00  0.00     0.074 A 
ATOM     50  C   UNL A   1      41.589  31.518  36.658  1.00  0.00     0.029 A 
ATOM     51  N   UNL A   1      41.034  30.927  34.587  1.00  0.00    -0.354 N 
ATOM     52  N   UNL A   1      41.197  29.279  32.161  1.00  0.00    -0.248 NA
ATOM     53  C   UNL A   1      42.268  27.640  30.890  1.00  0.00     0.031 C 
ATOM     54  C   UNL A   1      42.453  30.500  36.242  1.00  0.00     0.029 A 
ATOM     55  C   UNL A   1      42.098  30.120  34.958  1.00  0.00     0.049 A 
ATOM     56  H   UNL A   1      40.569  30.886  33.720  1.00  0.00     0.167 HD
ATOM     57  C   UNL A   1      42.255  28.758  32.890  1.00  0.00     0.074 A 
ATOM     58  C   UNL A   1      42.864  27.731  32.072  1.00  0.00     0.031 C 
ATOM     59  C   UNL A   1      42.688  29.103  34.128  1.00  0.00     0.037 A 
BRANCH  46  60
ATOM     60  C   UNL A   1      39.508  33.708  36.738  1.00  0.00     0.064 A 
ATOM     61  C   UNL A   1      38.717  33.338  37.837  1.00  0.00     0.173 A 
ATOM     62  C   UNL A   1      40.167  34.944  36.789  1.00  0.00     0.173 A 
ATOM     63  F   UNL A   1      38.056  32.171  37.832  1.00  0.00    -0.203 F 
ATOM     64  C   UNL A   1      38.573  34.186  38.933  1.00  0.00     0.198 A 
ATOM     65  C   UNL A   1      40.044  35.777  37.898  1.00  0.00     0.198 A 
ATOM     66  F   UNL A   1      40.939  35.342  35.766  1.00  0.00    -0.203 F 
ATOM     67  F   UNL A   1      37.777  33.831  39.951  1.00  0.00    -0.200 F 
ATOM     68  C   UNL A   1      39.242  35.400  38.965  1.00  0.00     0.200 A 
ATOM     69  F   UNL A   1      40.699  36.945  37.933  1.00  0.00    -0.200 F 
ATOM     70  F   UNL A   1      39.108  36.212  40.023  1.00  0.00    -0.200 F 
ENDBRANCH  46  60
BRANCH  47  71
ATOM     71  C   UNL A   1      40.442  27.966  28.621  1.00  0.00     0.064 A 
ATOM     72  C   UNL A   1      41.204  28.442  27.546  1.00  0.00     0.173 A 
ATOM     73  C   UNL A   1      39.857  26.698  28.496  1.00  0.00     0.173 A 
ATOM     74  F   UNL A   1      41.766  29.658  27.610  1.00  0.00    -0.203 F 
ATOM     75  C   UNL A   1      41.358  27.688  26.384  1.00  0.00     0.198 A 
ATOM     76  C   UNL A   1      40.033  25.934  27.343  1.00  0.00     0.198 A 
ATOM     77  F   UNL A   1      39.121  26.195  29.498  1.00  0.00    -0.203 F 
ATOM     78  F   UNL A   1      42.055  28.187  25.352  1.00  0.00    -0.200 F 
ATOM     79  C   UNL A   1      40.778  26.433  26.285  1.00  0.00     0.200 A 
ATOM     80  F   UNL A   1      39.481  24.716  27.258  1.00  0.00    -0.200 F 
ATOM     81  F   UNL A   1      40.928  25.709  25.169  1.00  0.00    -0.200 F 
ENDBRANCH  47  71
BRANCH  59  82
ATOM     82  C   UNL A   1      43.866  28.355  34.678  1.00  0.00     0.064 A 
ATOM     83  C   UNL A   1      45.172  28.846  34.538  1.00  0.00     0.173 A 
ATOM     84  C   UNL A   1      43.682  27.168  35.401  1.00  0.00     0.173 A 
ATOM     85  F   UNL A   1      45.400  29.969  33.840  1.00  0.00    -0.203 F 
ATOM     86  C   UNL A   1      46.253  28.166  35.092  1.00  0.00     0.198 A 
ATOM     87  C   UNL A   1      44.762  26.505  35.976  1.00  0.00     0.198 A 
ATOM     88  F   UNL A   1      42.451  26.661  35.567  1.00  0.00    -0.203 F 
ATOM     89  F   UNL A   1      47.497  28.634  34.916  1.00  0.00    -0.200 F 
ATOM     90  C   UNL A   1      46.047  27.002  35.817  1.00  0.00     0.200 A 
ATOM     91  F   UNL A   1      44.560  25.387  36.686  1.00  0.00    -0.200 F 
ATOM     92  F   UNL A   1      47.088  26.356  36.360  1.00  0.00    -0.200 F 
ENDBRANCH  59  82
ENDBRANCH  33  34
ENDBRANCH  25  28
ENDBRANCH  23  24
ENDBRANCH  22  23
ENDBRANCH   1  22
TORSDOF 13
ENDMDL
MODEL 2
REMARK VINA RESULT:     -12.7      0.573      7.550
REMARK SMILES Cc1ccc(C(=O)[C@@H]2CCC[C@H]2C(=O)NCCCCNC(=O)c2ccc(-c3c4nc(c(-c5c(F)c(F)c(F)c(F)c5F)c5ccc([nH]5)c(-c5c(F)c(F)c(F)c(F)c5F)c5nc(c(-c6c(F)c(F)c(F)c(F)c6F)c6ccc3[nH]6)C=C5)C=C4)cc2)c(C)c1
REMARK SMILES IDX 17 1 16 2 15 3 13 4 14 5 12 7 8 8 9 9 10 10 11 11 6 12 7 13
REMARK SMILES IDX 5 14 1 15 2 16 3 17 88 18 4 19 86 20 87 21 18 22 19 23 20 24
REMARK SMILES IDX 21 25 22 27 23 28 24 29 85 30 25 31 84 32 26 33 27 34 28 35
REMARK SMILES IDX 78 36 29 37 83 38 77 39 79 40 30 41 82 42 76 43 75 44 31 46
REMARK SMILES IDX 63 47 43 48 62 49 44 50 47 51 61 52 80 53 45 54 46 55 60 57
REMARK SMILES IDX 81 58 48 59 32 60 33 61 41 62 34 63 35 64 39 65 42 66 36 67
REMARK SMILES IDX 37 68 40 69 38 70 64 71 65 72 73 73 66 74 67 75 71 76 74 77
REMARK SMILES IDX 68 78 69 79 72 80 70 81 49 82 50 83 58 84 51 85 52 86 56 87
REMARK SMILES IDX 59 88 53 89 54 90 57 91 55 92
REMARK H PARENT 15 6 20 26 79 45 47 56
REMARK Flexibility Score: inf
ROOT
ATOM      1  C   UNL A   1      31.462  30.821  25.982  1.00  0.00     0.023 C 
ENDROOT
BRANCH   1   2
ATOM      2  C   UNL A   1      32.720  30.030  26.344  1.00  0.00     0.116 C 
BRANCH   2   3
ATOM      3  N   UNL A   1      33.502  29.703  25.168  1.00  0.00    -0.356 N 
ATOM      4  C   UNL A   1      33.543  28.589  24.395  1.00  0.00     0.223 C 
ATOM      5  O   UNL A   1      34.370  28.576  23.478  1.00  0.00    -0.275 OA
ATOM      6  H   UNL A   1      34.113  30.417  24.879  1.00  0.00     0.163 HD
BRANCH   4   7
ATOM      7  C   UNL A   1      32.614  27.398  24.588  1.00  0.00     0.089 C 
ATOM      8  C   UNL A   1      32.426  26.516  23.353  1.00  0.00     0.073 C 
ATOM      9  C   UNL A   1      32.132  25.120  23.898  1.00  0.00     0.013 C 
ATOM     10  C   UNL A   1      32.917  25.030  25.197  1.00  0.00     0.002 C 
ATOM     11  C   UNL A   1      33.059  26.458  25.719  1.00  0.00     0.014 C 
BRANCH   8  12
ATOM     12  C   UNL A   1      31.416  26.939  22.286  1.00  0.00     0.167 C 
ATOM     13  O   UNL A   1      31.402  26.327  21.215  1.00  0.00    -0.294 OA
BRANCH  12  14
ATOM     14  C   UNL A   1      30.389  28.006  22.508  1.00  0.00     0.021 A 
ATOM     15  C   UNL A   1      27.652  31.218  23.455  1.00  0.00     0.044 C 
ATOM     16  C   UNL A   1      28.589  30.104  23.094  1.00  0.00    -0.051 A 
ATOM     17  C   UNL A   1      29.763  30.360  22.391  1.00  0.00     0.004 A 
ATOM     18  C   UNL A   1      28.316  28.793  23.501  1.00  0.00     0.007 A 
ATOM     19  C   UNL A   1      30.657  29.324  22.111  1.00  0.00     0.012 A 
ATOM     20  C   UNL A   1      29.191  27.730  23.203  1.00  0.00    -0.040 A 
ATOM     21  C   UNL A   1      28.810  26.362  23.704  1.00  0.00     0.045 C 
ENDBRANCH  12  14
ENDBRANCH   8  12
ENDBRANCH   4   7
ENDBRANCH   2   3
ENDBRANCH   1   2
BRANCH   1  22
ATOM     22  C   UNL A   1      31.290  32.136  26.742  1.00  0.00     0.023 C 
BRANCH  22  23
ATOM     23  C   UNL A   1      32.545  32.991  26.859  1.00  0.00     0.116 C 
BRANCH  23  24
ATOM     24  N   UNL A   1      32.345  34.204  27.640  1.00  0.00    -0.352 N 
ATOM     25  C   UNL A   1      33.072  34.665  28.710  1.00  0.00     0.251 C 
ATOM     26  H   UNL A   1      31.587  34.769  27.364  1.00  0.00     0.163 HD
ATOM     27  O   UNL A   1      32.715  35.664  29.326  1.00  0.00    -0.269 OA
BRANCH  25  28
ATOM     28  C   UNL A   1      34.267  33.915  29.141  1.00  0.00     0.039 A 
ATOM     29  C   UNL A   1      35.530  34.429  28.838  1.00  0.00     0.014 A 
ATOM     30  C   UNL A   1      34.136  32.745  29.893  1.00  0.00     0.014 A 
ATOM     31  C   UNL A   1      36.666  33.816  29.366  1.00  0.00     0.010 A 
ATOM     32  C   UNL A   1      35.265  32.173  30.471  1.00  0.00     0.010 A 
ATOM     33  C   UNL A   1      36.537  32.713  30.225  1.00  0.00    -0.014 A 
BRANCH  33  34
ATOM     34  C   UNL A   1      37.715  32.121  30.906  1.00  0.00     0.031 A 
ATOM     35  C   UNL A   1      38.506  31.039  30.234  1.00  0.00     0.074 A 
ATOM     36  C   UNL A   1      38.009  32.496  32.166  1.00  0.00     0.049 A 
ATOM     37  N   UNL A   1      39.483  30.309  30.710  1.00  0.00    -0.248 NA
ATOM     38  C   UNL A   1      38.133  30.715  28.847  1.00  0.00     0.031 C 
ATOM     39  C   UNL A   1      37.283  33.503  32.941  1.00  0.00     0.029 A 
ATOM     40  N   UNL A   1      38.982  32.053  33.028  1.00  0.00    -0.354 N 
ATOM     41  C   UNL A   1      39.832  29.436  29.690  1.00  0.00     0.074 A 
ATOM     42  C   UNL A   1      38.932  29.691  28.586  1.00  0.00     0.031 C 
ATOM     43  C   UNL A   1      37.836  33.605  34.159  1.00  0.00     0.029 A 
ATOM     44  C   UNL A   1      38.928  32.642  34.268  1.00  0.00     0.049 A 
ATOM     45  H   UNL A   1      39.654  31.378  32.781  1.00  0.00     0.167 HD
ATOM     46  C   UNL A   1      40.830  28.522  29.668  1.00  0.00     0.037 A 
ATOM     47  C   UNL A   1      39.662  32.415  35.373  1.00  0.00     0.037 A 
ATOM     48  C   UNL A   1      41.735  28.286  30.762  1.00  0.00     0.049 A 
ATOM     49  C   UNL A   1      40.751  31.377  35.331  1.00  0.00     0.074 A 
ATOM     50  C   UNL A   1      42.814  27.422  30.819  1.00  0.00     0.029 A 
ATOM     51  N   UNL A   1      41.663  28.917  31.996  1.00  0.00    -0.354 N 
ATOM     52  N   UNL A   1      41.114  30.600  34.340  1.00  0.00    -0.248 NA
ATOM     53  C   UNL A   1      41.532  31.183  36.561  1.00  0.00     0.031 C 
ATOM     54  C   UNL A   1      43.371  27.500  32.099  1.00  0.00     0.029 A 
ATOM     55  C   UNL A   1      42.665  28.444  32.827  1.00  0.00     0.049 A 
ATOM     56  H   UNL A   1      40.998  29.600  32.243  1.00  0.00     0.167 HD
ATOM     57  C   UNL A   1      42.171  29.840  34.817  1.00  0.00     0.074 A 
ATOM     58  C   UNL A   1      42.406  30.261  36.183  1.00  0.00     0.031 C 
ATOM     59  C   UNL A   1      42.882  28.876  34.184  1.00  0.00     0.037 A 
BRANCH  46  60
ATOM     60  C   UNL A   1      41.002  27.713  28.417  1.00  0.00     0.064 A 
ATOM     61  C   UNL A   1      41.851  28.138  27.384  1.00  0.00     0.173 A 
ATOM     62  C   UNL A   1      40.346  26.483  28.264  1.00  0.00     0.173 A 
ATOM     63  F   UNL A   1      42.492  29.313  27.477  1.00  0.00    -0.203 F 
ATOM     64  C   UNL A   1      42.017  27.373  26.233  1.00  0.00     0.198 A 
ATOM     65  C   UNL A   1      40.535  25.707  27.124  1.00  0.00     0.198 A 
ATOM     66  F   UNL A   1      39.527  26.029  29.225  1.00  0.00    -0.203 F 
ATOM     67  F   UNL A   1      42.798  27.820  25.240  1.00  0.00    -0.200 F 
ATOM     68  C   UNL A   1      41.365  26.156  26.107  1.00  0.00     0.200 A 
ATOM     69  F   UNL A   1      39.913  24.526  27.008  1.00  0.00    -0.200 F 
ATOM     70  F   UNL A   1      41.530  25.417  25.001  1.00  0.00    -0.200 F 
ENDBRANCH  46  60
BRANCH  47  71
ATOM     71  C   UNL A   1      39.389  33.182  36.616  1.00  0.00     0.064 A 
ATOM     72  C   UNL A   1      38.455  32.725  37.555  1.00  0.00     0.173 A 
ATOM     73  C   UNL A   1      40.052  34.388  36.888  1.00  0.00     0.173 A 
ATOM     74  F   UNL A   1      37.780  31.588  37.329  1.00  0.00    -0.203 F 
ATOM     75  C   UNL A   1      38.180  33.454  38.710  1.00  0.00     0.198 A 
ATOM     76  C   UNL A   1      39.795  35.103  38.056  1.00  0.00     0.198 A 
ATOM     77  F   UNL A   1      40.958  34.867  36.022  1.00  0.00    -0.203 F 
ATOM     78  F   UNL A   1      37.249  33.017  39.570  1.00  0.00    -0.200 F 
ATOM     79  C   UNL A   1      38.854  34.639  38.963  1.00  0.00     0.200 A 
ATOM     80  F   UNL A   1      40.458  36.241  38.302  1.00  0.00    -0.200 F 
ATOM     81  F   UNL A   1      38.591  35.338  40.074  1.00  0.00    -0.200 F 
ENDBRANCH  47  71
BRANCH  59  82
ATOM     82  C   UNL A   1      43.990  28.219  34.953  1.00  0.00     0.064 A 
ATOM     83  C   UNL A   1      43.795  26.997  35.612  1.00  0.00     0.173 A 
ATOM     84  C   UNL A   1      45.271  28.788  34.982  1.00  0.00     0.173 A 
ATOM     85  F   UNL A   1      42.583  26.423  35.626  1.00  0.00    -0.203 F 
ATOM     86  C   UNL A   1      44.843  26.375  36.285  1.00  0.00     0.198 A 
ATOM     87  C   UNL A   1      46.322  28.150  35.634  1.00  0.00     0.198 A 
ATOM     88  F   UNL A   1      45.508  29.954  34.362  1.00  0.00    -0.203 F 
ATOM     89  F   UNL A   1      44.627  25.224  36.938  1.00  0.00    -0.200 F 
ATOM     90  C   UNL A   1      46.106  26.946  36.288  1.00  0.00     0.200 A 
ATOM     91  F   UNL A   1      47.545  28.698  35.627  1.00  0.00    -0.200 F 
ATOM     92  F   UNL A   1      47.116  26.339  36.926  1.00  0.00    -0.200 F 
ENDBRANCH  59  82
ENDBRANCH  33  34
ENDBRANCH  25  28
ENDBRANCH  23  24
ENDBRANCH  22  23
ENDBRANCH   1  22
TORSDOF 13
ENDMDL
MODEL 3
REMARK VINA RESULT:     -12.7      1.160      7.951
REMARK SMILES Cc1ccc(C(=O)[C@@H]2CCC[C@H]2C(=O)NCCCCNC(=O)c2ccc(-c3c4nc(c(-c5c(F)c(F)c(F)c(F)c5F)c5ccc([nH]5)c(-c5c(F)c(F)c(F)c(F)c5F)c5nc(c(-c6c(F)c(F)c(F)c(F)c6F)c6ccc3[nH]6)C=C5)C=C4)cc2)c(C)c1
REMARK SMILES IDX 17 1 16 2 15 3 13 4 14 5 12 7 8 8 9 9 10 10 11 11 6 12 7 13
REMARK SMILES IDX 5 14 1 15 2 16 3 17 88 18 4 19 86 20 87 21 18 22 19 23 20 24
REMARK SMILES IDX 21 25 22 27 23 28 24 29 85 30 25 31 84 32 26 33 27 34 28 35
REMARK SMILES IDX 78 36 29 37 83 38 77 39 79 40 30 41 82 42 76 43 75 44 31 46
REMARK SMILES IDX 63 47 43 48 62 49 44 50 47 51 61 52 80 53 45 54 46 55 60 57
REMARK SMILES IDX 81 58 48 59 32 60 33 61 41 62 34 63 35 64 39 65 42 66 36 67
REMARK SMILES IDX 37 68 40 69 38 70 64 71 65 72 73 73 66 74 67 75 71 76 74 77
REMARK SMILES IDX 68 78 69 79 72 80 70 81 49 82 50 83 58 84 51 85 52 86 56 87
REMARK SMILES IDX 59 88 53 89 54 90 57 91 55 92
REMARK H PARENT 15 6 20 26 79 45 47 56
REMARK Flexibility Score: inf
ROOT
ATOM      1  C   UNL A   1      32.133  30.380  26.578  1.00  0.00     0.023 C 
ENDROOT
BRANCH   1   2
ATOM      2  C   UNL A   1      31.651  29.861  25.223  1.00  0.00     0.116 C 
BRANCH   2   3
ATOM      3  N   UNL A   1      32.735  29.275  24.460  1.00  0.00    -0.356 N 
ATOM      4  C   UNL A   1      32.825  28.110  23.772  1.00  0.00     0.223 C 
ATOM      5  O   UNL A   1      33.919  27.845  23.264  1.00  0.00    -0.275 OA
ATOM      6  H   UNL A   1      33.553  29.821  24.437  1.00  0.00     0.163 HD
BRANCH   4   7
ATOM      7  C   UNL A   1      31.656  27.153  23.582  1.00  0.00     0.089 C 
ATOM      8  C   UNL A   1      31.015  26.646  24.874  1.00  0.00     0.073 C 
ATOM      9  C   UNL A   1      29.557  26.366  24.516  1.00  0.00     0.013 C 
ATOM     10  C   UNL A   1      29.208  27.393  23.452  1.00  0.00     0.002 C 
ATOM     11  C   UNL A   1      30.514  27.749  22.745  1.00  0.00     0.014 C 
BRANCH   8  12
ATOM     12  C   UNL A   1      31.660  25.473  25.612  1.00  0.00     0.167 C 
ATOM     13  O   UNL A   1      31.141  25.083  26.661  1.00  0.00    -0.294 OA
BRANCH  12  14
ATOM     14  C   UNL A   1      32.842  24.723  25.082  1.00  0.00     0.021 A 
ATOM     15  C   UNL A   1      36.339  22.882  23.326  1.00  0.00     0.044 C 
ATOM     16  C   UNL A   1      35.130  23.499  23.963  1.00  0.00    -0.051 A 
ATOM     17  C   UNL A   1      35.262  24.441  24.979  1.00  0.00     0.004 A 
ATOM     18  C   UNL A   1      33.848  23.168  23.509  1.00  0.00     0.007 A 
ATOM     19  C   UNL A   1      34.132  25.053  25.525  1.00  0.00     0.012 A 
ATOM     20  C   UNL A   1      32.694  23.753  24.066  1.00  0.00    -0.040 A 
ATOM     21  C   UNL A   1      31.365  23.340  23.491  1.00  0.00     0.045 C 
ENDBRANCH  12  14
ENDBRANCH   8  12
ENDBRANCH   4   7
ENDBRANCH   2   3
ENDBRANCH   1   2
BRANCH   1  22
ATOM     22  C   UNL A   1      31.751  31.829  26.884  1.00  0.00     0.023 C 
BRANCH  22  23
ATOM     23  C   UNL A   1      32.885  32.710  27.389  1.00  0.00     0.116 C 
BRANCH  23  24
ATOM     24  N   UNL A   1      32.470  34.078  27.670  1.00  0.00    -0.352 N 
ATOM     25  C   UNL A   1      32.998  34.966  28.575  1.00  0.00     0.251 C 
ATOM     26  H   UNL A   1      31.709  34.410  27.141  1.00  0.00     0.163 HD
ATOM     27  O   UNL A   1      32.471  36.058  28.762  1.00  0.00    -0.269 OA
BRANCH  25  28
ATOM     28  C   UNL A   1      34.186  34.572  29.355  1.00  0.00     0.039 A 
ATOM     29  C   UNL A   1      34.007  34.035  30.632  1.00  0.00     0.014 A 
ATOM     30  C   UNL A   1      35.464  34.677  28.800  1.00  0.00     0.014 A 
ATOM     31  C   UNL A   1      35.104  33.518  31.320  1.00  0.00     0.010 A 
ATOM     32  C   UNL A   1      36.547  34.104  29.460  1.00  0.00     0.010 A 
ATOM     33  C   UNL A   1      36.373  33.506  30.719  1.00  0.00    -0.014 A 
BRANCH  33  34
ATOM     34  C   UNL A   1      37.531  32.847  31.370  1.00  0.00     0.031 A 
ATOM     35  C   UNL A   1      38.189  31.669  30.716  1.00  0.00     0.074 A 
ATOM     36  C   UNL A   1      37.925  33.254  32.592  1.00  0.00     0.049 A 
ATOM     37  N   UNL A   1      39.125  30.879  31.180  1.00  0.00    -0.248 NA
ATOM     38  C   UNL A   1      37.715  31.312  29.369  1.00  0.00     0.031 C 
ATOM     39  C   UNL A   1      37.330  34.358  33.349  1.00  0.00     0.029 A 
ATOM     40  N   UNL A   1      38.902  32.770  33.425  1.00  0.00    -0.354 N 
ATOM     41  C   UNL A   1      39.342  29.931  30.191  1.00  0.00     0.074 A 
ATOM     42  C   UNL A   1      38.408  30.211  29.122  1.00  0.00     0.031 C 
ATOM     43  C   UNL A   1      37.956  34.468  34.531  1.00  0.00     0.029 A 
ATOM     44  C   UNL A   1      38.967  33.420  34.634  1.00  0.00     0.049 A 
ATOM     45  H   UNL A   1      39.500  32.027  33.181  1.00  0.00     0.167 HD
ATOM     46  C   UNL A   1      40.256  28.933  30.168  1.00  0.00     0.037 A 
ATOM     47  C   UNL A   1      39.738  33.182  35.711  1.00  0.00     0.037 A 
ATOM     48  C   UNL A   1      41.197  28.671  31.225  1.00  0.00     0.049 A 
ATOM     49  C   UNL A   1      40.731  32.052  35.669  1.00  0.00     0.074 A 
ATOM     50  C   UNL A   1      42.199  27.720  31.272  1.00  0.00     0.029 A 
ATOM     51  N   UNL A   1      41.246  29.365  32.426  1.00  0.00    -0.354 N 
ATOM     52  N   UNL A   1      40.971  31.200  34.703  1.00  0.00    -0.248 NA
ATOM     53  C   UNL A   1      41.559  31.850  36.866  1.00  0.00     0.031 C 
ATOM     54  C   UNL A   1      42.830  27.810  32.517  1.00  0.00     0.029 A 
ATOM     55  C   UNL A   1      42.248  28.846  33.230  1.00  0.00     0.049 A 
ATOM     56  H   UNL A   1      40.656  30.115  32.670  1.00  0.00     0.167 HD
ATOM     57  C   UNL A   1      41.984  30.374  35.166  1.00  0.00     0.074 A 
ATOM     58  C   UNL A   1      42.329  30.838  36.494  1.00  0.00     0.031 C 
ATOM     59  C   UNL A   1      42.575  29.322  34.549  1.00  0.00     0.037 A 
BRANCH  46  60
ATOM     60  C   UNL A   1      40.290  28.053  28.953  1.00  0.00     0.064 A 
ATOM     61  C   UNL A   1      41.044  28.399  27.822  1.00  0.00     0.173 A 
ATOM     62  C   UNL A   1      39.597  26.834  28.934  1.00  0.00     0.173 A 
ATOM     63  F   UNL A   1      41.714  29.560  27.786  1.00  0.00    -0.203 F 
ATOM     64  C   UNL A   1      41.082  27.568  26.705  1.00  0.00     0.198 A 
ATOM     65  C   UNL A   1      39.659  25.992  27.827  1.00  0.00     0.198 A 
ATOM     66  F   UNL A   1      38.866  26.453  29.993  1.00  0.00    -0.203 F 
ATOM     67  F   UNL A   1      41.772  27.941  25.619  1.00  0.00    -0.200 F 
ATOM     68  C   UNL A   1      40.396  26.363  26.711  1.00  0.00     0.200 A 
ATOM     69  F   UNL A   1      39.005  24.823  27.838  1.00  0.00    -0.200 F 
ATOM     70  F   UNL A   1      40.439  25.562  25.638  1.00  0.00    -0.200 F 
ENDBRANCH  46  60
BRANCH  47  71
ATOM     71  C   UNL A   1      39.600  34.030  36.924  1.00  0.00     0.064 A 
ATOM     72  C   UNL A   1      38.805  33.620  38.004  1.00  0.00     0.173 A 
ATOM     73  C   UNL A   1      40.255  35.265  37.028  1.00  0.00     0.173 A 
ATOM     74  F   UNL A   1      38.142  32.455  37.942  1.00  0.00    -0.203 F 
ATOM     75  C   UNL A   1      38.655  34.423  39.132  1.00  0.00     0.198 A 
ATOM     76  C   UNL A   1      40.124  36.056  38.169  1.00  0.00     0.198 A 
ATOM     77  F   UNL A   1      41.030  35.702  36.024  1.00  0.00    -0.203 F 
ATOM     78  F   UNL A   1      37.854  34.027  40.131  1.00  0.00    -0.200 F 
ATOM     79  C   UNL A   1      39.319  35.637  39.217  1.00  0.00     0.200 A 
ATOM     80  F   UNL A   1      40.778  37.222  38.251  1.00  0.00    -0.200 F 
ATOM     81  F   UNL A   1      39.177  36.407  40.303  1.00  0.00    -0.200 F 
ENDBRANCH  47  71
BRANCH  59  82
ATOM     82  C   UNL A   1      43.664  28.608  35.294  1.00  0.00     0.064 A 
ATOM     83  C   UNL A   1      43.374  27.562  36.183  1.00  0.00     0.173 A 
ATOM     84  C   UNL A   1      45.010  28.935  35.075  1.00  0.00     0.173 A 
ATOM     85  F   UNL A   1      42.101  27.225  36.438  1.00  0.00    -0.203 F 
ATOM     86  C   UNL A   1      44.396  26.878  36.835  1.00  0.00     0.198 A 
ATOM     87  C   UNL A   1      46.029  28.230  35.709  1.00  0.00     0.198 A 
ATOM     88  F   UNL A   1      45.336  29.924  34.231  1.00  0.00    -0.203 F 
ATOM     89  F   UNL A   1      44.097  25.904  37.706  1.00  0.00    -0.200 F 
ATOM     90  C   UNL A   1      45.721  27.206  36.591  1.00  0.00     0.200 A 
ATOM     91  F   UNL A   1      47.309  28.541  35.464  1.00  0.00    -0.200 F 
ATOM     92  F   UNL A   1      46.703  26.537  37.211  1.00  0.00    -0.200 F 
ENDBRANCH  59  82
ENDBRANCH  33  34
ENDBRANCH  25  28
ENDBRANCH  23  24
ENDBRANCH  22  23
ENDBRANCH   1  22
TORSDOF 13
ENDMDL
