MODEL 1
REMARK VINA RESULT:     -11.3      0.000      0.000
REMARK SMILES N#C[C@@H]1CN(C(=O)NCCCC(=O)NCCCCNC(=O)c2ccc(-c3c4nc(c(-c5c(F)c(F)c(F)c(F)c5F)c5ccc([nH]5)c(-c5c(F)c(F)c(F)c(F)c5F)c5nc(c(-c6c(F)c(F)c(F)c(F)c6F)c6ccc3[nH]6)C=C5)C=C4)cc2)CCO1
REMARK SMILES IDX 15 1 14 2 12 3 13 4 11 6 10 7 9 8 8 9 6 10 7 11 5 13 3 14
REMARK SMILES IDX 4 15 87 16 86 17 85 18 2 19 1 20 16 21 17 22 18 23 19 24
REMARK SMILES IDX 20 25 21 27 22 28 23 29 84 30 24 31 83 32 25 33 26 34 27 35
REMARK SMILES IDX 77 36 28 37 82 38 76 39 78 40 29 41 81 42 75 43 74 44 30 46
REMARK SMILES IDX 62 47 42 48 61 49 43 50 46 51 60 52 79 53 44 54 45 55 59 57
REMARK SMILES IDX 80 58 47 59 31 60 32 61 40 62 33 63 34 64 38 65 41 66 35 67
REMARK SMILES IDX 36 68 39 69 37 70 63 71 64 72 72 73 65 74 66 75 70 76 73 77
REMARK SMILES IDX 67 78 68 79 71 80 69 81 48 82 49 83 57 84 50 85 51 86 55 87
REMARK SMILES IDX 58 88 52 89 53 90 56 91 54 92
REMARK H PARENT 14 5 8 12 19 26 78 45 46 56
REMARK Flexibility Score: inf
ROOT
ATOM      1  C   UNL A   1      32.298  29.902  25.303  1.00  0.00     0.116 C 
ENDROOT
BRANCH   1   2
ATOM      2  N   UNL A   1      31.217  29.787  24.342  1.00  0.00    -0.356 N 
ATOM      3  C   UNL A   1      30.593  28.680  23.856  1.00  0.00     0.220 C 
ATOM      4  O   UNL A   1      29.824  28.811  22.903  1.00  0.00    -0.275 OA
ATOM      5  H   UNL A   1      30.883  30.642  23.987  1.00  0.00     0.163 HD
BRANCH   3   6
ATOM      6  C   UNL A   1      30.836  27.319  24.477  1.00  0.00     0.102 C 
BRANCH   6   7
ATOM      7  C   UNL A   1      29.926  26.227  23.910  1.00  0.00     0.031 C 
BRANCH   7   8
ATOM      8  C   UNL A   1      30.657  25.046  23.273  1.00  0.00     0.118 C 
BRANCH   8   9
ATOM      9  N   UNL A   1      31.771  25.454  22.437  1.00  0.00    -0.338 N 
ATOM     10  C   UNL A   1      33.111  25.342  22.519  1.00  0.00     0.317 C 
ATOM     11  O   UNL A   1      33.745  26.009  21.698  1.00  0.00    -0.249 OA
ATOM     12  H   UNL A   1      31.481  25.922  21.622  1.00  0.00     0.165 HD
BRANCH  10  13
ATOM     13  N   UNL A   1      33.733  24.566  23.452  1.00  0.00    -0.319 N 
ATOM     14  C   UNL A   1      34.109  24.107  25.878  1.00  0.00     0.240 C 
ATOM     15  C   UNL A   1      34.438  24.989  24.664  1.00  0.00     0.169 C 
ATOM     16  O   UNL A   1      34.323  22.713  25.570  1.00  0.00    -0.360 OA
ATOM     17  C   UNL A   1      33.514  22.286  24.460  1.00  0.00     0.183 C 
ATOM     18  C   UNL A   1      33.795  23.115  23.204  1.00  0.00     0.150 C 
BRANCH  14  19
ATOM     19  C   UNL A   1      32.692  24.358  26.366  1.00  0.00     0.096 C 
ATOM     20  N   UNL A   1      31.516  24.565  26.772  1.00  0.00    -0.195 NA
ENDBRANCH  14  19
ENDBRANCH  10  13
ENDBRANCH   8   9
ENDBRANCH   7   8
ENDBRANCH   6   7
ENDBRANCH   3   6
ENDBRANCH   1   2
BRANCH   1  21
ATOM     21  C   UNL A   1      31.770  30.428  26.635  1.00  0.00     0.023 C 
BRANCH  21  22
ATOM     22  C   UNL A   1      31.549  31.939  26.669  1.00  0.00     0.023 C 
BRANCH  22  23
ATOM     23  C   UNL A   1      32.720  32.737  27.233  1.00  0.00     0.116 C 
BRANCH  23  24
ATOM     24  N   UNL A   1      32.389  34.086  27.646  1.00  0.00    -0.352 N 
ATOM     25  C   UNL A   1      33.006  34.897  28.579  1.00  0.00     0.251 C 
ATOM     26  H   UNL A   1      31.609  34.483  27.196  1.00  0.00     0.163 HD
ATOM     27  O   UNL A   1      32.572  36.006  28.847  1.00  0.00    -0.269 OA
BRANCH  25  28
ATOM     28  C   UNL A   1      34.159  34.359  29.324  1.00  0.00     0.039 A 
ATOM     29  C   UNL A   1      33.908  33.546  30.431  1.00  0.00     0.014 A 
ATOM     30  C   UNL A   1      35.464  34.575  28.881  1.00  0.00     0.014 A 
ATOM     31  C   UNL A   1      34.965  32.881  31.053  1.00  0.00     0.010 A 
ATOM     32  C   UNL A   1      36.503  33.844  29.440  1.00  0.00     0.010 A 
ATOM     33  C   UNL A   1      36.263  32.992  30.530  1.00  0.00    -0.014 A 
BRANCH  33  34
ATOM     34  C   UNL A   1      37.398  32.242  31.117  1.00  0.00     0.031 A 
ATOM     35  C   UNL A   1      37.888  32.602  32.490  1.00  0.00     0.074 A 
ATOM     36  C   UNL A   1      38.036  31.309  30.386  1.00  0.00     0.049 A 
ATOM     37  N   UNL A   1      38.934  32.160  33.139  1.00  0.00    -0.248 NA
ATOM     38  C   UNL A   1      37.120  33.627  33.215  1.00  0.00     0.031 C 
ATOM     39  C   UNL A   1      37.687  30.915  29.019  1.00  0.00     0.029 A 
ATOM     40  N   UNL A   1      39.125  30.530  30.687  1.00  0.00    -0.354 N 
ATOM     41  C   UNL A   1      38.966  32.874  34.329  1.00  0.00     0.074 A 
ATOM     42  C   UNL A   1      37.868  33.814  34.291  1.00  0.00     0.031 C 
ATOM     43  C   UNL A   1      38.530  29.952  28.610  1.00  0.00     0.029 A 
ATOM     44  C   UNL A   1      39.499  29.688  29.670  1.00  0.00     0.049 A 
ATOM     45  H   UNL A   1      39.595  30.572  31.552  1.00  0.00     0.167 HD
ATOM     46  C   UNL A   1      39.819  32.739  35.370  1.00  0.00     0.037 A 
ATOM     47  C   UNL A   1      40.512  28.805  29.603  1.00  0.00     0.037 A 
ATOM     48  C   UNL A   1      40.877  31.766  35.422  1.00  0.00     0.049 A 
ATOM     49  C   UNL A   1      41.424  28.646  30.788  1.00  0.00     0.074 A 
ATOM     50  C   UNL A   1      41.752  31.497  36.459  1.00  0.00     0.029 A 
ATOM     51  N   UNL A   1      41.195  30.895  34.390  1.00  0.00    -0.354 N 
ATOM     52  N   UNL A   1      41.408  29.284  31.935  1.00  0.00    -0.248 NA
ATOM     53  C   UNL A   1      42.490  27.641  30.676  1.00  0.00     0.031 C 
ATOM     54  C   UNL A   1      42.621  30.482  36.042  1.00  0.00     0.029 A 
ATOM     55  C   UNL A   1      42.261  30.094  34.762  1.00  0.00     0.049 A 
ATOM     56  H   UNL A   1      40.732  30.854  33.523  1.00  0.00     0.167 HD
ATOM     57  C   UNL A   1      42.441  28.742  32.686  1.00  0.00     0.074 A 
ATOM     58  C   UNL A   1      43.054  27.713  31.873  1.00  0.00     0.031 C 
ATOM     59  C   UNL A   1      42.847  29.067  33.938  1.00  0.00     0.037 A 
BRANCH  46  60
ATOM     60  C   UNL A   1      39.630  33.658  36.540  1.00  0.00     0.064 A 
ATOM     61  C   UNL A   1      38.839  33.295  37.639  1.00  0.00     0.173 A 
ATOM     62  C   UNL A   1      40.261  34.911  36.569  1.00  0.00     0.173 A 
ATOM     63  F   UNL A   1      38.202  32.115  37.652  1.00  0.00    -0.203 F 
ATOM     64  C   UNL A   1      38.658  34.165  38.711  1.00  0.00     0.198 A 
ATOM     65  C   UNL A   1      40.103  35.767  37.656  1.00  0.00     0.198 A 
ATOM     66  F   UNL A   1      41.031  35.306  35.544  1.00  0.00    -0.203 F 
ATOM     67  F   UNL A   1      37.854  33.819  39.725  1.00  0.00    -0.200 F 
ATOM     68  C   UNL A   1      39.295  35.397  38.721  1.00  0.00     0.200 A 
ATOM     69  F   UNL A   1      40.727  36.953  37.670  1.00  0.00    -0.200 F 
ATOM     70  F   UNL A   1      39.124  36.233  39.756  1.00  0.00    -0.200 F 
ENDBRANCH  46  60
BRANCH  47  71
ATOM     71  C   UNL A   1      40.695  27.975  28.384  1.00  0.00     0.064 A 
ATOM     72  C   UNL A   1      40.118  26.700  28.292  1.00  0.00     0.173 A 
ATOM     73  C   UNL A   1      41.446  28.432  27.292  1.00  0.00     0.173 A 
ATOM     74  F   UNL A   1      39.408  26.213  29.321  1.00  0.00    -0.203 F 
ATOM     75  C   UNL A   1      40.301  25.907  27.162  1.00  0.00     0.198 A 
ATOM     76  C   UNL A   1      41.607  27.647  26.152  1.00  0.00     0.198 A 
ATOM     77  F   UNL A   1      42.015  29.646  27.328  1.00  0.00    -0.203 F 
ATOM     78  F   UNL A   1      39.772  24.676  27.118  1.00  0.00    -0.200 F 
ATOM     79  C   UNL A   1      41.041  26.382  26.091  1.00  0.00     0.200 A 
ATOM     80  F   UNL A   1      42.315  28.114  25.113  1.00  0.00    -0.200 F 
ATOM     81  F   UNL A   1      41.215  25.619  25.003  1.00  0.00    -0.200 F 
ENDBRANCH  47  71
BRANCH  59  82
ATOM     82  C   UNL A   1      43.984  28.281  34.515  1.00  0.00     0.064 A 
ATOM     83  C   UNL A   1      43.771  27.074  35.196  1.00  0.00     0.173 A 
ATOM     84  C   UNL A   1      45.307  28.718  34.344  1.00  0.00     0.173 A 
ATOM     85  F   UNL A   1      42.523  26.625  35.398  1.00  0.00    -0.203 F 
ATOM     86  C   UNL A   1      44.840  26.344  35.705  1.00  0.00     0.198 A 
ATOM     87  C   UNL A   1      46.375  27.971  34.831  1.00  0.00     0.198 A 
ATOM     88  F   UNL A   1      45.562  29.863  33.693  1.00  0.00    -0.203 F 
ATOM     89  F   UNL A   1      44.612  25.214  36.389  1.00  0.00    -0.200 F 
ATOM     90  C   UNL A   1      46.140  26.788  35.515  1.00  0.00     0.200 A 
ATOM     91  F   UNL A   1      47.631  28.396  34.637  1.00  0.00    -0.200 F 
ATOM     92  F   UNL A   1      47.170  26.078  36.000  1.00  0.00    -0.200 F 
ENDBRANCH  59  82
ENDBRANCH  33  34
ENDBRANCH  25  28
ENDBRANCH  23  24
ENDBRANCH  22  23
ENDBRANCH  21  22
ENDBRANCH   1  21
TORSDOF 16
ENDMDL
MODEL 2
REMARK VINA RESULT:     -11.2      1.131      2.418
REMARK SMILES N#C[C@@H]1CN(C(=O)NCCCC(=O)NCCCCNC(=O)c2ccc(-c3c4nc(c(-c5c(F)c(F)c(F)c(F)c5F)c5ccc([nH]5)c(-c5c(F)c(F)c(F)c(F)c5F)c5nc(c(-c6c(F)c(F)c(F)c(F)c6F)c6ccc3[nH]6)C=C5)C=C4)cc2)CCO1
REMARK SMILES IDX 15 1 14 2 12 3 13 4 11 6 10 7 9 8 8 9 6 10 7 11 5 13 3 14
REMARK SMILES IDX 4 15 87 16 86 17 85 18 2 19 1 20 16 21 17 22 18 23 19 24
REMARK SMILES IDX 20 25 21 27 22 28 23 29 84 30 24 31 83 32 25 33 26 34 27 35
REMARK SMILES IDX 77 36 28 37 82 38 76 39 78 40 29 41 81 42 75 43 74 44 30 46
REMARK SMILES IDX 62 47 42 48 61 49 43 50 46 51 60 52 79 53 44 54 45 55 59 57
REMARK SMILES IDX 80 58 47 59 31 60 32 61 40 62 33 63 34 64 38 65 41 66 35 67
REMARK SMILES IDX 36 68 39 69 37 70 63 71 64 72 72 73 65 74 66 75 70 76 73 77
REMARK SMILES IDX 67 78 68 79 71 80 69 81 48 82 49 83 57 84 50 85 51 86 55 87
REMARK SMILES IDX 58 88 52 89 53 90 56 91 54 92
REMARK H PARENT 14 5 8 12 19 26 78 45 46 56
REMARK Flexibility Score: inf
ROOT
ATOM      1  C   UNL A   1      33.187  30.274  26.311  1.00  0.00     0.116 C 
ENDROOT
BRANCH   1   2
ATOM      2  N   UNL A   1      33.351  29.796  24.951  1.00  0.00    -0.356 N 
ATOM      3  C   UNL A   1      33.799  28.595  24.494  1.00  0.00     0.220 C 
ATOM      4  O   UNL A   1      34.032  28.476  23.291  1.00  0.00    -0.275 OA
ATOM      5  H   UNL A   1      33.101  30.441  24.250  1.00  0.00     0.163 HD
BRANCH   3   6
ATOM      6  C   UNL A   1      33.997  27.431  25.444  1.00  0.00     0.102 C 
BRANCH   6   7
ATOM      7  C   UNL A   1      32.721  26.617  25.675  1.00  0.00     0.031 C 
BRANCH   7   8
ATOM      8  C   UNL A   1      32.924  25.104  25.732  1.00  0.00     0.118 C 
BRANCH   8   9
ATOM      9  N   UNL A   1      32.012  24.445  26.649  1.00  0.00    -0.338 N 
ATOM     10  C   UNL A   1      31.675  23.165  26.898  1.00  0.00     0.317 C 
ATOM     11  O   UNL A   1      30.690  23.012  27.624  1.00  0.00    -0.249 OA
ATOM     12  H   UNL A   1      31.526  25.081  27.221  1.00  0.00     0.165 HD
BRANCH  10  13
ATOM     13  N   UNL A   1      32.354  22.106  26.371  1.00  0.00    -0.319 N 
ATOM     14  C   UNL A   1      33.162  20.954  24.308  1.00  0.00     0.240 C 
ATOM     15  C   UNL A   1      31.978  21.255  25.240  1.00  0.00     0.169 C 
ATOM     16  O   UNL A   1      34.278  20.424  25.054  1.00  0.00    -0.360 OA
ATOM     17  C   UNL A   1      34.717  21.339  26.073  1.00  0.00     0.183 C 
ATOM     18  C   UNL A   1      33.589  21.680  27.051  1.00  0.00     0.150 C 
BRANCH  14  19
ATOM     19  C   UNL A   1      33.560  22.189  23.515  1.00  0.00     0.096 C 
ATOM     20  N   UNL A   1      33.890  23.213  22.857  1.00  0.00    -0.195 NA
ENDBRANCH  14  19
ENDBRANCH  10  13
ENDBRANCH   8   9
ENDBRANCH   7   8
ENDBRANCH   6   7
ENDBRANCH   3   6
ENDBRANCH   1   2
BRANCH   1  21
ATOM     21  C   UNL A   1      31.725  30.621  26.578  1.00  0.00     0.023 C 
BRANCH  21  22
ATOM     22  C   UNL A   1      31.466  32.109  26.812  1.00  0.00     0.023 C 
BRANCH  22  23
ATOM     23  C   UNL A   1      32.669  32.883  27.343  1.00  0.00     0.116 C 
BRANCH  23  24
ATOM     24  N   UNL A   1      32.384  34.253  27.724  1.00  0.00    -0.352 N 
ATOM     25  C   UNL A   1      33.040  35.069  28.626  1.00  0.00     0.251 C 
ATOM     26  H   UNL A   1      31.611  34.662  27.274  1.00  0.00     0.163 HD
ATOM     27  O   UNL A   1      32.644  36.198  28.869  1.00  0.00    -0.269 OA
BRANCH  25  28
ATOM     28  C   UNL A   1      34.186  34.516  29.369  1.00  0.00     0.039 A 
ATOM     29  C   UNL A   1      33.928  33.762  30.516  1.00  0.00     0.014 A 
ATOM     30  C   UNL A   1      35.489  34.657  28.890  1.00  0.00     0.014 A 
ATOM     31  C   UNL A   1      34.971  33.081  31.144  1.00  0.00     0.010 A 
ATOM     32  C   UNL A   1      36.509  33.907  29.458  1.00  0.00     0.010 A 
ATOM     33  C   UNL A   1      36.259  33.114  30.589  1.00  0.00    -0.014 A 
BRANCH  33  34
ATOM     34  C   UNL A   1      37.376  32.343  31.185  1.00  0.00     0.031 A 
ATOM     35  C   UNL A   1      37.858  32.689  32.565  1.00  0.00     0.074 A 
ATOM     36  C   UNL A   1      38.005  31.402  30.456  1.00  0.00     0.049 A 
ATOM     37  N   UNL A   1      38.890  32.227  33.222  1.00  0.00    -0.248 NA
ATOM     38  C   UNL A   1      37.100  33.724  33.286  1.00  0.00     0.031 C 
ATOM     39  C   UNL A   1      37.664  31.019  29.085  1.00  0.00     0.029 A 
ATOM     40  N   UNL A   1      39.078  30.604  30.766  1.00  0.00    -0.354 N 
ATOM     41  C   UNL A   1      38.922  32.936  34.415  1.00  0.00     0.074 A 
ATOM     42  C   UNL A   1      37.840  33.895  34.370  1.00  0.00     0.031 C 
ATOM     43  C   UNL A   1      38.495  30.045  28.681  1.00  0.00     0.029 A 
ATOM     44  C   UNL A   1      39.449  29.759  29.749  1.00  0.00     0.049 A 
ATOM     45  H   UNL A   1      39.540  30.635  31.635  1.00  0.00     0.167 HD
ATOM     46  C   UNL A   1      39.762  32.783  35.464  1.00  0.00     0.037 A 
ATOM     47  C   UNL A   1      40.448  28.860  29.688  1.00  0.00     0.037 A 
ATOM     48  C   UNL A   1      40.803  31.792  35.523  1.00  0.00     0.049 A 
ATOM     49  C   UNL A   1      41.344  28.682  30.882  1.00  0.00     0.074 A 
ATOM     50  C   UNL A   1      41.663  31.504  36.567  1.00  0.00     0.029 A 
ATOM     51  N   UNL A   1      41.117  30.920  34.491  1.00  0.00    -0.354 N 
ATOM     52  N   UNL A   1      41.328  29.315  32.031  1.00  0.00    -0.248 NA
ATOM     53  C   UNL A   1      42.394  27.659  30.776  1.00  0.00     0.031 C 
ATOM     54  C   UNL A   1      42.518  30.477  36.155  1.00  0.00     0.029 A 
ATOM     55  C   UNL A   1      42.166  30.100  34.870  1.00  0.00     0.049 A 
ATOM     56  H   UNL A   1      40.661  30.890  33.618  1.00  0.00     0.167 HD
ATOM     57  C   UNL A   1      42.344  28.754  32.791  1.00  0.00     0.074 A 
ATOM     58  C   UNL A   1      42.948  27.717  31.980  1.00  0.00     0.031 C 
ATOM     59  C   UNL A   1      42.742  29.067  34.048  1.00  0.00     0.037 A 
BRANCH  46  60
ATOM     60  C   UNL A   1      39.576  33.701  36.636  1.00  0.00     0.064 A 
ATOM     61  C   UNL A   1      38.809  33.325  37.749  1.00  0.00     0.173 A 
ATOM     62  C   UNL A   1      40.186  34.964  36.653  1.00  0.00     0.173 A 
ATOM     63  F   UNL A   1      38.194  32.134  37.773  1.00  0.00    -0.203 F 
ATOM     64  C   UNL A   1      38.632  34.194  38.823  1.00  0.00     0.198 A 
ATOM     65  C   UNL A   1      40.031  35.819  37.741  1.00  0.00     0.198 A 
ATOM     66  F   UNL A   1      40.931  35.370  35.615  1.00  0.00    -0.203 F 
ATOM     67  F   UNL A   1      37.850  33.836  39.850  1.00  0.00    -0.200 F 
ATOM     68  C   UNL A   1      39.248  35.436  38.820  1.00  0.00     0.200 A 
ATOM     69  F   UNL A   1      40.635  37.015  37.743  1.00  0.00    -0.200 F 
ATOM     70  F   UNL A   1      39.079  36.271  39.856  1.00  0.00    -0.200 F 
ENDBRANCH  46  60
BRANCH  47  71
ATOM     71  C   UNL A   1      40.629  28.033  28.468  1.00  0.00     0.064 A 
ATOM     72  C   UNL A   1      41.450  28.474  27.419  1.00  0.00     0.173 A 
ATOM     73  C   UNL A   1      39.992  26.793  28.321  1.00  0.00     0.173 A 
ATOM     74  F   UNL A   1      42.064  29.663  27.506  1.00  0.00    -0.203 F 
ATOM     75  C   UNL A   1      41.611  27.714  26.263  1.00  0.00     0.198 A 
ATOM     76  C   UNL A   1      40.174  26.023  27.174  1.00  0.00     0.198 A 
ATOM     77  F   UNL A   1      39.201  26.324  29.297  1.00  0.00    -0.203 F 
ATOM     78  F   UNL A   1      42.368  28.179  25.259  1.00  0.00    -0.200 F 
ATOM     79  C   UNL A   1      40.977  26.487  26.143  1.00  0.00     0.200 A 
ATOM     80  F   UNL A   1      39.568  24.831  27.065  1.00  0.00    -0.200 F 
ATOM     81  F   UNL A   1      41.133  25.756  25.030  1.00  0.00    -0.200 F 
ENDBRANCH  47  71
BRANCH  59  82
ATOM     82  C   UNL A   1      43.860  28.259  34.633  1.00  0.00     0.064 A 
ATOM     83  C   UNL A   1      45.196  28.673  34.531  1.00  0.00     0.173 A 
ATOM     84  C   UNL A   1      43.587  27.080  35.343  1.00  0.00     0.173 A 
ATOM     85  F   UNL A   1      45.508  29.784  33.847  1.00  0.00    -0.203 F 
ATOM     86  C   UNL A   1      46.220  27.923  35.101  1.00  0.00     0.198 A 
ATOM     87  C   UNL A   1      44.611  26.348  35.935  1.00  0.00     0.198 A 
ATOM     88  F   UNL A   1      42.324  26.647  35.474  1.00  0.00    -0.203 F 
ATOM     89  F   UNL A   1      47.495  28.314  34.956  1.00  0.00    -0.200 F 
ATOM     90  C   UNL A   1      45.927  26.767  35.808  1.00  0.00     0.200 A 
ATOM     91  F   UNL A   1      44.325  25.237  36.627  1.00  0.00    -0.200 F 
ATOM     92  F   UNL A   1      46.915  26.050  36.363  1.00  0.00    -0.200 F 
ENDBRANCH  59  82
ENDBRANCH  33  34
ENDBRANCH  25  28
ENDBRANCH  23  24
ENDBRANCH  22  23
ENDBRANCH  21  22
ENDBRANCH   1  21
TORSDOF 16
ENDMDL
MODEL 3
REMARK VINA RESULT:     -11.1      1.158      7.628
REMARK SMILES N#C[C@@H]1CN(C(=O)NCCCC(=O)NCCCCNC(=O)c2ccc(-c3c4nc(c(-c5c(F)c(F)c(F)c(F)c5F)c5ccc([nH]5)c(-c5c(F)c(F)c(F)c(F)c5F)c5nc(c(-c6c(F)c(F)c(F)c(F)c6F)c6ccc3[nH]6)C=C5)C=C4)cc2)CCO1
REMARK SMILES IDX 15 1 14 2 12 3 13 4 11 6 10 7 9 8 8 9 6 10 7 11 5 13 3 14
REMARK SMILES IDX 4 15 87 16 86 17 85 18 2 19 1 20 16 21 17 22 18 23 19 24
REMARK SMILES IDX 20 25 21 27 22 28 23 29 84 30 24 31 83 32 25 33 26 34 27 35
REMARK SMILES IDX 77 36 28 37 82 38 76 39 78 40 29 41 81 42 75 43 74 44 30 46
REMARK SMILES IDX 62 47 42 48 61 49 43 50 46 51 60 52 79 53 44 54 45 55 59 57
REMARK SMILES IDX 80 58 47 59 31 60 32 61 40 62 33 63 34 64 38 65 41 66 35 67
REMARK SMILES IDX 36 68 39 69 37 70 63 71 64 72 72 73 65 74 66 75 70 76 73 77
REMARK SMILES IDX 67 78 68 79 71 80 69 81 48 82 49 83 57 84 50 85 51 86 55 87
REMARK SMILES IDX 58 88 52 89 53 90 56 91 54 92
REMARK H PARENT 14 5 8 12 19 26 78 45 46 56
REMARK Flexibility Score: inf
ROOT
ATOM      1  C   UNL A   1      32.292  29.800  25.330  1.00  0.00     0.116 C 
ENDROOT
BRANCH   1   2
ATOM      2  N   UNL A   1      31.052  30.145  24.659  1.00  0.00    -0.356 N 
ATOM      3  C   UNL A   1      30.299  29.421  23.788  1.00  0.00     0.220 C 
ATOM      4  O   UNL A   1      29.378  29.987  23.198  1.00  0.00    -0.275 OA
ATOM      5  H   UNL A   1      30.701  31.041  24.867  1.00  0.00     0.163 HD
BRANCH   3   6
ATOM      6  C   UNL A   1      30.583  27.950  23.556  1.00  0.00     0.102 C 
BRANCH   6   7
ATOM      7  C   UNL A   1      30.616  27.132  24.849  1.00  0.00     0.031 C 
BRANCH   7   8
ATOM      8  C   UNL A   1      29.545  26.047  24.953  1.00  0.00     0.118 C 
BRANCH   8   9
ATOM      9  N   UNL A   1      29.756  25.148  26.073  1.00  0.00    -0.338 N 
ATOM     10  C   UNL A   1      30.594  24.125  26.326  1.00  0.00     0.317 C 
ATOM     11  O   UNL A   1      30.326  23.461  27.330  1.00  0.00    -0.249 OA
ATOM     12  H   UNL A   1      29.142  25.326  26.822  1.00  0.00     0.165 HD
BRANCH  10  13
ATOM     13  N   UNL A   1      31.655  23.823  25.524  1.00  0.00    -0.319 N 
ATOM     14  C   UNL A   1      34.078  23.232  25.394  1.00  0.00     0.240 C 
ATOM     15  C   UNL A   1      33.027  24.333  25.598  1.00  0.00     0.169 C 
ATOM     16  O   UNL A   1      33.823  22.501  24.175  1.00  0.00    -0.360 OA
ATOM     17  C   UNL A   1      32.519  21.894  24.185  1.00  0.00     0.183 C 
ATOM     18  C   UNL A   1      31.413  22.935  24.374  1.00  0.00     0.150 C 
BRANCH  14  19
ATOM     19  C   UNL A   1      34.138  22.304  26.596  1.00  0.00     0.096 C 
ATOM     20  N   UNL A   1      34.188  21.534  27.594  1.00  0.00    -0.195 NA
ENDBRANCH  14  19
ENDBRANCH  10  13
ENDBRANCH   8   9
ENDBRANCH   7   8
ENDBRANCH   6   7
ENDBRANCH   3   6
ENDBRANCH   1   2
BRANCH   1  21
ATOM     21  C   UNL A   1      32.280  30.317  26.765  1.00  0.00     0.023 C 
BRANCH  21  22
ATOM     22  C   UNL A   1      31.846  31.775  26.903  1.00  0.00     0.023 C 
BRANCH  22  23
ATOM     23  C   UNL A   1      32.951  32.723  27.357  1.00  0.00     0.116 C 
BRANCH  23  24
ATOM     24  N   UNL A   1      32.499  34.059  27.695  1.00  0.00    -0.352 N 
ATOM     25  C   UNL A   1      33.024  34.962  28.600  1.00  0.00     0.251 C 
ATOM     26  H   UNL A   1      31.701  34.367  27.209  1.00  0.00     0.163 HD
ATOM     27  O   UNL A   1      32.494  36.043  28.802  1.00  0.00    -0.269 OA
BRANCH  25  28
ATOM     28  C   UNL A   1      34.198  34.559  29.394  1.00  0.00     0.039 A 
ATOM     29  C   UNL A   1      33.980  33.993  30.652  1.00  0.00     0.014 A 
ATOM     30  C   UNL A   1      35.486  34.650  28.869  1.00  0.00     0.014 A 
ATOM     31  C   UNL A   1      35.051  33.443  31.356  1.00  0.00     0.010 A 
ATOM     32  C   UNL A   1      36.536  34.022  29.525  1.00  0.00     0.010 A 
ATOM     33  C   UNL A   1      36.328  33.415  30.773  1.00  0.00    -0.014 A 
BRANCH  33  34
ATOM     34  C   UNL A   1      37.475  32.772  31.458  1.00  0.00     0.031 A 
ATOM     35  C   UNL A   1      38.184  31.628  30.793  1.00  0.00     0.074 A 
ATOM     36  C   UNL A   1      37.815  33.158  32.702  1.00  0.00     0.049 A 
ATOM     37  N   UNL A   1      39.126  30.851  31.262  1.00  0.00    -0.248 NA
ATOM     38  C   UNL A   1      37.748  31.287  29.430  1.00  0.00     0.031 C 
ATOM     39  C   UNL A   1      37.163  34.218  33.473  1.00  0.00     0.029 A 
ATOM     40  N   UNL A   1      38.791  32.689  33.546  1.00  0.00    -0.354 N 
ATOM     41  C   UNL A   1      39.368  29.913  30.268  1.00  0.00     0.074 A 
ATOM     42  C   UNL A   1      38.441  30.185  29.191  1.00  0.00     0.031 C 
ATOM     43  C   UNL A   1      37.771  34.334  34.664  1.00  0.00     0.029 A 
ATOM     44  C   UNL A   1      38.830  33.335  34.756  1.00  0.00     0.049 A 
ATOM     45  H   UNL A   1      39.404  31.957  33.306  1.00  0.00     0.167 HD
ATOM     46  C   UNL A   1      40.298  28.932  30.244  1.00  0.00     0.037 A 
ATOM     47  C   UNL A   1      39.631  33.137  35.820  1.00  0.00     0.037 A 
ATOM     48  C   UNL A   1      41.251  28.701  31.296  1.00  0.00     0.049 A 
ATOM     49  C   UNL A   1      40.683  32.065  35.753  1.00  0.00     0.074 A 
ATOM     50  C   UNL A   1      42.282  27.780  31.340  1.00  0.00     0.029 A 
ATOM     51  N   UNL A   1      41.292  29.409  32.488  1.00  0.00    -0.354 N 
ATOM     52  N   UNL A   1      40.945  31.222  34.783  1.00  0.00    -0.248 NA
ATOM     53  C   UNL A   1      41.555  31.918  36.927  1.00  0.00     0.031 C 
ATOM     54  C   UNL A   1      42.929  27.911  32.574  1.00  0.00     0.029 A 
ATOM     55  C   UNL A   1      42.325  28.938  33.281  1.00  0.00     0.049 A 
ATOM     56  H   UNL A   1      40.677  30.138  32.734  1.00  0.00     0.167 HD
ATOM     57  C   UNL A   1      42.024  30.465  35.216  1.00  0.00     0.074 A 
ATOM     58  C   UNL A   1      42.379  30.957  36.531  1.00  0.00     0.031 C 
ATOM     59  C   UNL A   1      42.665  29.452  34.583  1.00  0.00     0.037 A 
BRANCH  46  60
ATOM     60  C   UNL A   1      40.334  28.046  29.034  1.00  0.00     0.064 A 
ATOM     61  C   UNL A   1      41.084  28.384  27.898  1.00  0.00     0.173 A 
ATOM     62  C   UNL A   1      39.625  26.836  29.018  1.00  0.00     0.173 A 
ATOM     63  F   UNL A   1      41.766  29.538  27.858  1.00  0.00    -0.203 F 
ATOM     64  C   UNL A   1      41.095  27.560  26.775  1.00  0.00     0.198 A 
ATOM     65  C   UNL A   1      39.662  25.999  27.905  1.00  0.00     0.198 A 
ATOM     66  F   UNL A   1      38.895  26.464  30.080  1.00  0.00    -0.203 F 
ATOM     67  F   UNL A   1      41.773  27.930  25.681  1.00  0.00    -0.200 F 
ATOM     68  C   UNL A   1      40.390  26.366  26.783  1.00  0.00     0.200 A 
ATOM     69  F   UNL A   1      38.989  24.841  27.917  1.00  0.00    -0.200 F 
ATOM     70  F   UNL A   1      40.404  25.572  25.703  1.00  0.00    -0.200 F 
ENDBRANCH  46  60
BRANCH  47  71
ATOM     71  C   UNL A   1      39.496  33.999  37.022  1.00  0.00     0.064 A 
ATOM     72  C   UNL A   1      38.748  33.571  38.129  1.00  0.00     0.173 A 
ATOM     73  C   UNL A   1      40.104  35.259  37.093  1.00  0.00     0.173 A 
ATOM     74  F   UNL A   1      38.130  32.380  38.098  1.00  0.00    -0.203 F 
ATOM     75  C   UNL A   1      38.598  34.380  39.253  1.00  0.00     0.198 A 
ATOM     76  C   UNL A   1      39.974  36.057  38.229  1.00  0.00     0.198 A 
ATOM     77  F   UNL A   1      40.834  35.713  36.064  1.00  0.00    -0.203 F 
ATOM     78  F   UNL A   1      37.843  33.964  40.279  1.00  0.00    -0.200 F 
ATOM     79  C   UNL A   1      39.215  35.620  39.304  1.00  0.00     0.200 A 
ATOM     80  F   UNL A   1      40.582  37.251  38.280  1.00  0.00    -0.200 F 
ATOM     81  F   UNL A   1      39.072  36.398  40.387  1.00  0.00    -0.200 F 
ENDBRANCH  47  71
BRANCH  59  82
ATOM     82  C   UNL A   1      43.833  28.834  35.289  1.00  0.00     0.064 A 
ATOM     83  C   UNL A   1      45.139  29.309  35.103  1.00  0.00     0.173 A 
ATOM     84  C   UNL A   1      43.636  27.782  36.197  1.00  0.00     0.173 A 
ATOM     85  F   UNL A   1      45.378  30.302  34.232  1.00  0.00    -0.203 F 
ATOM     86  C   UNL A   1      46.209  28.738  35.785  1.00  0.00     0.198 A 
ATOM     87  C   UNL A   1      44.705  27.232  36.897  1.00  0.00     0.198 A 
ATOM     88  F   UNL A   1      42.404  27.297  36.413  1.00  0.00    -0.203 F 
ATOM     89  F   UNL A   1      47.455  29.179  35.561  1.00  0.00    -0.200 F 
ATOM     90  C   UNL A   1      45.991  27.707  36.686  1.00  0.00     0.200 A 
ATOM     91  F   UNL A   1      44.491  26.243  37.775  1.00  0.00    -0.200 F 
ATOM     92  F   UNL A   1      47.023  27.163  37.347  1.00  0.00    -0.200 F 
ENDBRANCH  59  82
ENDBRANCH  33  34
ENDBRANCH  25  28
ENDBRANCH  23  24
ENDBRANCH  22  23
ENDBRANCH  21  22
ENDBRANCH   1  21
TORSDOF 16
ENDMDL
