MODEL 1
REMARK VINA RESULT:     -10.3      0.000      0.000
REMARK SMILES C[NH2+]C[C@H](C)C(=O)NC[C@](C)(O)C(=O)NCCCCNC(=O)c1ccc(-c2c3nc(c(-c4c(F)c(F)c(F)c(F)c4F)c4ccc([nH]4)c(-c4c(F)c(F)c(F)c(F)c4F)c4nc(c(-c5c(F)c(F)c(F)c(F)c5F)c5ccc2[nH]5)C=C4)C=C3)cc1
REMARK SMILES IDX 16 1 15 2 13 3 14 4 10 6 11 7 9 8 8 9 6 10 7 11 4 13 5 14
REMARK SMILES IDX 3 15 2 16 1 17 12 20 17 22 18 23 19 24 20 25 21 26 22 28
REMARK SMILES IDX 23 29 24 30 85 31 25 32 84 33 26 34 27 35 28 36 78 37 29 38
REMARK SMILES IDX 83 39 77 40 79 41 30 42 82 43 76 44 75 45 31 47 63 48 43 49
REMARK SMILES IDX 62 50 44 51 47 52 61 53 80 54 45 55 46 56 60 58 81 59 48 60
REMARK SMILES IDX 32 61 33 62 41 63 34 64 35 65 39 66 42 67 36 68 37 69 40 70
REMARK SMILES IDX 38 71 64 72 65 73 73 74 66 75 67 76 71 77 74 78 68 79 69 80
REMARK SMILES IDX 72 81 70 82 49 83 50 84 58 85 51 86 52 87 56 88 59 89 53 90
REMARK SMILES IDX 54 91 57 92 55 93
REMARK H PARENT 15 5 8 12 2 18 2 19 12 21 20 27 79 46 47 57
REMARK Flexibility Score: inf
ROOT
ATOM      1  C   UNL A   1      37.636  33.317  31.129  1.00  0.00     0.116 C 
ENDROOT
BRANCH   1   2
ATOM      2  N   UNL A   1      37.918  34.269  32.181  1.00  0.00    -0.354 N 
ATOM      3  C   UNL A   1      37.416  34.299  33.457  1.00  0.00     0.253 C 
ATOM      4  O   UNL A   1      37.954  35.066  34.259  1.00  0.00    -0.272 OA
ATOM      5  H   UNL A   1      38.550  34.988  31.950  1.00  0.00     0.163 HD
BRANCH   3   6
ATOM      6  C   UNL A   1      36.251  33.356  33.867  1.00  0.00     0.157 C 
ATOM      7  C   UNL A   1      36.458  31.961  33.264  1.00  0.00     0.055 C 
BRANCH   6   8
ATOM      8  C   UNL A   1      34.912  33.956  33.363  1.00  0.00     0.160 C 
BRANCH   8   9
ATOM      9  N   UNL A   1      34.732  35.332  33.812  1.00  0.00    -0.352 N 
ATOM     10  C   UNL A   1      33.948  36.342  33.369  1.00  0.00     0.228 C 
ATOM     11  O   UNL A   1      34.042  37.406  33.993  1.00  0.00    -0.275 OA
ATOM     12  H   UNL A   1      35.289  35.572  34.587  1.00  0.00     0.163 HD
BRANCH  10  13
ATOM     13  C   UNL A   1      33.049  36.279  32.138  1.00  0.00     0.130 C 
ATOM     14  C   UNL A   1      31.625  35.879  32.536  1.00  0.00     0.024 C 
BRANCH  13  15
ATOM     15  C   UNL A   1      33.032  37.444  31.133  1.00  0.00     0.273 C 
BRANCH  15  16
ATOM     16  N   UNL A   1      33.615  37.291  29.804  1.00  0.00    -0.348 N 
ATOM     17  C   UNL A   1      33.145  36.138  29.057  1.00  0.00     0.330 C 
ATOM     18  H   UNL A   1      33.397  38.128  29.265  1.00  0.00     0.346 HD
ATOM     19  H   UNL A   1      34.616  37.150  29.947  1.00  0.00     0.346 HD
ENDBRANCH  15  16
ENDBRANCH  13  15
ENDBRANCH  10  13
ENDBRANCH   8   9
ENDBRANCH   6   8
BRANCH   6  20
ATOM     20  O   UNL A   1      36.223  33.161  35.290  1.00  0.00    -0.378 OA
ATOM     21  H   UNL A   1      35.521  33.708  35.676  1.00  0.00     0.212 HD
ENDBRANCH   6  20
ENDBRANCH   3   6
ENDBRANCH   1   2
BRANCH   1  22
ATOM     22  C   UNL A   1      37.516  33.921  29.739  1.00  0.00     0.023 C 
BRANCH  22  23
ATOM     23  C   UNL A   1      36.201  33.632  29.021  1.00  0.00     0.023 C 
BRANCH  23  24
ATOM     24  C   UNL A   1      35.205  32.763  29.786  1.00  0.00     0.116 C 
BRANCH  24  25
ATOM     25  N   UNL A   1      34.317  31.989  28.929  1.00  0.00    -0.352 N 
ATOM     26  C   UNL A   1      34.542  30.803  28.261  1.00  0.00     0.251 C 
ATOM     27  H   UNL A   1      33.419  32.372  28.806  1.00  0.00     0.163 HD
ATOM     28  O   UNL A   1      33.694  30.349  27.508  1.00  0.00    -0.269 OA
BRANCH  26  29
ATOM     29  C   UNL A   1      35.841  30.111  28.417  1.00  0.00     0.039 A 
ATOM     30  C   UNL A   1      36.747  30.139  27.353  1.00  0.00     0.014 A 
ATOM     31  C   UNL A   1      36.190  29.499  29.622  1.00  0.00     0.014 A 
ATOM     32  C   UNL A   1      38.050  29.673  27.544  1.00  0.00     0.010 A 
ATOM     33  C   UNL A   1      37.508  29.107  29.836  1.00  0.00     0.010 A 
ATOM     34  C   UNL A   1      38.460  29.224  28.810  1.00  0.00    -0.014 A 
BRANCH  34  35
ATOM     35  C   UNL A   1      39.890  28.959  29.114  1.00  0.00     0.031 A 
ATOM     36  C   UNL A   1      40.742  30.011  29.760  1.00  0.00     0.074 A 
ATOM     37  C   UNL A   1      40.446  27.802  28.699  1.00  0.00     0.049 A 
ATOM     38  N   UNL A   1      42.034  30.010  29.977  1.00  0.00    -0.248 NA
ATOM     39  C   UNL A   1      40.058  31.236  30.199  1.00  0.00     0.031 C 
ATOM     40  C   UNL A   1      39.736  26.720  28.013  1.00  0.00     0.029 A 
ATOM     41  N   UNL A   1      41.742  27.353  28.770  1.00  0.00    -0.354 N 
ATOM     42  C   UNL A   1      42.319  31.236  30.561  1.00  0.00     0.074 A 
ATOM     43  C   UNL A   1      41.074  31.972  30.629  1.00  0.00     0.031 C 
ATOM     44  C   UNL A   1      40.600  25.731  27.738  1.00  0.00     0.029 A 
ATOM     45  C   UNL A   1      41.933  26.126  28.181  1.00  0.00     0.049 A 
ATOM     46  H   UNL A   1      42.466  27.862  29.202  1.00  0.00     0.167 HD
ATOM     47  C   UNL A   1      43.509  31.696  31.016  1.00  0.00     0.037 A 
ATOM     48  C   UNL A   1      43.058  25.409  27.996  1.00  0.00     0.037 A 
ATOM     49  C   UNL A   1      44.741  30.952  30.969  1.00  0.00     0.049 A 
ATOM     50  C   UNL A   1      44.370  25.958  28.483  1.00  0.00     0.074 A 
ATOM     51  C   UNL A   1      45.977  31.300  31.485  1.00  0.00     0.029 A 
ATOM     52  N   UNL A   1      44.894  29.713  30.366  1.00  0.00    -0.354 N 
ATOM     53  N   UNL A   1      44.614  27.087  29.102  1.00  0.00    -0.248 NA
ATOM     54  C   UNL A   1      45.564  25.135  28.240  1.00  0.00     0.031 C 
ATOM     55  C   UNL A   1      46.890  30.295  31.149  1.00  0.00     0.029 A 
ATOM     56  C   UNL A   1      46.214  29.300  30.463  1.00  0.00     0.049 A 
ATOM     57  H   UNL A   1      44.173  29.203  29.932  1.00  0.00     0.167 HD
ATOM     58  C   UNL A   1      45.983  27.106  29.333  1.00  0.00     0.074 A 
ATOM     59  C   UNL A   1      46.514  25.866  28.807  1.00  0.00     0.031 C 
ATOM     60  C   UNL A   1      46.731  28.068  29.926  1.00  0.00     0.037 A 
BRANCH  47  61
ATOM     61  C   UNL A   1      43.540  33.074  31.609  1.00  0.00     0.064 A 
ATOM     62  C   UNL A   1      43.709  34.214  30.810  1.00  0.00     0.173 A 
ATOM     63  C   UNL A   1      43.349  33.259  32.986  1.00  0.00     0.173 A 
ATOM     64  F   UNL A   1      43.906  34.088  29.488  1.00  0.00    -0.203 F 
ATOM     65  C   UNL A   1      43.709  35.488  31.370  1.00  0.00     0.198 A 
ATOM     66  C   UNL A   1      43.322  34.536  33.540  1.00  0.00     0.198 A 
ATOM     67  F   UNL A   1      43.177  32.202  33.793  1.00  0.00    -0.203 F 
ATOM     68  F   UNL A   1      43.913  36.560  30.592  1.00  0.00    -0.200 F 
ATOM     69  C   UNL A   1      43.508  35.648  32.732  1.00  0.00     0.200 A 
ATOM     70  F   UNL A   1      43.115  34.692  34.855  1.00  0.00    -0.200 F 
ATOM     71  F   UNL A   1      43.498  36.877  33.270  1.00  0.00    -0.200 F 
ENDBRANCH  47  61
BRANCH  48  72
ATOM     72  C   UNL A   1      42.994  24.093  27.309  1.00  0.00     0.064 A 
ATOM     73  C   UNL A   1      43.328  23.974  25.953  1.00  0.00     0.173 A 
ATOM     74  C   UNL A   1      42.598  22.932  27.990  1.00  0.00     0.173 A 
ATOM     75  F   UNL A   1      43.689  25.060  25.255  1.00  0.00    -0.203 F 
ATOM     76  C   UNL A   1      43.254  22.746  25.299  1.00  0.00     0.198 A 
ATOM     77  C   UNL A   1      42.551  21.700  27.342  1.00  0.00     0.198 A 
ATOM     78  F   UNL A   1      42.272  22.993  29.289  1.00  0.00    -0.203 F 
ATOM     79  F   UNL A   1      43.537  22.668  23.992  1.00  0.00    -0.200 F 
ATOM     80  C   UNL A   1      42.871  21.609  25.995  1.00  0.00     0.200 A 
ATOM     81  F   UNL A   1      42.194  20.602  28.020  1.00  0.00    -0.200 F 
ATOM     82  F   UNL A   1      42.805  20.427  25.367  1.00  0.00    -0.200 F 
ENDBRANCH  48  72
BRANCH  60  83
ATOM     83  C   UNL A   1      48.206  27.818  30.037  1.00  0.00     0.064 A 
ATOM     84  C   UNL A   1      49.099  28.267  29.053  1.00  0.00     0.173 A 
ATOM     85  C   UNL A   1      48.736  27.161  31.158  1.00  0.00     0.173 A 
ATOM     86  F   UNL A   1      48.638  28.882  27.954  1.00  0.00    -0.203 F 
ATOM     87  C   UNL A   1      50.468  28.052  29.180  1.00  0.00     0.198 A 
ATOM     88  C   UNL A   1      50.108  26.973  31.293  1.00  0.00     0.198 A 
ATOM     89  F   UNL A   1      47.924  26.716  32.128  1.00  0.00    -0.203 F 
ATOM     90  F   UNL A   1      51.300  28.454  28.209  1.00  0.00    -0.200 F 
ATOM     91  C   UNL A   1      50.973  27.413  30.303  1.00  0.00     0.200 A 
ATOM     92  F   UNL A   1      50.595  26.364  32.384  1.00  0.00    -0.200 F 
ATOM     93  F   UNL A   1      52.292  27.216  30.427  1.00  0.00    -0.200 F 
ENDBRANCH  60  83
ENDBRANCH  34  35
ENDBRANCH  26  29
ENDBRANCH  24  25
ENDBRANCH  23  24
ENDBRANCH  22  23
ENDBRANCH   1  22
TORSDOF 17
ENDMDL
MODEL 2
REMARK VINA RESULT:     -10.3      5.572     10.528
REMARK SMILES C[NH2+]C[C@H](C)C(=O)NC[C@](C)(O)C(=O)NCCCCNC(=O)c1ccc(-c2c3nc(c(-c4c(F)c(F)c(F)c(F)c4F)c4ccc([nH]4)c(-c4c(F)c(F)c(F)c(F)c4F)c4nc(c(-c5c(F)c(F)c(F)c(F)c5F)c5ccc2[nH]5)C=C4)C=C3)cc1
REMARK SMILES IDX 16 1 15 2 13 3 14 4 10 6 11 7 9 8 8 9 6 10 7 11 4 13 5 14
REMARK SMILES IDX 3 15 2 16 1 17 12 20 17 22 18 23 19 24 20 25 21 26 22 28
REMARK SMILES IDX 23 29 24 30 85 31 25 32 84 33 26 34 27 35 28 36 78 37 29 38
REMARK SMILES IDX 83 39 77 40 79 41 30 42 82 43 76 44 75 45 31 47 63 48 43 49
REMARK SMILES IDX 62 50 44 51 47 52 61 53 80 54 45 55 46 56 60 58 81 59 48 60
REMARK SMILES IDX 32 61 33 62 41 63 34 64 35 65 39 66 42 67 36 68 37 69 40 70
REMARK SMILES IDX 38 71 64 72 65 73 73 74 66 75 67 76 71 77 74 78 68 79 69 80
REMARK SMILES IDX 72 81 70 82 49 83 50 84 58 85 51 86 52 87 56 88 59 89 53 90
REMARK SMILES IDX 54 91 57 92 55 93
REMARK H PARENT 15 5 8 12 2 18 2 19 12 21 20 27 79 46 47 57
REMARK Flexibility Score: inf
ROOT
ATOM      1  C   UNL A   1      36.525  23.093  25.375  1.00  0.00     0.116 C 
ENDROOT
BRANCH   1   2
ATOM      2  N   UNL A   1      35.886  22.452  26.504  1.00  0.00    -0.354 N 
ATOM      3  C   UNL A   1      34.553  22.196  26.693  1.00  0.00     0.253 C 
ATOM      4  O   UNL A   1      34.246  21.445  27.622  1.00  0.00    -0.272 OA
ATOM      5  H   UNL A   1      36.487  22.163  27.229  1.00  0.00     0.163 HD
BRANCH   3   6
ATOM      6  C   UNL A   1      33.492  22.798  25.731  1.00  0.00     0.157 C 
ATOM      7  C   UNL A   1      32.197  23.108  26.492  1.00  0.00     0.055 C 
BRANCH   6   8
ATOM      8  C   UNL A   1      33.205  21.783  24.593  1.00  0.00     0.160 C 
BRANCH   8   9
ATOM      9  N   UNL A   1      34.099  20.632  24.656  1.00  0.00    -0.352 N 
ATOM     10  C   UNL A   1      33.890  19.304  24.503  1.00  0.00     0.228 C 
ATOM     11  O   UNL A   1      34.891  18.588  24.623  1.00  0.00    -0.275 OA
ATOM     12  H   UNL A   1      35.036  20.868  24.846  1.00  0.00     0.163 HD
BRANCH  10  13
ATOM     13  C   UNL A   1      32.529  18.651  24.286  1.00  0.00     0.130 C 
ATOM     14  C   UNL A   1      32.218  18.549  22.790  1.00  0.00     0.024 C 
BRANCH  13  15
ATOM     15  C   UNL A   1      32.177  17.340  25.011  1.00  0.00     0.273 C 
BRANCH  15  16
ATOM     16  N   UNL A   1      32.796  16.079  24.614  1.00  0.00    -0.348 N 
ATOM     17  C   UNL A   1      32.535  14.960  25.502  1.00  0.00     0.330 C 
ATOM     18  H   UNL A   1      32.450  15.836  23.686  1.00  0.00     0.346 HD
ATOM     19  H   UNL A   1      33.804  16.236  24.641  1.00  0.00     0.346 HD
ENDBRANCH  15  16
ENDBRANCH  13  15
ENDBRANCH  10  13
ENDBRANCH   8   9
ENDBRANCH   6   8
BRANCH   6  20
ATOM     20  O   UNL A   1      33.936  24.056  25.196  1.00  0.00    -0.378 OA
ATOM     21  H   UNL A   1      34.762  24.318  25.631  1.00  0.00     0.212 HD
ENDBRANCH   6  20
ENDBRANCH   3   6
ENDBRANCH   1   2
BRANCH   1  22
ATOM     22  C   UNL A   1      37.183  22.140  24.390  1.00  0.00     0.023 C 
BRANCH  22  23
ATOM     23  C   UNL A   1      37.722  20.851  25.003  1.00  0.00     0.023 C 
BRANCH  23  24
ATOM     24  C   UNL A   1      39.047  20.976  25.751  1.00  0.00     0.116 C 
BRANCH  24  25
ATOM     25  N   UNL A   1      39.833  19.749  25.769  1.00  0.00    -0.352 N 
ATOM     26  C   UNL A   1      41.175  19.560  26.026  1.00  0.00     0.251 C 
ATOM     27  H   UNL A   1      39.329  18.929  25.566  1.00  0.00     0.163 HD
ATOM     28  O   UNL A   1      41.676  18.453  25.904  1.00  0.00    -0.269 OA
BRANCH  26  29
ATOM     29  C   UNL A   1      42.019  20.718  26.396  1.00  0.00     0.039 A 
ATOM     30  C   UNL A   1      42.595  21.479  25.376  1.00  0.00     0.014 A 
ATOM     31  C   UNL A   1      42.185  21.090  27.731  1.00  0.00     0.014 A 
ATOM     32  C   UNL A   1      43.223  22.688  25.688  1.00  0.00     0.010 A 
ATOM     33  C   UNL A   1      42.742  22.329  28.034  1.00  0.00     0.010 A 
ATOM     34  C   UNL A   1      43.234  23.156  27.011  1.00  0.00    -0.014 A 
BRANCH  34  35
ATOM     35  C   UNL A   1      43.666  24.539  27.342  1.00  0.00     0.031 A 
ATOM     36  C   UNL A   1      42.673  25.557  27.818  1.00  0.00     0.074 A 
ATOM     37  C   UNL A   1      44.942  24.904  27.101  1.00  0.00     0.049 A 
ATOM     38  N   UNL A   1      42.839  26.840  28.024  1.00  0.00    -0.248 NA
ATOM     39  C   UNL A   1      41.306  25.078  28.073  1.00  0.00     0.031 C 
ATOM     40  C   UNL A   1      45.993  24.020  26.590  1.00  0.00     0.029 A 
ATOM     41  N   UNL A   1      45.568  26.119  27.230  1.00  0.00    -0.354 N 
ATOM     42  C   UNL A   1      41.598  27.323  28.416  1.00  0.00     0.074 A 
ATOM     43  C   UNL A   1      40.679  26.204  28.381  1.00  0.00     0.031 C 
ATOM     44  C   UNL A   1      47.131  24.718  26.460  1.00  0.00     0.029 A 
ATOM     45  C   UNL A   1      46.882  26.108  26.831  1.00  0.00     0.049 A 
ATOM     46  H   UNL A   1      45.117  26.924  27.576  1.00  0.00     0.167 HD
ATOM     47  C   UNL A   1      41.263  28.581  28.789  1.00  0.00     0.037 A 
ATOM     48  C   UNL A   1      47.782  27.106  26.747  1.00  0.00     0.037 A 
ATOM     49  C   UNL A   1      42.184  29.686  28.846  1.00  0.00     0.049 A 
ATOM     50  C   UNL A   1      47.374  28.499  27.139  1.00  0.00     0.074 A 
ATOM     51  C   UNL A   1      41.956  30.975  29.295  1.00  0.00     0.029 A 
ATOM     52  N   UNL A   1      43.506  29.634  28.434  1.00  0.00    -0.354 N 
ATOM     53  N   UNL A   1      46.216  28.928  27.579  1.00  0.00    -0.248 NA
ATOM     54  C   UNL A   1      48.395  29.549  27.013  1.00  0.00     0.031 C 
ATOM     55  C   UNL A   1      43.127  31.717  29.108  1.00  0.00     0.029 A 
ATOM     56  C   UNL A   1      44.097  30.879  28.583  1.00  0.00     0.049 A 
ATOM     57  H   UNL A   1      43.959  28.832  28.086  1.00  0.00     0.167 HD
ATOM     58  C   UNL A   1      46.372  30.290  27.796  1.00  0.00     0.074 A 
ATOM     59  C   UNL A   1      47.743  30.614  27.459  1.00  0.00     0.031 C 
ATOM     60  C   UNL A   1      45.459  31.190  28.233  1.00  0.00     0.037 A 
BRANCH  47  61
ATOM     61  C   UNL A   1      39.833  28.835  29.169  1.00  0.00     0.064 A 
ATOM     62  C   UNL A   1      39.391  28.701  30.493  1.00  0.00     0.173 A 
ATOM     63  C   UNL A   1      38.908  29.267  28.208  1.00  0.00     0.173 A 
ATOM     64  F   UNL A   1      40.236  28.282  31.448  1.00  0.00    -0.203 F 
ATOM     65  C   UNL A   1      38.068  28.967  30.838  1.00  0.00     0.198 A 
ATOM     66  C   UNL A   1      37.593  29.559  28.560  1.00  0.00     0.198 A 
ATOM     67  F   UNL A   1      39.282  29.418  26.928  1.00  0.00    -0.203 F 
ATOM     68  F   UNL A   1      37.659  28.793  32.101  1.00  0.00    -0.200 F 
ATOM     69  C   UNL A   1      37.173  29.402  29.872  1.00  0.00     0.200 A 
ATOM     70  F   UNL A   1      36.731  29.991  27.629  1.00  0.00    -0.200 F 
ATOM     71  F   UNL A   1      35.902  29.667  30.206  1.00  0.00    -0.200 F 
ENDBRANCH  47  61
BRANCH  48  72
ATOM     72  C   UNL A   1      49.159  26.826  26.266  1.00  0.00     0.064 A 
ATOM     73  C   UNL A   1      49.493  26.984  24.914  1.00  0.00     0.173 A 
ATOM     74  C   UNL A   1      50.166  26.396  27.142  1.00  0.00     0.173 A 
ATOM     75  F   UNL A   1      48.558  27.370  24.034  1.00  0.00    -0.203 F 
ATOM     76  C   UNL A   1      50.779  26.706  24.453  1.00  0.00     0.198 A 
ATOM     77  C   UNL A   1      51.458  26.145  26.685  1.00  0.00     0.198 A 
ATOM     78  F   UNL A   1      49.898  26.232  28.446  1.00  0.00    -0.203 F 
ATOM     79  F   UNL A   1      51.060  26.825  23.149  1.00  0.00    -0.200 F 
ATOM     80  C   UNL A   1      51.762  26.293  25.340  1.00  0.00     0.200 A 
ATOM     81  F   UNL A   1      52.408  25.758  27.547  1.00  0.00    -0.200 F 
ATOM     82  F   UNL A   1      52.999  26.031  24.897  1.00  0.00    -0.200 F 
ENDBRANCH  48  72
BRANCH  60  83
ATOM     83  C   UNL A   1      45.911  32.614  28.371  1.00  0.00     0.064 A 
ATOM     84  C   UNL A   1      45.756  33.534  27.324  1.00  0.00     0.173 A 
ATOM     85  C   UNL A   1      46.467  33.074  29.575  1.00  0.00     0.173 A 
ATOM     86  F   UNL A   1      45.248  33.138  26.148  1.00  0.00    -0.203 F 
ATOM     87  C   UNL A   1      46.155  34.859  27.472  1.00  0.00     0.198 A 
ATOM     88  C   UNL A   1      46.841  34.405  29.728  1.00  0.00     0.198 A 
ATOM     89  F   UNL A   1      46.633  32.233  30.606  1.00  0.00    -0.203 F 
ATOM     90  F   UNL A   1      46.035  35.712  26.446  1.00  0.00    -0.200 F 
ATOM     91  C   UNL A   1      46.690  35.296  28.676  1.00  0.00     0.200 A 
ATOM     92  F   UNL A   1      47.346  34.828  30.895  1.00  0.00    -0.200 F 
ATOM     93  F   UNL A   1      47.065  36.574  28.819  1.00  0.00    -0.200 F 
ENDBRANCH  60  83
ENDBRANCH  34  35
ENDBRANCH  26  29
ENDBRANCH  24  25
ENDBRANCH  23  24
ENDBRANCH  22  23
ENDBRANCH   1  22
TORSDOF 17
ENDMDL
MODEL 3
REMARK VINA RESULT:     -10.1      5.540     10.670
REMARK SMILES C[NH2+]C[C@H](C)C(=O)NC[C@](C)(O)C(=O)NCCCCNC(=O)c1ccc(-c2c3nc(c(-c4c(F)c(F)c(F)c(F)c4F)c4ccc([nH]4)c(-c4c(F)c(F)c(F)c(F)c4F)c4nc(c(-c5c(F)c(F)c(F)c(F)c5F)c5ccc2[nH]5)C=C4)C=C3)cc1
REMARK SMILES IDX 16 1 15 2 13 3 14 4 10 6 11 7 9 8 8 9 6 10 7 11 4 13 5 14
REMARK SMILES IDX 3 15 2 16 1 17 12 20 17 22 18 23 19 24 20 25 21 26 22 28
REMARK SMILES IDX 23 29 24 30 85 31 25 32 84 33 26 34 27 35 28 36 78 37 29 38
REMARK SMILES IDX 83 39 77 40 79 41 30 42 82 43 76 44 75 45 31 47 63 48 43 49
REMARK SMILES IDX 62 50 44 51 47 52 61 53 80 54 45 55 46 56 60 58 81 59 48 60
REMARK SMILES IDX 32 61 33 62 41 63 34 64 35 65 39 66 42 67 36 68 37 69 40 70
REMARK SMILES IDX 38 71 64 72 65 73 73 74 66 75 67 76 71 77 74 78 68 79 69 80
REMARK SMILES IDX 72 81 70 82 49 83 50 84 58 85 51 86 52 87 56 88 59 89 53 90
REMARK SMILES IDX 54 91 57 92 55 93
REMARK H PARENT 15 5 8 12 2 18 2 19 12 21 20 27 79 46 47 57
REMARK Flexibility Score: inf
ROOT
ATOM      1  C   UNL A   1      36.746  23.067  24.772  1.00  0.00     0.116 C 
ENDROOT
BRANCH   1   2
ATOM      2  N   UNL A   1      36.020  22.943  26.017  1.00  0.00    -0.354 N 
ATOM      3  C   UNL A   1      34.686  22.683  26.203  1.00  0.00     0.253 C 
ATOM      4  O   UNL A   1      34.317  22.401  27.345  1.00  0.00    -0.272 OA
ATOM      5  H   UNL A   1      36.553  23.062  26.837  1.00  0.00     0.163 HD
BRANCH   3   6
ATOM      6  C   UNL A   1      33.708  22.698  24.996  1.00  0.00     0.157 C 
ATOM      7  C   UNL A   1      32.298  23.085  25.459  1.00  0.00     0.055 C 
BRANCH   6   8
ATOM      8  C   UNL A   1      33.681  21.289  24.347  1.00  0.00     0.160 C 
BRANCH   8   9
ATOM      9  N   UNL A   1      33.008  20.313  25.198  1.00  0.00    -0.352 N 
ATOM     10  C   UNL A   1      33.042  18.961  25.241  1.00  0.00     0.228 C 
ATOM     11  O   UNL A   1      32.333  18.436  26.108  1.00  0.00    -0.275 OA
ATOM     12  H   UNL A   1      32.416  20.718  25.873  1.00  0.00     0.163 HD
BRANCH  10  13
ATOM     13  C   UNL A   1      33.806  18.073  24.265  1.00  0.00     0.130 C 
ATOM     14  C   UNL A   1      35.298  18.060  24.610  1.00  0.00     0.024 C 
BRANCH  13  15
ATOM     15  C   UNL A   1      33.301  16.652  23.956  1.00  0.00     0.273 C 
BRANCH  15  16
ATOM     16  N   UNL A   1      32.408  15.961  24.881  1.00  0.00    -0.348 N 
ATOM     17  C   UNL A   1      32.908  14.696  25.388  1.00  0.00     0.330 C 
ATOM     18  H   UNL A   1      32.237  16.578  25.675  1.00  0.00     0.346 HD
ATOM     19  H   UNL A   1      31.563  15.742  24.350  1.00  0.00     0.346 HD
ENDBRANCH  15  16
ENDBRANCH  13  15
ENDBRANCH  10  13
ENDBRANCH   8   9
ENDBRANCH   6   8
BRANCH   6  20
ATOM     20  O   UNL A   1      34.087  23.697  24.037  1.00  0.00    -0.378 OA
ATOM     21  H   UNL A   1      33.576  24.506  24.193  1.00  0.00     0.212 HD
ENDBRANCH   6  20
ENDBRANCH   3   6
ENDBRANCH   1   2
BRANCH   1  22
ATOM     22  C   UNL A   1      37.332  21.768  24.245  1.00  0.00     0.023 C 
BRANCH  22  23
ATOM     23  C   UNL A   1      37.751  20.767  25.318  1.00  0.00     0.023 C 
BRANCH  23  24
ATOM     24  C   UNL A   1      39.161  20.945  25.876  1.00  0.00     0.116 C 
BRANCH  24  25
ATOM     25  N   UNL A   1      39.964  19.730  25.848  1.00  0.00    -0.352 N 
ATOM     26  C   UNL A   1      41.317  19.556  26.057  1.00  0.00     0.251 C 
ATOM     27  H   UNL A   1      39.465  18.906  25.648  1.00  0.00     0.163 HD
ATOM     28  O   UNL A   1      41.830  18.459  25.900  1.00  0.00    -0.269 OA
BRANCH  26  29
ATOM     29  C   UNL A   1      42.156  20.720  26.418  1.00  0.00     0.039 A 
ATOM     30  C   UNL A   1      42.759  21.455  25.393  1.00  0.00     0.014 A 
ATOM     31  C   UNL A   1      42.293  21.124  27.747  1.00  0.00     0.014 A 
ATOM     32  C   UNL A   1      43.383  22.669  25.690  1.00  0.00     0.010 A 
ATOM     33  C   UNL A   1      42.847  22.369  28.032  1.00  0.00     0.010 A 
ATOM     34  C   UNL A   1      43.365  23.169  27.002  1.00  0.00    -0.014 A 
BRANCH  34  35
ATOM     35  C   UNL A   1      43.794  24.559  27.309  1.00  0.00     0.031 A 
ATOM     36  C   UNL A   1      42.800  25.580  27.777  1.00  0.00     0.074 A 
ATOM     37  C   UNL A   1      45.067  24.925  27.052  1.00  0.00     0.049 A 
ATOM     38  N   UNL A   1      42.963  26.867  27.963  1.00  0.00    -0.248 NA
ATOM     39  C   UNL A   1      41.438  25.099  28.049  1.00  0.00     0.031 C 
ATOM     40  C   UNL A   1      46.117  24.038  26.547  1.00  0.00     0.029 A 
ATOM     41  N   UNL A   1      45.689  26.145  27.159  1.00  0.00    -0.354 N 
ATOM     42  C   UNL A   1      41.723  27.350  28.357  1.00  0.00     0.074 A 
ATOM     43  C   UNL A   1      40.808  26.228  28.346  1.00  0.00     0.031 C 
ATOM     44  C   UNL A   1      47.252  24.738  26.397  1.00  0.00     0.029 A 
ATOM     45  C   UNL A   1      47.000  26.132  26.749  1.00  0.00     0.049 A 
ATOM     46  H   UNL A   1      45.238  26.952  27.496  1.00  0.00     0.167 HD
ATOM     47  C   UNL A   1      41.386  28.612  28.714  1.00  0.00     0.037 A 
ATOM     48  C   UNL A   1      47.895  27.133  26.644  1.00  0.00     0.037 A 
ATOM     49  C   UNL A   1      42.303  29.721  28.748  1.00  0.00     0.049 A 
ATOM     50  C   UNL A   1      47.485  28.530  27.018  1.00  0.00     0.074 A 
ATOM     51  C   UNL A   1      42.074  31.016  29.179  1.00  0.00     0.029 A 
ATOM     52  N   UNL A   1      43.623  29.669  28.326  1.00  0.00    -0.354 N 
ATOM     53  N   UNL A   1      46.329  28.960  27.461  1.00  0.00    -0.248 NA
ATOM     54  C   UNL A   1      48.501  29.582  26.869  1.00  0.00     0.031 C 
ATOM     55  C   UNL A   1      43.240  31.760  28.972  1.00  0.00     0.029 A 
ATOM     56  C   UNL A   1      44.210  30.918  28.453  1.00  0.00     0.049 A 
ATOM     57  H   UNL A   1      44.076  28.864  27.986  1.00  0.00     0.167 HD
ATOM     58  C   UNL A   1      46.481  30.326  27.656  1.00  0.00     0.074 A 
ATOM     59  C   UNL A   1      47.847  30.651  27.304  1.00  0.00     0.031 C 
ATOM     60  C   UNL A   1      45.567  31.229  28.087  1.00  0.00     0.037 A 
BRANCH  47  61
ATOM     61  C   UNL A   1      39.958  28.867  29.101  1.00  0.00     0.064 A 
ATOM     62  C   UNL A   1      38.995  29.240  28.152  1.00  0.00     0.173 A 
ATOM     63  C   UNL A   1      39.539  28.687  30.428  1.00  0.00     0.173 A 
ATOM     64  F   UNL A   1      39.349  29.434  26.872  1.00  0.00    -0.203 F 
ATOM     65  C   UNL A   1      37.669  29.446  28.520  1.00  0.00     0.198 A 
ATOM     66  C   UNL A   1      38.206  28.868  30.788  1.00  0.00     0.198 A 
ATOM     67  F   UNL A   1      40.420  28.325  31.372  1.00  0.00    -0.203 F 
ATOM     68  F   UNL A   1      36.775  29.841  27.604  1.00  0.00    -0.200 F 
ATOM     69  C   UNL A   1      37.275  29.253  29.836  1.00  0.00     0.200 A 
ATOM     70  F   UNL A   1      37.823  28.669  32.057  1.00  0.00    -0.200 F 
ATOM     71  F   UNL A   1      35.995  29.443  30.188  1.00  0.00    -0.200 F 
ENDBRANCH  47  61
BRANCH  48  72
ATOM     72  C   UNL A   1      49.270  26.851  26.156  1.00  0.00     0.064 A 
ATOM     73  C   UNL A   1      50.284  26.474  27.047  1.00  0.00     0.173 A 
ATOM     74  C   UNL A   1      49.598  26.954  24.796  1.00  0.00     0.173 A 
ATOM     75  F   UNL A   1      50.024  26.385  28.359  1.00  0.00    -0.203 F 
ATOM     76  C   UNL A   1      51.580  26.225  26.598  1.00  0.00     0.198 A 
ATOM     77  C   UNL A   1      50.887  26.679  24.344  1.00  0.00     0.198 A 
ATOM     78  F   UNL A   1      48.662  27.309  23.904  1.00  0.00    -0.203 F 
ATOM     79  F   UNL A   1      52.541  25.908  27.475  1.00  0.00    -0.200 F 
ATOM     80  C   UNL A   1      51.879  26.322  25.246  1.00  0.00     0.200 A 
ATOM     81  F   UNL A   1      51.169  26.760  23.038  1.00  0.00    -0.200 F 
ATOM     82  F   UNL A   1      53.124  26.078  24.814  1.00  0.00    -0.200 F 
ENDBRANCH  48  72
BRANCH  60  83
ATOM     83  C   UNL A   1      46.015  32.657  28.201  1.00  0.00     0.064 A 
ATOM     84  C   UNL A   1      46.688  33.122  29.340  1.00  0.00     0.173 A 
ATOM     85  C   UNL A   1      45.808  33.557  27.145  1.00  0.00     0.173 A 
ATOM     86  F   UNL A   1      46.892  32.305  30.383  1.00  0.00    -0.203 F 
ATOM     87  C   UNL A   1      47.122  34.442  29.424  1.00  0.00     0.198 A 
ATOM     88  C   UNL A   1      46.267  34.868  27.222  1.00  0.00     0.198 A 
ATOM     89  F   UNL A   1      45.172  33.159  26.033  1.00  0.00    -0.203 F 
ATOM     90  F   UNL A   1      47.727  34.877  30.538  1.00  0.00    -0.200 F 
ATOM     91  C   UNL A   1      46.919  35.311  28.362  1.00  0.00     0.200 A 
ATOM     92  F   UNL A   1      46.080  35.704  26.190  1.00  0.00    -0.200 F 
ATOM     93  F   UNL A   1      47.346  36.579  28.442  1.00  0.00    -0.200 F 
ENDBRANCH  60  83
ENDBRANCH  34  35
ENDBRANCH  26  29
ENDBRANCH  24  25
ENDBRANCH  23  24
ENDBRANCH  22  23
ENDBRANCH   1  22
TORSDOF 17
ENDMDL
