MODEL 1
REMARK VINA RESULT:     -14.9      0.000      0.000
REMARK SMILES Cc1ccc(C(=O)NCCCCNC(=O)c2ccc(-c3c4nc(c(-c5c(F)c(F)c(F)c(F)c5F)c5ccc([nH]5)c(-c5c(F)c(F)c(F)c(F)c5F)c5nc(c(-c6c(F)c(F)c(F)c(F)c6F)c6ccc3[nH]6)C=C5)C=C4)cc2)cc1NC(=O)c1nn(C)c(=O)c2ccccc12
REMARK SMILES IDX 10 1 9 2 8 3 6 4 7 5 5 7 1 8 2 9 3 10 80 11 4 12 79 13 81 14
REMARK SMILES IDX 82 15 83 17 84 18 85 19 95 20 86 21 90 22 94 23 87 24 88 25
REMARK SMILES IDX 91 26 93 27 89 28 92 29 11 30 12 31 13 32 14 33 15 35 16 36
REMARK SMILES IDX 17 37 78 38 18 39 77 40 19 41 20 42 21 43 71 44 22 45 76 46
REMARK SMILES IDX 70 47 72 48 23 49 75 50 69 51 68 52 24 54 56 55 36 56 55 57
REMARK SMILES IDX 37 58 40 59 54 60 73 61 38 62 39 63 53 65 74 66 41 67 25 68
REMARK SMILES IDX 26 69 34 70 27 71 28 72 32 73 35 74 29 75 30 76 33 77 31 78
REMARK SMILES IDX 57 79 58 80 66 81 59 82 60 83 64 84 67 85 61 86 62 87 65 88
REMARK SMILES IDX 63 89 42 90 43 91 51 92 44 93 45 94 49 95 52 96 46 97 47 98
REMARK SMILES IDX 50 99 48 100
REMARK H PARENT 8 6 81 16 13 34 72 53 40 64
REMARK Flexibility Score: inf
ROOT
ATOM      1  C   UNL A   1      34.066  33.439  29.251  1.00  0.00     0.023 C 
ENDROOT
BRANCH   1   2
ATOM      2  C   UNL A   1      34.093  32.412  27.996  1.00  0.00     0.116 C 
BRANCH   2   3
ATOM      3  N   UNL A   1      34.890  31.150  27.995  1.00  0.00    -0.352 N 
ATOM      4  C   UNL A   1      34.728  29.882  27.405  1.00  0.00     0.251 C 
ATOM      5  O   UNL A   1      35.530  28.995  27.701  1.00  0.00    -0.269 OA
ATOM      6  H   UNL A   1      35.715  31.220  28.527  1.00  0.00     0.163 HD
BRANCH   4   7
ATOM      7  C   UNL A   1      33.725  29.557  26.334  1.00  0.00     0.041 A 
ATOM      8  C   UNL A   1      31.084  29.007  22.965  1.00  0.00     0.046 C 
ATOM      9  C   UNL A   1      31.973  29.036  24.180  1.00  0.00    -0.027 A 
ATOM     10  C   UNL A   1      31.553  29.766  25.315  1.00  0.00     0.006 A 
ATOM     11  C   UNL A   1      33.232  28.416  24.194  1.00  0.00     0.045 A 
ATOM     12  C   UNL A   1      32.428  30.045  26.377  1.00  0.00     0.014 A 
ATOM     13  C   UNL A   1      34.048  28.618  25.323  1.00  0.00     0.040 A 
BRANCH  11  14
ATOM     14  N   UNL A   1      33.622  27.609  23.087  1.00  0.00    -0.320 N 
ATOM     15  C   UNL A   1      33.356  26.275  22.801  1.00  0.00     0.276 C 
ATOM     16  H   UNL A   1      34.173  28.070  22.415  1.00  0.00     0.170 HD
ATOM     17  O   UNL A   1      33.624  25.740  21.743  1.00  0.00    -0.267 OA
BRANCH  15  18
ATOM     18  C   UNL A   1      32.874  25.410  23.926  1.00  0.00     0.157 A 
ATOM     19  N   UNL A   1      31.603  25.078  23.881  1.00  0.00    -0.164 NA
ATOM     20  C   UNL A   1      33.800  24.848  24.977  1.00  0.00     0.020 A 
ATOM     21  N   UNL A   1      31.299  24.108  24.813  1.00  0.00    -0.232 N 
ATOM     22  C   UNL A   1      33.152  24.299  26.108  1.00  0.00     0.051 A 
ATOM     23  C   UNL A   1      35.115  24.491  24.721  1.00  0.00     0.011 A 
ATOM     24  C   UNL A   1      31.714  22.796  24.368  1.00  0.00     0.178 C 
ATOM     25  C   UNL A   1      31.696  24.503  26.064  1.00  0.00     0.274 A 
ATOM     26  C   UNL A   1      33.736  23.294  26.873  1.00  0.00     0.014 A 
ATOM     27  C   UNL A   1      35.731  23.529  25.541  1.00  0.00     0.001 A 
ATOM     28  O   UNL A   1      31.102  25.326  26.739  1.00  0.00    -0.267 OA
ATOM     29  C   UNL A   1      35.041  22.915  26.593  1.00  0.00     0.001 A 
ENDBRANCH  15  18
ENDBRANCH  11  14
ENDBRANCH   4   7
ENDBRANCH   2   3
ENDBRANCH   1   2
BRANCH   1  30
ATOM     30  C   UNL A   1      34.090  35.008  29.102  1.00  0.00     0.023 C 
BRANCH  30  31
ATOM     31  C   UNL A   1      32.854  35.996  29.398  1.00  0.00     0.116 C 
BRANCH  31  32
ATOM     32  N   UNL A   1      32.492  36.381  30.777  1.00  0.00    -0.352 N 
ATOM     33  C   UNL A   1      32.481  35.520  31.902  1.00  0.00     0.251 C 
ATOM     34  H   UNL A   1      32.233  37.319  30.927  1.00  0.00     0.163 HD
ATOM     35  O   UNL A   1      31.425  35.332  32.503  1.00  0.00    -0.269 OA
BRANCH  33  36
ATOM     36  C   UNL A   1      33.729  34.926  32.492  1.00  0.00     0.039 A 
ATOM     37  C   UNL A   1      33.798  33.679  33.109  1.00  0.00     0.014 A 
ATOM     38  C   UNL A   1      34.861  35.709  32.650  1.00  0.00     0.014 A 
ATOM     39  C   UNL A   1      35.058  33.124  33.483  1.00  0.00     0.010 A 
ATOM     40  C   UNL A   1      36.119  35.124  32.935  1.00  0.00     0.010 A 
ATOM     41  C   UNL A   1      36.274  33.748  33.167  1.00  0.00    -0.014 A 
BRANCH  41  42
ATOM     42  C   UNL A   1      37.565  32.985  32.831  1.00  0.00     0.031 A 
ATOM     43  C   UNL A   1      37.652  31.645  32.101  1.00  0.00     0.074 A 
ATOM     44  C   UNL A   1      38.804  33.546  32.986  1.00  0.00     0.049 A 
ATOM     45  N   UNL A   1      38.661  30.814  32.206  1.00  0.00    -0.248 NA
ATOM     46  C   UNL A   1      36.638  31.116  31.188  1.00  0.00     0.031 C 
ATOM     47  C   UNL A   1      40.072  33.131  32.349  1.00  0.00     0.029 A 
ATOM     48  N   UNL A   1      39.223  34.604  33.805  1.00  0.00    -0.354 N 
ATOM     49  C   UNL A   1      38.562  29.867  31.200  1.00  0.00     0.074 A 
ATOM     50  C   UNL A   1      37.196  29.974  30.769  1.00  0.00     0.031 C 
ATOM     51  C   UNL A   1      41.110  33.708  32.970  1.00  0.00     0.029 A 
ATOM     52  C   UNL A   1      40.573  34.369  34.135  1.00  0.00     0.049 A 
ATOM     53  H   UNL A   1      38.674  35.368  34.097  1.00  0.00     0.167 HD
ATOM     54  C   UNL A   1      39.658  29.204  30.713  1.00  0.00     0.037 A 
ATOM     55  C   UNL A   1      40.972  34.170  35.422  1.00  0.00     0.037 A 
ATOM     56  C   UNL A   1      40.890  29.557  31.417  1.00  0.00     0.049 A 
ATOM     57  C   UNL A   1      41.759  32.911  35.643  1.00  0.00     0.074 A 
ATOM     58  C   UNL A   1      42.040  30.220  31.019  1.00  0.00     0.029 A 
ATOM     59  N   UNL A   1      41.030  29.292  32.774  1.00  0.00    -0.354 N 
ATOM     60  N   UNL A   1      41.811  31.940  34.779  1.00  0.00    -0.248 NA
ATOM     61  C   UNL A   1      42.490  32.605  36.870  1.00  0.00     0.031 C 
ATOM     62  C   UNL A   1      42.871  30.370  32.155  1.00  0.00     0.029 A 
ATOM     63  C   UNL A   1      42.231  29.791  33.238  1.00  0.00     0.049 A 
ATOM     64  H   UNL A   1      40.368  28.816  33.326  1.00  0.00     0.167 HD
ATOM     65  C   UNL A   1      42.489  30.887  35.318  1.00  0.00     0.074 A 
ATOM     66  C   UNL A   1      42.927  31.359  36.616  1.00  0.00     0.031 C 
ATOM     67  C   UNL A   1      42.592  29.707  34.644  1.00  0.00     0.037 A 
BRANCH  54  68
ATOM     68  C   UNL A   1      39.754  28.325  29.450  1.00  0.00     0.064 A 
ATOM     69  C   UNL A   1      39.267  26.988  29.473  1.00  0.00     0.173 A 
ATOM     70  C   UNL A   1      40.372  28.674  28.232  1.00  0.00     0.173 A 
ATOM     71  F   UNL A   1      38.625  26.496  30.542  1.00  0.00    -0.203 F 
ATOM     72  C   UNL A   1      39.418  26.093  28.403  1.00  0.00     0.198 A 
ATOM     73  C   UNL A   1      40.463  27.800  27.137  1.00  0.00     0.198 A 
ATOM     74  F   UNL A   1      40.972  29.851  28.046  1.00  0.00    -0.203 F 
ATOM     75  F   UNL A   1      38.998  24.826  28.525  1.00  0.00    -0.200 F 
ATOM     76  C   UNL A   1      40.005  26.505  27.228  1.00  0.00     0.200 A 
ATOM     77  F   UNL A   1      41.030  28.225  25.999  1.00  0.00    -0.200 F 
ATOM     78  F   UNL A   1      40.142  25.660  26.197  1.00  0.00    -0.200 F 
ENDBRANCH  54  68
BRANCH  55  79
ATOM     79  C   UNL A   1      40.013  34.753  36.394  1.00  0.00     0.064 A 
ATOM     80  C   UNL A   1      39.174  33.874  37.103  1.00  0.00     0.173 A 
ATOM     81  C   UNL A   1      40.261  36.018  36.948  1.00  0.00     0.173 A 
ATOM     82  F   UNL A   1      38.943  32.641  36.625  1.00  0.00    -0.203 F 
ATOM     83  C   UNL A   1      38.693  34.206  38.367  1.00  0.00     0.198 A 
ATOM     84  C   UNL A   1      39.775  36.345  38.213  1.00  0.00     0.198 A 
ATOM     85  F   UNL A   1      41.084  36.878  36.330  1.00  0.00    -0.203 F 
ATOM     86  F   UNL A   1      37.990  33.307  39.070  1.00  0.00    -0.200 F 
ATOM     87  C   UNL A   1      39.015  35.430  38.931  1.00  0.00     0.200 A 
ATOM     88  F   UNL A   1      40.117  37.513  38.778  1.00  0.00    -0.200 F 
ATOM     89  F   UNL A   1      38.638  35.709  40.187  1.00  0.00    -0.200 F 
ENDBRANCH  55  79
BRANCH  67  90
ATOM     90  C   UNL A   1      43.125  28.428  35.223  1.00  0.00     0.064 A 
ATOM     91  C   UNL A   1      44.414  27.936  34.950  1.00  0.00     0.173 A 
ATOM     92  C   UNL A   1      42.382  27.703  36.181  1.00  0.00     0.173 A 
ATOM     93  F   UNL A   1      45.259  28.609  34.158  1.00  0.00    -0.203 F 
ATOM     94  C   UNL A   1      44.892  26.758  35.527  1.00  0.00     0.198 A 
ATOM     95  C   UNL A   1      42.882  26.552  36.791  1.00  0.00     0.198 A 
ATOM     96  F   UNL A   1      41.158  28.101  36.559  1.00  0.00    -0.203 F 
ATOM     97  F   UNL A   1      46.111  26.306  35.197  1.00  0.00    -0.200 F 
ATOM     98  C   UNL A   1      44.129  26.067  36.449  1.00  0.00     0.200 A 
ATOM     99  F   UNL A   1      42.152  25.918  37.720  1.00  0.00    -0.200 F 
ATOM    100  F   UNL A   1      44.603  24.953  37.021  1.00  0.00    -0.200 F 
ENDBRANCH  67  90
ENDBRANCH  41  42
ENDBRANCH  33  36
ENDBRANCH  31  32
ENDBRANCH  30  31
ENDBRANCH   1  30
TORSDOF 13
ENDMDL
MODEL 2
REMARK VINA RESULT:     -14.6      5.764     11.602
REMARK SMILES Cc1ccc(C(=O)NCCCCNC(=O)c2ccc(-c3c4nc(c(-c5c(F)c(F)c(F)c(F)c5F)c5ccc([nH]5)c(-c5c(F)c(F)c(F)c(F)c5F)c5nc(c(-c6c(F)c(F)c(F)c(F)c6F)c6ccc3[nH]6)C=C5)C=C4)cc2)cc1NC(=O)c1nn(C)c(=O)c2ccccc12
REMARK SMILES IDX 10 1 9 2 8 3 6 4 7 5 5 7 1 8 2 9 3 10 80 11 4 12 79 13 81 14
REMARK SMILES IDX 82 15 83 17 84 18 85 19 95 20 86 21 90 22 94 23 87 24 88 25
REMARK SMILES IDX 91 26 93 27 89 28 92 29 11 30 12 31 13 32 14 33 15 35 16 36
REMARK SMILES IDX 17 37 78 38 18 39 77 40 19 41 20 42 21 43 71 44 22 45 76 46
REMARK SMILES IDX 70 47 72 48 23 49 75 50 69 51 68 52 24 54 56 55 36 56 55 57
REMARK SMILES IDX 37 58 40 59 54 60 73 61 38 62 39 63 53 65 74 66 41 67 25 68
REMARK SMILES IDX 26 69 34 70 27 71 28 72 32 73 35 74 29 75 30 76 33 77 31 78
REMARK SMILES IDX 57 79 58 80 66 81 59 82 60 83 64 84 67 85 61 86 62 87 65 88
REMARK SMILES IDX 63 89 42 90 43 91 51 92 44 93 45 94 49 95 52 96 46 97 47 98
REMARK SMILES IDX 50 99 48 100
REMARK H PARENT 8 6 81 16 13 34 72 53 40 64
REMARK Flexibility Score: inf
ROOT
ATOM      1  C   UNL A   1      41.293  20.946  27.212  1.00  0.00     0.023 C 
ENDROOT
BRANCH   1   2
ATOM      2  C   UNL A   1      39.926  21.351  26.439  1.00  0.00     0.116 C 
BRANCH   2   3
ATOM      3  N   UNL A   1      39.427  22.754  26.350  1.00  0.00    -0.352 N 
ATOM      4  C   UNL A   1      38.202  23.345  25.985  1.00  0.00     0.251 C 
ATOM      5  O   UNL A   1      38.149  24.573  25.904  1.00  0.00    -0.269 OA
ATOM      6  H   UNL A   1      40.109  23.418  26.604  1.00  0.00     0.163 HD
BRANCH   4   7
ATOM      7  C   UNL A   1      36.910  22.599  25.811  1.00  0.00     0.041 A 
ATOM      8  C   UNL A   1      33.298  20.234  25.792  1.00  0.00     0.046 C 
ATOM      9  C   UNL A   1      34.476  21.168  25.695  1.00  0.00    -0.027 A 
ATOM     10  C   UNL A   1      35.608  20.764  24.951  1.00  0.00     0.006 A 
ATOM     11  C   UNL A   1      34.509  22.395  26.376  1.00  0.00     0.045 A 
ATOM     12  C   UNL A   1      36.825  21.461  25.024  1.00  0.00     0.014 A 
ATOM     13  C   UNL A   1      35.708  23.132  26.338  1.00  0.00     0.040 A 
BRANCH  11  14
ATOM     14  N   UNL A   1      33.341  22.845  27.056  1.00  0.00    -0.320 N 
ATOM     15  C   UNL A   1      32.231  23.538  26.587  1.00  0.00     0.276 C 
ATOM     16  H   UNL A   1      33.316  22.631  28.016  1.00  0.00     0.170 HD
ATOM     17  O   UNL A   1      31.225  23.734  27.242  1.00  0.00    -0.267 OA
BRANCH  15  18
ATOM     18  C   UNL A   1      32.358  24.232  25.265  1.00  0.00     0.157 A 
ATOM     19  N   UNL A   1      31.617  23.744  24.295  1.00  0.00    -0.164 NA
ATOM     20  C   UNL A   1      33.180  25.484  25.076  1.00  0.00     0.020 A 
ATOM     21  N   UNL A   1      31.620  24.569  23.191  1.00  0.00    -0.232 N 
ATOM     22  C   UNL A   1      33.420  25.841  23.729  1.00  0.00     0.051 A 
ATOM     23  C   UNL A   1      33.336  26.448  26.061  1.00  0.00     0.011 A 
ATOM     24  C   UNL A   1      30.736  25.698  23.370  1.00  0.00     0.178 C 
ATOM     25  C   UNL A   1      32.904  24.832  22.790  1.00  0.00     0.274 A 
ATOM     26  C   UNL A   1      33.647  27.159  23.348  1.00  0.00     0.014 A 
ATOM     27  C   UNL A   1      33.640  27.767  25.680  1.00  0.00     0.001 A 
ATOM     28  O   UNL A   1      33.606  24.039  22.189  1.00  0.00    -0.267 OA
ATOM     29  C   UNL A   1      33.769  28.128  24.333  1.00  0.00     0.001 A 
ENDBRANCH  15  18
ENDBRANCH  11  14
ENDBRANCH   4   7
ENDBRANCH   2   3
ENDBRANCH   1   2
BRANCH   1  30
ATOM     30  C   UNL A   1      41.887  19.487  27.238  1.00  0.00     0.023 C 
BRANCH  30  31
ATOM     31  C   UNL A   1      42.724  18.795  26.049  1.00  0.00     0.116 C 
BRANCH  31  32
ATOM     32  N   UNL A   1      44.189  18.952  25.950  1.00  0.00    -0.352 N 
ATOM     33  C   UNL A   1      44.873  19.778  25.024  1.00  0.00     0.251 C 
ATOM     34  H   UNL A   1      44.738  18.435  26.581  1.00  0.00     0.163 HD
ATOM     35  O   UNL A   1      45.651  19.264  24.222  1.00  0.00    -0.269 OA
BRANCH  33  36
ATOM     36  C   UNL A   1      44.805  21.279  25.058  1.00  0.00     0.039 A 
ATOM     37  C   UNL A   1      43.719  22.033  24.620  1.00  0.00     0.014 A 
ATOM     38  C   UNL A   1      45.944  22.017  25.333  1.00  0.00     0.014 A 
ATOM     39  C   UNL A   1      43.673  23.440  24.852  1.00  0.00     0.010 A 
ATOM     40  C   UNL A   1      45.862  23.396  25.646  1.00  0.00     0.010 A 
ATOM     41  C   UNL A   1      44.653  24.108  25.602  1.00  0.00    -0.014 A 
BRANCH  41  42
ATOM     42  C   UNL A   1      44.362  25.317  26.503  1.00  0.00     0.031 A 
ATOM     43  C   UNL A   1      43.014  26.019  26.658  1.00  0.00     0.074 A 
ATOM     44  C   UNL A   1      45.265  25.770  27.429  1.00  0.00     0.049 A 
ATOM     45  N   UNL A   1      42.872  27.261  27.055  1.00  0.00    -0.248 NA
ATOM     46  C   UNL A   1      41.711  25.407  26.397  1.00  0.00     0.031 C 
ATOM     47  C   UNL A   1      45.002  26.616  28.612  1.00  0.00     0.029 A 
ATOM     48  N   UNL A   1      46.657  25.611  27.487  1.00  0.00    -0.354 N 
ATOM     49  C   UNL A   1      41.541  27.475  27.374  1.00  0.00     0.074 A 
ATOM     50  C   UNL A   1      40.860  26.384  26.733  1.00  0.00     0.031 C 
ATOM     51  C   UNL A   1      46.153  27.103  29.095  1.00  0.00     0.029 A 
ATOM     52  C   UNL A   1      47.179  26.743  28.146  1.00  0.00     0.049 A 
ATOM     53  H   UNL A   1      47.173  24.851  27.133  1.00  0.00     0.167 HD
ATOM     54  C   UNL A   1      41.151  28.438  28.268  1.00  0.00     0.037 A 
ATOM     55  C   UNL A   1      48.029  27.606  27.524  1.00  0.00     0.037 A 
ATOM     56  C   UNL A   1      42.274  29.231  28.767  1.00  0.00     0.049 A 
ATOM     57  C   UNL A   1      47.601  29.044  27.566  1.00  0.00     0.074 A 
ATOM     58  C   UNL A   1      42.849  29.354  30.021  1.00  0.00     0.029 A 
ATOM     59  N   UNL A   1      43.037  30.002  27.899  1.00  0.00    -0.354 N 
ATOM     60  N   UNL A   1      46.399  29.422  27.890  1.00  0.00    -0.248 NA
ATOM     61  C   UNL A   1      48.454  30.166  27.183  1.00  0.00     0.031 C 
ATOM     62  C   UNL A   1      43.983  30.193  29.899  1.00  0.00     0.029 A 
ATOM     63  C   UNL A   1      44.088  30.587  28.576  1.00  0.00     0.049 A 
ATOM     64  H   UNL A   1      42.854  30.115  26.938  1.00  0.00     0.167 HD
ATOM     65  C   UNL A   1      46.281  30.768  27.707  1.00  0.00     0.074 A 
ATOM     66  C   UNL A   1      47.602  31.199  27.297  1.00  0.00     0.031 C 
ATOM     67  C   UNL A   1      45.081  31.391  27.882  1.00  0.00     0.037 A 
BRANCH  54  68
ATOM     68  C   UNL A   1      39.763  28.633  28.911  1.00  0.00     0.064 A 
ATOM     69  C   UNL A   1      38.726  29.282  28.184  1.00  0.00     0.173 A 
ATOM     70  C   UNL A   1      39.398  28.303  30.232  1.00  0.00     0.173 A 
ATOM     71  F   UNL A   1      38.889  29.642  26.903  1.00  0.00    -0.203 F 
ATOM     72  C   UNL A   1      37.476  29.595  28.738  1.00  0.00     0.198 A 
ATOM     73  C   UNL A   1      38.124  28.556  30.763  1.00  0.00     0.198 A 
ATOM     74  F   UNL A   1      40.261  27.773  31.100  1.00  0.00    -0.203 F 
ATOM     75  F   UNL A   1      36.573  30.273  28.013  1.00  0.00    -0.200 F 
ATOM     76  C   UNL A   1      37.170  29.219  30.025  1.00  0.00     0.200 A 
ATOM     77  F   UNL A   1      37.845  28.172  32.017  1.00  0.00    -0.200 F 
ATOM     78  F   UNL A   1      35.973  29.502  30.557  1.00  0.00    -0.200 F 
ENDBRANCH  54  68
BRANCH  55  79
ATOM     79  C   UNL A   1      48.732  26.963  26.384  1.00  0.00     0.064 A 
ATOM     80  C   UNL A   1      48.235  27.191  25.088  1.00  0.00     0.173 A 
ATOM     81  C   UNL A   1      50.075  26.579  26.517  1.00  0.00     0.173 A 
ATOM     82  F   UNL A   1      46.966  27.596  24.921  1.00  0.00    -0.203 F 
ATOM     83  C   UNL A   1      49.076  27.145  23.979  1.00  0.00     0.198 A 
ATOM     84  C   UNL A   1      50.913  26.533  25.403  1.00  0.00     0.198 A 
ATOM     85  F   UNL A   1      50.606  26.386  27.733  1.00  0.00    -0.203 F 
ATOM     86  F   UNL A   1      48.605  27.477  22.770  1.00  0.00    -0.200 F 
ATOM     87  C   UNL A   1      50.419  26.841  24.141  1.00  0.00     0.200 A 
ATOM     88  F   UNL A   1      52.220  26.277  25.562  1.00  0.00    -0.200 F 
ATOM     89  F   UNL A   1      51.250  26.897  23.091  1.00  0.00    -0.200 F 
ENDBRANCH  55  79
BRANCH  67  90
ATOM     90  C   UNL A   1      44.788  32.815  27.506  1.00  0.00     0.064 A 
ATOM     91  C   UNL A   1      44.096  33.176  26.336  1.00  0.00     0.173 A 
ATOM     92  C   UNL A   1      45.098  33.874  28.386  1.00  0.00     0.173 A 
ATOM     93  F   UNL A   1      43.635  32.246  25.488  1.00  0.00    -0.203 F 
ATOM     94  C   UNL A   1      43.812  34.507  26.027  1.00  0.00     0.198 A 
ATOM     95  C   UNL A   1      44.770  35.200  28.097  1.00  0.00     0.198 A 
ATOM     96  F   UNL A   1      45.714  33.649  29.556  1.00  0.00    -0.203 F 
ATOM     97  F   UNL A   1      43.192  34.803  24.875  1.00  0.00    -0.200 F 
ATOM     98  C   UNL A   1      44.145  35.519  26.907  1.00  0.00     0.200 A 
ATOM     99  F   UNL A   1      45.055  36.166  28.981  1.00  0.00    -0.200 F 
ATOM    100  F   UNL A   1      43.846  36.792  26.620  1.00  0.00    -0.200 F 
ENDBRANCH  67  90
ENDBRANCH  41  42
ENDBRANCH  33  36
ENDBRANCH  31  32
ENDBRANCH  30  31
ENDBRANCH   1  30
TORSDOF 13
ENDMDL
MODEL 3
REMARK VINA RESULT:     -14.6      3.735      5.893
REMARK SMILES Cc1ccc(C(=O)NCCCCNC(=O)c2ccc(-c3c4nc(c(-c5c(F)c(F)c(F)c(F)c5F)c5ccc([nH]5)c(-c5c(F)c(F)c(F)c(F)c5F)c5nc(c(-c6c(F)c(F)c(F)c(F)c6F)c6ccc3[nH]6)C=C5)C=C4)cc2)cc1NC(=O)c1nn(C)c(=O)c2ccccc12
REMARK SMILES IDX 10 1 9 2 8 3 6 4 7 5 5 7 1 8 2 9 3 10 80 11 4 12 79 13 81 14
REMARK SMILES IDX 82 15 83 17 84 18 85 19 95 20 86 21 90 22 94 23 87 24 88 25
REMARK SMILES IDX 91 26 93 27 89 28 92 29 11 30 12 31 13 32 14 33 15 35 16 36
REMARK SMILES IDX 17 37 78 38 18 39 77 40 19 41 20 42 21 43 71 44 22 45 76 46
REMARK SMILES IDX 70 47 72 48 23 49 75 50 69 51 68 52 24 54 56 55 36 56 55 57
REMARK SMILES IDX 37 58 40 59 54 60 73 61 38 62 39 63 53 65 74 66 41 67 25 68
REMARK SMILES IDX 26 69 34 70 27 71 28 72 32 73 35 74 29 75 30 76 33 77 31 78
REMARK SMILES IDX 57 79 58 80 66 81 59 82 60 83 64 84 67 85 61 86 62 87 65 88
REMARK SMILES IDX 63 89 42 90 43 91 51 92 44 93 45 94 49 95 52 96 46 97 47 98
REMARK SMILES IDX 50 99 48 100
REMARK H PARENT 8 6 81 16 13 34 72 53 40 64
REMARK Flexibility Score: inf
ROOT
ATOM      1  C   UNL A   1      33.717  29.446  27.517  1.00  0.00     0.023 C 
ENDROOT
BRANCH   1   2
ATOM      2  C   UNL A   1      34.339  28.470  26.380  1.00  0.00     0.116 C 
BRANCH   2   3
ATOM      3  N   UNL A   1      34.369  28.825  24.931  1.00  0.00    -0.352 N 
ATOM      4  C   UNL A   1      33.505  28.601  23.843  1.00  0.00     0.251 C 
ATOM      5  O   UNL A   1      33.885  28.933  22.719  1.00  0.00    -0.269 OA
ATOM      6  H   UNL A   1      35.176  29.329  24.679  1.00  0.00     0.163 HD
BRANCH   4   7
ATOM      7  C   UNL A   1      32.091  28.105  23.959  1.00  0.00     0.041 A 
ATOM      8  C   UNL A   1      28.195  26.247  24.016  1.00  0.00     0.046 C 
ATOM      9  C   UNL A   1      29.508  26.975  24.140  1.00  0.00    -0.027 A 
ATOM     10  C   UNL A   1      29.796  28.020  23.233  1.00  0.00     0.006 A 
ATOM     11  C   UNL A   1      30.477  26.603  25.084  1.00  0.00     0.045 A 
ATOM     12  C   UNL A   1      31.085  28.568  23.126  1.00  0.00     0.014 A 
ATOM     13  C   UNL A   1      31.726  27.250  25.028  1.00  0.00     0.040 A 
BRANCH  11  14
ATOM     14  N   UNL A   1      30.159  25.610  26.054  1.00  0.00    -0.320 N 
ATOM     15  C   UNL A   1      30.707  24.352  26.275  1.00  0.00     0.276 C 
ATOM     16  H   UNL A   1      29.430  25.854  26.669  1.00  0.00     0.170 HD
ATOM     17  O   UNL A   1      30.445  23.656  27.237  1.00  0.00    -0.267 OA
BRANCH  15  18
ATOM     18  C   UNL A   1      31.527  23.753  25.174  1.00  0.00     0.157 A 
ATOM     19  N   UNL A   1      30.882  23.509  24.055  1.00  0.00    -0.164 NA
ATOM     20  C   UNL A   1      33.020  23.555  25.282  1.00  0.00     0.020 A 
ATOM     21  N   UNL A   1      31.746  23.178  23.033  1.00  0.00    -0.232 N 
ATOM     22  C   UNL A   1      33.585  22.729  24.283  1.00  0.00     0.051 A 
ATOM     23  C   UNL A   1      33.851  24.407  25.995  1.00  0.00     0.011 A 
ATOM     24  C   UNL A   1      32.380  24.350  22.474  1.00  0.00     0.178 C 
ATOM     25  C   UNL A   1      32.559  22.140  23.408  1.00  0.00     0.274 A 
ATOM     26  C   UNL A   1      34.911  22.862  23.884  1.00  0.00     0.014 A 
ATOM     27  C   UNL A   1      35.210  24.486  25.640  1.00  0.00     0.001 A 
ATOM     28  O   UNL A   1      32.198  20.978  23.468  1.00  0.00    -0.267 OA
ATOM     29  C   UNL A   1      35.732  23.740  24.577  1.00  0.00     0.001 A 
ENDBRANCH  15  18
ENDBRANCH  11  14
ENDBRANCH   4   7
ENDBRANCH   2   3
ENDBRANCH   1   2
BRANCH   1  30
ATOM     30  C   UNL A   1      33.396  30.971  27.284  1.00  0.00     0.023 C 
BRANCH  30  31
ATOM     31  C   UNL A   1      33.853  32.181  28.243  1.00  0.00     0.116 C 
BRANCH  31  32
ATOM     32  N   UNL A   1      35.212  32.752  28.163  1.00  0.00    -0.352 N 
ATOM     33  C   UNL A   1      36.325  32.356  28.945  1.00  0.00     0.251 C 
ATOM     34  H   UNL A   1      35.357  33.474  27.509  1.00  0.00     0.163 HD
ATOM     35  O   UNL A   1      36.861  33.179  29.686  1.00  0.00    -0.269 OA
BRANCH  33  36
ATOM     36  C   UNL A   1      36.981  31.010  28.816  1.00  0.00     0.039 A 
ATOM     37  C   UNL A   1      37.313  30.403  27.608  1.00  0.00     0.014 A 
ATOM     38  C   UNL A   1      37.090  30.185  29.924  1.00  0.00     0.014 A 
ATOM     39  C   UNL A   1      38.089  29.205  27.588  1.00  0.00     0.010 A 
ATOM     40  C   UNL A   1      37.936  29.049  29.906  1.00  0.00     0.010 A 
ATOM     41  C   UNL A   1      38.627  28.642  28.754  1.00  0.00    -0.014 A 
BRANCH  41  42
ATOM     42  C   UNL A   1      39.976  27.908  28.805  1.00  0.00     0.031 A 
ATOM     43  C   UNL A   1      40.209  26.434  28.478  1.00  0.00     0.074 A 
ATOM     44  C   UNL A   1      41.162  28.575  28.963  1.00  0.00     0.049 A 
ATOM     45  N   UNL A   1      41.219  25.731  28.931  1.00  0.00    -0.248 NA
ATOM     46  C   UNL A   1      39.354  25.617  27.616  1.00  0.00     0.031 C 
ATOM     47  C   UNL A   1      42.521  28.096  28.630  1.00  0.00     0.029 A 
ATOM     48  N   UNL A   1      41.425  29.835  29.516  1.00  0.00    -0.354 N 
ATOM     49  C   UNL A   1      41.295  24.550  28.211  1.00  0.00     0.074 A 
ATOM     50  C   UNL A   1      40.002  24.446  27.594  1.00  0.00     0.031 C 
ATOM     51  C   UNL A   1      43.441  28.884  29.203  1.00  0.00     0.029 A 
ATOM     52  C   UNL A   1      42.721  29.788  30.068  1.00  0.00     0.049 A 
ATOM     53  H   UNL A   1      40.817  30.610  29.519  1.00  0.00     0.167 HD
ATOM     54  C   UNL A   1      42.471  23.859  28.065  1.00  0.00     0.037 A 
ATOM     55  C   UNL A   1      42.938  29.959  31.402  1.00  0.00     0.037 A 
ATOM     56  C   UNL A   1      43.577  24.468  28.803  1.00  0.00     0.049 A 
ATOM     57  C   UNL A   1      43.726  28.858  32.053  1.00  0.00     0.074 A 
ATOM     58  C   UNL A   1      44.750  25.080  28.394  1.00  0.00     0.029 A 
ATOM     59  N   UNL A   1      43.530  24.576  30.187  1.00  0.00    -0.354 N 
ATOM     60  N   UNL A   1      43.932  27.702  31.494  1.00  0.00    -0.248 NA
ATOM     61  C   UNL A   1      44.282  28.933  33.400  1.00  0.00     0.031 C 
ATOM     62  C   UNL A   1      45.405  25.578  29.546  1.00  0.00     0.029 A 
ATOM     63  C   UNL A   1      44.635  25.259  30.652  1.00  0.00     0.049 A 
ATOM     64  H   UNL A   1      42.811  24.215  30.756  1.00  0.00     0.167 HD
ATOM     65  C   UNL A   1      44.558  26.874  32.379  1.00  0.00     0.074 A 
ATOM     66  C   UNL A   1      44.791  27.698  33.548  1.00  0.00     0.031 C 
ATOM     67  C   UNL A   1      44.794  25.570  32.064  1.00  0.00     0.037 A 
BRANCH  54  68
ATOM     68  C   UNL A   1      42.774  22.690  27.107  1.00  0.00     0.064 A 
ATOM     69  C   UNL A   1      42.176  21.417  27.323  1.00  0.00     0.173 A 
ATOM     70  C   UNL A   1      43.685  22.704  26.031  1.00  0.00     0.173 A 
ATOM     71  F   UNL A   1      41.263  21.228  28.287  1.00  0.00    -0.203 F 
ATOM     72  C   UNL A   1      42.487  20.279  26.564  1.00  0.00     0.198 A 
ATOM     73  C   UNL A   1      43.945  21.582  25.229  1.00  0.00     0.198 A 
ATOM     74  F   UNL A   1      44.415  23.778  25.727  1.00  0.00    -0.203 F 
ATOM     75  F   UNL A   1      41.936  19.097  26.873  1.00  0.00    -0.200 F 
ATOM     76  C   UNL A   1      43.363  20.366  25.506  1.00  0.00     0.200 A 
ATOM     77  F   UNL A   1      44.794  21.691  24.198  1.00  0.00    -0.200 F 
ATOM     78  F   UNL A   1      43.656  19.287  24.768  1.00  0.00    -0.200 F 
ENDBRANCH  54  68
BRANCH  55  79
ATOM     79  C   UNL A   1      41.832  30.708  32.050  1.00  0.00     0.064 A 
ATOM     80  C   UNL A   1      41.653  32.058  31.697  1.00  0.00     0.173 A 
ATOM     81  C   UNL A   1      40.735  30.014  32.582  1.00  0.00     0.173 A 
ATOM     82  F   UNL A   1      42.667  32.745  31.149  1.00  0.00    -0.203 F 
ATOM     83  C   UNL A   1      40.397  32.656  31.770  1.00  0.00     0.198 A 
ATOM     84  C   UNL A   1      39.481  30.620  32.655  1.00  0.00     0.198 A 
ATOM     85  F   UNL A   1      40.845  28.716  32.901  1.00  0.00    -0.203 F 
ATOM     86  F   UNL A   1      40.228  33.908  31.320  1.00  0.00    -0.200 F 
ATOM     87  C   UNL A   1      39.308  31.929  32.224  1.00  0.00     0.200 A 
ATOM     88  F   UNL A   1      38.419  29.907  33.058  1.00  0.00    -0.200 F 
ATOM     89  F   UNL A   1      38.083  32.471  32.198  1.00  0.00    -0.200 F 
ENDBRANCH  55  79
BRANCH  67  90
ATOM     90  C   UNL A   1      45.279  24.525  33.028  1.00  0.00     0.064 A 
ATOM     91  C   UNL A   1      44.518  23.400  33.392  1.00  0.00     0.173 A 
ATOM     92  C   UNL A   1      46.595  24.565  33.537  1.00  0.00     0.173 A 
ATOM     93  F   UNL A   1      43.302  23.186  32.869  1.00  0.00    -0.203 F 
ATOM     94  C   UNL A   1      45.006  22.430  34.269  1.00  0.00     0.198 A 
ATOM     95  C   UNL A   1      47.097  23.569  34.376  1.00  0.00     0.198 A 
ATOM     96  F   UNL A   1      47.433  25.564  33.222  1.00  0.00    -0.203 F 
ATOM     97  F   UNL A   1      44.222  21.400  34.622  1.00  0.00    -0.200 F 
ATOM     98  C   UNL A   1      46.295  22.512  34.759  1.00  0.00     0.200 A 
ATOM     99  F   UNL A   1      48.366  23.635  34.805  1.00  0.00    -0.200 F 
ATOM    100  F   UNL A   1      46.770  21.564  35.578  1.00  0.00    -0.200 F 
ENDBRANCH  67  90
ENDBRANCH  41  42
ENDBRANCH  33  36
ENDBRANCH  31  32
ENDBRANCH  30  31
ENDBRANCH   1  30
TORSDOF 13
ENDMDL
