MODEL 1
REMARK VINA RESULT:     -12.0      0.000      0.000
REMARK SMILES CCCCCCNC(=O)Oc1cccc(-c2ccc([C@@H](C)C(=O)NCCCCNC(=O)c3ccc(-c4c5nc(c(-c6c(F)c(F)c(F)c(F)c6F)c6ccc([nH]6)c(-c6c(F)c(F)c(F)c(F)c6F)c6nc(c(-c7c(F)c(F)c(F)c(F)c7F)c7ccc4[nH]7)C=C6)C=C5)cc3)cc2F)c1
REMARK SMILES IDX 20 1 21 2 19 3 16 4 17 5 96 6 18 7 95 8 97 9 15 10 11 11
REMARK SMILES IDX 12 12 98 13 13 14 14 15 10 16 8 17 7 18 9 20 6 21 5 22 4 23
REMARK SMILES IDX 3 24 2 25 1 26 22 27 23 28 24 29 25 31 26 32 27 33 28 34
REMARK SMILES IDX 29 35 30 36 31 38 32 39 33 40 94 41 34 42 93 43 35 44 36 45
REMARK SMILES IDX 37 46 87 47 38 48 92 49 86 50 88 51 39 52 91 53 85 54 84 55
REMARK SMILES IDX 40 57 72 58 52 59 71 60 53 61 56 62 70 63 89 64 54 65 55 66
REMARK SMILES IDX 69 68 90 69 57 70 41 71 42 72 50 73 43 74 44 75 48 76 51 77
REMARK SMILES IDX 45 78 46 79 49 80 47 81 73 82 74 83 82 84 75 85 76 86 80 87
REMARK SMILES IDX 83 88 77 89 78 90 81 91 79 92 58 93 59 94 67 95 60 96 61 97
REMARK SMILES IDX 65 98 68 99 62 100 63 101 66 102 64 103
REMARK H PARENT 7 19 24 30 29 37 88 56 56 67
REMARK Flexibility Score: inf
ROOT
ATOM      1  C   UNL A   1      31.229  27.857  22.649  1.00  0.00     0.105 C 
ATOM      2  C   UNL A   1      29.825  28.256  23.108  1.00  0.00     0.023 C 
ENDROOT
BRANCH   1   3
ATOM      3  C   UNL A   1      31.602  26.396  22.836  1.00  0.00    -0.033 A 
ATOM      4  C   UNL A   1      32.076  23.577  23.060  1.00  0.00     0.018 A 
ATOM      5  C   UNL A   1      32.867  24.400  22.240  1.00  0.00     0.012 A 
ATOM      6  C   UNL A   1      31.082  24.223  23.810  1.00  0.00     0.131 A 
ATOM      7  C   UNL A   1      32.661  25.784  22.161  1.00  0.00     0.005 A 
ATOM      8  C   UNL A   1      30.830  25.593  23.687  1.00  0.00     0.044 A 
ATOM      9  F   UNL A   1      30.324  23.534  24.679  1.00  0.00    -0.206 F 
BRANCH   4  10
ATOM     10  C   UNL A   1      32.284  22.109  23.089  1.00  0.00    -0.012 A 
ATOM     11  C   UNL A   1      33.087  20.089  24.187  1.00  0.00     0.133 A 
ATOM     12  C   UNL A   1      32.615  19.290  23.152  1.00  0.00     0.047 A 
ATOM     13  C   UNL A   1      32.934  21.477  24.164  1.00  0.00     0.056 A 
ATOM     14  C   UNL A   1      31.966  19.891  22.080  1.00  0.00     0.004 A 
ATOM     15  C   UNL A   1      31.814  21.282  22.047  1.00  0.00     0.009 A 
BRANCH  11  16
ATOM     16  O   UNL A   1      33.837  19.452  25.188  1.00  0.00    -0.410 OA
BRANCH  16  17
ATOM     17  C   UNL A   1      34.987  18.775  24.813  1.00  0.00     0.412 C 
ATOM     18  N   UNL A   1      36.112  19.550  24.901  1.00  0.00    -0.321 N 
ATOM     19  H   UNL A   1      36.962  19.127  24.644  1.00  0.00     0.167 HD
ATOM     20  O   UNL A   1      35.049  17.616  24.421  1.00  0.00    -0.224 OA
BRANCH  18  21
ATOM     21  C   UNL A   1      36.177  20.932  25.336  1.00  0.00     0.119 C 
BRANCH  21  22
ATOM     22  C   UNL A   1      36.779  21.841  24.266  1.00  0.00     0.021 C 
BRANCH  22  23
ATOM     23  C   UNL A   1      36.099  23.209  24.127  1.00  0.00     0.002 C 
BRANCH  23  24
ATOM     24  C   UNL A   1      35.572  23.819  25.431  1.00  0.00    -0.000 C 
BRANCH  24  25
ATOM     25  C   UNL A   1      34.718  25.079  25.270  1.00  0.00    -0.003 C 
ATOM     26  C   UNL A   1      33.483  25.086  26.160  1.00  0.00     0.004 C 
ENDBRANCH  24  25
ENDBRANCH  23  24
ENDBRANCH  22  23
ENDBRANCH  21  22
ENDBRANCH  18  21
ENDBRANCH  16  17
ENDBRANCH  11  16
ENDBRANCH   4  10
ENDBRANCH   1   3
BRANCH   1  27
ATOM     27  C   UNL A   1      32.330  28.833  23.096  1.00  0.00     0.227 C 
ATOM     28  O   UNL A   1      33.224  29.156  22.306  1.00  0.00    -0.274 OA
ATOM     29  N   UNL A   1      32.388  29.393  24.336  1.00  0.00    -0.356 N 
ATOM     30  H   UNL A   1      33.115  30.048  24.449  1.00  0.00     0.163 HD
BRANCH  29  31
ATOM     31  C   UNL A   1      31.574  29.198  25.517  1.00  0.00     0.116 C 
BRANCH  31  32
ATOM     32  C   UNL A   1      32.094  29.995  26.714  1.00  0.00     0.023 C 
BRANCH  32  33
ATOM     33  C   UNL A   1      31.773  31.487  26.684  1.00  0.00     0.023 C 
BRANCH  33  34
ATOM     34  C   UNL A   1      32.854  32.394  27.259  1.00  0.00     0.116 C 
BRANCH  34  35
ATOM     35  N   UNL A   1      32.417  33.758  27.516  1.00  0.00    -0.352 N 
ATOM     36  C   UNL A   1      32.950  34.664  28.406  1.00  0.00     0.251 C 
ATOM     37  H   UNL A   1      31.646  34.071  26.990  1.00  0.00     0.163 HD
ATOM     38  O   UNL A   1      32.433  35.763  28.571  1.00  0.00    -0.269 OA
BRANCH  36  39
ATOM     39  C   UNL A   1      34.131  34.268  29.199  1.00  0.00     0.039 A 
ATOM     40  C   UNL A   1      33.939  33.616  30.418  1.00  0.00     0.014 A 
ATOM     41  C   UNL A   1      35.417  34.470  28.696  1.00  0.00     0.014 A 
ATOM     42  C   UNL A   1      35.040  33.090  31.096  1.00  0.00     0.010 A 
ATOM     43  C   UNL A   1      36.503  33.876  29.331  1.00  0.00     0.010 A 
ATOM     44  C   UNL A   1      36.324  33.176  30.534  1.00  0.00    -0.014 A 
BRANCH  44  45
ATOM     45  C   UNL A   1      37.502  32.552  31.188  1.00  0.00     0.031 A 
ATOM     46  C   UNL A   1      38.222  31.424  30.504  1.00  0.00     0.074 A 
ATOM     47  C   UNL A   1      37.871  32.944  32.423  1.00  0.00     0.049 A 
ATOM     48  N   UNL A   1      39.198  30.672  30.948  1.00  0.00    -0.248 NA
ATOM     49  C   UNL A   1      37.764  31.073  29.150  1.00  0.00     0.031 C 
ATOM     50  C   UNL A   1      37.222  33.994  33.210  1.00  0.00     0.029 A 
ATOM     51  N   UNL A   1      38.879  32.493  33.240  1.00  0.00    -0.354 N 
ATOM     52  C   UNL A   1      39.455  29.755  29.938  1.00  0.00     0.074 A 
ATOM     53  C   UNL A   1      38.498  30.004  28.883  1.00  0.00     0.031 C 
ATOM     54  C   UNL A   1      37.859  34.122  34.385  1.00  0.00     0.029 A 
ATOM     55  C   UNL A   1      38.936  33.138  34.453  1.00  0.00     0.049 A 
ATOM     56  H   UNL A   1      39.501  31.776  32.982  1.00  0.00     0.167 HD
ATOM     57  C   UNL A   1      40.423  28.810  29.883  1.00  0.00     0.037 A 
ATOM     58  C   UNL A   1      39.761  32.950  35.500  1.00  0.00     0.037 A 
ATOM     59  C   UNL A   1      41.395  28.587  30.919  1.00  0.00     0.049 A 
ATOM     60  C   UNL A   1      40.827  31.888  35.411  1.00  0.00     0.074 A 
ATOM     61  C   UNL A   1      42.442  27.683  30.941  1.00  0.00     0.029 A 
ATOM     62  N   UNL A   1      41.442  29.285  32.116  1.00  0.00    -0.354 N 
ATOM     63  N   UNL A   1      41.096  31.066  34.428  1.00  0.00    -0.248 NA
ATOM     64  C   UNL A   1      41.708  31.737  36.578  1.00  0.00     0.031 C 
ATOM     65  C   UNL A   1      43.104  27.811  32.166  1.00  0.00     0.029 A 
ATOM     66  C   UNL A   1      42.497  28.826  32.888  1.00  0.00     0.049 A 
ATOM     67  H   UNL A   1      40.820  30.001  32.379  1.00  0.00     0.167 HD
ATOM     68  C   UNL A   1      42.197  30.325  34.840  1.00  0.00     0.074 A 
ATOM     69  C   UNL A   1      42.552  30.805  36.159  1.00  0.00     0.031 C 
ATOM     70  C   UNL A   1      42.852  29.336  34.187  1.00  0.00     0.037 A 
BRANCH  57  71
ATOM     71  C   UNL A   1      40.490  27.956  28.651  1.00  0.00     0.064 A 
ATOM     72  C   UNL A   1      41.245  28.346  27.533  1.00  0.00     0.173 A 
ATOM     73  C   UNL A   1      39.834  26.719  28.601  1.00  0.00     0.173 A 
ATOM     74  F   UNL A   1      41.879  29.528  27.525  1.00  0.00    -0.203 F 
ATOM     75  C   UNL A   1      41.320  27.537  26.403  1.00  0.00     0.198 A 
ATOM     76  C   UNL A   1      39.936  25.898  27.480  1.00  0.00     0.198 A 
ATOM     77  F   UNL A   1      39.103  26.297  29.644  1.00  0.00    -0.203 F 
ATOM     78  F   UNL A   1      42.010  27.950  25.332  1.00  0.00    -0.200 F 
ATOM     79  C   UNL A   1      40.674  26.311  26.380  1.00  0.00     0.200 A 
ATOM     80  F   UNL A   1      39.321  24.708  27.464  1.00  0.00    -0.200 F 
ATOM     81  F   UNL A   1      40.757  25.528  25.296  1.00  0.00    -0.200 F 
ENDBRANCH  57  71
BRANCH  58  82
ATOM     82  C   UNL A   1      39.635  33.793  36.719  1.00  0.00     0.064 A 
ATOM     83  C   UNL A   1      38.852  33.374  37.804  1.00  0.00     0.173 A 
ATOM     84  C   UNL A   1      40.262  35.044  36.812  1.00  0.00     0.173 A 
ATOM     85  F   UNL A   1      38.215  32.194  37.753  1.00  0.00    -0.203 F 
ATOM     86  C   UNL A   1      38.675  34.186  38.922  1.00  0.00     0.198 A 
ATOM     87  C   UNL A   1      40.109  35.843  37.944  1.00  0.00     0.198 A 
ATOM     88  F   UNL A   1      41.025  35.491  35.804  1.00  0.00    -0.203 F 
ATOM     89  F   UNL A   1      37.874  33.784  39.919  1.00  0.00    -0.200 F 
ATOM     90  C   UNL A   1      39.306  35.419  38.992  1.00  0.00     0.200 A 
ATOM     91  F   UNL A   1      40.728  37.029  38.014  1.00  0.00    -0.200 F 
ATOM     92  F   UNL A   1      39.131  36.202  40.065  1.00  0.00    -0.200 F 
ENDBRANCH  58  82
BRANCH  70  93
ATOM     93  C   UNL A   1      44.054  28.742  34.860  1.00  0.00     0.064 A 
ATOM     94  C   UNL A   1      43.953  27.614  35.685  1.00  0.00     0.173 A 
ATOM     95  C   UNL A   1      45.328  29.285  34.637  1.00  0.00     0.173 A 
ATOM     96  F   UNL A   1      42.754  27.068  35.941  1.00  0.00    -0.203 F 
ATOM     97  C   UNL A   1      45.084  27.063  36.281  1.00  0.00     0.198 A 
ATOM     98  C   UNL A   1      46.460  28.713  35.210  1.00  0.00     0.198 A 
ATOM     99  F   UNL A   1      45.476  30.361  33.849  1.00  0.00    -0.203 F 
ATOM    100  F   UNL A   1      44.961  26.009  37.102  1.00  0.00    -0.200 F 
ATOM    101  C   UNL A   1      46.337  27.607  36.037  1.00  0.00     0.200 A 
ATOM    102  F   UNL A   1      47.670  29.233  34.962  1.00  0.00    -0.200 F 
ATOM    103  F   UNL A   1      47.424  27.068  36.603  1.00  0.00    -0.200 F 
ENDBRANCH  70  93
ENDBRANCH  44  45
ENDBRANCH  36  39
ENDBRANCH  34  35
ENDBRANCH  33  34
ENDBRANCH  32  33
ENDBRANCH  31  32
ENDBRANCH  29  31
ENDBRANCH   1  27
TORSDOF 20
ENDMDL
MODEL 2
REMARK VINA RESULT:     -11.8      3.651      8.497
REMARK SMILES CCCCCCNC(=O)Oc1cccc(-c2ccc([C@@H](C)C(=O)NCCCCNC(=O)c3ccc(-c4c5nc(c(-c6c(F)c(F)c(F)c(F)c6F)c6ccc([nH]6)c(-c6c(F)c(F)c(F)c(F)c6F)c6nc(c(-c7c(F)c(F)c(F)c(F)c7F)c7ccc4[nH]7)C=C6)C=C5)cc3)cc2F)c1
REMARK SMILES IDX 20 1 21 2 19 3 16 4 17 5 96 6 18 7 95 8 97 9 15 10 11 11
REMARK SMILES IDX 12 12 98 13 13 14 14 15 10 16 8 17 7 18 9 20 6 21 5 22 4 23
REMARK SMILES IDX 3 24 2 25 1 26 22 27 23 28 24 29 25 31 26 32 27 33 28 34
REMARK SMILES IDX 29 35 30 36 31 38 32 39 33 40 94 41 34 42 93 43 35 44 36 45
REMARK SMILES IDX 37 46 87 47 38 48 92 49 86 50 88 51 39 52 91 53 85 54 84 55
REMARK SMILES IDX 40 57 72 58 52 59 71 60 53 61 56 62 70 63 89 64 54 65 55 66
REMARK SMILES IDX 69 68 90 69 57 70 41 71 42 72 50 73 43 74 44 75 48 76 51 77
REMARK SMILES IDX 45 78 46 79 49 80 47 81 73 82 74 83 82 84 75 85 76 86 80 87
REMARK SMILES IDX 83 88 77 89 78 90 81 91 79 92 58 93 59 94 67 95 60 96 61 97
REMARK SMILES IDX 65 98 68 99 62 100 63 101 66 102 64 103
REMARK H PARENT 7 19 24 30 29 37 88 56 56 67
REMARK Flexibility Score: inf
ROOT
ATOM      1  C   UNL A   1      29.233  28.063  22.798  1.00  0.00     0.105 C 
ATOM      2  C   UNL A   1      27.830  28.390  23.308  1.00  0.00     0.023 C 
ENDROOT
BRANCH   1   3
ATOM      3  C   UNL A   1      29.978  26.970  23.546  1.00  0.00    -0.033 A 
ATOM      4  C   UNL A   1      31.572  25.095  25.017  1.00  0.00     0.018 A 
ATOM      5  C   UNL A   1      30.319  25.529  25.481  1.00  0.00     0.012 A 
ATOM      6  C   UNL A   1      31.972  25.584  23.764  1.00  0.00     0.131 A 
ATOM      7  C   UNL A   1      29.522  26.415  24.744  1.00  0.00     0.005 A 
ATOM      8  C   UNL A   1      31.209  26.516  23.053  1.00  0.00     0.044 A 
ATOM      9  F   UNL A   1      33.118  25.170  23.201  1.00  0.00    -0.206 F 
BRANCH   4  10
ATOM     10  C   UNL A   1      32.417  24.196  25.839  1.00  0.00    -0.012 A 
ATOM     11  C   UNL A   1      34.590  23.289  26.463  1.00  0.00     0.133 A 
ATOM     12  C   UNL A   1      34.023  22.514  27.468  1.00  0.00     0.047 A 
ATOM     13  C   UNL A   1      33.809  24.116  25.653  1.00  0.00     0.056 A 
ATOM     14  C   UNL A   1      32.650  22.577  27.674  1.00  0.00     0.004 A 
ATOM     15  C   UNL A   1      31.860  23.400  26.863  1.00  0.00     0.009 A 
BRANCH  11  16
ATOM     16  O   UNL A   1      35.959  23.103  26.216  1.00  0.00    -0.410 OA
BRANCH  16  17
ATOM     17  C   UNL A   1      36.364  22.886  24.909  1.00  0.00     0.412 C 
ATOM     18  N   UNL A   1      36.095  21.617  24.473  1.00  0.00    -0.321 N 
ATOM     19  H   UNL A   1      36.364  21.399  23.552  1.00  0.00     0.167 HD
ATOM     20  O   UNL A   1      36.922  23.698  24.180  1.00  0.00    -0.224 OA
BRANCH  18  21
ATOM     21  C   UNL A   1      35.454  20.561  25.231  1.00  0.00     0.119 C 
BRANCH  21  22
ATOM     22  C   UNL A   1      34.106  20.162  24.631  1.00  0.00     0.021 C 
BRANCH  22  23
ATOM     23  C   UNL A   1      33.658  18.730  24.951  1.00  0.00     0.002 C 
BRANCH  23  24
ATOM     24  C   UNL A   1      34.419  17.620  24.217  1.00  0.00    -0.000 C 
BRANCH  24  25
ATOM     25  C   UNL A   1      33.584  16.399  23.822  1.00  0.00    -0.003 C 
ATOM     26  C   UNL A   1      33.188  15.532  25.008  1.00  0.00     0.004 C 
ENDBRANCH  24  25
ENDBRANCH  23  24
ENDBRANCH  22  23
ENDBRANCH  21  22
ENDBRANCH  18  21
ENDBRANCH  16  17
ENDBRANCH  11  16
ENDBRANCH   4  10
ENDBRANCH   1   3
BRANCH   1  27
ATOM     27  C   UNL A   1      30.095  29.303  22.508  1.00  0.00     0.227 C 
ATOM     28  O   UNL A   1      30.145  29.764  21.361  1.00  0.00    -0.274 OA
ATOM     29  N   UNL A   1      30.822  29.959  23.454  1.00  0.00    -0.356 N 
ATOM     30  H   UNL A   1      31.268  30.774  23.128  1.00  0.00     0.163 HD
BRANCH  29  31
ATOM     31  C   UNL A   1      31.056  29.673  24.853  1.00  0.00     0.116 C 
BRANCH  31  32
ATOM     32  C   UNL A   1      32.540  29.464  25.159  1.00  0.00     0.023 C 
BRANCH  32  33
ATOM     33  C   UNL A   1      32.851  28.276  26.065  1.00  0.00     0.023 C 
BRANCH  33  34
ATOM     34  C   UNL A   1      33.765  28.581  27.244  1.00  0.00     0.116 C 
BRANCH  34  35
ATOM     35  N   UNL A   1      33.736  29.970  27.680  1.00  0.00    -0.352 N 
ATOM     36  C   UNL A   1      34.759  30.703  28.239  1.00  0.00     0.251 C 
ATOM     37  H   UNL A   1      32.881  30.443  27.560  1.00  0.00     0.163 HD
ATOM     38  O   UNL A   1      34.573  31.850  28.627  1.00  0.00    -0.269 OA
BRANCH  36  39
ATOM     39  C   UNL A   1      36.078  30.062  28.413  1.00  0.00     0.039 A 
ATOM     40  C   UNL A   1      37.021  30.164  27.389  1.00  0.00     0.014 A 
ATOM     41  C   UNL A   1      36.404  29.437  29.619  1.00  0.00     0.014 A 
ATOM     42  C   UNL A   1      38.323  29.710  27.606  1.00  0.00     0.010 A 
ATOM     43  C   UNL A   1      37.720  29.059  29.861  1.00  0.00     0.010 A 
ATOM     44  C   UNL A   1      38.694  29.197  28.859  1.00  0.00    -0.014 A 
BRANCH  44  45
ATOM     45  C   UNL A   1      40.090  28.786  29.148  1.00  0.00     0.031 A 
ATOM     46  C   UNL A   1      41.006  29.724  29.882  1.00  0.00     0.074 A 
ATOM     47  C   UNL A   1      40.555  27.609  28.683  1.00  0.00     0.049 A 
ATOM     48  N   UNL A   1      42.285  29.606  30.137  1.00  0.00    -0.248 NA
ATOM     49  C   UNL A   1      40.412  30.979  30.369  1.00  0.00     0.031 C 
ATOM     50  C   UNL A   1      39.778  26.633  27.915  1.00  0.00     0.029 A 
ATOM     51  N   UNL A   1      41.800  27.039  28.778  1.00  0.00    -0.354 N 
ATOM     52  C   UNL A   1      42.646  30.773  30.795  1.00  0.00     0.074 A 
ATOM     53  C   UNL A   1      41.470  31.613  30.852  1.00  0.00     0.031 C 
ATOM     54  C   UNL A   1      40.556  25.578  27.628  1.00  0.00     0.029 A 
ATOM     55  C   UNL A   1      41.897  25.817  28.155  1.00  0.00     0.049 A 
ATOM     56  H   UNL A   1      42.553  27.465  29.246  1.00  0.00     0.167 HD
ATOM     57  C   UNL A   1      43.845  31.103  31.332  1.00  0.00     0.037 A 
ATOM     58  C   UNL A   1      42.951  24.991  28.021  1.00  0.00     0.037 A 
ATOM     59  C   UNL A   1      45.004  30.252  31.305  1.00  0.00     0.049 A 
ATOM     60  C   UNL A   1      44.273  25.385  28.627  1.00  0.00     0.074 A 
ATOM     61  C   UNL A   1      46.252  30.476  31.857  1.00  0.00     0.029 A 
ATOM     62  N   UNL A   1      45.051  29.007  30.697  1.00  0.00    -0.354 N 
ATOM     63  N   UNL A   1      44.587  26.466  29.297  1.00  0.00    -0.248 NA
ATOM     64  C   UNL A   1      45.385  24.437  28.463  1.00  0.00     0.031 C 
ATOM     65  C   UNL A   1      47.066  29.381  31.555  1.00  0.00     0.029 A 
ATOM     66  C   UNL A   1      46.311  28.454  30.853  1.00  0.00     0.049 A 
ATOM     67  H   UNL A   1      44.301  28.579  30.224  1.00  0.00     0.167 HD
ATOM     68  C   UNL A   1      45.918  26.314  29.665  1.00  0.00     0.074 A 
ATOM     69  C   UNL A   1      46.348  25.030  29.153  1.00  0.00     0.031 C 
ATOM     70  C   UNL A   1      46.712  27.162  30.361  1.00  0.00     0.037 A 
BRANCH  57  71
ATOM     71  C   UNL A   1      43.957  32.435  32.014  1.00  0.00     0.064 A 
ATOM     72  C   UNL A   1      44.329  33.588  31.304  1.00  0.00     0.173 A 
ATOM     73  C   UNL A   1      43.650  32.571  33.375  1.00  0.00     0.173 A 
ATOM     74  F   UNL A   1      44.648  33.508  30.004  1.00  0.00    -0.203 F 
ATOM     75  C   UNL A   1      44.409  34.825  31.940  1.00  0.00     0.198 A 
ATOM     76  C   UNL A   1      43.703  33.814  34.000  1.00  0.00     0.198 A 
ATOM     77  F   UNL A   1      43.286  31.501  34.097  1.00  0.00    -0.203 F 
ATOM     78  F   UNL A   1      44.808  35.903  31.253  1.00  0.00    -0.200 F 
ATOM     79  C   UNL A   1      44.087  34.938  33.284  1.00  0.00     0.200 A 
ATOM     80  F   UNL A   1      43.380  33.926  35.296  1.00  0.00    -0.200 F 
ATOM     81  F   UNL A   1      44.154  36.131  33.892  1.00  0.00    -0.200 F 
ENDBRANCH  57  71
BRANCH  58  82
ATOM     82  C   UNL A   1      42.806  23.695  27.304  1.00  0.00     0.064 A 
ATOM     83  C   UNL A   1      42.294  22.565  27.960  1.00  0.00     0.173 A 
ATOM     84  C   UNL A   1      43.203  23.548  25.968  1.00  0.00     0.173 A 
ATOM     85  F   UNL A   1      41.919  22.651  29.246  1.00  0.00    -0.203 F 
ATOM     86  C   UNL A   1      42.216  21.332  27.317  1.00  0.00     0.198 A 
ATOM     87  C   UNL A   1      43.097  22.321  25.317  1.00  0.00     0.198 A 
ATOM     88  F   UNL A   1      43.696  24.597  25.294  1.00  0.00    -0.203 F 
ATOM     89  F   UNL A   1      41.778  20.257  27.987  1.00  0.00    -0.200 F 
ATOM     90  C   UNL A   1      42.615  21.211  25.995  1.00  0.00     0.200 A 
ATOM     91  F   UNL A   1      43.473  22.209  24.035  1.00  0.00    -0.200 F 
ATOM     92  F   UNL A   1      42.545  20.023  25.379  1.00  0.00    -0.200 F 
ENDBRANCH  58  82
BRANCH  70  93
ATOM     93  C   UNL A   1      48.110  26.709  30.661  1.00  0.00     0.064 A 
ATOM     94  C   UNL A   1      49.191  27.063  29.842  1.00  0.00     0.173 A 
ATOM     95  C   UNL A   1      48.375  25.948  31.810  1.00  0.00     0.173 A 
ATOM     96  F   UNL A   1      48.987  27.777  28.724  1.00  0.00    -0.203 F 
ATOM     97  C   UNL A   1      50.485  26.653  30.151  1.00  0.00     0.198 A 
ATOM     98  C   UNL A   1      49.674  25.566  32.132  1.00  0.00     0.198 A 
ATOM     99  F   UNL A   1      47.374  25.590  32.629  1.00  0.00    -0.203 F 
ATOM    100  F   UNL A   1      51.499  26.967  29.331  1.00  0.00    -0.200 F 
ATOM    101  C   UNL A   1      50.727  25.913  31.299  1.00  0.00     0.200 A 
ATOM    102  F   UNL A   1      49.906  24.862  33.248  1.00  0.00    -0.200 F 
ATOM    103  F   UNL A   1      51.974  25.529  31.599  1.00  0.00    -0.200 F 
ENDBRANCH  70  93
ENDBRANCH  44  45
ENDBRANCH  36  39
ENDBRANCH  34  35
ENDBRANCH  33  34
ENDBRANCH  32  33
ENDBRANCH  31  32
ENDBRANCH  29  31
ENDBRANCH   1  27
TORSDOF 20
ENDMDL
MODEL 3
REMARK VINA RESULT:     -11.8      1.470      7.527
REMARK SMILES CCCCCCNC(=O)Oc1cccc(-c2ccc([C@@H](C)C(=O)NCCCCNC(=O)c3ccc(-c4c5nc(c(-c6c(F)c(F)c(F)c(F)c6F)c6ccc([nH]6)c(-c6c(F)c(F)c(F)c(F)c6F)c6nc(c(-c7c(F)c(F)c(F)c(F)c7F)c7ccc4[nH]7)C=C6)C=C5)cc3)cc2F)c1
REMARK SMILES IDX 20 1 21 2 19 3 16 4 17 5 96 6 18 7 95 8 97 9 15 10 11 11
REMARK SMILES IDX 12 12 98 13 13 14 14 15 10 16 8 17 7 18 9 20 6 21 5 22 4 23
REMARK SMILES IDX 3 24 2 25 1 26 22 27 23 28 24 29 25 31 26 32 27 33 28 34
REMARK SMILES IDX 29 35 30 36 31 38 32 39 33 40 94 41 34 42 93 43 35 44 36 45
REMARK SMILES IDX 37 46 87 47 38 48 92 49 86 50 88 51 39 52 91 53 85 54 84 55
REMARK SMILES IDX 40 57 72 58 52 59 71 60 53 61 56 62 70 63 89 64 54 65 55 66
REMARK SMILES IDX 69 68 90 69 57 70 41 71 42 72 50 73 43 74 44 75 48 76 51 77
REMARK SMILES IDX 45 78 46 79 49 80 47 81 73 82 74 83 82 84 75 85 76 86 80 87
REMARK SMILES IDX 83 88 77 89 78 90 81 91 79 92 58 93 59 94 67 95 60 96 61 97
REMARK SMILES IDX 65 98 68 99 62 100 63 101 66 102 64 103
REMARK H PARENT 7 19 24 30 29 37 88 56 56 67
REMARK Flexibility Score: inf
ROOT
ATOM      1  C   UNL A   1      29.248  30.055  22.348  1.00  0.00     0.105 C 
ATOM      2  C   UNL A   1      28.169  30.177  21.272  1.00  0.00     0.023 C 
ENDROOT
BRANCH   1   3
ATOM      3  C   UNL A   1      29.541  28.649  22.845  1.00  0.00    -0.033 A 
ATOM      4  C   UNL A   1      30.250  26.109  23.971  1.00  0.00     0.018 A 
ATOM      5  C   UNL A   1      28.944  26.623  24.060  1.00  0.00     0.012 A 
ATOM      6  C   UNL A   1      31.171  26.881  23.247  1.00  0.00     0.131 A 
ATOM      7  C   UNL A   1      28.588  27.846  23.475  1.00  0.00     0.005 A 
ATOM      8  C   UNL A   1      30.837  28.131  22.715  1.00  0.00     0.044 A 
ATOM      9  F   UNL A   1      32.422  26.440  23.043  1.00  0.00    -0.206 F 
BRANCH   4  10
ATOM     10  C   UNL A   1      30.612  24.837  24.641  1.00  0.00    -0.012 A 
ATOM     11  C   UNL A   1      31.752  22.684  24.658  1.00  0.00     0.133 A 
ATOM     12  C   UNL A   1      31.347  22.435  25.964  1.00  0.00     0.047 A 
ATOM     13  C   UNL A   1      31.392  23.860  23.996  1.00  0.00     0.056 A 
ATOM     14  C   UNL A   1      30.579  23.386  26.624  1.00  0.00     0.004 A 
ATOM     15  C   UNL A   1      30.209  24.565  25.966  1.00  0.00     0.009 A 
BRANCH  11  16
ATOM     16  O   UNL A   1      32.424  21.646  23.994  1.00  0.00    -0.410 OA
BRANCH  16  17
ATOM     17  C   UNL A   1      33.684  21.288  24.445  1.00  0.00     0.412 C 
ATOM     18  N   UNL A   1      33.779  19.959  24.757  1.00  0.00    -0.321 N 
ATOM     19  H   UNL A   1      34.650  19.643  25.088  1.00  0.00     0.167 HD
ATOM     20  O   UNL A   1      34.643  22.039  24.586  1.00  0.00    -0.224 OA
BRANCH  18  21
ATOM     21  C   UNL A   1      32.725  18.969  24.648  1.00  0.00     0.119 C 
BRANCH  21  22
ATOM     22  C   UNL A   1      32.675  18.336  23.257  1.00  0.00     0.021 C 
BRANCH  22  23
ATOM     23  C   UNL A   1      33.112  16.867  23.204  1.00  0.00     0.002 C 
BRANCH  23  24
ATOM     24  C   UNL A   1      34.501  16.571  23.781  1.00  0.00    -0.000 C 
BRANCH  24  25
ATOM     25  C   UNL A   1      34.513  15.815  25.112  1.00  0.00    -0.003 C 
ATOM     26  C   UNL A   1      33.136  15.333  25.543  1.00  0.00     0.004 C 
ENDBRANCH  24  25
ENDBRANCH  23  24
ENDBRANCH  22  23
ENDBRANCH  21  22
ENDBRANCH  18  21
ENDBRANCH  16  17
ENDBRANCH  11  16
ENDBRANCH   4  10
ENDBRANCH   1   3
BRANCH   1  27
ATOM     27  C   UNL A   1      29.118  31.089  23.479  1.00  0.00     0.227 C 
ATOM     28  O   UNL A   1      28.209  31.926  23.447  1.00  0.00    -0.274 OA
ATOM     29  N   UNL A   1      29.952  31.146  24.554  1.00  0.00    -0.356 N 
ATOM     30  H   UNL A   1      29.701  31.820  25.226  1.00  0.00     0.163 HD
BRANCH  29  31
ATOM     31  C   UNL A   1      31.143  30.392  24.886  1.00  0.00     0.116 C 
BRANCH  31  32
ATOM     32  C   UNL A   1      31.708  30.778  26.253  1.00  0.00     0.023 C 
BRANCH  32  33
ATOM     33  C   UNL A   1      31.399  32.204  26.700  1.00  0.00     0.023 C 
BRANCH  33  34
ATOM     34  C   UNL A   1      32.565  32.951  27.335  1.00  0.00     0.116 C 
BRANCH  34  35
ATOM     35  N   UNL A   1      32.276  34.340  27.667  1.00  0.00    -0.352 N 
ATOM     36  C   UNL A   1      32.921  35.142  28.581  1.00  0.00     0.251 C 
ATOM     37  H   UNL A   1      31.529  34.755  27.178  1.00  0.00     0.163 HD
ATOM     38  O   UNL A   1      32.525  36.279  28.810  1.00  0.00    -0.269 OA
BRANCH  36  39
ATOM     39  C   UNL A   1      34.074  34.591  29.321  1.00  0.00     0.039 A 
ATOM     40  C   UNL A   1      33.850  33.946  30.539  1.00  0.00     0.014 A 
ATOM     41  C   UNL A   1      35.355  34.641  28.769  1.00  0.00     0.014 A 
ATOM     42  C   UNL A   1      34.903  33.277  31.165  1.00  0.00     0.010 A 
ATOM     43  C   UNL A   1      36.382  33.908  29.352  1.00  0.00     0.010 A 
ATOM     44  C   UNL A   1      36.165  33.214  30.553  1.00  0.00    -0.014 A 
BRANCH  44  45
ATOM     45  C   UNL A   1      37.280  32.439  31.151  1.00  0.00     0.031 A 
ATOM     46  C   UNL A   1      37.791  32.801  32.517  1.00  0.00     0.074 A 
ATOM     47  C   UNL A   1      37.881  31.466  30.438  1.00  0.00     0.049 A 
ATOM     48  N   UNL A   1      38.822  32.327  33.171  1.00  0.00    -0.248 NA
ATOM     49  C   UNL A   1      37.066  33.864  33.232  1.00  0.00     0.031 C 
ATOM     50  C   UNL A   1      37.507  31.053  29.083  1.00  0.00     0.029 A 
ATOM     51  N   UNL A   1      38.944  30.654  30.750  1.00  0.00    -0.354 N 
ATOM     52  C   UNL A   1      38.875  33.041  34.360  1.00  0.00     0.074 A 
ATOM     53  C   UNL A   1      37.811  34.021  34.316  1.00  0.00     0.031 C 
ATOM     54  C   UNL A   1      38.313  30.053  28.690  1.00  0.00     0.029 A 
ATOM     55  C   UNL A   1      39.284  29.780  29.745  1.00  0.00     0.049 A 
ATOM     56  H   UNL A   1      39.418  30.696  31.611  1.00  0.00     0.167 HD
ATOM     57  C   UNL A   1      39.716  32.875  35.407  1.00  0.00     0.037 A 
ATOM     58  C   UNL A   1      40.273  28.868  29.684  1.00  0.00     0.037 A 
ATOM     59  C   UNL A   1      40.751  31.878  35.463  1.00  0.00     0.049 A 
ATOM     60  C   UNL A   1      41.195  28.707  30.864  1.00  0.00     0.074 A 
ATOM     61  C   UNL A   1      41.628  31.601  36.496  1.00  0.00     0.029 A 
ATOM     62  N   UNL A   1      41.040  30.988  34.440  1.00  0.00    -0.354 N 
ATOM     63  N   UNL A   1      41.199  29.350  32.006  1.00  0.00    -0.248 NA
ATOM     64  C   UNL A   1      42.247  27.686  30.748  1.00  0.00     0.031 C 
ATOM     65  C   UNL A   1      42.471  30.564  36.087  1.00  0.00     0.029 A 
ATOM     66  C   UNL A   1      42.089  30.165  34.815  1.00  0.00     0.049 A 
ATOM     67  H   UNL A   1      40.570  30.946  33.576  1.00  0.00     0.167 HD
ATOM     68  C   UNL A   1      42.225  28.790  32.756  1.00  0.00     0.074 A 
ATOM     69  C   UNL A   1      42.814  27.747  31.944  1.00  0.00     0.031 C 
ATOM     70  C   UNL A   1      42.643  29.113  34.004  1.00  0.00     0.037 A 
BRANCH  57  71
ATOM     71  C   UNL A   1      39.539  33.781  36.590  1.00  0.00     0.064 A 
ATOM     72  C   UNL A   1      38.772  33.392  37.700  1.00  0.00     0.173 A 
ATOM     73  C   UNL A   1      40.176  35.029  36.637  1.00  0.00     0.173 A 
ATOM     74  F   UNL A   1      38.130  32.214  37.697  1.00  0.00    -0.203 F 
ATOM     75  C   UNL A   1      38.632  34.230  38.803  1.00  0.00     0.198 A 
ATOM     76  C   UNL A   1      40.058  35.852  37.755  1.00  0.00     0.198 A 
ATOM     77  F   UNL A   1      40.924  35.447  35.605  1.00  0.00    -0.203 F 
ATOM     78  F   UNL A   1      37.859  33.855  39.831  1.00  0.00    -0.200 F 
ATOM     79  C   UNL A   1      39.281  35.454  38.834  1.00  0.00     0.200 A 
ATOM     80  F   UNL A   1      40.695  37.030  37.790  1.00  0.00    -0.200 F 
ATOM     81  F   UNL A   1      39.155  36.254  39.901  1.00  0.00    -0.200 F 
ENDBRANCH  57  71
BRANCH  58  82
ATOM     82  C   UNL A   1      40.437  28.015  28.476  1.00  0.00     0.064 A 
ATOM     83  C   UNL A   1      39.844  26.746  28.408  1.00  0.00     0.173 A 
ATOM     84  C   UNL A   1      41.212  28.432  27.385  1.00  0.00     0.173 A 
ATOM     85  F   UNL A   1      39.111  26.294  29.437  1.00  0.00    -0.203 F 
ATOM     86  C   UNL A   1      40.047  25.914  27.310  1.00  0.00     0.198 A 
ATOM     87  C   UNL A   1      41.389  27.611  26.273  1.00  0.00     0.198 A 
ATOM     88  F   UNL A   1      41.797  29.638  27.397  1.00  0.00    -0.203 F 
ATOM     89  F   UNL A   1      39.517  24.682  27.298  1.00  0.00    -0.200 F 
ATOM     90  C   UNL A   1      40.817  26.348  26.242  1.00  0.00     0.200 A 
ATOM     91  F   UNL A   1      42.125  28.037  25.237  1.00  0.00    -0.200 F 
ATOM     92  F   UNL A   1      41.017  25.544  25.187  1.00  0.00    -0.200 F 
ENDBRANCH  58  82
BRANCH  70  93
ATOM     93  C   UNL A   1      43.754  28.294  34.592  1.00  0.00     0.064 A 
ATOM     94  C   UNL A   1      45.093  28.700  34.506  1.00  0.00     0.173 A 
ATOM     95  C   UNL A   1      43.466  27.112  35.292  1.00  0.00     0.173 A 
ATOM     96  F   UNL A   1      45.420  29.814  33.835  1.00  0.00    -0.203 F 
ATOM     97  C   UNL A   1      46.107  27.939  35.081  1.00  0.00     0.198 A 
ATOM     98  C   UNL A   1      44.480  26.370  35.891  1.00  0.00     0.198 A 
ATOM     99  F   UNL A   1      42.199  26.687  35.408  1.00  0.00    -0.203 F 
ATOM    100  F   UNL A   1      47.385  28.321  34.950  1.00  0.00    -0.200 F 
ATOM    101  C   UNL A   1      45.800  26.780  35.779  1.00  0.00     0.200 A 
ATOM    102  F   UNL A   1      44.179  25.259  36.576  1.00  0.00    -0.200 F 
ATOM    103  F   UNL A   1      46.777  26.056  36.340  1.00  0.00    -0.200 F 
ENDBRANCH  70  93
ENDBRANCH  44  45
ENDBRANCH  36  39
ENDBRANCH  34  35
ENDBRANCH  33  34
ENDBRANCH  32  33
ENDBRANCH  31  32
ENDBRANCH  29  31
ENDBRANCH   1  27
TORSDOF 20
ENDMDL
