MODEL 1
REMARK VINA RESULT:     -12.2      0.000      0.000
REMARK SMILES O=C(NCCCCNC(=O)c1ccc(-c2c3nc(c(-c4c(F)c(F)c(F)c(F)c4F)c4ccc([nH]4)c(-c4c(F)c(F)c(F)c(F)c4F)c4nc(c(-c5c(F)c(F)c(F)c(F)c5F)c5ccc2[nH]5)C=C4)C=C3)cc1)C1=CCc2ccccc21
REMARK SMILES IDX 6 1 5 2 4 3 3 4 1 5 2 6 74 8 75 9 82 10 76 11 77 12 81 13
REMARK SMILES IDX 78 14 80 15 79 16 7 17 8 18 9 19 10 21 11 22 12 23 73 24
REMARK SMILES IDX 13 25 72 26 14 27 15 28 16 29 66 30 17 31 71 32 65 33 67 34
REMARK SMILES IDX 18 35 70 36 64 37 63 38 19 40 51 41 31 42 50 43 32 44 35 45
REMARK SMILES IDX 49 46 68 47 33 48 34 49 48 51 69 52 36 53 20 54 21 55 29 56
REMARK SMILES IDX 22 57 23 58 27 59 30 60 24 61 25 62 28 63 26 64 52 65 53 66
REMARK SMILES IDX 61 67 54 68 55 69 59 70 62 71 56 72 57 73 60 74 58 75 37 76
REMARK SMILES IDX 38 77 46 78 39 79 40 80 44 81 47 82 41 83 42 84 45 85 43 86
REMARK H PARENT 3 7 8 20 67 39 35 50
REMARK Flexibility Score: inf
ROOT
ATOM      1  C   UNL A   1      31.047  32.213  26.480  1.00  0.00     0.023 C 
ENDROOT
BRANCH   1   2
ATOM      2  C   UNL A   1      30.997  31.105  25.425  1.00  0.00     0.023 C 
BRANCH   2   3
ATOM      3  C   UNL A   1      31.926  29.920  25.717  1.00  0.00     0.116 C 
BRANCH   3   4
ATOM      4  N   UNL A   1      32.912  29.654  24.678  1.00  0.00    -0.352 N 
ATOM      5  O   UNL A   1      33.703  28.947  22.683  1.00  0.00    -0.269 OA
ATOM      6  C   UNL A   1      32.768  29.021  23.473  1.00  0.00     0.251 C 
ATOM      7  H   UNL A   1      33.821  29.980  24.871  1.00  0.00     0.163 HD
BRANCH   6   8
ATOM      8  C   UNL A   1      31.484  28.349  23.225  1.00  0.00     0.043 C 
ATOM      9  C   UNL A   1      31.195  27.191  23.848  1.00  0.00    -0.008 C 
ATOM     10  C   UNL A   1      30.244  28.931  22.734  1.00  0.00    -0.010 A 
ATOM     11  C   UNL A   1      29.713  26.929  23.891  1.00  0.00     0.064 C 
ATOM     12  C   UNL A   1      29.181  28.159  23.217  1.00  0.00    -0.036 A 
ATOM     13  C   UNL A   1      30.019  30.077  21.989  1.00  0.00     0.009 A 
ATOM     14  C   UNL A   1      27.871  28.579  23.073  1.00  0.00     0.004 A 
ATOM     15  C   UNL A   1      28.698  30.491  21.806  1.00  0.00     0.001 A 
ATOM     16  C   UNL A   1      27.636  29.765  22.371  1.00  0.00     0.000 A 
ENDBRANCH   6   8
ENDBRANCH   3   4
ENDBRANCH   2   3
ENDBRANCH   1   2
BRANCH   1  17
ATOM     17  C   UNL A   1      32.437  32.588  26.980  1.00  0.00     0.116 C 
BRANCH  17  18
ATOM     18  N   UNL A   1      32.564  33.945  27.482  1.00  0.00    -0.352 N 
ATOM     19  C   UNL A   1      33.566  34.423  28.305  1.00  0.00     0.251 C 
ATOM     20  H   UNL A   1      31.869  34.587  27.210  1.00  0.00     0.163 HD
ATOM     21  O   UNL A   1      33.542  35.566  28.747  1.00  0.00    -0.269 OA
BRANCH  19  22
ATOM     22  C   UNL A   1      34.658  33.498  28.687  1.00  0.00     0.039 A 
ATOM     23  C   UNL A   1      35.987  33.894  28.510  1.00  0.00     0.014 A 
ATOM     24  C   UNL A   1      34.361  32.288  29.318  1.00  0.00     0.014 A 
ATOM     25  C   UNL A   1      37.017  33.119  29.055  1.00  0.00     0.010 A 
ATOM     26  C   UNL A   1      35.380  31.557  29.919  1.00  0.00     0.010 A 
ATOM     27  C   UNL A   1      36.718  31.972  29.808  1.00  0.00    -0.014 A 
BRANCH  27  28
ATOM     28  C   UNL A   1      37.771  31.188  30.508  1.00  0.00     0.031 A 
ATOM     29  C   UNL A   1      38.088  31.485  31.947  1.00  0.00     0.074 A 
ATOM     30  C   UNL A   1      38.520  30.300  29.823  1.00  0.00     0.049 A 
ATOM     31  N   UNL A   1      39.081  31.055  32.684  1.00  0.00    -0.248 NA
ATOM     32  C   UNL A   1      37.190  32.422  32.639  1.00  0.00     0.031 C 
ATOM     33  C   UNL A   1      38.349  29.954  28.411  1.00  0.00     0.029 A 
ATOM     34  N   UNL A   1      39.600  29.546  30.217  1.00  0.00    -0.354 N 
ATOM     35  C   UNL A   1      38.949  31.699  33.907  1.00  0.00     0.074 A 
ATOM     36  C   UNL A   1      37.798  32.569  33.807  1.00  0.00     0.031 C 
ATOM     37  C   UNL A   1      39.283  29.055  28.060  1.00  0.00     0.029 A 
ATOM     38  C   UNL A   1      40.145  28.790  29.208  1.00  0.00     0.049 A 
ATOM     39  H   UNL A   1      39.949  29.547  31.138  1.00  0.00     0.167 HD
ATOM     40  C   UNL A   1      39.712  31.563  35.018  1.00  0.00     0.037 A 
ATOM     41  C   UNL A   1      41.229  27.988  29.204  1.00  0.00     0.037 A 
ATOM     42  C   UNL A   1      40.815  30.649  35.138  1.00  0.00     0.049 A 
ATOM     43  C   UNL A   1      42.034  27.829  30.468  1.00  0.00     0.074 A 
ATOM     44  C   UNL A   1      41.592  30.379  36.252  1.00  0.00     0.029 A 
ATOM     45  N   UNL A   1      41.292  29.850  34.112  1.00  0.00    -0.354 N 
ATOM     46  N   UNL A   1      41.857  28.393  31.637  1.00  0.00    -0.248 NA
ATOM     47  C   UNL A   1      43.188  26.919  30.411  1.00  0.00     0.031 C 
ATOM     48  C   UNL A   1      42.559  29.437  35.891  1.00  0.00     0.029 A 
ATOM     49  C   UNL A   1      42.360  29.093  34.564  1.00  0.00     0.049 A 
ATOM     50  H   UNL A   1      40.927  29.824  33.199  1.00  0.00     0.167 HD
ATOM     51  C   UNL A   1      42.849  27.878  32.462  1.00  0.00     0.074 A 
ATOM     52  C   UNL A   1      43.624  26.954  31.663  1.00  0.00     0.031 C 
ATOM     53  C   UNL A   1      43.094  28.148  33.766  1.00  0.00     0.037 A 
BRANCH  40  54
ATOM     54  C   UNL A   1      39.377  32.415  36.205  1.00  0.00     0.064 A 
ATOM     55  C   UNL A   1      38.449  31.998  37.170  1.00  0.00     0.173 A 
ATOM     56  C   UNL A   1      40.041  33.633  36.413  1.00  0.00     0.173 A 
ATOM     57  F   UNL A   1      37.780  30.847  37.011  1.00  0.00    -0.203 F 
ATOM     58  C   UNL A   1      38.186  32.778  38.293  1.00  0.00     0.198 A 
ATOM     59  C   UNL A   1      39.796  34.397  37.551  1.00  0.00     0.198 A 
ATOM     60  F   UNL A   1      40.943  34.072  35.522  1.00  0.00    -0.203 F 
ATOM     61  F   UNL A   1      37.271  32.377  39.187  1.00  0.00    -0.200 F 
ATOM     62  C   UNL A   1      38.867  33.971  38.488  1.00  0.00     0.200 A 
ATOM     63  F   UNL A   1      40.464  35.544  37.742  1.00  0.00    -0.200 F 
ATOM     64  F   UNL A   1      38.622  34.714  39.576  1.00  0.00    -0.200 F 
ENDBRANCH  40  54
BRANCH  41  65
ATOM     65  C   UNL A   1      41.622  27.258  27.969  1.00  0.00     0.064 A 
ATOM     66  C   UNL A   1      41.182  25.946  27.741  1.00  0.00     0.173 A 
ATOM     67  C   UNL A   1      42.474  27.837  27.017  1.00  0.00     0.173 A 
ATOM     68  F   UNL A   1      40.386  25.344  28.635  1.00  0.00    -0.203 F 
ATOM     69  C   UNL A   1      41.605  25.229  26.624  1.00  0.00     0.198 A 
ATOM     70  C   UNL A   1      42.873  27.127  25.885  1.00  0.00     0.198 A 
ATOM     71  F   UNL A   1      42.920  29.089  27.187  1.00  0.00    -0.203 F 
ATOM     72  F   UNL A   1      41.216  23.958  26.461  1.00  0.00    -0.200 F 
ATOM     73  C   UNL A   1      42.448  25.821  25.695  1.00  0.00     0.200 A 
ATOM     74  F   UNL A   1      43.680  27.706  24.985  1.00  0.00    -0.200 F 
ATOM     75  F   UNL A   1      42.860  25.129  24.624  1.00  0.00    -0.200 F 
ENDBRANCH  41  65
BRANCH  53  76
ATOM     76  C   UNL A   1      44.204  27.395  34.435  1.00  0.00     0.064 A 
ATOM     77  C   UNL A   1      45.485  27.944  34.577  1.00  0.00     0.173 A 
ATOM     78  C   UNL A   1      43.958  26.135  35.002  1.00  0.00     0.173 A 
ATOM     79  F   UNL A   1      45.772  29.139  34.040  1.00  0.00    -0.203 F 
ATOM     80  C   UNL A   1      46.486  27.251  35.254  1.00  0.00     0.198 A 
ATOM     81  C   UNL A   1      44.953  25.457  35.698  1.00  0.00     0.198 A 
ATOM     82  F   UNL A   1      42.745  25.572  34.895  1.00  0.00    -0.203 F 
ATOM     83  F   UNL A   1      47.713  27.779  35.354  1.00  0.00    -0.200 F 
ATOM     84  C   UNL A   1      46.217  26.014  35.822  1.00  0.00     0.200 A 
ATOM     85  F   UNL A   1      44.687  24.267  36.255  1.00  0.00    -0.200 F 
ATOM     86  F   UNL A   1      47.178  25.356  36.484  1.00  0.00    -0.200 F 
ENDBRANCH  53  76
ENDBRANCH  27  28
ENDBRANCH  19  22
ENDBRANCH  17  18
ENDBRANCH   1  17
TORSDOF 11
ENDMDL
MODEL 2
REMARK VINA RESULT:     -12.2      1.111      1.777
REMARK SMILES O=C(NCCCCNC(=O)c1ccc(-c2c3nc(c(-c4c(F)c(F)c(F)c(F)c4F)c4ccc([nH]4)c(-c4c(F)c(F)c(F)c(F)c4F)c4nc(c(-c5c(F)c(F)c(F)c(F)c5F)c5ccc2[nH]5)C=C4)C=C3)cc1)C1=CCc2ccccc21
REMARK SMILES IDX 6 1 5 2 4 3 3 4 1 5 2 6 74 8 75 9 82 10 76 11 77 12 81 13
REMARK SMILES IDX 78 14 80 15 79 16 7 17 8 18 9 19 10 21 11 22 12 23 73 24
REMARK SMILES IDX 13 25 72 26 14 27 15 28 16 29 66 30 17 31 71 32 65 33 67 34
REMARK SMILES IDX 18 35 70 36 64 37 63 38 19 40 51 41 31 42 50 43 32 44 35 45
REMARK SMILES IDX 49 46 68 47 33 48 34 49 48 51 69 52 36 53 20 54 21 55 29 56
REMARK SMILES IDX 22 57 23 58 27 59 30 60 24 61 25 62 28 63 26 64 52 65 53 66
REMARK SMILES IDX 61 67 54 68 55 69 59 70 62 71 56 72 57 73 60 74 58 75 37 76
REMARK SMILES IDX 38 77 46 78 39 79 40 80 44 81 47 82 41 83 42 84 45 85 43 86
REMARK H PARENT 3 7 8 20 67 39 35 50
REMARK Flexibility Score: inf
ROOT
ATOM      1  C   UNL A   1      31.634  31.962  26.872  1.00  0.00     0.023 C 
ENDROOT
BRANCH   1   2
ATOM      2  C   UNL A   1      31.969  30.475  26.719  1.00  0.00     0.023 C 
BRANCH   2   3
ATOM      3  C   UNL A   1      31.552  29.877  25.369  1.00  0.00     0.116 C 
BRANCH   3   4
ATOM      4  N   UNL A   1      32.509  28.932  24.806  1.00  0.00    -0.352 N 
ATOM      5  O   UNL A   1      33.275  27.296  23.450  1.00  0.00    -0.269 OA
ATOM      6  C   UNL A   1      32.329  27.960  23.860  1.00  0.00     0.251 C 
ATOM      7  H   UNL A   1      33.425  29.005  25.161  1.00  0.00     0.163 HD
BRANCH   6   8
ATOM      8  C   UNL A   1      30.946  27.684  23.446  1.00  0.00     0.043 C 
ATOM      9  C   UNL A   1      30.247  26.696  24.036  1.00  0.00    -0.008 C 
ATOM     10  C   UNL A   1      30.010  28.580  22.784  1.00  0.00    -0.010 A 
ATOM     11  C   UNL A   1      28.762  26.885  23.879  1.00  0.00     0.064 C 
ATOM     12  C   UNL A   1      28.712  28.180  23.125  1.00  0.00    -0.036 A 
ATOM     13  C   UNL A   1      30.234  29.701  22.003  1.00  0.00     0.009 A 
ATOM     14  C   UNL A   1      27.617  28.960  22.798  1.00  0.00     0.004 A 
ATOM     15  C   UNL A   1      29.131  30.476  21.635  1.00  0.00     0.001 A 
ATOM     16  C   UNL A   1      27.838  30.124  22.058  1.00  0.00     0.000 A 
ENDBRANCH   6   8
ENDBRANCH   3   4
ENDBRANCH   2   3
ENDBRANCH   1   2
BRANCH   1  17
ATOM     17  C   UNL A   1      32.780  32.854  27.332  1.00  0.00     0.116 C 
BRANCH  17  18
ATOM     18  N   UNL A   1      32.409  34.227  27.631  1.00  0.00    -0.352 N 
ATOM     19  C   UNL A   1      32.966  35.031  28.606  1.00  0.00     0.251 C 
ATOM     20  H   UNL A   1      31.691  34.622  27.086  1.00  0.00     0.163 HD
ATOM     21  O   UNL A   1      32.526  36.151  28.842  1.00  0.00    -0.269 OA
BRANCH  19  22
ATOM     22  C   UNL A   1      34.087  34.486  29.407  1.00  0.00     0.039 A 
ATOM     23  C   UNL A   1      33.814  33.796  30.591  1.00  0.00     0.014 A 
ATOM     24  C   UNL A   1      35.395  34.570  28.925  1.00  0.00     0.014 A 
ATOM     25  C   UNL A   1      34.842  33.104  31.240  1.00  0.00     0.010 A 
ATOM     26  C   UNL A   1      36.401  33.826  29.533  1.00  0.00     0.010 A 
ATOM     27  C   UNL A   1      36.133  33.071  30.687  1.00  0.00    -0.014 A 
BRANCH  27  28
ATOM     28  C   UNL A   1      37.226  32.251  31.276  1.00  0.00     0.031 A 
ATOM     29  C   UNL A   1      37.747  32.578  32.647  1.00  0.00     0.074 A 
ATOM     30  C   UNL A   1      37.828  31.296  30.538  1.00  0.00     0.049 A 
ATOM     31  N   UNL A   1      38.803  32.116  33.267  1.00  0.00    -0.248 NA
ATOM     32  C   UNL A   1      37.000  33.591  33.411  1.00  0.00     0.031 C 
ATOM     33  C   UNL A   1      37.452  30.913  29.176  1.00  0.00     0.029 A 
ATOM     34  N   UNL A   1      38.907  30.493  30.820  1.00  0.00    -0.354 N 
ATOM     35  C   UNL A   1      38.869  32.809  34.468  1.00  0.00     0.074 A 
ATOM     36  C   UNL A   1      37.765  33.742  34.482  1.00  0.00     0.031 C 
ATOM     37  C   UNL A   1      38.281  29.947  28.745  1.00  0.00     0.029 A 
ATOM     38  C   UNL A   1      39.272  29.672  29.780  1.00  0.00     0.049 A 
ATOM     39  H   UNL A   1      39.375  30.506  31.686  1.00  0.00     0.167 HD
ATOM     40  C   UNL A   1      39.764  32.667  35.475  1.00  0.00     0.037 A 
ATOM     41  C   UNL A   1      40.300  28.807  29.669  1.00  0.00     0.037 A 
ATOM     42  C   UNL A   1      40.823  31.693  35.489  1.00  0.00     0.049 A 
ATOM     43  C   UNL A   1      41.256  28.644  30.823  1.00  0.00     0.074 A 
ATOM     44  C   UNL A   1      41.724  31.416  36.502  1.00  0.00     0.029 A 
ATOM     45  N   UNL A   1      41.115  30.832  34.444  1.00  0.00    -0.354 N 
ATOM     46  N   UNL A   1      41.266  29.258  31.981  1.00  0.00    -0.248 NA
ATOM     47  C   UNL A   1      42.341  27.665  30.655  1.00  0.00     0.031 C 
ATOM     48  C   UNL A   1      42.582  30.406  36.059  1.00  0.00     0.029 A 
ATOM     49  C   UNL A   1      42.191  30.029  34.785  1.00  0.00     0.049 A 
ATOM     50  H   UNL A   1      40.631  30.796  33.588  1.00  0.00     0.167 HD
ATOM     51  C   UNL A   1      42.329  28.714  32.691  1.00  0.00     0.074 A 
ATOM     52  C   UNL A   1      42.940  27.718  31.837  1.00  0.00     0.031 C 
ATOM     53  C   UNL A   1      42.760  29.014  33.939  1.00  0.00     0.037 A 
BRANCH  40  54
ATOM     54  C   UNL A   1      39.637  33.578  36.658  1.00  0.00     0.064 A 
ATOM     55  C   UNL A   1      40.292  34.817  36.705  1.00  0.00     0.173 A 
ATOM     56  C   UNL A   1      38.798  33.236  37.729  1.00  0.00     0.173 A 
ATOM     57  F   UNL A   1      41.113  35.184  35.711  1.00  0.00    -0.203 F 
ATOM     58  C   UNL A   1      40.124  35.674  37.789  1.00  0.00     0.198 A 
ATOM     59  C   UNL A   1      38.611  34.107  38.798  1.00  0.00     0.198 A 
ATOM     60  F   UNL A   1      38.144  32.064  37.728  1.00  0.00    -0.203 F 
ATOM     61  F   UNL A   1      40.785  36.839  37.829  1.00  0.00    -0.200 F 
ATOM     62  C   UNL A   1      39.276  35.323  38.830  1.00  0.00     0.200 A 
ATOM     63  F   UNL A   1      37.782  33.770  39.797  1.00  0.00    -0.200 F 
ATOM     64  F   UNL A   1      39.105  36.156  39.866  1.00  0.00    -0.200 F 
ENDBRANCH  40  54
BRANCH  41  65
ATOM     65  C   UNL A   1      40.486  28.012  28.426  1.00  0.00     0.064 A 
ATOM     66  C   UNL A   1      39.921  26.735  28.301  1.00  0.00     0.173 A 
ATOM     67  C   UNL A   1      41.260  28.492  27.359  1.00  0.00     0.173 A 
ATOM     68  F   UNL A   1      39.193  26.225  29.304  1.00  0.00    -0.203 F 
ATOM     69  C   UNL A   1      40.151  25.954  27.170  1.00  0.00     0.198 A 
ATOM     70  C   UNL A   1      41.466  27.720  26.217  1.00  0.00     0.198 A 
ATOM     71  F   UNL A   1      41.819  29.708  27.428  1.00  0.00    -0.203 F 
ATOM     72  F   UNL A   1      39.648  24.714  27.103  1.00  0.00    -0.200 F 
ATOM     73  C   UNL A   1      40.921  26.448  26.128  1.00  0.00     0.200 A 
ATOM     74  F   UNL A   1      42.202  28.205  25.207  1.00  0.00    -0.200 F 
ATOM     75  F   UNL A   1      41.147  25.694  25.043  1.00  0.00    -0.200 F 
ENDBRANCH  41  65
BRANCH  53  76
ATOM     76  C   UNL A   1      43.906  28.220  34.489  1.00  0.00     0.064 A 
ATOM     77  C   UNL A   1      45.227  28.675  34.399  1.00  0.00     0.173 A 
ATOM     78  C   UNL A   1      43.665  27.020  35.175  1.00  0.00     0.173 A 
ATOM     79  F   UNL A   1      45.508  29.809  33.740  1.00  0.00    -0.203 F 
ATOM     80  C   UNL A   1      46.271  27.950  34.969  1.00  0.00     0.198 A 
ATOM     81  C   UNL A   1      44.707  26.311  35.763  1.00  0.00     0.198 A 
ATOM     82  F   UNL A   1      42.414  26.547  35.291  1.00  0.00    -0.203 F 
ATOM     83  F   UNL A   1      47.532  28.387  34.847  1.00  0.00    -0.200 F 
ATOM     84  C   UNL A   1      46.009  26.775  35.658  1.00  0.00     0.200 A 
ATOM     85  F   UNL A   1      44.450  25.182  36.439  1.00  0.00    -0.200 F 
ATOM     86  F   UNL A   1      47.014  26.086  36.217  1.00  0.00    -0.200 F 
ENDBRANCH  53  76
ENDBRANCH  27  28
ENDBRANCH  19  22
ENDBRANCH  17  18
ENDBRANCH   1  17
TORSDOF 11
ENDMDL
MODEL 3
REMARK VINA RESULT:     -12.1      4.482      9.145
REMARK SMILES O=C(NCCCCNC(=O)c1ccc(-c2c3nc(c(-c4c(F)c(F)c(F)c(F)c4F)c4ccc([nH]4)c(-c4c(F)c(F)c(F)c(F)c4F)c4nc(c(-c5c(F)c(F)c(F)c(F)c5F)c5ccc2[nH]5)C=C4)C=C3)cc1)C1=CCc2ccccc21
REMARK SMILES IDX 6 1 5 2 4 3 3 4 1 5 2 6 74 8 75 9 82 10 76 11 77 12 81 13
REMARK SMILES IDX 78 14 80 15 79 16 7 17 8 18 9 19 10 21 11 22 12 23 73 24
REMARK SMILES IDX 13 25 72 26 14 27 15 28 16 29 66 30 17 31 71 32 65 33 67 34
REMARK SMILES IDX 18 35 70 36 64 37 63 38 19 40 51 41 31 42 50 43 32 44 35 45
REMARK SMILES IDX 49 46 68 47 33 48 34 49 48 51 69 52 36 53 20 54 21 55 29 56
REMARK SMILES IDX 22 57 23 58 27 59 30 60 24 61 25 62 28 63 26 64 52 65 53 66
REMARK SMILES IDX 61 67 54 68 55 69 59 70 62 71 56 72 57 73 60 74 58 75 37 76
REMARK SMILES IDX 38 77 46 78 39 79 40 80 44 81 47 82 41 83 42 84 45 85 43 86
REMARK H PARENT 3 7 8 20 67 39 35 50
REMARK Flexibility Score: inf
ROOT
ATOM      1  C   UNL A   1      35.901  23.279  26.020  1.00  0.00     0.023 C 
ENDROOT
BRANCH   1   2
ATOM      2  C   UNL A   1      35.593  21.793  26.220  1.00  0.00     0.023 C 
BRANCH   2   3
ATOM      3  C   UNL A   1      34.272  21.521  26.952  1.00  0.00     0.116 C 
BRANCH   3   4
ATOM      4  N   UNL A   1      33.493  20.419  26.402  1.00  0.00    -0.352 N 
ATOM      5  O   UNL A   1      31.984  19.390  25.072  1.00  0.00    -0.269 OA
ATOM      6  C   UNL A   1      32.487  20.434  25.473  1.00  0.00     0.251 C 
ATOM      7  H   UNL A   1      33.725  19.528  26.752  1.00  0.00     0.163 HD
BRANCH   6   8
ATOM      8  C   UNL A   1      31.975  21.750  25.069  1.00  0.00     0.043 C 
ATOM      9  C   UNL A   1      31.042  22.372  25.814  1.00  0.00    -0.008 C 
ATOM     10  C   UNL A   1      32.611  22.737  24.208  1.00  0.00    -0.010 A 
ATOM     11  C   UNL A   1      31.020  23.857  25.566  1.00  0.00     0.064 C 
ATOM     12  C   UNL A   1      32.133  24.002  24.572  1.00  0.00    -0.036 A 
ATOM     13  C   UNL A   1      33.583  22.589  23.232  1.00  0.00     0.009 A 
ATOM     14  C   UNL A   1      32.700  25.153  24.056  1.00  0.00     0.004 A 
ATOM     15  C   UNL A   1      34.136  23.746  22.678  1.00  0.00     0.001 A 
ATOM     16  C   UNL A   1      33.721  25.016  23.111  1.00  0.00     0.000 A 
ENDBRANCH   6   8
ENDBRANCH   3   4
ENDBRANCH   2   3
ENDBRANCH   1   2
BRANCH   1  17
ATOM     17  C   UNL A   1      37.186  23.592  25.264  1.00  0.00     0.116 C 
BRANCH  17  18
ATOM     18  N   UNL A   1      38.299  22.704  25.551  1.00  0.00    -0.352 N 
ATOM     19  C   UNL A   1      39.438  23.023  26.265  1.00  0.00     0.251 C 
ATOM     20  H   UNL A   1      38.237  21.786  25.202  1.00  0.00     0.163 HD
ATOM     21  O   UNL A   1      40.365  22.229  26.382  1.00  0.00    -0.269 OA
BRANCH  19  22
ATOM     22  C   UNL A   1      39.539  24.380  26.852  1.00  0.00     0.039 A 
ATOM     23  C   UNL A   1      39.063  24.605  28.146  1.00  0.00     0.014 A 
ATOM     24  C   UNL A   1      40.203  25.394  26.157  1.00  0.00     0.014 A 
ATOM     25  C   UNL A   1      39.339  25.821  28.782  1.00  0.00     0.010 A 
ATOM     26  C   UNL A   1      40.535  26.574  26.815  1.00  0.00     0.010 A 
ATOM     27  C   UNL A   1      40.122  26.794  28.139  1.00  0.00    -0.014 A 
BRANCH  27  28
ATOM     28  C   UNL A   1      40.543  28.048  28.821  1.00  0.00     0.031 A 
ATOM     29  C   UNL A   1      41.935  28.163  29.375  1.00  0.00     0.074 A 
ATOM     30  C   UNL A   1      39.645  29.028  29.049  1.00  0.00     0.049 A 
ATOM     31  N   UNL A   1      42.445  29.081  30.157  1.00  0.00    -0.248 NA
ATOM     32  C   UNL A   1      42.871  27.079  29.035  1.00  0.00     0.031 C 
ATOM     33  C   UNL A   1      38.249  29.021  28.608  1.00  0.00     0.029 A 
ATOM     34  N   UNL A   1      39.766  30.212  29.737  1.00  0.00    -0.354 N 
ATOM     35  C   UNL A   1      43.740  28.664  30.434  1.00  0.00     0.074 A 
ATOM     36  C   UNL A   1      43.932  27.400  29.761  1.00  0.00     0.031 C 
ATOM     37  C   UNL A   1      37.647  30.145  29.029  1.00  0.00     0.029 A 
ATOM     38  C   UNL A   1      38.599  30.934  29.805  1.00  0.00     0.049 A 
ATOM     39  H   UNL A   1      40.611  30.514  30.142  1.00  0.00     0.167 HD
ATOM     40  C   UNL A   1      44.688  29.291  31.172  1.00  0.00     0.037 A 
ATOM     41  C   UNL A   1      38.323  32.092  30.438  1.00  0.00     0.037 A 
ATOM     42  C   UNL A   1      44.517  30.580  31.787  1.00  0.00     0.049 A 
ATOM     43  C   UNL A   1      39.411  32.783  31.219  1.00  0.00     0.074 A 
ATOM     44  C   UNL A   1      45.449  31.332  32.479  1.00  0.00     0.029 A 
ATOM     45  N   UNL A   1      43.340  31.309  31.773  1.00  0.00    -0.354 N 
ATOM     46  N   UNL A   1      40.652  32.412  31.415  1.00  0.00    -0.248 NA
ATOM     47  C   UNL A   1      39.059  34.058  31.863  1.00  0.00     0.031 C 
ATOM     48  C   UNL A   1      44.827  32.507  32.912  1.00  0.00     0.029 A 
ATOM     49  C   UNL A   1      43.519  32.502  32.456  1.00  0.00     0.049 A 
ATOM     50  H   UNL A   1      42.502  31.025  31.344  1.00  0.00     0.167 HD
ATOM     51  C   UNL A   1      41.237  33.420  32.169  1.00  0.00     0.074 A 
ATOM     52  C   UNL A   1      40.219  34.423  32.393  1.00  0.00     0.031 C 
ATOM     53  C   UNL A   1      42.506  33.507  32.634  1.00  0.00     0.037 A 
BRANCH  40  54
ATOM     54  C   UNL A   1      46.005  28.599  31.351  1.00  0.00     0.064 A 
ATOM     55  C   UNL A   1      46.232  27.716  32.417  1.00  0.00     0.173 A 
ATOM     56  C   UNL A   1      47.030  28.772  30.410  1.00  0.00     0.173 A 
ATOM     57  F   UNL A   1      45.288  27.526  33.349  1.00  0.00    -0.203 F 
ATOM     58  C   UNL A   1      47.444  27.043  32.542  1.00  0.00     0.198 A 
ATOM     59  C   UNL A   1      48.231  28.077  30.522  1.00  0.00     0.198 A 
ATOM     60  F   UNL A   1      46.860  29.601  29.368  1.00  0.00    -0.203 F 
ATOM     61  F   UNL A   1      47.653  26.229  33.586  1.00  0.00    -0.200 F 
ATOM     62  C   UNL A   1      48.439  27.216  31.590  1.00  0.00     0.200 A 
ATOM     63  F   UNL A   1      49.186  28.237  29.595  1.00  0.00    -0.200 F 
ATOM     64  F   UNL A   1      49.600  26.557  31.704  1.00  0.00    -0.200 F 
ENDBRANCH  40  54
BRANCH  41  65
ATOM     65  C   UNL A   1      36.964  32.690  30.358  1.00  0.00     0.064 A 
ATOM     66  C   UNL A   1      36.596  33.493  29.269  1.00  0.00     0.173 A 
ATOM     67  C   UNL A   1      36.022  32.506  31.381  1.00  0.00     0.173 A 
ATOM     68  F   UNL A   1      37.471  33.716  28.278  1.00  0.00    -0.203 F 
ATOM     69  C   UNL A   1      35.351  34.116  29.222  1.00  0.00     0.198 A 
ATOM     70  C   UNL A   1      34.767  33.108  31.319  1.00  0.00     0.198 A 
ATOM     71  F   UNL A   1      36.324  31.745  32.443  1.00  0.00    -0.203 F 
ATOM     72  F   UNL A   1      35.049  34.925  28.198  1.00  0.00    -0.200 F 
ATOM     73  C   UNL A   1      34.436  33.921  30.245  1.00  0.00     0.200 A 
ATOM     74  F   UNL A   1      33.881  32.909  32.305  1.00  0.00    -0.200 F 
ATOM     75  F   UNL A   1      33.241  34.526  30.203  1.00  0.00    -0.200 F 
ENDBRANCH  41  65
BRANCH  53  76
ATOM     76  C   UNL A   1      42.891  34.751  33.377  1.00  0.00     0.064 A 
ATOM     77  C   UNL A   1      43.273  35.920  32.706  1.00  0.00     0.173 A 
ATOM     78  C   UNL A   1      42.807  34.789  34.777  1.00  0.00     0.173 A 
ATOM     79  F   UNL A   1      43.382  35.927  31.370  1.00  0.00    -0.203 F 
ATOM     80  C   UNL A   1      43.569  37.082  33.414  1.00  0.00     0.198 A 
ATOM     81  C   UNL A   1      43.080  35.958  35.479  1.00  0.00     0.198 A 
ATOM     82  F   UNL A   1      42.440  33.695  35.462  1.00  0.00    -0.203 F 
ATOM     83  F   UNL A   1      43.962  38.182  32.756  1.00  0.00    -0.200 F 
ATOM     84  C   UNL A   1      43.464  37.104  34.797  1.00  0.00     0.200 A 
ATOM     85  F   UNL A   1      42.966  35.980  36.814  1.00  0.00    -0.200 F 
ATOM     86  F   UNL A   1      43.736  38.228  35.474  1.00  0.00    -0.200 F 
ENDBRANCH  53  76
ENDBRANCH  27  28
ENDBRANCH  19  22
ENDBRANCH  17  18
ENDBRANCH   1  17
TORSDOF 11
ENDMDL
