MODEL 1
REMARK VINA RESULT:     -14.3      0.000      0.000
REMARK SMILES C[NH+]1CCC(C(=O)N2C[C@@H](C(=O)NCCCCNC(=O)c3ccc(-c4c5nc(c(-c6c(F)c(F)c(F)c(F)c6F)c6ccc([nH]6)c(-c6c(F)c(F)c(F)c(F)c6F)c6nc(c(-c7c(F)c(F)c(F)c(F)c7F)c7ccc4[nH]7)C=C6)C=C5)cc3)[C@H](c3ccc4c(c3)OCO4)C2)CC1
REMARK SMILES IDX 15 1 14 2 13 3 11 4 12 5 10 7 8 8 9 9 94 10 84 11 6 12 7 13
REMARK SMILES IDX 5 14 1 15 2 16 3 17 96 18 4 20 95 21 85 22 86 23 90 24 87 25
REMARK SMILES IDX 89 26 88 27 91 28 93 29 92 30 16 31 17 32 18 33 19 34 20 36
REMARK SMILES IDX 21 37 22 38 83 39 23 40 82 41 24 42 25 43 26 44 76 45 27 46
REMARK SMILES IDX 81 47 75 48 77 49 28 50 80 51 74 52 73 53 29 55 61 56 41 57
REMARK SMILES IDX 60 58 42 59 45 60 59 61 78 62 43 63 44 64 58 66 79 67 46 68
REMARK SMILES IDX 30 69 31 70 39 71 32 72 33 73 37 74 40 75 34 76 35 77 38 78
REMARK SMILES IDX 36 79 62 80 63 81 71 82 64 83 65 84 69 85 72 86 66 87 67 88
REMARK SMILES IDX 70 89 68 90 47 91 48 92 56 93 49 94 50 95 54 96 57 97 51 98
REMARK SMILES IDX 52 99 55 100 53 101
REMARK H PARENT 13 6 2 19 18 35 77 54 45 65
REMARK Flexibility Score: inf
ROOT
ATOM      1  C   UNL A   1      31.996  30.389  26.790  1.00  0.00     0.023 C 
ENDROOT
BRANCH   1   2
ATOM      2  C   UNL A   1      31.711  29.744  25.439  1.00  0.00     0.116 C 
BRANCH   2   3
ATOM      3  N   UNL A   1      32.864  29.728  24.555  1.00  0.00    -0.356 N 
ATOM      4  C   UNL A   1      33.266  28.767  23.671  1.00  0.00     0.225 C 
ATOM      5  O   UNL A   1      34.197  29.029  22.909  1.00  0.00    -0.275 OA
ATOM      6  H   UNL A   1      33.439  30.526  24.597  1.00  0.00     0.163 HD
BRANCH   4   7
ATOM      7  C   UNL A   1      32.571  27.425  23.650  1.00  0.00     0.107 C 
ATOM      8  N   UNL A   1      32.749  25.166  23.228  1.00  0.00    -0.341 N 
ATOM      9  C   UNL A   1      33.577  26.296  23.586  1.00  0.00     0.133 C 
ATOM     10  C   UNL A   1      31.730  25.609  22.277  1.00  0.00     0.128 C 
ATOM     11  C   UNL A   1      31.722  27.157  22.384  1.00  0.00     0.053 C 
BRANCH   8  12
ATOM     12  C   UNL A   1      32.807  23.854  23.625  1.00  0.00     0.226 C 
ATOM     13  O   UNL A   1      31.766  23.188  23.684  1.00  0.00    -0.275 OA
BRANCH  12  14
ATOM     14  C   UNL A   1      34.070  23.279  24.283  1.00  0.00     0.090 C 
ATOM     15  C   UNL A   1      37.582  20.907  25.014  1.00  0.00     0.332 C 
ATOM     16  N   UNL A   1      36.286  21.410  24.561  1.00  0.00    -0.337 N 
ATOM     17  C   UNL A   1      36.457  22.621  23.750  1.00  0.00     0.262 C 
ATOM     18  C   UNL A   1      35.396  21.671  25.704  1.00  0.00     0.262 C 
ATOM     19  H   UNL A   1      35.852  20.693  23.981  1.00  0.00     0.347 HD
ATOM     20  C   UNL A   1      35.115  23.069  23.177  1.00  0.00     0.075 C 
ATOM     21  C   UNL A   1      34.002  22.056  25.196  1.00  0.00     0.075 C 
ENDBRANCH  12  14
ENDBRANCH   8  12
BRANCH  11  22
ATOM     22  C   UNL A   1      30.390  27.874  22.494  1.00  0.00    -0.038 A 
ATOM     23  C   UNL A   1      29.295  27.342  23.214  1.00  0.00     0.008 A 
ATOM     24  C   UNL A   1      30.316  29.200  22.020  1.00  0.00     0.054 A 
ATOM     25  C   UNL A   1      28.169  28.125  23.500  1.00  0.00     0.051 A 
ATOM     26  C   UNL A   1      29.215  29.959  22.356  1.00  0.00     0.166 A 
ATOM     27  C   UNL A   1      28.176  29.439  23.086  1.00  0.00     0.165 A 
ATOM     28  O   UNL A   1      29.067  31.290  22.118  1.00  0.00    -0.454 OA
ATOM     29  O   UNL A   1      27.234  30.373  23.384  1.00  0.00    -0.454 OA
ATOM     30  C   UNL A   1      27.867  31.565  22.875  1.00  0.00     0.468 C 
ENDBRANCH  11  22
ENDBRANCH   4   7
ENDBRANCH   2   3
ENDBRANCH   1   2
BRANCH   1  31
ATOM     31  C   UNL A   1      31.670  31.881  26.889  1.00  0.00     0.023 C 
BRANCH  31  32
ATOM     32  C   UNL A   1      32.824  32.805  27.273  1.00  0.00     0.116 C 
BRANCH  32  33
ATOM     33  N   UNL A   1      32.408  34.135  27.686  1.00  0.00    -0.352 N 
ATOM     34  C   UNL A   1      32.978  34.977  28.614  1.00  0.00     0.251 C 
ATOM     35  H   UNL A   1      31.603  34.483  27.238  1.00  0.00     0.163 HD
ATOM     36  O   UNL A   1      32.475  36.069  28.842  1.00  0.00    -0.269 OA
BRANCH  34  37
ATOM     37  C   UNL A   1      34.177  34.551  29.370  1.00  0.00     0.039 A 
ATOM     38  C   UNL A   1      33.998  34.024  30.654  1.00  0.00     0.014 A 
ATOM     39  C   UNL A   1      35.460  34.648  28.826  1.00  0.00     0.014 A 
ATOM     40  C   UNL A   1      35.092  33.510  31.353  1.00  0.00     0.010 A 
ATOM     41  C   UNL A   1      36.543  34.085  29.501  1.00  0.00     0.010 A 
ATOM     42  C   UNL A   1      36.365  33.493  30.762  1.00  0.00    -0.014 A 
BRANCH  42  43
ATOM     43  C   UNL A   1      37.503  32.803  31.419  1.00  0.00     0.031 A 
ATOM     44  C   UNL A   1      38.170  31.627  30.769  1.00  0.00     0.074 A 
ATOM     45  C   UNL A   1      37.881  33.190  32.653  1.00  0.00     0.049 A 
ATOM     46  N   UNL A   1      39.135  30.867  31.223  1.00  0.00    -0.248 NA
ATOM     47  C   UNL A   1      37.670  31.236  29.442  1.00  0.00     0.031 C 
ATOM     48  C   UNL A   1      37.269  34.278  33.419  1.00  0.00     0.029 A 
ATOM     49  N   UNL A   1      38.854  32.702  33.490  1.00  0.00    -0.354 N 
ATOM     50  C   UNL A   1      39.348  29.902  30.250  1.00  0.00     0.074 A 
ATOM     51  C   UNL A   1      38.386  30.148  29.196  1.00  0.00     0.031 C 
ATOM     52  C   UNL A   1      37.882  34.377  34.609  1.00  0.00     0.029 A 
ATOM     53  C   UNL A   1      38.911  33.346  34.701  1.00  0.00     0.049 A 
ATOM     54  H   UNL A   1      39.453  31.961  33.244  1.00  0.00     0.167 HD
ATOM     55  C   UNL A   1      40.271  28.911  30.232  1.00  0.00     0.037 A 
ATOM     56  C   UNL A   1      39.697  33.125  35.772  1.00  0.00     0.037 A 
ATOM     57  C   UNL A   1      41.243  28.683  31.270  1.00  0.00     0.049 A 
ATOM     58  C   UNL A   1      40.731  32.035  35.716  1.00  0.00     0.074 A 
ATOM     59  C   UNL A   1      42.273  27.760  31.300  1.00  0.00     0.029 A 
ATOM     60  N   UNL A   1      41.297  29.381  32.467  1.00  0.00    -0.354 N 
ATOM     61  N   UNL A   1      40.984  31.186  34.751  1.00  0.00    -0.248 NA
ATOM     62  C   UNL A   1      41.595  31.880  36.895  1.00  0.00     0.031 C 
ATOM     63  C   UNL A   1      42.925  27.870  32.533  1.00  0.00     0.029 A 
ATOM     64  C   UNL A   1      42.328  28.891  33.254  1.00  0.00     0.049 A 
ATOM     65  H   UNL A   1      40.692  30.115  32.721  1.00  0.00     0.167 HD
ATOM     66  C   UNL A   1      42.045  30.409  35.194  1.00  0.00     0.074 A 
ATOM     67  C   UNL A   1      42.400  30.898  36.511  1.00  0.00     0.031 C 
ATOM     68  C   UNL A   1      42.669  29.385  34.565  1.00  0.00     0.037 A 
BRANCH  55  69
ATOM     69  C   UNL A   1      40.274  27.992  29.045  1.00  0.00     0.064 A 
ATOM     70  C   UNL A   1      41.014  28.283  27.890  1.00  0.00     0.173 A 
ATOM     71  C   UNL A   1      39.554  26.787  29.078  1.00  0.00     0.173 A 
ATOM     72  F   UNL A   1      41.711  29.426  27.807  1.00  0.00    -0.203 F 
ATOM     73  C   UNL A   1      41.007  27.419  26.798  1.00  0.00     0.198 A 
ATOM     74  C   UNL A   1      39.571  25.913  27.994  1.00  0.00     0.198 A 
ATOM     75  F   UNL A   1      38.835  26.458  30.161  1.00  0.00    -0.203 F 
ATOM     76  F   UNL A   1      41.682  27.743  25.687  1.00  0.00    -0.200 F 
ATOM     77  C   UNL A   1      40.290  26.234  26.853  1.00  0.00     0.200 A 
ATOM     78  F   UNL A   1      38.887  24.762  28.053  1.00  0.00    -0.200 F 
ATOM     79  F   UNL A   1      40.287  25.402  25.802  1.00  0.00    -0.200 F 
ENDBRANCH  55  69
BRANCH  56  80
ATOM     80  C   UNL A   1      39.545  33.974  36.981  1.00  0.00     0.064 A 
ATOM     81  C   UNL A   1      40.153  35.234  37.056  1.00  0.00     0.173 A 
ATOM     82  C   UNL A   1      38.775  33.551  38.074  1.00  0.00     0.173 A 
ATOM     83  F   UNL A   1      40.915  35.671  36.043  1.00  0.00    -0.203 F 
ATOM     84  C   UNL A   1      40.006  36.035  38.186  1.00  0.00     0.198 A 
ATOM     85  C   UNL A   1      38.609  34.364  39.192  1.00  0.00     0.198 A 
ATOM     86  F   UNL A   1      38.168  32.356  38.045  1.00  0.00    -0.203 F 
ATOM     87  F   UNL A   1      40.625  37.222  38.248  1.00  0.00    -0.200 F 
ATOM     88  C   UNL A   1      39.228  35.603  39.250  1.00  0.00     0.200 A 
ATOM     89  F   UNL A   1      37.846  33.947  40.213  1.00  0.00    -0.200 F 
ATOM     90  F   UNL A   1      39.080  36.378  40.332  1.00  0.00    -0.200 F 
ENDBRANCH  56  80
BRANCH  68  91
ATOM     91  C   UNL A   1      43.812  28.732  35.284  1.00  0.00     0.064 A 
ATOM     92  C   UNL A   1      45.133  29.171  35.112  1.00  0.00     0.173 A 
ATOM     93  C   UNL A   1      43.580  27.682  36.184  1.00  0.00     0.173 A 
ATOM     94  F   UNL A   1      45.408  30.161  34.249  1.00  0.00    -0.203 F 
ATOM     95  C   UNL A   1      46.182  28.568  35.801  1.00  0.00     0.198 A 
ATOM     96  C   UNL A   1      44.627  27.099  36.891  1.00  0.00     0.198 A 
ATOM     97  F   UNL A   1      42.333  27.229  36.386  1.00  0.00    -0.203 F 
ATOM     98  F   UNL A   1      47.441  28.977  35.591  1.00  0.00    -0.200 F 
ATOM     99  C   UNL A   1      45.929  27.539  36.695  1.00  0.00     0.200 A 
ATOM    100  F   UNL A   1      44.380  26.111  37.761  1.00  0.00    -0.200 F 
ATOM    101  F   UNL A   1      46.938  26.965  37.362  1.00  0.00    -0.200 F 
ENDBRANCH  68  91
ENDBRANCH  42  43
ENDBRANCH  34  37
ENDBRANCH  32  33
ENDBRANCH  31  32
ENDBRANCH   1  31
TORSDOF 14
ENDMDL
MODEL 2
REMARK VINA RESULT:     -14.1      0.350      1.641
REMARK SMILES C[NH+]1CCC(C(=O)N2C[C@@H](C(=O)NCCCCNC(=O)c3ccc(-c4c5nc(c(-c6c(F)c(F)c(F)c(F)c6F)c6ccc([nH]6)c(-c6c(F)c(F)c(F)c(F)c6F)c6nc(c(-c7c(F)c(F)c(F)c(F)c7F)c7ccc4[nH]7)C=C6)C=C5)cc3)[C@H](c3ccc4c(c3)OCO4)C2)CC1
REMARK SMILES IDX 15 1 14 2 13 3 11 4 12 5 10 7 8 8 9 9 94 10 84 11 6 12 7 13
REMARK SMILES IDX 5 14 1 15 2 16 3 17 96 18 4 20 95 21 85 22 86 23 90 24 87 25
REMARK SMILES IDX 89 26 88 27 91 28 93 29 92 30 16 31 17 32 18 33 19 34 20 36
REMARK SMILES IDX 21 37 22 38 83 39 23 40 82 41 24 42 25 43 26 44 76 45 27 46
REMARK SMILES IDX 81 47 75 48 77 49 28 50 80 51 74 52 73 53 29 55 61 56 41 57
REMARK SMILES IDX 60 58 42 59 45 60 59 61 78 62 43 63 44 64 58 66 79 67 46 68
REMARK SMILES IDX 30 69 31 70 39 71 32 72 33 73 37 74 40 75 34 76 35 77 38 78
REMARK SMILES IDX 36 79 62 80 63 81 71 82 64 83 65 84 69 85 72 86 66 87 67 88
REMARK SMILES IDX 70 89 68 90 47 91 48 92 56 93 49 94 50 95 54 96 57 97 51 98
REMARK SMILES IDX 52 99 55 100 53 101
REMARK H PARENT 13 6 2 19 18 35 77 54 45 65
REMARK Flexibility Score: inf
ROOT
ATOM      1  C   UNL A   1      31.964  30.379  26.833  1.00  0.00     0.023 C 
ENDROOT
BRANCH   1   2
ATOM      2  C   UNL A   1      31.713  29.697  25.493  1.00  0.00     0.116 C 
BRANCH   2   3
ATOM      3  N   UNL A   1      32.878  29.692  24.624  1.00  0.00    -0.356 N 
ATOM      4  C   UNL A   1      33.283  28.749  23.723  1.00  0.00     0.225 C 
ATOM      5  O   UNL A   1      34.226  29.021  22.979  1.00  0.00    -0.275 OA
ATOM      6  H   UNL A   1      33.459  30.484  24.693  1.00  0.00     0.163 HD
BRANCH   4   7
ATOM      7  C   UNL A   1      32.576  27.415  23.660  1.00  0.00     0.107 C 
ATOM      8  N   UNL A   1      32.739  25.165  23.185  1.00  0.00    -0.341 N 
ATOM      9  C   UNL A   1      33.573  26.278  23.581  1.00  0.00     0.133 C 
ATOM     10  C   UNL A   1      31.737  25.641  22.231  1.00  0.00     0.128 C 
ATOM     11  C   UNL A   1      31.741  27.186  22.377  1.00  0.00     0.053 C 
BRANCH   8  12
ATOM     12  C   UNL A   1      32.780  23.844  23.550  1.00  0.00     0.226 C 
ATOM     13  O   UNL A   1      31.724  23.240  23.777  1.00  0.00    -0.275 OA
BRANCH  12  14
ATOM     14  C   UNL A   1      34.097  23.178  23.976  1.00  0.00     0.090 C 
ATOM     15  C   UNL A   1      37.958  22.518  25.751  1.00  0.00     0.332 C 
ATOM     16  N   UNL A   1      36.759  23.104  25.155  1.00  0.00    -0.337 N 
ATOM     17  C   UNL A   1      35.585  22.848  25.999  1.00  0.00     0.262 C 
ATOM     18  C   UNL A   1      36.543  22.590  23.793  1.00  0.00     0.262 C 
ATOM     19  H   UNL A   1      36.895  24.113  25.093  1.00  0.00     0.347 HD
ATOM     20  C   UNL A   1      34.362  23.568  25.438  1.00  0.00     0.075 C 
ATOM     21  C   UNL A   1      35.368  23.328  23.142  1.00  0.00     0.075 C 
ENDBRANCH  12  14
ENDBRANCH   8  12
BRANCH  11  22
ATOM     22  C   UNL A   1      30.414  27.912  22.487  1.00  0.00    -0.038 A 
ATOM     23  C   UNL A   1      29.319  27.393  23.215  1.00  0.00     0.008 A 
ATOM     24  C   UNL A   1      30.346  29.236  22.004  1.00  0.00     0.054 A 
ATOM     25  C   UNL A   1      28.199  28.185  23.501  1.00  0.00     0.051 A 
ATOM     26  C   UNL A   1      29.252  30.004  22.340  1.00  0.00     0.166 A 
ATOM     27  C   UNL A   1      28.213  29.496  23.078  1.00  0.00     0.165 A 
ATOM     28  O   UNL A   1      29.112  31.335  22.093  1.00  0.00    -0.454 OA
ATOM     29  O   UNL A   1      27.278  30.438  23.373  1.00  0.00    -0.454 OA
ATOM     30  C   UNL A   1      27.917  31.622  22.854  1.00  0.00     0.468 C 
ENDBRANCH  11  22
ENDBRANCH   4   7
ENDBRANCH   2   3
ENDBRANCH   1   2
BRANCH   1  31
ATOM     31  C   UNL A   1      31.671  31.880  26.873  1.00  0.00     0.023 C 
BRANCH  31  32
ATOM     32  C   UNL A   1      32.838  32.790  27.251  1.00  0.00     0.116 C 
BRANCH  32  33
ATOM     33  N   UNL A   1      32.442  34.134  27.641  1.00  0.00    -0.352 N 
ATOM     34  C   UNL A   1      33.023  34.982  28.556  1.00  0.00     0.251 C 
ATOM     35  H   UNL A   1      31.643  34.487  27.186  1.00  0.00     0.163 HD
ATOM     36  O   UNL A   1      32.537  36.085  28.765  1.00  0.00    -0.269 OA
BRANCH  34  37
ATOM     37  C   UNL A   1      34.214  34.550  29.322  1.00  0.00     0.039 A 
ATOM     38  C   UNL A   1      34.023  34.036  30.609  1.00  0.00     0.014 A 
ATOM     39  C   UNL A   1      35.501  34.629  28.784  1.00  0.00     0.014 A 
ATOM     40  C   UNL A   1      35.109  33.516  31.318  1.00  0.00     0.010 A 
ATOM     41  C   UNL A   1      36.575  34.061  29.469  1.00  0.00     0.010 A 
ATOM     42  C   UNL A   1      36.384  33.481  30.734  1.00  0.00    -0.014 A 
BRANCH  42  43
ATOM     43  C   UNL A   1      37.511  32.785  31.403  1.00  0.00     0.031 A 
ATOM     44  C   UNL A   1      38.191  31.617  30.751  1.00  0.00     0.074 A 
ATOM     45  C   UNL A   1      37.868  33.159  32.648  1.00  0.00     0.049 A 
ATOM     46  N   UNL A   1      39.150  30.853  31.213  1.00  0.00    -0.248 NA
ATOM     47  C   UNL A   1      37.715  31.241  29.412  1.00  0.00     0.031 C 
ATOM     48  C   UNL A   1      37.241  34.237  33.415  1.00  0.00     0.029 A 
ATOM     49  N   UNL A   1      38.827  32.662  33.495  1.00  0.00    -0.354 N 
ATOM     50  C   UNL A   1      39.380  29.900  30.233  1.00  0.00     0.074 A 
ATOM     51  C   UNL A   1      38.437  30.156  29.165  1.00  0.00     0.031 C 
ATOM     52  C   UNL A   1      37.834  34.324  34.616  1.00  0.00     0.029 A 
ATOM     53  C   UNL A   1      38.862  33.292  34.715  1.00  0.00     0.049 A 
ATOM     54  H   UNL A   1      39.431  31.925  33.251  1.00  0.00     0.167 HD
ATOM     55  C   UNL A   1      40.305  28.910  30.219  1.00  0.00     0.037 A 
ATOM     56  C   UNL A   1      39.631  33.060  35.796  1.00  0.00     0.037 A 
ATOM     57  C   UNL A   1      41.259  28.671  31.271  1.00  0.00     0.049 A 
ATOM     58  C   UNL A   1      40.666  31.972  35.746  1.00  0.00     0.074 A 
ATOM     59  C   UNL A   1      42.290  27.749  31.308  1.00  0.00     0.029 A 
ATOM     60  N   UNL A   1      41.292  29.356  32.477  1.00  0.00    -0.354 N 
ATOM     61  N   UNL A   1      40.937  31.135  34.775  1.00  0.00    -0.248 NA
ATOM     62  C   UNL A   1      41.510  31.805  36.937  1.00  0.00     0.031 C 
ATOM     63  C   UNL A   1      42.921  27.847  32.554  1.00  0.00     0.029 A 
ATOM     64  C   UNL A   1      42.310  28.859  33.276  1.00  0.00     0.049 A 
ATOM     65  H   UNL A   1      40.682  30.086  32.729  1.00  0.00     0.167 HD
ATOM     66  C   UNL A   1      41.992  30.354  35.227  1.00  0.00     0.074 A 
ATOM     67  C   UNL A   1      42.323  30.829  36.556  1.00  0.00     0.031 C 
ATOM     68  C   UNL A   1      42.628  29.337  34.598  1.00  0.00     0.037 A 
BRANCH  55  69
ATOM     69  C   UNL A   1      40.329  28.004  29.023  1.00  0.00     0.064 A 
ATOM     70  C   UNL A   1      41.074  28.319  27.876  1.00  0.00     0.173 A 
ATOM     71  C   UNL A   1      39.625  26.790  29.036  1.00  0.00     0.173 A 
ATOM     72  F   UNL A   1      41.757  29.471  27.811  1.00  0.00    -0.203 F 
ATOM     73  C   UNL A   1      41.087  27.467  26.775  1.00  0.00     0.198 A 
ATOM     74  C   UNL A   1      39.662  25.929  27.942  1.00  0.00     0.198 A 
ATOM     75  F   UNL A   1      38.903  26.439  30.110  1.00  0.00    -0.203 F 
ATOM     76  F   UNL A   1      41.767  27.812  25.673  1.00  0.00    -0.200 F 
ATOM     77  C   UNL A   1      40.386  26.272  26.811  1.00  0.00     0.200 A 
ATOM     78  F   UNL A   1      38.994  24.768  27.983  1.00  0.00    -0.200 F 
ATOM     79  F   UNL A   1      40.403  25.451  25.750  1.00  0.00    -0.200 F 
ENDBRANCH  55  69
BRANCH  56  80
ATOM     80  C   UNL A   1      39.457  33.895  37.011  1.00  0.00     0.064 A 
ATOM     81  C   UNL A   1      38.688  33.443  38.092  1.00  0.00     0.173 A 
ATOM     82  C   UNL A   1      40.069  35.152  37.123  1.00  0.00     0.173 A 
ATOM     83  F   UNL A   1      38.067  32.256  38.021  1.00  0.00    -0.203 F 
ATOM     84  C   UNL A   1      38.528  34.222  39.235  1.00  0.00     0.198 A 
ATOM     85  C   UNL A   1      39.929  35.918  38.278  1.00  0.00     0.198 A 
ATOM     86  F   UNL A   1      40.820  35.625  36.118  1.00  0.00    -0.203 F 
ATOM     87  F   UNL A   1      37.761  33.781  40.242  1.00  0.00    -0.200 F 
ATOM     88  C   UNL A   1      39.155  35.455  39.331  1.00  0.00     0.200 A 
ATOM     89  F   UNL A   1      40.547  37.104  38.371  1.00  0.00    -0.200 F 
ATOM     90  F   UNL A   1      39.008  36.199  40.435  1.00  0.00    -0.200 F 
ENDBRANCH  56  80
BRANCH  68  91
ATOM     91  C   UNL A   1      43.759  28.678  35.329  1.00  0.00     0.064 A 
ATOM     92  C   UNL A   1      43.543  27.586  36.182  1.00  0.00     0.173 A 
ATOM     93  C   UNL A   1      45.078  29.118  35.144  1.00  0.00     0.173 A 
ATOM     94  F   UNL A   1      42.297  27.139  36.404  1.00  0.00    -0.203 F 
ATOM     95  C   UNL A   1      44.605  26.971  36.839  1.00  0.00     0.198 A 
ATOM     96  C   UNL A   1      46.140  28.485  35.782  1.00  0.00     0.198 A 
ATOM     97  F   UNL A   1      45.337  30.156  34.335  1.00  0.00    -0.203 F 
ATOM     98  F   UNL A   1      44.372  25.955  37.681  1.00  0.00    -0.200 F 
ATOM     99  C   UNL A   1      45.903  27.415  36.633  1.00  0.00     0.200 A 
ATOM    100  F   UNL A   1      47.395  28.909  35.575  1.00  0.00    -0.200 F 
ATOM    101  F   UNL A   1      46.925  26.818  37.261  1.00  0.00    -0.200 F 
ENDBRANCH  68  91
ENDBRANCH  42  43
ENDBRANCH  34  37
ENDBRANCH  32  33
ENDBRANCH  31  32
ENDBRANCH   1  31
TORSDOF 14
ENDMDL
MODEL 3
REMARK VINA RESULT:     -14.0      0.576      7.046
REMARK SMILES C[NH+]1CCC(C(=O)N2C[C@@H](C(=O)NCCCCNC(=O)c3ccc(-c4c5nc(c(-c6c(F)c(F)c(F)c(F)c6F)c6ccc([nH]6)c(-c6c(F)c(F)c(F)c(F)c6F)c6nc(c(-c7c(F)c(F)c(F)c(F)c7F)c7ccc4[nH]7)C=C6)C=C5)cc3)[C@H](c3ccc4c(c3)OCO4)C2)CC1
REMARK SMILES IDX 15 1 14 2 13 3 11 4 12 5 10 7 8 8 9 9 94 10 84 11 6 12 7 13
REMARK SMILES IDX 5 14 1 15 2 16 3 17 96 18 4 20 95 21 85 22 86 23 90 24 87 25
REMARK SMILES IDX 89 26 88 27 91 28 93 29 92 30 16 31 17 32 18 33 19 34 20 36
REMARK SMILES IDX 21 37 22 38 83 39 23 40 82 41 24 42 25 43 26 44 76 45 27 46
REMARK SMILES IDX 81 47 75 48 77 49 28 50 80 51 74 52 73 53 29 55 61 56 41 57
REMARK SMILES IDX 60 58 42 59 45 60 59 61 78 62 43 63 44 64 58 66 79 67 46 68
REMARK SMILES IDX 30 69 31 70 39 71 32 72 33 73 37 74 40 75 34 76 35 77 38 78
REMARK SMILES IDX 36 79 62 80 63 81 71 82 64 83 65 84 69 85 72 86 66 87 67 88
REMARK SMILES IDX 70 89 68 90 47 91 48 92 56 93 49 94 50 95 54 96 57 97 51 98
REMARK SMILES IDX 52 99 55 100 53 101
REMARK H PARENT 13 6 2 19 18 35 77 54 45 65
REMARK Flexibility Score: inf
ROOT
ATOM      1  C   UNL A   1      31.359  31.057  25.740  1.00  0.00     0.023 C 
ENDROOT
BRANCH   1   2
ATOM      2  C   UNL A   1      32.248  29.818  25.729  1.00  0.00     0.116 C 
BRANCH   2   3
ATOM      3  N   UNL A   1      33.164  29.779  24.602  1.00  0.00    -0.356 N 
ATOM      4  C   UNL A   1      33.319  28.818  23.644  1.00  0.00     0.225 C 
ATOM      5  O   UNL A   1      34.057  29.061  22.688  1.00  0.00    -0.275 OA
ATOM      6  H   UNL A   1      33.760  30.558  24.516  1.00  0.00     0.163 HD
BRANCH   4   7
ATOM      7  C   UNL A   1      32.593  27.499  23.776  1.00  0.00     0.107 C 
ATOM      8  N   UNL A   1      32.717  25.203  23.613  1.00  0.00    -0.341 N 
ATOM      9  C   UNL A   1      33.573  26.346  23.839  1.00  0.00     0.133 C 
ATOM     10  C   UNL A   1      31.706  25.558  22.619  1.00  0.00     0.128 C 
ATOM     11  C   UNL A   1      31.733  27.109  22.549  1.00  0.00     0.053 C 
BRANCH   8  12
ATOM     12  C   UNL A   1      32.747  23.943  24.156  1.00  0.00     0.226 C 
ATOM     13  O   UNL A   1      31.688  23.400  24.495  1.00  0.00    -0.275 OA
BRANCH  12  14
ATOM     14  C   UNL A   1      34.065  23.315  24.632  1.00  0.00     0.090 C 
ATOM     15  C   UNL A   1      37.548  20.803  24.869  1.00  0.00     0.332 C 
ATOM     16  N   UNL A   1      36.222  21.359  24.600  1.00  0.00    -0.337 N 
ATOM     17  C   UNL A   1      36.327  22.567  23.774  1.00  0.00     0.262 C 
ATOM     18  C   UNL A   1      35.509  21.647  25.855  1.00  0.00     0.262 C 
ATOM     19  H   UNL A   1      35.684  20.663  24.084  1.00  0.00     0.347 HD
ATOM     20  C   UNL A   1      34.938  23.071  23.393  1.00  0.00     0.075 C 
ATOM     21  C   UNL A   1      34.075  22.090  25.545  1.00  0.00     0.075 C 
ENDBRANCH  12  14
ENDBRANCH   8  12
BRANCH  11  22
ATOM     22  C   UNL A   1      30.419  27.864  22.579  1.00  0.00    -0.038 A 
ATOM     23  C   UNL A   1      29.257  27.349  23.199  1.00  0.00     0.008 A 
ATOM     24  C   UNL A   1      30.420  29.204  22.139  1.00  0.00     0.054 A 
ATOM     25  C   UNL A   1      28.136  28.159  23.422  1.00  0.00     0.051 A 
ATOM     26  C   UNL A   1      29.319  29.988  22.412  1.00  0.00     0.166 A 
ATOM     27  C   UNL A   1      28.213  29.482  23.047  1.00  0.00     0.165 A 
ATOM     28  O   UNL A   1      29.230  31.329  22.202  1.00  0.00    -0.454 OA
ATOM     29  O   UNL A   1      27.279  30.438  23.299  1.00  0.00    -0.454 OA
ATOM     30  C   UNL A   1      27.984  31.622  22.874  1.00  0.00     0.468 C 
ENDBRANCH  11  22
ENDBRANCH   4   7
ENDBRANCH   2   3
ENDBRANCH   1   2
BRANCH   1  31
ATOM     31  C   UNL A   1      31.411  31.893  27.020  1.00  0.00     0.023 C 
BRANCH  31  32
ATOM     32  C   UNL A   1      32.638  32.785  27.200  1.00  0.00     0.116 C 
BRANCH  32  33
ATOM     33  N   UNL A   1      32.328  34.145  27.610  1.00  0.00    -0.352 N 
ATOM     34  C   UNL A   1      32.974  34.948  28.524  1.00  0.00     0.251 C 
ATOM     35  H   UNL A   1      31.544  34.550  27.173  1.00  0.00     0.163 HD
ATOM     36  O   UNL A   1      32.558  36.075  28.752  1.00  0.00    -0.269 OA
BRANCH  34  37
ATOM     37  C   UNL A   1      34.150  34.438  29.264  1.00  0.00     0.039 A 
ATOM     38  C   UNL A   1      33.939  33.835  30.509  1.00  0.00     0.014 A 
ATOM     39  C   UNL A   1      35.443  34.530  28.742  1.00  0.00     0.014 A 
ATOM     40  C   UNL A   1      35.008  33.243  31.185  1.00  0.00     0.010 A 
ATOM     41  C   UNL A   1      36.500  33.893  29.391  1.00  0.00     0.010 A 
ATOM     42  C   UNL A   1      36.288  33.226  30.609  1.00  0.00    -0.014 A 
BRANCH  42  43
ATOM     43  C   UNL A   1      37.396  32.461  31.233  1.00  0.00     0.031 A 
ATOM     44  C   UNL A   1      37.911  32.823  32.594  1.00  0.00     0.074 A 
ATOM     45  C   UNL A   1      37.997  31.482  30.527  1.00  0.00     0.049 A 
ATOM     46  N   UNL A   1      38.908  32.305  33.268  1.00  0.00    -0.248 NA
ATOM     47  C   UNL A   1      37.232  33.932  33.282  1.00  0.00     0.031 C 
ATOM     48  C   UNL A   1      37.631  31.078  29.168  1.00  0.00     0.029 A 
ATOM     49  N   UNL A   1      39.053  30.666  30.844  1.00  0.00    -0.354 N 
ATOM     50  C   UNL A   1      38.987  33.031  34.447  1.00  0.00     0.074 A 
ATOM     51  C   UNL A   1      37.962  34.051  34.383  1.00  0.00     0.031 C 
ATOM     52  C   UNL A   1      38.446  30.088  28.770  1.00  0.00     0.029 A 
ATOM     53  C   UNL A   1      39.407  29.807  29.832  1.00  0.00     0.049 A 
ATOM     54  H   UNL A   1      39.514  30.693  31.713  1.00  0.00     0.167 HD
ATOM     55  C   UNL A   1      39.829  32.853  35.493  1.00  0.00     0.037 A 
ATOM     56  C   UNL A   1      40.400  28.900  29.764  1.00  0.00     0.037 A 
ATOM     57  C   UNL A   1      40.831  31.822  35.565  1.00  0.00     0.049 A 
ATOM     58  C   UNL A   1      41.304  28.704  30.948  1.00  0.00     0.074 A 
ATOM     59  C   UNL A   1      41.672  31.507  36.619  1.00  0.00     0.029 A 
ATOM     60  N   UNL A   1      41.136  30.943  34.537  1.00  0.00    -0.354 N 
ATOM     61  N   UNL A   1      41.310  29.336  32.095  1.00  0.00    -0.248 NA
ATOM     62  C   UNL A   1      42.333  27.661  30.831  1.00  0.00     0.031 C 
ATOM     63  C   UNL A   1      42.513  30.466  36.213  1.00  0.00     0.029 A 
ATOM     64  C   UNL A   1      42.169  30.102  34.922  1.00  0.00     0.049 A 
ATOM     65  H   UNL A   1      40.685  30.919  33.662  1.00  0.00     0.167 HD
ATOM     66  C   UNL A   1      42.325  28.758  32.844  1.00  0.00     0.074 A 
ATOM     67  C   UNL A   1      42.905  27.712  32.026  1.00  0.00     0.031 C 
ATOM     68  C   UNL A   1      42.739  29.067  34.097  1.00  0.00     0.037 A 
BRANCH  55  69
ATOM     69  C   UNL A   1      39.701  33.798  36.651  1.00  0.00     0.064 A 
ATOM     70  C   UNL A   1      38.900  33.498  37.763  1.00  0.00     0.173 A 
ATOM     71  C   UNL A   1      40.416  35.006  36.664  1.00  0.00     0.173 A 
ATOM     72  F   UNL A   1      38.190  32.361  37.794  1.00  0.00    -0.203 F 
ATOM     73  C   UNL A   1      38.793  34.386  38.829  1.00  0.00     0.198 A 
ATOM     74  C   UNL A   1      40.327  35.880  37.745  1.00  0.00     0.198 A 
ATOM     75  F   UNL A   1      41.202  35.338  35.629  1.00  0.00    -0.203 F 
ATOM     76  F   UNL A   1      37.983  34.099  39.858  1.00  0.00    -0.200 F 
ATOM     77  C   UNL A   1      39.510  35.572  38.822  1.00  0.00     0.200 A 
ATOM     78  F   UNL A   1      41.031  37.020  37.742  1.00  0.00    -0.200 F 
ATOM     79  F   UNL A   1      39.409  36.425  39.852  1.00  0.00    -0.200 F 
ENDBRANCH  55  69
BRANCH  56  80
ATOM     80  C   UNL A   1      40.572  28.094  28.528  1.00  0.00     0.064 A 
ATOM     81  C   UNL A   1      41.386  28.546  27.481  1.00  0.00     0.173 A 
ATOM     82  C   UNL A   1      39.940  26.851  28.377  1.00  0.00     0.173 A 
ATOM     83  F   UNL A   1      41.994  29.739  27.573  1.00  0.00    -0.203 F 
ATOM     84  C   UNL A   1      41.554  27.790  26.324  1.00  0.00     0.198 A 
ATOM     85  C   UNL A   1      40.129  26.084  27.230  1.00  0.00     0.198 A 
ATOM     86  F   UNL A   1      39.156  26.373  29.354  1.00  0.00    -0.203 F 
ATOM     87  F   UNL A   1      42.312  28.259  25.323  1.00  0.00    -0.200 F 
ATOM     88  C   UNL A   1      40.931  26.556  26.202  1.00  0.00     0.200 A 
ATOM     89  F   UNL A   1      39.536  24.887  27.122  1.00  0.00    -0.200 F 
ATOM     90  F   UNL A   1      41.101  25.825  25.093  1.00  0.00    -0.200 F 
ENDBRANCH  56  80
BRANCH  68  91
ATOM     91  C   UNL A   1      43.861  28.253  34.669  1.00  0.00     0.064 A 
ATOM     92  C   UNL A   1      45.197  28.664  34.553  1.00  0.00     0.173 A 
ATOM     93  C   UNL A   1      43.595  27.071  35.376  1.00  0.00     0.173 A 
ATOM     94  F   UNL A   1      45.504  29.778  33.872  1.00  0.00    -0.203 F 
ATOM     95  C   UNL A   1      46.228  27.908  35.106  1.00  0.00     0.198 A 
ATOM     96  C   UNL A   1      44.624  26.332  35.950  1.00  0.00     0.198 A 
ATOM     97  F   UNL A   1      42.333  26.639  35.518  1.00  0.00    -0.203 F 
ATOM     98  F   UNL A   1      47.500  28.297  34.949  1.00  0.00    -0.200 F 
ATOM     99  C   UNL A   1      45.941  26.748  35.811  1.00  0.00     0.200 A 
ATOM    100  F   UNL A   1      44.345  25.217  36.638  1.00  0.00    -0.200 F 
ATOM    101  F   UNL A   1      46.933  26.026  36.348  1.00  0.00    -0.200 F 
ENDBRANCH  68  91
ENDBRANCH  42  43
ENDBRANCH  34  37
ENDBRANCH  32  33
ENDBRANCH  31  32
ENDBRANCH   1  31
TORSDOF 14
ENDMDL
