MODEL 1
REMARK VINA RESULT:     -12.8      0.000      0.000
REMARK SMILES CC[N@@H+](C)Cc1cc2c(cc1Cl)C=C(C(=O)NCCCCNC(=O)c1ccc(-c3c4nc(c(-c5c(F)c(F)c(F)c(F)c5F)c5ccc([nH]5)c(-c5c(F)c(F)c(F)c(F)c5F)c5nc(c(-c6c(F)c(F)c(F)c(F)c6F)c6ccc3[nH]6)C=C5)C=C4)cc1)[C@@H](C(F)(F)F)O2
REMARK SMILES IDX 19 1 18 2 17 3 15 4 16 5 14 7 6 8 7 9 11 10 8 11 10 12 12 13
REMARK SMILES IDX 9 14 93 15 13 16 88 17 5 18 3 19 4 20 2 22 1 23 89 24 90 25
REMARK SMILES IDX 91 26 92 27 20 28 21 29 22 30 23 31 24 33 25 34 26 35 87 36
REMARK SMILES IDX 27 37 86 38 28 39 29 40 30 41 80 42 31 43 85 44 79 45 81 46
REMARK SMILES IDX 32 47 84 48 78 49 77 50 33 52 65 53 45 54 64 55 46 56 49 57
REMARK SMILES IDX 63 58 82 59 47 60 48 61 62 63 83 64 50 65 34 66 35 67 43 68
REMARK SMILES IDX 36 69 37 70 41 71 44 72 38 73 39 74 42 75 40 76 66 77 67 78
REMARK SMILES IDX 75 79 68 80 69 81 73 82 76 83 70 84 71 85 74 86 72 87 51 88
REMARK SMILES IDX 52 89 60 90 53 91 54 92 58 93 61 94 55 95 56 96 59 97 57 98
REMARK H PARENT 17 6 3 21 22 32 81 51 49 62
REMARK Flexibility Score: inf
ROOT
ATOM      1  C   UNL A   1      31.776  28.790  27.470  1.00  0.00     0.023 C 
ENDROOT
BRANCH   1   2
ATOM      2  C   UNL A   1      32.048  27.390  26.923  1.00  0.00     0.116 C 
BRANCH   2   3
ATOM      3  N   UNL A   1      32.831  27.415  25.700  1.00  0.00    -0.352 N 
ATOM      4  C   UNL A   1      33.212  26.527  24.750  1.00  0.00     0.251 C 
ATOM      5  O   UNL A   1      33.890  26.999  23.832  1.00  0.00    -0.270 OA
ATOM      6  H   UNL A   1      33.179  28.317  25.512  1.00  0.00     0.163 HD
BRANCH   4   7
ATOM      7  C   UNL A   1      32.887  25.069  24.754  1.00  0.00     0.067 C 
ATOM      8  C   UNL A   1      33.221  20.052  25.325  1.00  0.00     0.029 A 
ATOM      9  C   UNL A   1      32.170  20.977  25.236  1.00  0.00     0.058 A 
ATOM     10  C   UNL A   1      34.520  20.519  25.060  1.00  0.00     0.050 A 
ATOM     11  C   UNL A   1      32.415  22.332  25.042  1.00  0.00     0.128 A 
ATOM     12  C   UNL A   1      34.761  21.884  24.838  1.00  0.00     0.033 A 
ATOM     13  Cl  UNL A   1      35.891  19.470  24.989  1.00  0.00    -0.084 Cl
ATOM     14  C   UNL A   1      33.711  22.801  24.869  1.00  0.00     0.019 A 
ATOM     15  O   UNL A   1      31.326  23.145  25.121  1.00  0.00    -0.475 OA
ATOM     16  C   UNL A   1      33.945  24.238  24.801  1.00  0.00     0.025 C 
ATOM     17  C   UNL A   1      31.490  24.520  24.691  1.00  0.00     0.314 C 
BRANCH   8  18
ATOM     18  C   UNL A   1      32.900  18.630  25.747  1.00  0.00     0.300 C 
BRANCH  18  19
ATOM     19  N   UNL A   1      32.320  17.747  24.709  1.00  0.00    -0.334 N 
ATOM     20  C   UNL A   1      32.261  16.338  25.090  1.00  0.00     0.333 C 
ATOM     21  H   UNL A   1      31.360  18.085  24.648  1.00  0.00     0.348 HD
BRANCH  19  22
ATOM     22  C   UNL A   1      32.899  17.900  23.370  1.00  0.00     0.258 C 
ATOM     23  C   UNL A   1      34.049  16.936  23.117  1.00  0.00     0.071 C 
ENDBRANCH  19  22
ENDBRANCH  18  19
ENDBRANCH   8  18
BRANCH  17  24
ATOM     24  C   UNL A   1      30.860  24.669  23.295  1.00  0.00     0.429 C 
ATOM     25  F   UNL A   1      29.914  23.715  23.101  1.00  0.00    -0.167 F 
ATOM     26  F   UNL A   1      30.240  25.861  23.128  1.00  0.00    -0.167 F 
ATOM     27  F   UNL A   1      31.767  24.550  22.301  1.00  0.00    -0.167 F 
ENDBRANCH  17  24
ENDBRANCH   4   7
ENDBRANCH   2   3
ENDBRANCH   1   2
BRANCH   1  28
ATOM     28  C   UNL A   1      31.546  29.855  26.394  1.00  0.00     0.023 C 
BRANCH  28  29
ATOM     29  C   UNL A   1      32.672  30.874  26.233  1.00  0.00     0.116 C 
BRANCH  29  30
ATOM     30  N   UNL A   1      32.436  32.153  26.892  1.00  0.00    -0.352 N 
ATOM     31  C   UNL A   1      33.293  32.832  27.733  1.00  0.00     0.251 C 
ATOM     32  H   UNL A   1      31.567  32.580  26.717  1.00  0.00     0.163 HD
ATOM     33  O   UNL A   1      32.946  33.865  28.293  1.00  0.00    -0.269 OA
BRANCH  31  34
ATOM     34  C   UNL A   1      34.622  32.245  28.000  1.00  0.00     0.039 A 
ATOM     35  C   UNL A   1      34.727  30.903  28.367  1.00  0.00     0.014 A 
ATOM     36  C   UNL A   1      35.745  33.076  28.011  1.00  0.00     0.014 A 
ATOM     37  C   UNL A   1      35.906  30.450  28.944  1.00  0.00     0.010 A 
ATOM     38  C   UNL A   1      36.956  32.589  28.513  1.00  0.00     0.010 A 
ATOM     39  C   UNL A   1      37.023  31.295  29.053  1.00  0.00    -0.014 A 
BRANCH  39  40
ATOM     40  C   UNL A   1      38.215  30.812  29.798  1.00  0.00     0.031 A 
ATOM     41  C   UNL A   1      38.409  31.166  31.250  1.00  0.00     0.074 A 
ATOM     42  C   UNL A   1      39.061  29.954  29.196  1.00  0.00     0.049 A 
ATOM     43  N   UNL A   1      39.323  30.741  32.087  1.00  0.00    -0.248 NA
ATOM     44  C   UNL A   1      37.458  32.120  31.844  1.00  0.00     0.031 C 
ATOM     45  C   UNL A   1      38.967  29.528  27.799  1.00  0.00     0.029 A 
ATOM     46  N   UNL A   1      40.129  29.250  29.690  1.00  0.00    -0.354 N 
ATOM     47  C   UNL A   1      39.067  31.384  33.291  1.00  0.00     0.074 A 
ATOM     48  C   UNL A   1      37.933  32.253  33.075  1.00  0.00     0.031 C 
ATOM     49  C   UNL A   1      39.885  28.577  27.570  1.00  0.00     0.029 A 
ATOM     50  C   UNL A   1      40.665  28.368  28.785  1.00  0.00     0.049 A 
ATOM     51  H   UNL A   1      40.477  29.367  30.604  1.00  0.00     0.167 HD
ATOM     52  C   UNL A   1      39.711  31.249  34.475  1.00  0.00     0.037 A 
ATOM     53  C   UNL A   1      41.670  27.481  28.921  1.00  0.00     0.037 A 
ATOM     54  C   UNL A   1      40.813  30.353  34.704  1.00  0.00     0.049 A 
ATOM     55  C   UNL A   1      42.388  27.378  30.236  1.00  0.00     0.074 A 
ATOM     56  C   UNL A   1      41.495  30.111  35.884  1.00  0.00     0.029 A 
ATOM     57  N   UNL A   1      41.388  29.547  33.735  1.00  0.00    -0.354 N 
ATOM     58  N   UNL A   1      42.125  27.982  31.368  1.00  0.00    -0.248 NA
ATOM     59  C   UNL A   1      43.555  26.486  30.285  1.00  0.00     0.031 C 
ATOM     60  C   UNL A   1      42.510  29.186  35.619  1.00  0.00     0.029 A 
ATOM     61  C   UNL A   1      42.437  28.828  34.283  1.00  0.00     0.049 A 
ATOM     62  H   UNL A   1      41.096  29.493  32.797  1.00  0.00     0.167 HD
ATOM     63  C   UNL A   1      43.093  27.549  32.263  1.00  0.00     0.074 A 
ATOM     64  C   UNL A   1      43.934  26.610  31.550  1.00  0.00     0.031 C 
ATOM     65  C   UNL A   1      43.272  27.908  33.556  1.00  0.00     0.037 A 
BRANCH  52  66
ATOM     66  C   UNL A   1      39.243  32.084  35.629  1.00  0.00     0.064 A 
ATOM     67  C   UNL A   1      38.320  31.591  36.563  1.00  0.00     0.173 A 
ATOM     68  C   UNL A   1      39.782  33.360  35.848  1.00  0.00     0.173 A 
ATOM     69  F   UNL A   1      37.768  30.380  36.392  1.00  0.00    -0.203 F 
ATOM     70  C   UNL A   1      37.946  32.351  37.668  1.00  0.00     0.198 A 
ATOM     71  C   UNL A   1      39.422  34.108  36.965  1.00  0.00     0.198 A 
ATOM     72  F   UNL A   1      40.674  33.873  34.986  1.00  0.00    -0.203 F 
ATOM     73  F   UNL A   1      37.044  31.871  38.535  1.00  0.00    -0.200 F 
ATOM     74  C   UNL A   1      38.504  33.605  37.873  1.00  0.00     0.200 A 
ATOM     75  F   UNL A   1      39.970  35.316  37.166  1.00  0.00    -0.200 F 
ATOM     76  F   UNL A   1      38.153  34.329  38.945  1.00  0.00    -0.200 F 
ENDBRANCH  52  66
BRANCH  53  77
ATOM     77  C   UNL A   1      42.040  26.614  27.774  1.00  0.00     0.064 A 
ATOM     78  C   UNL A   1      43.060  26.992  26.892  1.00  0.00     0.173 A 
ATOM     79  C   UNL A   1      41.411  25.380  27.561  1.00  0.00     0.173 A 
ATOM     80  F   UNL A   1      43.677  28.173  27.045  1.00  0.00    -0.203 F 
ATOM     81  C   UNL A   1      43.438  26.164  25.836  1.00  0.00     0.198 A 
ATOM     82  C   UNL A   1      41.805  24.543  26.521  1.00  0.00     0.198 A 
ATOM     83  F   UNL A   1      40.430  24.975  28.382  1.00  0.00    -0.203 F 
ATOM     84  F   UNL A   1      44.401  26.557  24.991  1.00  0.00    -0.200 F 
ATOM     85  C   UNL A   1      42.817  24.937  25.657  1.00  0.00     0.200 A 
ATOM     86  F   UNL A   1      41.213  23.352  26.360  1.00  0.00    -0.200 F 
ATOM     87  F   UNL A   1      43.191  24.135  24.651  1.00  0.00    -0.200 F 
ENDBRANCH  53  77
BRANCH  65  88
ATOM     88  C   UNL A   1      44.432  27.305  34.286  1.00  0.00     0.064 A 
ATOM     89  C   UNL A   1      44.315  26.061  34.920  1.00  0.00     0.173 A 
ATOM     90  C   UNL A   1      45.687  27.929  34.279  1.00  0.00     0.173 A 
ATOM     91  F   UNL A   1      43.130  25.434  34.962  1.00  0.00    -0.203 F 
ATOM     92  C   UNL A   1      45.416  25.461  35.525  1.00  0.00     0.198 A 
ATOM     93  C   UNL A   1      46.792  27.318  34.867  1.00  0.00     0.198 A 
ATOM     94  F   UNL A   1      45.848  29.118  33.678  1.00  0.00    -0.203 F 
ATOM     95  F   UNL A   1      45.280  24.279  36.141  1.00  0.00    -0.200 F 
ATOM     96  C   UNL A   1      46.655  26.086  35.488  1.00  0.00     0.200 A 
ATOM     97  F   UNL A   1      47.990  27.917  34.822  1.00  0.00    -0.200 F 
ATOM     98  F   UNL A   1      47.718  25.499  36.055  1.00  0.00    -0.200 F 
ENDBRANCH  65  88
ENDBRANCH  39  40
ENDBRANCH  31  34
ENDBRANCH  29  30
ENDBRANCH  28  29
ENDBRANCH   1  28
TORSDOF 15
ENDMDL
MODEL 2
REMARK VINA RESULT:     -12.7      1.753      7.471
REMARK SMILES CC[N@@H+](C)Cc1cc2c(cc1Cl)C=C(C(=O)NCCCCNC(=O)c1ccc(-c3c4nc(c(-c5c(F)c(F)c(F)c(F)c5F)c5ccc([nH]5)c(-c5c(F)c(F)c(F)c(F)c5F)c5nc(c(-c6c(F)c(F)c(F)c(F)c6F)c6ccc3[nH]6)C=C5)C=C4)cc1)[C@@H](C(F)(F)F)O2
REMARK SMILES IDX 19 1 18 2 17 3 15 4 16 5 14 7 6 8 7 9 11 10 8 11 10 12 12 13
REMARK SMILES IDX 9 14 93 15 13 16 88 17 5 18 3 19 4 20 2 22 1 23 89 24 90 25
REMARK SMILES IDX 91 26 92 27 20 28 21 29 22 30 23 31 24 33 25 34 26 35 87 36
REMARK SMILES IDX 27 37 86 38 28 39 29 40 30 41 80 42 31 43 85 44 79 45 81 46
REMARK SMILES IDX 32 47 84 48 78 49 77 50 33 52 65 53 45 54 64 55 46 56 49 57
REMARK SMILES IDX 63 58 82 59 47 60 48 61 62 63 83 64 50 65 34 66 35 67 43 68
REMARK SMILES IDX 36 69 37 70 41 71 44 72 38 73 39 74 42 75 40 76 66 77 67 78
REMARK SMILES IDX 75 79 68 80 69 81 73 82 76 83 70 84 71 85 74 86 72 87 51 88
REMARK SMILES IDX 52 89 60 90 53 91 54 92 58 93 61 94 55 95 56 96 59 97 57 98
REMARK H PARENT 17 6 3 21 22 32 81 51 49 62
REMARK Flexibility Score: inf
ROOT
ATOM      1  C   UNL A   1      32.338  30.240  27.082  1.00  0.00     0.023 C 
ENDROOT
BRANCH   1   2
ATOM      2  C   UNL A   1      33.542  29.722  26.299  1.00  0.00     0.116 C 
BRANCH   2   3
ATOM      3  N   UNL A   1      33.296  29.678  24.868  1.00  0.00    -0.352 N 
ATOM      4  C   UNL A   1      32.936  28.745  23.954  1.00  0.00     0.251 C 
ATOM      5  O   UNL A   1      32.817  29.160  22.798  1.00  0.00    -0.270 OA
ATOM      6  H   UNL A   1      33.427  30.560  24.451  1.00  0.00     0.163 HD
BRANCH   4   7
ATOM      7  C   UNL A   1      32.696  27.300  24.247  1.00  0.00     0.067 C 
ATOM      8  C   UNL A   1      33.422  22.416  25.356  1.00  0.00     0.029 A 
ATOM      9  C   UNL A   1      32.347  23.311  25.457  1.00  0.00     0.058 A 
ATOM     10  C   UNL A   1      34.565  22.850  24.662  1.00  0.00     0.050 A 
ATOM     11  C   UNL A   1      32.460  24.627  25.021  1.00  0.00     0.128 A 
ATOM     12  C   UNL A   1      34.665  24.171  24.199  1.00  0.00     0.033 A 
ATOM     13  Cl  UNL A   1      35.905  21.811  24.332  1.00  0.00    -0.084 Cl
ATOM     14  C   UNL A   1      33.626  25.077  24.415  1.00  0.00     0.019 A 
ATOM     15  O   UNL A   1      31.402  25.435  25.308  1.00  0.00    -0.475 OA
ATOM     16  C   UNL A   1      33.761  26.490  24.092  1.00  0.00     0.025 C 
ATOM     17  C   UNL A   1      31.369  26.737  24.670  1.00  0.00     0.314 C 
BRANCH   8  18
ATOM     18  C   UNL A   1      33.305  21.065  26.038  1.00  0.00     0.300 C 
BRANCH  18  19
ATOM     19  N   UNL A   1      32.490  20.041  25.345  1.00  0.00    -0.334 N 
ATOM     20  C   UNL A   1      32.776  18.670  25.759  1.00  0.00     0.333 C 
ATOM     21  H   UNL A   1      31.547  20.263  25.662  1.00  0.00     0.348 HD
BRANCH  19  22
ATOM     22  C   UNL A   1      32.472  20.150  23.881  1.00  0.00     0.258 C 
ATOM     23  C   UNL A   1      32.435  18.792  23.196  1.00  0.00     0.071 C 
ENDBRANCH  19  22
ENDBRANCH  18  19
ENDBRANCH   8  18
BRANCH  17  24
ATOM     24  C   UNL A   1      30.355  26.684  23.513  1.00  0.00     0.429 C 
ATOM     25  F   UNL A   1      29.510  25.634  23.676  1.00  0.00    -0.167 F 
ATOM     26  F   UNL A   1      29.581  27.791  23.448  1.00  0.00    -0.167 F 
ATOM     27  F   UNL A   1      30.950  26.543  22.308  1.00  0.00    -0.167 F 
ENDBRANCH  17  24
ENDBRANCH   4   7
ENDBRANCH   2   3
ENDBRANCH   1   2
BRANCH   1  28
ATOM     28  C   UNL A   1      32.043  31.729  26.877  1.00  0.00     0.023 C 
BRANCH  28  29
ATOM     29  C   UNL A   1      33.044  32.687  27.521  1.00  0.00     0.116 C 
BRANCH  29  30
ATOM     30  N   UNL A   1      32.562  34.053  27.683  1.00  0.00    -0.352 N 
ATOM     31  C   UNL A   1      33.012  34.998  28.582  1.00  0.00     0.251 C 
ATOM     32  H   UNL A   1      31.834  34.333  27.084  1.00  0.00     0.163 HD
ATOM     33  O   UNL A   1      32.468  36.092  28.677  1.00  0.00    -0.269 OA
BRANCH  31  34
ATOM     34  C   UNL A   1      34.126  34.634  29.481  1.00  0.00     0.039 A 
ATOM     35  C   UNL A   1      35.428  34.574  28.984  1.00  0.00     0.014 A 
ATOM     36  C   UNL A   1      33.843  34.224  30.786  1.00  0.00     0.014 A 
ATOM     37  C   UNL A   1      36.403  33.910  29.718  1.00  0.00     0.010 A 
ATOM     38  C   UNL A   1      34.849  33.635  31.556  1.00  0.00     0.010 A 
ATOM     39  C   UNL A   1      36.117  33.405  30.998  1.00  0.00    -0.014 A 
BRANCH  39  40
ATOM     40  C   UNL A   1      37.147  32.586  31.688  1.00  0.00     0.031 A 
ATOM     41  C   UNL A   1      37.850  31.466  30.965  1.00  0.00     0.074 A 
ATOM     42  C   UNL A   1      37.533  32.930  32.932  1.00  0.00     0.049 A 
ATOM     43  N   UNL A   1      38.852  30.725  31.368  1.00  0.00    -0.248 NA
ATOM     44  C   UNL A   1      37.371  31.131  29.614  1.00  0.00     0.031 C 
ATOM     45  C   UNL A   1      36.936  34.004  33.727  1.00  0.00     0.029 A 
ATOM     46  N   UNL A   1      38.547  32.452  33.723  1.00  0.00    -0.354 N 
ATOM     47  C   UNL A   1      39.108  29.832  30.335  1.00  0.00     0.074 A 
ATOM     48  C   UNL A   1      38.140  30.099  29.295  1.00  0.00     0.031 C 
ATOM     49  C   UNL A   1      37.643  34.156  34.856  1.00  0.00     0.029 A 
ATOM     50  C   UNL A   1      38.707  33.158  34.889  1.00  0.00     0.049 A 
ATOM     51  H   UNL A   1      39.104  31.678  33.478  1.00  0.00     0.167 HD
ATOM     52  C   UNL A   1      40.075  28.887  30.255  1.00  0.00     0.037 A 
ATOM     53  C   UNL A   1      39.616  33.022  35.873  1.00  0.00     0.037 A 
ATOM     54  C   UNL A   1      41.066  28.649  31.270  1.00  0.00     0.049 A 
ATOM     55  C   UNL A   1      40.654  31.943  35.773  1.00  0.00     0.074 A 
ATOM     56  C   UNL A   1      42.115  27.747  31.253  1.00  0.00     0.029 A 
ATOM     57  N   UNL A   1      41.133  29.322  32.479  1.00  0.00    -0.354 N 
ATOM     58  N   UNL A   1      40.892  31.117  34.784  1.00  0.00    -0.248 NA
ATOM     59  C   UNL A   1      41.537  31.762  36.935  1.00  0.00     0.031 C 
ATOM     60  C   UNL A   1      42.796  27.848  32.470  1.00  0.00     0.029 A 
ATOM     61  C   UNL A   1      42.190  28.835  33.230  1.00  0.00     0.049 A 
ATOM     62  H   UNL A   1      40.522  30.039  32.763  1.00  0.00     0.167 HD
ATOM     63  C   UNL A   1      41.945  30.317  35.202  1.00  0.00     0.074 A 
ATOM     64  C   UNL A   1      42.320  30.773  36.525  1.00  0.00     0.031 C 
ATOM     65  C   UNL A   1      42.540  29.291  34.550  1.00  0.00     0.037 A 
BRANCH  52  66
ATOM     66  C   UNL A   1      40.121  28.033  29.023  1.00  0.00     0.064 A 
ATOM     67  C   UNL A   1      40.850  28.421  27.890  1.00  0.00     0.173 A 
ATOM     68  C   UNL A   1      39.496  26.777  29.006  1.00  0.00     0.173 A 
ATOM     69  F   UNL A   1      41.457  29.617  27.855  1.00  0.00    -0.203 F 
ATOM     70  C   UNL A   1      40.942  27.586  26.779  1.00  0.00     0.198 A 
ATOM     71  C   UNL A   1      39.608  25.937  27.902  1.00  0.00     0.198 A 
ATOM     72  F   UNL A   1      38.793  26.358  30.069  1.00  0.00    -0.203 F 
ATOM     73  F   UNL A   1      41.623  27.988  25.697  1.00  0.00    -0.200 F 
ATOM     74  C   UNL A   1      40.328  26.343  26.789  1.00  0.00     0.200 A 
ATOM     75  F   UNL A   1      39.022  24.731  27.917  1.00  0.00    -0.200 F 
ATOM     76  F   UNL A   1      40.430  25.535  25.724  1.00  0.00    -0.200 F 
ENDBRANCH  52  66
BRANCH  53  77
ATOM     77  C   UNL A   1      39.582  33.950  37.033  1.00  0.00     0.064 A 
ATOM     78  C   UNL A   1      40.251  35.179  36.986  1.00  0.00     0.173 A 
ATOM     79  C   UNL A   1      38.852  33.643  38.189  1.00  0.00     0.173 A 
ATOM     80  F   UNL A   1      40.979  35.506  35.908  1.00  0.00    -0.203 F 
ATOM     81  C   UNL A   1      40.191  36.069  38.056  1.00  0.00     0.198 A 
ATOM     82  C   UNL A   1      38.772  34.544  39.248  1.00  0.00     0.198 A 
ATOM     83  F   UNL A   1      38.192  32.478  38.279  1.00  0.00    -0.203 F 
ATOM     84  F   UNL A   1      40.859  37.229  37.997  1.00  0.00    -0.200 F 
ATOM     85  C   UNL A   1      39.445  35.755  39.181  1.00  0.00     0.200 A 
ATOM     86  F   UNL A   1      38.038  34.243  40.328  1.00  0.00    -0.200 F 
ATOM     87  F   UNL A   1      39.375  36.618  40.204  1.00  0.00    -0.200 F 
ENDBRANCH  53  77
BRANCH  65  88
ATOM     88  C   UNL A   1      43.645  28.569  35.258  1.00  0.00     0.064 A 
ATOM     89  C   UNL A   1      43.370  27.482  36.099  1.00  0.00     0.173 A 
ATOM     90  C   UNL A   1      44.986  28.906  35.028  1.00  0.00     0.173 A 
ATOM     91  F   UNL A   1      42.101  27.132  36.358  1.00  0.00    -0.203 F 
ATOM     92  C   UNL A   1      44.402  26.758  36.689  1.00  0.00     0.198 A 
ATOM     93  C   UNL A   1      46.016  28.167  35.603  1.00  0.00     0.198 A 
ATOM     94  F   UNL A   1      45.295  29.934  34.224  1.00  0.00    -0.203 F 
ATOM     95  F   UNL A   1      44.119  25.733  37.504  1.00  0.00    -0.200 F 
ATOM     96  C   UNL A   1      45.723  27.095  36.432  1.00  0.00     0.200 A 
ATOM     97  F   UNL A   1      47.292  28.487  35.345  1.00  0.00    -0.200 F 
ATOM     98  F   UNL A   1      46.716  26.385  36.986  1.00  0.00    -0.200 F 
ENDBRANCH  65  88
ENDBRANCH  39  40
ENDBRANCH  31  34
ENDBRANCH  29  30
ENDBRANCH  28  29
ENDBRANCH   1  28
TORSDOF 15
ENDMDL
MODEL 3
REMARK VINA RESULT:     -12.6      4.828     10.064
REMARK SMILES CC[N@@H+](C)Cc1cc2c(cc1Cl)C=C(C(=O)NCCCCNC(=O)c1ccc(-c3c4nc(c(-c5c(F)c(F)c(F)c(F)c5F)c5ccc([nH]5)c(-c5c(F)c(F)c(F)c(F)c5F)c5nc(c(-c6c(F)c(F)c(F)c(F)c6F)c6ccc3[nH]6)C=C5)C=C4)cc1)[C@@H](C(F)(F)F)O2
REMARK SMILES IDX 19 1 18 2 17 3 15 4 16 5 14 7 6 8 7 9 11 10 8 11 10 12 12 13
REMARK SMILES IDX 9 14 93 15 13 16 88 17 5 18 3 19 4 20 2 22 1 23 89 24 90 25
REMARK SMILES IDX 91 26 92 27 20 28 21 29 22 30 23 31 24 33 25 34 26 35 87 36
REMARK SMILES IDX 27 37 86 38 28 39 29 40 30 41 80 42 31 43 85 44 79 45 81 46
REMARK SMILES IDX 32 47 84 48 78 49 77 50 33 52 65 53 45 54 64 55 46 56 49 57
REMARK SMILES IDX 63 58 82 59 47 60 48 61 62 63 83 64 50 65 34 66 35 67 43 68
REMARK SMILES IDX 36 69 37 70 41 71 44 72 38 73 39 74 42 75 40 76 66 77 67 78
REMARK SMILES IDX 75 79 68 80 69 81 73 82 76 83 70 84 71 85 74 86 72 87 51 88
REMARK SMILES IDX 52 89 60 90 53 91 54 92 58 93 61 94 55 95 56 96 59 97 57 98
REMARK H PARENT 17 6 3 21 22 32 81 51 49 62
REMARK Flexibility Score: inf
ROOT
ATOM      1  C   UNL A   1      37.311  22.388  24.465  1.00  0.00     0.023 C 
ENDROOT
BRANCH   1   2
ATOM      2  C   UNL A   1      36.785  23.549  25.306  1.00  0.00     0.116 C 
BRANCH   2   3
ATOM      3  N   UNL A   1      35.940  23.103  26.401  1.00  0.00    -0.352 N 
ATOM      4  C   UNL A   1      34.636  23.211  26.752  1.00  0.00     0.251 C 
ATOM      5  O   UNL A   1      34.326  22.638  27.801  1.00  0.00    -0.270 OA
ATOM      6  H   UNL A   1      36.451  22.585  27.063  1.00  0.00     0.163 HD
BRANCH   4   7
ATOM      7  C   UNL A   1      33.597  23.963  25.986  1.00  0.00     0.067 C 
ATOM      8  C   UNL A   1      30.993  27.690  23.766  1.00  0.00     0.029 A 
ATOM      9  C   UNL A   1      31.073  26.299  23.606  1.00  0.00     0.058 A 
ATOM     10  C   UNL A   1      31.645  28.255  24.876  1.00  0.00     0.050 A 
ATOM     11  C   UNL A   1      31.890  25.524  24.423  1.00  0.00     0.128 A 
ATOM     12  C   UNL A   1      32.446  27.465  25.716  1.00  0.00     0.033 A 
ATOM     13  Cl  UNL A   1      31.512  29.928  25.283  1.00  0.00    -0.084 Cl
ATOM     14  C   UNL A   1      32.603  26.102  25.466  1.00  0.00     0.019 A 
ATOM     15  O   UNL A   1      31.997  24.213  24.075  1.00  0.00    -0.475 OA
ATOM     16  C   UNL A   1      33.549  25.288  26.217  1.00  0.00     0.025 C 
ATOM     17  C   UNL A   1      32.635  23.323  25.026  1.00  0.00     0.314 C 
BRANCH   8  18
ATOM     18  C   UNL A   1      30.255  28.498  22.715  1.00  0.00     0.300 C 
BRANCH  18  19
ATOM     19  N   UNL A   1      29.056  29.239  23.169  1.00  0.00    -0.334 N 
ATOM     20  C   UNL A   1      27.796  28.541  22.927  1.00  0.00     0.333 C 
ATOM     21  H   UNL A   1      29.193  29.276  24.179  1.00  0.00     0.348 HD
BRANCH  19  22
ATOM     22  C   UNL A   1      28.976  30.631  22.710  1.00  0.00     0.258 C 
ATOM     23  C   UNL A   1      28.032  31.471  23.557  1.00  0.00     0.071 C 
ENDBRANCH  19  22
ENDBRANCH  18  19
ENDBRANCH   8  18
BRANCH  17  24
ATOM     24  C   UNL A   1      31.539  22.512  25.740  1.00  0.00     0.429 C 
ATOM     25  F   UNL A   1      31.803  21.183  25.651  1.00  0.00    -0.167 F 
ATOM     26  F   UNL A   1      31.457  22.797  27.060  1.00  0.00    -0.167 F 
ATOM     27  F   UNL A   1      30.313  22.719  25.211  1.00  0.00    -0.167 F 
ENDBRANCH  17  24
ENDBRANCH   4   7
ENDBRANCH   2   3
ENDBRANCH   1   2
BRANCH   1  28
ATOM     28  C   UNL A   1      37.667  21.135  25.270  1.00  0.00     0.023 C 
BRANCH  28  29
ATOM     29  C   UNL A   1      39.064  21.131  25.888  1.00  0.00     0.116 C 
BRANCH  29  30
ATOM     30  N   UNL A   1      39.784  19.870  25.760  1.00  0.00    -0.352 N 
ATOM     31  C   UNL A   1      41.122  19.641  26.005  1.00  0.00     0.251 C 
ATOM     32  H   UNL A   1      39.255  19.094  25.465  1.00  0.00     0.163 HD
ATOM     33  O   UNL A   1      41.630  18.549  25.781  1.00  0.00    -0.269 OA
BRANCH  31  34
ATOM     34  C   UNL A   1      41.949  20.770  26.479  1.00  0.00     0.039 A 
ATOM     35  C   UNL A   1      42.102  20.991  27.848  1.00  0.00     0.014 A 
ATOM     36  C   UNL A   1      42.458  21.680  25.551  1.00  0.00     0.014 A 
ATOM     37  C   UNL A   1      42.575  22.220  28.287  1.00  0.00     0.010 A 
ATOM     38  C   UNL A   1      43.015  22.881  25.999  1.00  0.00     0.010 A 
ATOM     39  C   UNL A   1      43.007  23.191  27.368  1.00  0.00    -0.014 A 
BRANCH  39  40
ATOM     40  C   UNL A   1      43.377  24.539  27.874  1.00  0.00     0.031 A 
ATOM     41  C   UNL A   1      44.816  24.989  27.880  1.00  0.00     0.074 A 
ATOM     42  C   UNL A   1      42.401  25.401  28.218  1.00  0.00     0.049 A 
ATOM     43  N   UNL A   1      45.310  26.166  28.175  1.00  0.00    -0.248 NA
ATOM     44  C   UNL A   1      45.834  23.995  27.508  1.00  0.00     0.031 C 
ATOM     45  C   UNL A   1      40.973  25.083  28.239  1.00  0.00     0.029 A 
ATOM     46  N   UNL A   1      42.454  26.727  28.564  1.00  0.00    -0.354 N 
ATOM     47  C   UNL A   1      46.687  26.047  28.041  1.00  0.00     0.074 A 
ATOM     48  C   UNL A   1      46.959  24.678  27.668  1.00  0.00     0.031 C 
ATOM     49  C   UNL A   1      40.280  26.201  28.501  1.00  0.00     0.029 A 
ATOM     50  C   UNL A   1      41.216  27.299  28.718  1.00  0.00     0.049 A 
ATOM     51  H   UNL A   1      43.297  27.219  28.690  1.00  0.00     0.167 HD
ATOM     52  C   UNL A   1      47.637  27.000  28.199  1.00  0.00     0.037 A 
ATOM     53  C   UNL A   1      40.871  28.571  28.998  1.00  0.00     0.037 A 
ATOM     54  C   UNL A   1      47.364  28.374  28.528  1.00  0.00     0.049 A 
ATOM     55  C   UNL A   1      41.947  29.598  29.201  1.00  0.00     0.074 A 
ATOM     56  C   UNL A   1      48.259  29.421  28.659  1.00  0.00     0.029 A 
ATOM     57  N   UNL A   1      46.102  28.891  28.772  1.00  0.00    -0.354 N 
ATOM     58  N   UNL A   1      43.243  29.473  29.056  1.00  0.00    -0.248 NA
ATOM     59  C   UNL A   1      41.514  30.937  29.627  1.00  0.00     0.031 C 
ATOM     60  C   UNL A   1      47.542  30.566  29.019  1.00  0.00     0.029 A 
ATOM     61  C   UNL A   1      46.197  30.237  29.081  1.00  0.00     0.049 A 
ATOM     62  H   UNL A   1      45.263  28.378  28.731  1.00  0.00     0.167 HD
ATOM     63  C   UNL A   1      43.782  30.711  29.377  1.00  0.00     0.074 A 
ATOM     64  C   UNL A   1      42.670  31.583  29.698  1.00  0.00     0.031 C 
ATOM     65  C   UNL A   1      45.082  31.086  29.411  1.00  0.00     0.037 A 
BRANCH  52  66
ATOM     66  C   UNL A   1      49.070  26.601  28.013  1.00  0.00     0.064 A 
ATOM     67  C   UNL A   1      49.649  26.522  26.738  1.00  0.00     0.173 A 
ATOM     68  C   UNL A   1      49.893  26.371  29.125  1.00  0.00     0.173 A 
ATOM     69  F   UNL A   1      48.900  26.724  25.643  1.00  0.00    -0.203 F 
ATOM     70  C   UNL A   1      50.999  26.218  26.584  1.00  0.00     0.198 A 
ATOM     71  C   UNL A   1      51.247  26.087  28.967  1.00  0.00     0.198 A 
ATOM     72  F   UNL A   1      49.387  26.440  30.366  1.00  0.00    -0.203 F 
ATOM     73  F   UNL A   1      51.526  26.124  25.355  1.00  0.00    -0.200 F 
ATOM     74  C   UNL A   1      51.798  26.009  27.698  1.00  0.00     0.200 A 
ATOM     75  F   UNL A   1      52.020  25.896  30.046  1.00  0.00    -0.200 F 
ATOM     76  F   UNL A   1      53.100  25.730  27.548  1.00  0.00    -0.200 F 
ENDBRANCH  52  66
BRANCH  53  77
ATOM     77  C   UNL A   1      39.435  28.937  29.086  1.00  0.00     0.064 A 
ATOM     78  C   UNL A   1      38.758  28.887  30.311  1.00  0.00     0.173 A 
ATOM     79  C   UNL A   1      38.725  29.377  27.961  1.00  0.00     0.173 A 
ATOM     80  F   UNL A   1      39.391  28.453  31.411  1.00  0.00    -0.203 F 
ATOM     81  C   UNL A   1      37.420  29.265  30.407  1.00  0.00     0.198 A 
ATOM     82  C   UNL A   1      37.395  29.778  28.062  1.00  0.00     0.198 A 
ATOM     83  F   UNL A   1      39.332  29.443  26.767  1.00  0.00    -0.203 F 
ATOM     84  F   UNL A   1      36.787  29.187  31.585  1.00  0.00    -0.200 F 
ATOM     85  C   UNL A   1      36.743  29.719  29.285  1.00  0.00     0.200 A 
ATOM     86  F   UNL A   1      36.749  30.230  26.979  1.00  0.00    -0.200 F 
ATOM     87  F   UNL A   1      35.461  30.098  29.381  1.00  0.00    -0.200 F 
ENDBRANCH  53  77
BRANCH  65  88
ATOM     88  C   UNL A   1      45.386  32.491  29.830  1.00  0.00     0.064 A 
ATOM     89  C   UNL A   1      45.380  33.537  28.897  1.00  0.00     0.173 A 
ATOM     90  C   UNL A   1      45.597  32.808  31.179  1.00  0.00     0.173 A 
ATOM     91  F   UNL A   1      45.194  33.278  27.593  1.00  0.00    -0.203 F 
ATOM     92  C   UNL A   1      45.577  34.854  29.300  1.00  0.00     0.198 A 
ATOM     93  C   UNL A   1      45.774  34.129  31.582  1.00  0.00     0.198 A 
ATOM     94  F   UNL A   1      45.604  31.840  32.107  1.00  0.00    -0.203 F 
ATOM     95  F   UNL A   1      45.585  35.839  28.391  1.00  0.00    -0.200 F 
ATOM     96  C   UNL A   1      45.764  35.150  30.643  1.00  0.00     0.200 A 
ATOM     97  F   UNL A   1      45.943  34.414  32.881  1.00  0.00    -0.200 F 
ATOM     98  F   UNL A   1      45.936  36.420  31.032  1.00  0.00    -0.200 F 
ENDBRANCH  65  88
ENDBRANCH  39  40
ENDBRANCH  31  34
ENDBRANCH  29  30
ENDBRANCH  28  29
ENDBRANCH   1  28
TORSDOF 15
ENDMDL
