MODEL 1
REMARK VINA RESULT:     -11.7      0.000      0.000
REMARK SMILES CC[C@](C)(NC(=O)CCOc1ccc(Cl)c(Cl)c1)C(=O)NCCCCNC(=O)c1ccc(-c2c3nc(c(-c4c(F)c(F)c(F)c(F)c4F)c4ccc([nH]4)c(-c4c(F)c(F)c(F)c(F)c4F)c4nc(c(-c5c(F)c(F)c(F)c(F)c5F)c5ccc2[nH]5)C=C4)C=C3)cc1
REMARK SMILES IDX 22 1 21 2 19 3 20 4 3 6 4 7 2 8 1 9 5 10 6 11 7 13 8 14 9 15
REMARK SMILES IDX 10 16 11 17 12 18 18 19 13 20 16 21 14 22 17 23 15 24 23 25
REMARK SMILES IDX 24 26 25 27 26 28 27 29 28 31 29 32 30 33 91 34 31 35 90 36
REMARK SMILES IDX 32 37 33 38 34 39 84 40 35 41 89 42 83 43 85 44 36 45 88 46
REMARK SMILES IDX 82 47 81 48 37 50 69 51 49 52 68 53 50 54 53 55 67 56 86 57
REMARK SMILES IDX 51 58 52 59 66 61 87 62 54 63 38 64 39 65 47 66 40 67 41 68
REMARK SMILES IDX 45 69 48 70 42 71 43 72 46 73 44 74 70 75 71 76 79 77 72 78
REMARK SMILES IDX 73 79 77 80 80 81 74 82 75 83 78 84 76 85 55 86 56 87 64 88
REMARK SMILES IDX 57 89 58 90 62 91 65 92 59 93 60 94 63 95 61 96
REMARK H PARENT 21 5 5 12 26 30 85 49 53 60
REMARK Flexibility Score: inf
ROOT
ATOM      1  C   UNL A   1      31.600  29.890  25.426  1.00  0.00     0.116 C 
ENDROOT
BRANCH   1   2
ATOM      2  N   UNL A   1      32.781  29.717  24.601  1.00  0.00    -0.354 N 
ATOM      3  C   UNL A   1      33.352  28.587  24.094  1.00  0.00     0.245 C 
ATOM      4  O   UNL A   1      34.211  28.746  23.222  1.00  0.00    -0.272 OA
ATOM      5  H   UNL A   1      33.248  30.553  24.370  1.00  0.00     0.163 HD
BRANCH   3   6
ATOM      6  C   UNL A   1      32.866  27.173  24.522  1.00  0.00     0.116 C 
ATOM      7  C   UNL A   1      33.136  26.973  26.016  1.00  0.00     0.045 C 
BRANCH   6   8
ATOM      8  C   UNL A   1      33.730  26.138  23.735  1.00  0.00     0.035 C 
ATOM      9  C   UNL A   1      33.097  25.572  22.467  1.00  0.00     0.007 C 
ENDBRANCH   6   8
BRANCH   6  10
ATOM     10  N   UNL A   1      31.429  27.005  24.207  1.00  0.00    -0.342 N 
ATOM     11  C   UNL A   1      30.447  26.264  24.791  1.00  0.00     0.224 C 
ATOM     12  H   UNL A   1      31.126  27.528  23.430  1.00  0.00     0.164 HD
ATOM     13  O   UNL A   1      29.330  26.299  24.265  1.00  0.00    -0.275 OA
BRANCH  11  14
ATOM     14  C   UNL A   1      30.657  25.519  26.091  1.00  0.00     0.141 C 
BRANCH  14  15
ATOM     15  C   UNL A   1      30.856  24.014  25.913  1.00  0.00     0.239 C 
BRANCH  15  16
ATOM     16  O   UNL A   1      32.022  23.496  26.568  1.00  0.00    -0.493 OA
BRANCH  16  17
ATOM     17  C   UNL A   1      33.081  23.101  25.800  1.00  0.00     0.120 A 
ATOM     18  C   UNL A   1      32.994  22.425  24.586  1.00  0.00     0.048 A 
ATOM     19  C   UNL A   1      34.337  23.495  26.269  1.00  0.00     0.068 A 
ATOM     20  C   UNL A   1      34.113  22.312  23.760  1.00  0.00     0.026 A 
ATOM     21  C   UNL A   1      35.471  23.348  25.462  1.00  0.00     0.063 A 
ATOM     22  C   UNL A   1      35.349  22.796  24.183  1.00  0.00     0.059 A 
ATOM     23  Cl  UNL A   1      36.975  23.946  26.067  1.00  0.00    -0.083 Cl
ATOM     24  Cl  UNL A   1      36.663  22.723  23.067  1.00  0.00    -0.083 Cl
ENDBRANCH  16  17
ENDBRANCH  15  16
ENDBRANCH  14  15
ENDBRANCH  11  14
ENDBRANCH   6  10
ENDBRANCH   3   6
ENDBRANCH   1   2
BRANCH   1  25
ATOM     25  C   UNL A   1      31.864  30.554  26.774  1.00  0.00     0.023 C 
BRANCH  25  26
ATOM     26  C   UNL A   1      31.615  32.054  26.825  1.00  0.00     0.023 C 
BRANCH  26  27
ATOM     27  C   UNL A   1      32.831  32.872  27.217  1.00  0.00     0.116 C 
BRANCH  27  28
ATOM     28  N   UNL A   1      32.490  34.211  27.673  1.00  0.00    -0.352 N 
ATOM     29  C   UNL A   1      33.043  34.940  28.695  1.00  0.00     0.251 C 
ATOM     30  H   UNL A   1      31.762  34.655  27.180  1.00  0.00     0.163 HD
ATOM     31  O   UNL A   1      32.574  36.010  29.031  1.00  0.00    -0.269 OA
BRANCH  29  32
ATOM     32  C   UNL A   1      34.202  34.366  29.400  1.00  0.00     0.039 A 
ATOM     33  C   UNL A   1      33.972  33.545  30.502  1.00  0.00     0.014 A 
ATOM     34  C   UNL A   1      35.494  34.577  28.912  1.00  0.00     0.014 A 
ATOM     35  C   UNL A   1      35.047  32.887  31.092  1.00  0.00     0.010 A 
ATOM     36  C   UNL A   1      36.546  33.842  29.436  1.00  0.00     0.010 A 
ATOM     37  C   UNL A   1      36.334  33.005  30.541  1.00  0.00    -0.014 A 
BRANCH  37  38
ATOM     38  C   UNL A   1      37.486  32.287  31.129  1.00  0.00     0.031 A 
ATOM     39  C   UNL A   1      37.962  32.660  32.505  1.00  0.00     0.074 A 
ATOM     40  C   UNL A   1      38.130  31.353  30.405  1.00  0.00     0.049 A 
ATOM     41  N   UNL A   1      38.985  32.201  33.178  1.00  0.00    -0.248 NA
ATOM     42  C   UNL A   1      37.210  33.714  33.203  1.00  0.00     0.031 C 
ATOM     43  C   UNL A   1      37.785  30.954  29.038  1.00  0.00     0.029 A 
ATOM     44  N   UNL A   1      39.213  30.572  30.715  1.00  0.00    -0.354 N 
ATOM     45  C   UNL A   1      39.007  32.924  34.363  1.00  0.00     0.074 A 
ATOM     46  C   UNL A   1      37.940  33.896  34.291  1.00  0.00     0.031 C 
ATOM     47  C   UNL A   1      38.619  29.980  28.641  1.00  0.00     0.029 A 
ATOM     48  C   UNL A   1      39.580  29.715  29.706  1.00  0.00     0.049 A 
ATOM     49  H   UNL A   1      39.683  30.622  31.578  1.00  0.00     0.167 HD
ATOM     50  C   UNL A   1      39.825  32.767  35.429  1.00  0.00     0.037 A 
ATOM     51  C   UNL A   1      40.583  28.819  29.654  1.00  0.00     0.037 A 
ATOM     52  C   UNL A   1      40.860  31.771  35.501  1.00  0.00     0.049 A 
ATOM     53  C   UNL A   1      41.478  28.664  30.855  1.00  0.00     0.074 A 
ATOM     54  C   UNL A   1      41.704  31.478  36.557  1.00  0.00     0.029 A 
ATOM     55  N   UNL A   1      41.193  30.906  34.468  1.00  0.00    -0.354 N 
ATOM     56  N   UNL A   1      41.441  29.297  32.003  1.00  0.00    -0.248 NA
ATOM     57  C   UNL A   1      42.549  27.664  30.755  1.00  0.00     0.031 C 
ATOM     58  C   UNL A   1      42.581  30.471  36.144  1.00  0.00     0.029 A 
ATOM     59  C   UNL A   1      42.246  30.095  34.852  1.00  0.00     0.049 A 
ATOM     60  H   UNL A   1      40.744  30.874  33.591  1.00  0.00     0.167 HD
ATOM     61  C   UNL A   1      42.460  28.753  32.772  1.00  0.00     0.074 A 
ATOM     62  C   UNL A   1      43.086  27.725  31.965  1.00  0.00     0.031 C 
ATOM     63  C   UNL A   1      42.845  29.072  34.032  1.00  0.00     0.037 A 
BRANCH  50  64
ATOM     64  C   UNL A   1      39.627  33.686  36.599  1.00  0.00     0.064 A 
ATOM     65  C   UNL A   1      38.813  33.334  37.687  1.00  0.00     0.173 A 
ATOM     66  C   UNL A   1      40.279  34.928  36.644  1.00  0.00     0.173 A 
ATOM     67  F   UNL A   1      38.154  32.166  37.688  1.00  0.00    -0.203 F 
ATOM     68  C   UNL A   1      38.634  34.203  38.760  1.00  0.00     0.198 A 
ATOM     69  C   UNL A   1      40.125  35.779  37.736  1.00  0.00     0.198 A 
ATOM     70  F   UNL A   1      41.070  35.315  35.632  1.00  0.00    -0.203 F 
ATOM     71  F   UNL A   1      37.807  33.867  39.760  1.00  0.00    -0.200 F 
ATOM     72  C   UNL A   1      39.297  35.420  38.788  1.00  0.00     0.200 A 
ATOM     73  F   UNL A   1      40.776  36.950  37.767  1.00  0.00    -0.200 F 
ATOM     74  F   UNL A   1      39.131  36.252  39.826  1.00  0.00    -0.200 F 
ENDBRANCH  50  64
BRANCH  51  75
ATOM     75  C   UNL A   1      40.775  27.982  28.441  1.00  0.00     0.064 A 
ATOM     76  C   UNL A   1      41.547  28.443  27.365  1.00  0.00     0.173 A 
ATOM     77  C   UNL A   1      40.192  26.712  28.326  1.00  0.00     0.173 A 
ATOM     78  F   UNL A   1      42.113  29.657  27.418  1.00  0.00    -0.203 F 
ATOM     79  C   UNL A   1      41.704  27.678  26.211  1.00  0.00     0.198 A 
ATOM     80  C   UNL A   1      40.375  25.935  27.185  1.00  0.00     0.198 A 
ATOM     81  F   UNL A   1      39.451  26.219  29.331  1.00  0.00    -0.203 F 
ATOM     82  F   UNL A   1      42.405  28.165  25.177  1.00  0.00    -0.200 F 
ATOM     83  C   UNL A   1      41.122  26.422  26.124  1.00  0.00     0.200 A 
ATOM     84  F   UNL A   1      39.825  24.715  27.111  1.00  0.00    -0.200 F 
ATOM     85  F   UNL A   1      41.276  25.686  25.015  1.00  0.00    -0.200 F 
ENDBRANCH  51  75
BRANCH  63  86
ATOM     86  C   UNL A   1      43.969  28.276  34.629  1.00  0.00     0.064 A 
ATOM     87  C   UNL A   1      43.738  27.084  35.330  1.00  0.00     0.173 A 
ATOM     88  C   UNL A   1      45.299  28.692  34.457  1.00  0.00     0.173 A 
ATOM     89  F   UNL A   1      42.484  26.653  35.533  1.00  0.00    -0.203 F 
ATOM     90  C   UNL A   1      44.796  26.352  35.862  1.00  0.00     0.198 A 
ATOM     91  C   UNL A   1      46.355  27.939  34.960  1.00  0.00     0.198 A 
ATOM     92  F   UNL A   1      45.574  29.821  33.786  1.00  0.00    -0.203 F 
ATOM     93  F   UNL A   1      44.549  25.243  36.573  1.00  0.00    -0.200 F 
ATOM     94  C   UNL A   1      46.103  26.775  35.669  1.00  0.00     0.200 A 
ATOM     95  F   UNL A   1      47.617  28.340  34.757  1.00  0.00    -0.200 F 
ATOM     96  F   UNL A   1      47.120  26.063  36.173  1.00  0.00    -0.200 F 
ENDBRANCH  63  86
ENDBRANCH  37  38
ENDBRANCH  29  32
ENDBRANCH  27  28
ENDBRANCH  26  27
ENDBRANCH  25  26
ENDBRANCH   1  25
TORSDOF 17
ENDMDL
MODEL 2
REMARK VINA RESULT:     -11.7      1.310      7.441
REMARK SMILES CC[C@](C)(NC(=O)CCOc1ccc(Cl)c(Cl)c1)C(=O)NCCCCNC(=O)c1ccc(-c2c3nc(c(-c4c(F)c(F)c(F)c(F)c4F)c4ccc([nH]4)c(-c4c(F)c(F)c(F)c(F)c4F)c4nc(c(-c5c(F)c(F)c(F)c(F)c5F)c5ccc2[nH]5)C=C4)C=C3)cc1
REMARK SMILES IDX 22 1 21 2 19 3 20 4 3 6 4 7 2 8 1 9 5 10 6 11 7 13 8 14 9 15
REMARK SMILES IDX 10 16 11 17 12 18 18 19 13 20 16 21 14 22 17 23 15 24 23 25
REMARK SMILES IDX 24 26 25 27 26 28 27 29 28 31 29 32 30 33 91 34 31 35 90 36
REMARK SMILES IDX 32 37 33 38 34 39 84 40 35 41 89 42 83 43 85 44 36 45 88 46
REMARK SMILES IDX 82 47 81 48 37 50 69 51 49 52 68 53 50 54 53 55 67 56 86 57
REMARK SMILES IDX 51 58 52 59 66 61 87 62 54 63 38 64 39 65 47 66 40 67 41 68
REMARK SMILES IDX 45 69 48 70 42 71 43 72 46 73 44 74 70 75 71 76 79 77 72 78
REMARK SMILES IDX 73 79 77 80 80 81 74 82 75 83 78 84 76 85 55 86 56 87 64 88
REMARK SMILES IDX 57 89 58 90 62 91 65 92 59 93 60 94 63 95 61 96
REMARK H PARENT 21 5 5 12 26 30 85 49 53 60
REMARK Flexibility Score: inf
ROOT
ATOM      1  C   UNL A   1      31.684  30.016  25.265  1.00  0.00     0.116 C 
ENDROOT
BRANCH   1   2
ATOM      2  N   UNL A   1      32.848  29.671  24.472  1.00  0.00    -0.354 N 
ATOM      3  C   UNL A   1      32.972  28.858  23.384  1.00  0.00     0.245 C 
ATOM      4  O   UNL A   1      34.032  28.935  22.755  1.00  0.00    -0.272 OA
ATOM      5  H   UNL A   1      33.688  30.093  24.768  1.00  0.00     0.163 HD
BRANCH   3   6
ATOM      6  C   UNL A   1      31.797  27.961  22.906  1.00  0.00     0.116 C 
ATOM      7  C   UNL A   1      30.584  28.839  22.582  1.00  0.00     0.045 C 
BRANCH   6   8
ATOM      8  C   UNL A   1      31.413  27.036  24.104  1.00  0.00     0.035 C 
ATOM      9  C   UNL A   1      29.936  26.668  24.214  1.00  0.00     0.007 C 
ENDBRANCH   6   8
BRANCH   6  10
ATOM     10  N   UNL A   1      32.207  27.156  21.732  1.00  0.00    -0.342 N 
ATOM     11  C   UNL A   1      32.995  26.051  21.612  1.00  0.00     0.224 C 
ATOM     12  H   UNL A   1      31.841  27.480  20.877  1.00  0.00     0.164 HD
ATOM     13  O   UNL A   1      33.190  25.622  20.471  1.00  0.00    -0.275 OA
BRANCH  11  14
ATOM     14  C   UNL A   1      33.522  25.297  22.813  1.00  0.00     0.141 C 
BRANCH  14  15
ATOM     15  C   UNL A   1      33.099  23.827  22.851  1.00  0.00     0.239 C 
BRANCH  15  16
ATOM     16  O   UNL A   1      32.846  23.325  24.171  1.00  0.00    -0.493 OA
BRANCH  16  17
ATOM     17  C   UNL A   1      33.151  22.021  24.442  1.00  0.00     0.120 A 
ATOM     18  C   UNL A   1      32.261  20.953  24.389  1.00  0.00     0.048 A 
ATOM     19  C   UNL A   1      34.497  21.770  24.720  1.00  0.00     0.068 A 
ATOM     20  C   UNL A   1      32.733  19.640  24.418  1.00  0.00     0.026 A 
ATOM     21  C   UNL A   1      34.971  20.455  24.791  1.00  0.00     0.063 A 
ATOM     22  C   UNL A   1      34.092  19.386  24.593  1.00  0.00     0.059 A 
ATOM     23  Cl  UNL A   1      36.665  20.221  25.040  1.00  0.00    -0.083 Cl
ATOM     24  Cl  UNL A   1      34.619  17.746  24.508  1.00  0.00    -0.083 Cl
ENDBRANCH  16  17
ENDBRANCH  15  16
ENDBRANCH  14  15
ENDBRANCH  11  14
ENDBRANCH   6  10
ENDBRANCH   3   6
ENDBRANCH   1   2
BRANCH   1  25
ATOM     25  C   UNL A   1      32.003  30.504  26.675  1.00  0.00     0.023 C 
BRANCH  25  26
ATOM     26  C   UNL A   1      31.657  31.958  26.958  1.00  0.00     0.023 C 
BRANCH  26  27
ATOM     27  C   UNL A   1      32.848  32.815  27.342  1.00  0.00     0.116 C 
BRANCH  27  28
ATOM     28  N   UNL A   1      32.479  34.187  27.660  1.00  0.00    -0.352 N 
ATOM     29  C   UNL A   1      32.999  35.017  28.622  1.00  0.00     0.251 C 
ATOM     30  H   UNL A   1      31.758  34.571  27.111  1.00  0.00     0.163 HD
ATOM     31  O   UNL A   1      32.508  36.107  28.844  1.00  0.00    -0.269 OA
BRANCH  29  32
ATOM     32  C   UNL A   1      34.147  34.529  29.405  1.00  0.00     0.039 A 
ATOM     33  C   UNL A   1      33.903  33.913  30.631  1.00  0.00     0.014 A 
ATOM     34  C   UNL A   1      35.439  34.611  28.880  1.00  0.00     0.014 A 
ATOM     35  C   UNL A   1      34.963  33.325  31.315  1.00  0.00     0.010 A 
ATOM     36  C   UNL A   1      36.472  33.938  29.512  1.00  0.00     0.010 A 
ATOM     37  C   UNL A   1      36.247  33.305  30.743  1.00  0.00    -0.014 A 
BRANCH  37  38
ATOM     38  C   UNL A   1      37.381  32.656  31.435  1.00  0.00     0.031 A 
ATOM     39  C   UNL A   1      38.092  31.511  30.770  1.00  0.00     0.074 A 
ATOM     40  C   UNL A   1      37.725  33.056  32.673  1.00  0.00     0.049 A 
ATOM     41  N   UNL A   1      39.066  30.766  31.225  1.00  0.00    -0.248 NA
ATOM     42  C   UNL A   1      37.622  31.129  29.428  1.00  0.00     0.031 C 
ATOM     43  C   UNL A   1      37.065  34.120  33.433  1.00  0.00     0.029 A 
ATOM     44  N   UNL A   1      38.712  32.612  33.514  1.00  0.00    -0.354 N 
ATOM     45  C   UNL A   1      39.307  29.822  30.236  1.00  0.00     0.074 A 
ATOM     46  C   UNL A   1      38.337  30.042  29.188  1.00  0.00     0.031 C 
ATOM     47  C   UNL A   1      37.686  34.268  34.613  1.00  0.00     0.029 A 
ATOM     48  C   UNL A   1      38.761  33.285  34.710  1.00  0.00     0.049 A 
ATOM     49  H   UNL A   1      39.327  31.879  33.282  1.00  0.00     0.167 HD
ATOM     50  C   UNL A   1      40.274  28.876  30.194  1.00  0.00     0.037 A 
ATOM     51  C   UNL A   1      39.582  33.120  35.764  1.00  0.00     0.037 A 
ATOM     52  C   UNL A   1      41.256  28.691  31.228  1.00  0.00     0.049 A 
ATOM     53  C   UNL A   1      40.650  32.061  35.689  1.00  0.00     0.074 A 
ATOM     54  C   UNL A   1      42.321  27.810  31.260  1.00  0.00     0.029 A 
ATOM     55  N   UNL A   1      41.287  29.404  32.419  1.00  0.00    -0.354 N 
ATOM     56  N   UNL A   1      40.921  31.224  34.717  1.00  0.00    -0.248 NA
ATOM     57  C   UNL A   1      41.530  31.929  36.858  1.00  0.00     0.031 C 
ATOM     58  C   UNL A   1      42.965  27.953  32.492  1.00  0.00     0.029 A 
ATOM     59  C   UNL A   1      42.339  28.965  33.204  1.00  0.00     0.049 A 
ATOM     60  H   UNL A   1      40.654  30.117  32.667  1.00  0.00     0.167 HD
ATOM     61  C   UNL A   1      42.020  30.489  35.140  1.00  0.00     0.074 A 
ATOM     62  C   UNL A   1      42.374  30.992  36.452  1.00  0.00     0.031 C 
ATOM     63  C   UNL A   1      42.677  29.489  34.504  1.00  0.00     0.037 A 
BRANCH  50  64
ATOM     64  C   UNL A   1      40.318  27.979  28.991  1.00  0.00     0.064 A 
ATOM     65  C   UNL A   1      39.624  26.759  28.953  1.00  0.00     0.173 A 
ATOM     66  C   UNL A   1      41.045  28.354  27.851  1.00  0.00     0.173 A 
ATOM     67  F   UNL A   1      38.927  26.345  30.021  1.00  0.00    -0.203 F 
ATOM     68  C   UNL A   1      39.682  25.935  27.832  1.00  0.00     0.198 A 
ATOM     69  C   UNL A   1      41.072  27.543  26.719  1.00  0.00     0.198 A 
ATOM     70  F   UNL A   1      41.726  29.510  27.832  1.00  0.00    -0.203 F 
ATOM     71  F   UNL A   1      39.057  24.749  27.842  1.00  0.00    -0.200 F 
ATOM     72  C   UNL A   1      40.398  26.331  26.714  1.00  0.00     0.200 A 
ATOM     73  F   UNL A   1      41.755  27.934  25.634  1.00  0.00    -0.200 F 
ATOM     74  F   UNL A   1      40.447  25.542  25.632  1.00  0.00    -0.200 F 
ENDBRANCH  50  64
BRANCH  51  75
ATOM     75  C   UNL A   1      39.449  33.993  36.959  1.00  0.00     0.064 A 
ATOM     76  C   UNL A   1      40.060  35.254  36.999  1.00  0.00     0.173 A 
ATOM     77  C   UNL A   1      38.716  33.589  38.084  1.00  0.00     0.173 A 
ATOM     78  F   UNL A   1      40.786  35.681  35.955  1.00  0.00    -0.203 F 
ATOM     79  C   UNL A   1      39.967  36.064  38.129  1.00  0.00     0.198 A 
ATOM     80  C   UNL A   1      38.597  34.413  39.201  1.00  0.00     0.198 A 
ATOM     81  F   UNL A   1      38.103  32.395  38.094  1.00  0.00    -0.203 F 
ATOM     82  F   UNL A   1      40.604  37.243  38.159  1.00  0.00    -0.200 F 
ATOM     83  C   UNL A   1      39.231  35.645  39.227  1.00  0.00     0.200 A 
ATOM     84  F   UNL A   1      37.871  34.012  40.254  1.00  0.00    -0.200 F 
ATOM     85  F   UNL A   1      39.140  36.426  40.312  1.00  0.00    -0.200 F 
ENDBRANCH  51  75
BRANCH  63  86
ATOM     86  C   UNL A   1      43.869  28.899  35.199  1.00  0.00     0.064 A 
ATOM     87  C   UNL A   1      45.161  29.410  35.011  1.00  0.00     0.173 A 
ATOM     88  C   UNL A   1      43.707  27.835  36.101  1.00  0.00     0.173 A 
ATOM     89  F   UNL A   1      45.369  30.417  34.149  1.00  0.00    -0.203 F 
ATOM     90  C   UNL A   1      46.251  28.860  35.678  1.00  0.00     0.198 A 
ATOM     91  C   UNL A   1      44.794  27.311  36.793  1.00  0.00     0.198 A 
ATOM     92  F   UNL A   1      42.490  27.316  36.324  1.00  0.00    -0.203 F 
ATOM     93  F   UNL A   1      47.484  29.331  35.443  1.00  0.00    -0.200 F 
ATOM     94  C   UNL A   1      46.066  27.818  36.574  1.00  0.00     0.200 A 
ATOM     95  F   UNL A   1      44.610  26.316  37.670  1.00  0.00    -0.200 F 
ATOM     96  F   UNL A   1      47.116  27.296  37.224  1.00  0.00    -0.200 F 
ENDBRANCH  63  86
ENDBRANCH  37  38
ENDBRANCH  29  32
ENDBRANCH  27  28
ENDBRANCH  26  27
ENDBRANCH  25  26
ENDBRANCH   1  25
TORSDOF 17
ENDMDL
MODEL 3
REMARK VINA RESULT:     -11.6      1.200      7.473
REMARK SMILES CC[C@](C)(NC(=O)CCOc1ccc(Cl)c(Cl)c1)C(=O)NCCCCNC(=O)c1ccc(-c2c3nc(c(-c4c(F)c(F)c(F)c(F)c4F)c4ccc([nH]4)c(-c4c(F)c(F)c(F)c(F)c4F)c4nc(c(-c5c(F)c(F)c(F)c(F)c5F)c5ccc2[nH]5)C=C4)C=C3)cc1
REMARK SMILES IDX 22 1 21 2 19 3 20 4 3 6 4 7 2 8 1 9 5 10 6 11 7 13 8 14 9 15
REMARK SMILES IDX 10 16 11 17 12 18 18 19 13 20 16 21 14 22 17 23 15 24 23 25
REMARK SMILES IDX 24 26 25 27 26 28 27 29 28 31 29 32 30 33 91 34 31 35 90 36
REMARK SMILES IDX 32 37 33 38 34 39 84 40 35 41 89 42 83 43 85 44 36 45 88 46
REMARK SMILES IDX 82 47 81 48 37 50 69 51 49 52 68 53 50 54 53 55 67 56 86 57
REMARK SMILES IDX 51 58 52 59 66 61 87 62 54 63 38 64 39 65 47 66 40 67 41 68
REMARK SMILES IDX 45 69 48 70 42 71 43 72 46 73 44 74 70 75 71 76 79 77 72 78
REMARK SMILES IDX 73 79 77 80 80 81 74 82 75 83 78 84 76 85 55 86 56 87 64 88
REMARK SMILES IDX 57 89 58 90 62 91 65 92 59 93 60 94 63 95 61 96
REMARK H PARENT 21 5 5 12 26 30 85 49 53 60
REMARK Flexibility Score: inf
ROOT
ATOM      1  C   UNL A   1      31.657  30.110  25.161  1.00  0.00     0.116 C 
ENDROOT
BRANCH   1   2
ATOM      2  N   UNL A   1      32.802  29.651  24.397  1.00  0.00    -0.354 N 
ATOM      3  C   UNL A   1      32.931  28.601  23.536  1.00  0.00     0.245 C 
ATOM      4  O   UNL A   1      33.947  28.584  22.835  1.00  0.00    -0.272 OA
ATOM      5  H   UNL A   1      33.620  30.185  24.521  1.00  0.00     0.163 HD
BRANCH   3   6
ATOM      6  C   UNL A   1      31.805  27.541  23.378  1.00  0.00     0.116 C 
ATOM      7  C   UNL A   1      32.346  26.334  22.605  1.00  0.00     0.045 C 
BRANCH   6   8
ATOM      8  C   UNL A   1      30.680  28.197  22.516  1.00  0.00     0.035 C 
ATOM      9  C   UNL A   1      29.282  28.185  23.128  1.00  0.00     0.007 C 
ENDBRANCH   6   8
BRANCH   6  10
ATOM     10  N   UNL A   1      31.284  27.141  24.705  1.00  0.00    -0.342 N 
ATOM     11  C   UNL A   1      31.878  26.553  25.780  1.00  0.00     0.224 C 
ATOM     12  H   UNL A   1      30.327  27.338  24.835  1.00  0.00     0.164 HD
ATOM     13  O   UNL A   1      31.157  26.301  26.751  1.00  0.00    -0.275 OA
BRANCH  11  14
ATOM     14  C   UNL A   1      33.370  26.318  25.854  1.00  0.00     0.141 C 
BRANCH  14  15
ATOM     15  C   UNL A   1      33.777  24.864  25.610  1.00  0.00     0.239 C 
BRANCH  15  16
ATOM     16  O   UNL A   1      35.169  24.688  25.310  1.00  0.00    -0.493 OA
BRANCH  16  17
ATOM     17  C   UNL A   1      35.692  23.426  25.353  1.00  0.00     0.120 A 
ATOM     18  C   UNL A   1      35.060  22.271  24.901  1.00  0.00     0.048 A 
ATOM     19  C   UNL A   1      37.003  23.340  25.830  1.00  0.00     0.068 A 
ATOM     20  C   UNL A   1      35.782  21.088  24.744  1.00  0.00     0.026 A 
ATOM     21  C   UNL A   1      37.721  22.145  25.712  1.00  0.00     0.063 A 
ATOM     22  C   UNL A   1      37.121  21.028  25.123  1.00  0.00     0.059 A 
ATOM     23  Cl  UNL A   1      39.368  22.140  26.232  1.00  0.00    -0.083 Cl
ATOM     24  Cl  UNL A   1      37.982  19.568  24.798  1.00  0.00    -0.083 Cl
ENDBRANCH  16  17
ENDBRANCH  15  16
ENDBRANCH  14  15
ENDBRANCH  11  14
ENDBRANCH   6  10
ENDBRANCH   3   6
ENDBRANCH   1   2
BRANCH   1  25
ATOM     25  C   UNL A   1      31.989  30.576  26.576  1.00  0.00     0.023 C 
BRANCH  25  26
ATOM     26  C   UNL A   1      31.661  32.030  26.880  1.00  0.00     0.023 C 
BRANCH  26  27
ATOM     27  C   UNL A   1      32.831  32.829  27.420  1.00  0.00     0.116 C 
BRANCH  27  28
ATOM     28  N   UNL A   1      32.483  34.210  27.719  1.00  0.00    -0.352 N 
ATOM     29  C   UNL A   1      33.021  35.049  28.663  1.00  0.00     0.251 C 
ATOM     30  H   UNL A   1      31.763  34.596  27.169  1.00  0.00     0.163 HD
ATOM     31  O   UNL A   1      32.547  36.149  28.871  1.00  0.00    -0.269 OA
BRANCH  29  32
ATOM     32  C   UNL A   1      34.169  34.558  29.445  1.00  0.00     0.039 A 
ATOM     33  C   UNL A   1      33.928  33.972  30.687  1.00  0.00     0.014 A 
ATOM     34  C   UNL A   1      35.457  34.606  28.906  1.00  0.00     0.014 A 
ATOM     35  C   UNL A   1      34.984  33.382  31.373  1.00  0.00     0.010 A 
ATOM     36  C   UNL A   1      36.485  33.929  29.542  1.00  0.00     0.010 A 
ATOM     37  C   UNL A   1      36.261  33.327  30.789  1.00  0.00    -0.014 A 
BRANCH  37  38
ATOM     38  C   UNL A   1      37.392  32.673  31.483  1.00  0.00     0.031 A 
ATOM     39  C   UNL A   1      38.092  31.518  30.825  1.00  0.00     0.074 A 
ATOM     40  C   UNL A   1      37.741  33.080  32.718  1.00  0.00     0.049 A 
ATOM     41  N   UNL A   1      39.060  30.768  31.284  1.00  0.00    -0.248 NA
ATOM     42  C   UNL A   1      37.616  31.131  29.488  1.00  0.00     0.031 C 
ATOM     43  C   UNL A   1      37.091  34.155  33.471  1.00  0.00     0.029 A 
ATOM     44  N   UNL A   1      38.726  32.633  33.560  1.00  0.00    -0.354 N 
ATOM     45  C   UNL A   1      39.292  29.815  30.302  1.00  0.00     0.074 A 
ATOM     46  C   UNL A   1      38.321  30.035  29.253  1.00  0.00     0.031 C 
ATOM     47  C   UNL A   1      37.716  34.306  34.649  1.00  0.00     0.029 A 
ATOM     48  C   UNL A   1      38.782  33.314  34.752  1.00  0.00     0.049 A 
ATOM     49  H   UNL A   1      39.334  31.894  33.333  1.00  0.00     0.167 HD
ATOM     50  C   UNL A   1      40.251  28.861  30.264  1.00  0.00     0.037 A 
ATOM     51  C   UNL A   1      39.604  33.150  35.805  1.00  0.00     0.037 A 
ATOM     52  C   UNL A   1      41.233  28.675  31.299  1.00  0.00     0.049 A 
ATOM     53  C   UNL A   1      40.663  32.082  35.736  1.00  0.00     0.074 A 
ATOM     54  C   UNL A   1      42.290  27.786  31.335  1.00  0.00     0.029 A 
ATOM     55  N   UNL A   1      41.272  29.397  32.484  1.00  0.00    -0.354 N 
ATOM     56  N   UNL A   1      40.926  31.236  34.770  1.00  0.00    -0.248 NA
ATOM     57  C   UNL A   1      41.544  31.951  36.904  1.00  0.00     0.031 C 
ATOM     58  C   UNL A   1      42.938  27.932  32.565  1.00  0.00     0.029 A 
ATOM     59  C   UNL A   1      42.321  28.954  33.270  1.00  0.00     0.049 A 
ATOM     60  H   UNL A   1      40.646  30.116  32.729  1.00  0.00     0.167 HD
ATOM     61  C   UNL A   1      42.018  30.495  35.196  1.00  0.00     0.074 A 
ATOM     62  C   UNL A   1      42.379  31.004  36.504  1.00  0.00     0.031 C 
ATOM     63  C   UNL A   1      42.666  29.485  34.566  1.00  0.00     0.037 A 
BRANCH  50  64
ATOM     64  C   UNL A   1      40.285  27.955  29.068  1.00  0.00     0.064 A 
ATOM     65  C   UNL A   1      39.593  26.734  29.046  1.00  0.00     0.173 A 
ATOM     66  C   UNL A   1      41.001  28.322  27.919  1.00  0.00     0.173 A 
ATOM     67  F   UNL A   1      38.905  26.327  30.123  1.00  0.00    -0.203 F 
ATOM     68  C   UNL A   1      39.641  25.901  27.931  1.00  0.00     0.198 A 
ATOM     69  C   UNL A   1      41.019  27.503  26.793  1.00  0.00     0.198 A 
ATOM     70  F   UNL A   1      41.681  29.478  27.886  1.00  0.00    -0.203 F 
ATOM     71  F   UNL A   1      39.018  24.715  27.955  1.00  0.00    -0.200 F 
ATOM     72  C   UNL A   1      40.347  26.290  26.803  1.00  0.00     0.200 A 
ATOM     73  F   UNL A   1      41.692  27.886  25.699  1.00  0.00    -0.200 F 
ATOM     74  F   UNL A   1      40.387  25.492  25.727  1.00  0.00    -0.200 F 
ENDBRANCH  50  64
BRANCH  51  75
ATOM     75  C   UNL A   1      39.480  34.033  36.994  1.00  0.00     0.064 A 
ATOM     76  C   UNL A   1      38.738  33.630  38.113  1.00  0.00     0.173 A 
ATOM     77  C   UNL A   1      40.091  35.294  37.038  1.00  0.00     0.173 A 
ATOM     78  F   UNL A   1      38.120  32.440  38.115  1.00  0.00    -0.203 F 
ATOM     79  C   UNL A   1      38.590  34.466  39.219  1.00  0.00     0.198 A 
ATOM     80  C   UNL A   1      39.968  36.116  38.156  1.00  0.00     0.198 A 
ATOM     81  F   UNL A   1      40.821  35.724  35.997  1.00  0.00    -0.203 F 
ATOM     82  F   UNL A   1      37.833  34.076  40.254  1.00  0.00    -0.200 F 
ATOM     83  C   UNL A   1      39.210  35.706  39.241  1.00  0.00     0.200 A 
ATOM     84  F   UNL A   1      40.583  37.307  38.181  1.00  0.00    -0.200 F 
ATOM     85  F   UNL A   1      39.069  36.508  40.305  1.00  0.00    -0.200 F 
ENDBRANCH  51  75
BRANCH  63  86
ATOM     86  C   UNL A   1      43.855  28.890  35.263  1.00  0.00     0.064 A 
ATOM     87  C   UNL A   1      45.152  29.381  35.060  1.00  0.00     0.173 A 
ATOM     88  C   UNL A   1      43.684  27.842  36.182  1.00  0.00     0.173 A 
ATOM     89  F   UNL A   1      45.368  30.372  34.181  1.00  0.00    -0.203 F 
ATOM     90  C   UNL A   1      46.239  28.827  35.730  1.00  0.00     0.198 A 
ATOM     91  C   UNL A   1      44.768  27.314  36.876  1.00  0.00     0.198 A 
ATOM     92  F   UNL A   1      42.462  27.343  36.420  1.00  0.00    -0.203 F 
ATOM     93  F   UNL A   1      47.476  29.278  35.480  1.00  0.00    -0.200 F 
ATOM     94  C   UNL A   1      46.045  27.801  36.643  1.00  0.00     0.200 A 
ATOM     95  F   UNL A   1      44.576  26.336  37.769  1.00  0.00    -0.200 F 
ATOM     96  F   UNL A   1      47.092  27.275  37.294  1.00  0.00    -0.200 F 
ENDBRANCH  63  86
ENDBRANCH  37  38
ENDBRANCH  29  32
ENDBRANCH  27  28
ENDBRANCH  26  27
ENDBRANCH  25  26
ENDBRANCH   1  25
TORSDOF 17
ENDMDL
