MODEL 1
REMARK VINA RESULT:     -13.3      0.000      0.000
REMARK SMILES C[C@@H]1CN(S(=O)(=O)c2ccc(Cl)c(C(=O)NCCCCNC(=O)c3ccc(-c4c5nc(c(-c6c(F)c(F)c(F)c(F)c6F)c6ccc([nH]6)c(-c6c(F)c(F)c(F)c(F)c6F)c6nc(c(-c7c(F)c(F)c(F)c(F)c7F)c7ccc4[nH]7)C=C6)C=C5)cc3)c2Cl)C[C@H]1C
REMARK SMILES IDX 18 1 17 2 16 3 14 4 15 5 13 7 8 8 9 9 87 10 10 11 88 12
REMARK SMILES IDX 11 13 12 14 5 15 6 16 7 17 4 18 1 19 2 20 3 21 90 22 89 23
REMARK SMILES IDX 91 24 19 25 20 26 21 27 22 28 23 30 24 31 25 32 86 33 26 34
REMARK SMILES IDX 85 35 27 36 28 37 29 38 79 39 30 40 84 41 78 42 80 43 31 44
REMARK SMILES IDX 83 45 77 46 76 47 32 49 64 50 44 51 63 52 45 53 48 54 62 55
REMARK SMILES IDX 81 56 46 57 47 58 61 60 82 61 49 62 33 63 34 64 42 65 35 66
REMARK SMILES IDX 36 67 40 68 43 69 37 70 38 71 41 72 39 73 65 74 66 75 74 76
REMARK SMILES IDX 67 77 68 78 72 79 75 80 69 81 70 82 73 83 71 84 50 85 51 86
REMARK SMILES IDX 59 87 52 88 53 89 57 90 60 91 54 92 55 93 58 94 56 95
REMARK H PARENT 16 6 21 29 80 48 48 59
REMARK Flexibility Score: inf
ROOT
ATOM      1  C   UNL A   1      31.631  30.332  26.256  1.00  0.00     0.023 C 
ENDROOT
BRANCH   1   2
ATOM      2  C   UNL A   1      33.052  29.798  26.027  1.00  0.00     0.116 C 
BRANCH   2   3
ATOM      3  N   UNL A   1      33.329  29.782  24.606  1.00  0.00    -0.352 N 
ATOM      4  C   UNL A   1      33.006  28.896  23.610  1.00  0.00     0.254 C 
ATOM      5  O   UNL A   1      33.760  28.892  22.634  1.00  0.00    -0.269 OA
ATOM      6  H   UNL A   1      33.849  30.558  24.294  1.00  0.00     0.163 HD
BRANCH   4   7
ATOM      7  C   UNL A   1      31.824  27.982  23.562  1.00  0.00     0.078 A 
ATOM      8  C   UNL A   1      30.767  26.098  24.739  1.00  0.00     0.102 A 
ATOM      9  C   UNL A   1      29.525  26.507  24.246  1.00  0.00     0.025 A 
ATOM     10  C   UNL A   1      31.929  26.787  24.348  1.00  0.00     0.075 A 
ATOM     11  C   UNL A   1      29.433  27.559  23.360  1.00  0.00     0.023 A 
ATOM     12  Cl  UNL A   1      33.502  26.126  24.693  1.00  0.00    -0.082 Cl
ATOM     13  C   UNL A   1      30.554  28.339  23.073  1.00  0.00     0.055 A 
ATOM     14  Cl  UNL A   1      30.114  29.761  22.226  1.00  0.00    -0.083 Cl
BRANCH   8  15
ATOM     15  S   UNL A   1      30.689  24.911  26.070  1.00  0.00     0.244 S 
ATOM     16  O   UNL A   1      29.313  24.905  26.533  1.00  0.00    -0.207 OA
ATOM     17  O   UNL A   1      31.754  25.144  27.018  1.00  0.00    -0.207 OA
BRANCH  15  18
ATOM     18  N   UNL A   1      30.959  23.390  25.341  1.00  0.00    -0.197 NA
ATOM     19  C   UNL A   1      33.997  21.247  24.880  1.00  0.00     0.009 C 
ATOM     20  C   UNL A   1      33.097  22.464  24.738  1.00  0.00     0.005 C 
ATOM     21  C   UNL A   1      32.071  22.549  25.860  1.00  0.00     0.106 C 
ATOM     22  C   UNL A   1      32.210  22.455  23.498  1.00  0.00     0.005 C 
ATOM     23  C   UNL A   1      31.148  23.500  23.853  1.00  0.00     0.106 C 
ATOM     24  C   UNL A   1      32.967  22.797  22.222  1.00  0.00     0.009 C 
ENDBRANCH  15  18
ENDBRANCH   8  15
ENDBRANCH   4   7
ENDBRANCH   2   3
ENDBRANCH   1   2
BRANCH   1  25
ATOM     25  C   UNL A   1      31.481  31.831  26.479  1.00  0.00     0.023 C 
BRANCH  25  26
ATOM     26  C   UNL A   1      32.644  32.478  27.207  1.00  0.00     0.116 C 
BRANCH  26  27
ATOM     27  N   UNL A   1      32.401  33.859  27.603  1.00  0.00    -0.352 N 
ATOM     28  C   UNL A   1      33.097  34.625  28.503  1.00  0.00     0.251 C 
ATOM     29  H   UNL A   1      31.637  34.301  27.166  1.00  0.00     0.163 HD
ATOM     30  O   UNL A   1      32.727  35.763  28.772  1.00  0.00    -0.269 OA
BRANCH  28  31
ATOM     31  C   UNL A   1      34.270  34.044  29.184  1.00  0.00     0.039 A 
ATOM     32  C   UNL A   1      34.059  33.138  30.224  1.00  0.00     0.014 A 
ATOM     33  C   UNL A   1      35.566  34.355  28.765  1.00  0.00     0.014 A 
ATOM     34  C   UNL A   1      35.151  32.500  30.811  1.00  0.00     0.010 A 
ATOM     35  C   UNL A   1      36.644  33.653  29.285  1.00  0.00     0.010 A 
ATOM     36  C   UNL A   1      36.447  32.734  30.325  1.00  0.00    -0.014 A 
BRANCH  36  37
ATOM     37  C   UNL A   1      37.621  32.060  30.926  1.00  0.00     0.031 A 
ATOM     38  C   UNL A   1      38.068  32.447  32.308  1.00  0.00     0.074 A 
ATOM     39  C   UNL A   1      38.306  31.150  30.213  1.00  0.00     0.049 A 
ATOM     40  N   UNL A   1      39.087  32.007  33.001  1.00  0.00    -0.248 NA
ATOM     41  C   UNL A   1      37.289  33.494  32.988  1.00  0.00     0.031 C 
ATOM     42  C   UNL A   1      38.003  30.747  28.838  1.00  0.00     0.029 A 
ATOM     43  N   UNL A   1      39.404  30.399  30.545  1.00  0.00    -0.354 N 
ATOM     44  C   UNL A   1      39.078  32.735  34.184  1.00  0.00     0.074 A 
ATOM     45  C   UNL A   1      37.995  33.688  34.090  1.00  0.00     0.031 C 
ATOM     46  C   UNL A   1      38.876  29.799  28.457  1.00  0.00     0.029 A 
ATOM     47  C   UNL A   1      39.811  29.547  29.549  1.00  0.00     0.049 A 
ATOM     48  H   UNL A   1      39.860  30.466  31.416  1.00  0.00     0.167 HD
ATOM     49  C   UNL A   1      39.881  32.598  35.264  1.00  0.00     0.037 A 
ATOM     50  C   UNL A   1      40.817  28.654  29.531  1.00  0.00     0.037 A 
ATOM     51  C   UNL A   1      40.931  31.622  35.365  1.00  0.00     0.049 A 
ATOM     52  C   UNL A   1      41.664  28.486  30.764  1.00  0.00     0.074 A 
ATOM     53  C   UNL A   1      41.773  31.362  36.432  1.00  0.00     0.029 A 
ATOM     54  N   UNL A   1      41.277  30.734  34.356  1.00  0.00    -0.354 N 
ATOM     55  N   UNL A   1      41.602  29.129  31.904  1.00  0.00    -0.248 NA
ATOM     56  C   UNL A   1      42.707  27.453  30.712  1.00  0.00     0.031 C 
ATOM     57  C   UNL A   1      42.646  30.334  36.058  1.00  0.00     0.029 A 
ATOM     58  C   UNL A   1      42.320  29.926  34.774  1.00  0.00     0.049 A 
ATOM     59  H   UNL A   1      40.844  30.686  33.473  1.00  0.00     0.167 HD
ATOM     60  C   UNL A   1      42.571  28.559  32.717  1.00  0.00     0.074 A 
ATOM     61  C   UNL A   1      43.198  27.508  31.941  1.00  0.00     0.031 C 
ATOM     62  C   UNL A   1      42.913  28.873  33.991  1.00  0.00     0.037 A 
BRANCH  49  63
ATOM     63  C   UNL A   1      39.641  33.519  36.424  1.00  0.00     0.064 A 
ATOM     64  C   UNL A   1      38.812  33.149  37.495  1.00  0.00     0.173 A 
ATOM     65  C   UNL A   1      40.249  34.781  36.472  1.00  0.00     0.173 A 
ATOM     66  F   UNL A   1      38.191  31.960  37.488  1.00  0.00    -0.203 F 
ATOM     67  C   UNL A   1      38.580  34.019  38.556  1.00  0.00     0.198 A 
ATOM     68  C   UNL A   1      40.040  35.637  37.550  1.00  0.00     0.198 A 
ATOM     69  F   UNL A   1      41.050  35.185  35.474  1.00  0.00    -0.203 F 
ATOM     70  F   UNL A   1      37.741  33.665  39.540  1.00  0.00    -0.200 F 
ATOM     71  C   UNL A   1      39.198  35.260  38.586  1.00  0.00     0.200 A 
ATOM     72  F   UNL A   1      40.644  36.833  37.583  1.00  0.00    -0.200 F 
ATOM     73  F   UNL A   1      38.976  36.096  39.610  1.00  0.00    -0.200 F 
ENDBRANCH  49  63
BRANCH  50  74
ATOM     74  C   UNL A   1      41.039  27.809  28.331  1.00  0.00     0.064 A 
ATOM     75  C   UNL A   1      41.884  28.238  27.297  1.00  0.00     0.173 A 
ATOM     76  C   UNL A   1      40.413  26.563  28.187  1.00  0.00     0.173 A 
ATOM     77  F   UNL A   1      42.491  29.430  27.382  1.00  0.00    -0.203 F 
ATOM     78  C   UNL A   1      42.075  27.464  26.154  1.00  0.00     0.198 A 
ATOM     79  C   UNL A   1      40.624  25.778  27.056  1.00  0.00     0.198 A 
ATOM     80  F   UNL A   1      39.602  26.104  29.152  1.00  0.00    -0.203 F 
ATOM     81  F   UNL A   1      42.852  27.919  25.162  1.00  0.00    -0.200 F 
ATOM     82  C   UNL A   1      41.448  26.233  26.036  1.00  0.00     0.200 A 
ATOM     83  F   UNL A   1      40.028  24.582  26.950  1.00  0.00    -0.200 F 
ATOM     84  F   UNL A   1      41.633  25.488  24.938  1.00  0.00    -0.200 F 
ENDBRANCH  50  74
BRANCH  62  85
ATOM     85  C   UNL A   1      43.976  28.037  34.639  1.00  0.00     0.064 A 
ATOM     86  C   UNL A   1      43.668  26.854  35.325  1.00  0.00     0.173 A 
ATOM     87  C   UNL A   1      45.323  28.414  34.544  1.00  0.00     0.173 A 
ATOM     88  F   UNL A   1      42.392  26.460  35.453  1.00  0.00    -0.203 F 
ATOM     89  C   UNL A   1      44.670  26.093  35.920  1.00  0.00     0.198 A 
ATOM     90  C   UNL A   1      46.326  27.635  35.116  1.00  0.00     0.198 A 
ATOM     91  F   UNL A   1      45.670  29.533  33.891  1.00  0.00    -0.203 F 
ATOM     92  F   UNL A   1      44.348  24.994  36.615  1.00  0.00    -0.200 F 
ATOM     93  C   UNL A   1      45.997  26.482  35.811  1.00  0.00     0.200 A 
ATOM     94  F   UNL A   1      47.609  28.005  34.999  1.00  0.00    -0.200 F 
ATOM     95  F   UNL A   1      46.961  25.746  36.384  1.00  0.00    -0.200 F 
ENDBRANCH  62  85
ENDBRANCH  36  37
ENDBRANCH  28  31
ENDBRANCH  26  27
ENDBRANCH  25  26
ENDBRANCH   1  25
TORSDOF 13
ENDMDL
MODEL 2
REMARK VINA RESULT:     -13.3      0.066      1.576
REMARK SMILES C[C@@H]1CN(S(=O)(=O)c2ccc(Cl)c(C(=O)NCCCCNC(=O)c3ccc(-c4c5nc(c(-c6c(F)c(F)c(F)c(F)c6F)c6ccc([nH]6)c(-c6c(F)c(F)c(F)c(F)c6F)c6nc(c(-c7c(F)c(F)c(F)c(F)c7F)c7ccc4[nH]7)C=C6)C=C5)cc3)c2Cl)C[C@H]1C
REMARK SMILES IDX 18 1 17 2 16 3 14 4 15 5 13 7 8 8 9 9 87 10 10 11 88 12
REMARK SMILES IDX 11 13 12 14 5 15 6 16 7 17 4 18 1 19 2 20 3 21 90 22 89 23
REMARK SMILES IDX 91 24 19 25 20 26 21 27 22 28 23 30 24 31 25 32 86 33 26 34
REMARK SMILES IDX 85 35 27 36 28 37 29 38 79 39 30 40 84 41 78 42 80 43 31 44
REMARK SMILES IDX 83 45 77 46 76 47 32 49 64 50 44 51 63 52 45 53 48 54 62 55
REMARK SMILES IDX 81 56 46 57 47 58 61 60 82 61 49 62 33 63 34 64 42 65 35 66
REMARK SMILES IDX 36 67 40 68 43 69 37 70 38 71 41 72 39 73 65 74 66 75 74 76
REMARK SMILES IDX 67 77 68 78 72 79 75 80 69 81 70 82 73 83 71 84 50 85 51 86
REMARK SMILES IDX 59 87 52 88 53 89 57 90 60 91 54 92 55 93 58 94 56 95
REMARK H PARENT 16 6 21 29 80 48 48 59
REMARK Flexibility Score: inf
ROOT
ATOM      1  C   UNL A   1      31.660  30.255  26.390  1.00  0.00     0.023 C 
ENDROOT
BRANCH   1   2
ATOM      2  C   UNL A   1      33.070  29.711  26.115  1.00  0.00     0.116 C 
BRANCH   2   3
ATOM      3  N   UNL A   1      33.321  29.743  24.690  1.00  0.00    -0.352 N 
ATOM      4  C   UNL A   1      32.981  28.891  23.671  1.00  0.00     0.254 C 
ATOM      5  O   UNL A   1      33.718  28.921  22.681  1.00  0.00    -0.269 OA
ATOM      6  H   UNL A   1      33.834  30.530  24.395  1.00  0.00     0.163 HD
BRANCH   4   7
ATOM      7  C   UNL A   1      31.800  27.976  23.614  1.00  0.00     0.078 A 
ATOM      8  C   UNL A   1      30.744  26.079  24.770  1.00  0.00     0.102 A 
ATOM      9  C   UNL A   1      29.501  26.493  24.282  1.00  0.00     0.025 A 
ATOM     10  C   UNL A   1      31.905  26.773  24.387  1.00  0.00     0.075 A 
ATOM     11  C   UNL A   1      29.409  27.554  23.407  1.00  0.00     0.023 A 
ATOM     12  Cl  UNL A   1      33.478  26.110  24.725  1.00  0.00    -0.082 Cl
ATOM     13  C   UNL A   1      30.529  28.338  23.128  1.00  0.00     0.055 A 
ATOM     14  Cl  UNL A   1      30.088  29.768  22.296  1.00  0.00    -0.083 Cl
BRANCH   8  15
ATOM     15  S   UNL A   1      30.666  24.879  26.089  1.00  0.00     0.244 S 
ATOM     16  O   UNL A   1      29.284  24.846  26.532  1.00  0.00    -0.207 OA
ATOM     17  O   UNL A   1      31.713  25.121  27.055  1.00  0.00    -0.207 OA
BRANCH  15  18
ATOM     18  N   UNL A   1      30.972  23.370  25.350  1.00  0.00    -0.197 NA
ATOM     19  C   UNL A   1      34.073  21.340  24.803  1.00  0.00     0.009 C 
ATOM     20  C   UNL A   1      33.125  22.523  24.687  1.00  0.00     0.005 C 
ATOM     21  C   UNL A   1      32.128  22.570  25.838  1.00  0.00     0.106 C 
ATOM     22  C   UNL A   1      32.205  22.483  23.472  1.00  0.00     0.005 C 
ATOM     23  C   UNL A   1      31.115  23.488  23.858  1.00  0.00     0.106 C 
ATOM     24  C   UNL A   1      32.914  22.854  22.177  1.00  0.00     0.009 C 
ENDBRANCH  15  18
ENDBRANCH   8  15
ENDBRANCH   4   7
ENDBRANCH   2   3
ENDBRANCH   1   2
BRANCH   1  25
ATOM     25  C   UNL A   1      31.509  31.766  26.502  1.00  0.00     0.023 C 
BRANCH  25  26
ATOM     26  C   UNL A   1      32.702  32.473  27.115  1.00  0.00     0.116 C 
BRANCH  26  27
ATOM     27  N   UNL A   1      32.426  33.836  27.549  1.00  0.00    -0.352 N 
ATOM     28  C   UNL A   1      33.088  34.586  28.488  1.00  0.00     0.251 C 
ATOM     29  H   UNL A   1      31.662  34.277  27.110  1.00  0.00     0.163 HD
ATOM     30  O   UNL A   1      32.691  35.707  28.785  1.00  0.00    -0.269 OA
BRANCH  28  31
ATOM     31  C   UNL A   1      34.259  34.005  29.173  1.00  0.00     0.039 A 
ATOM     32  C   UNL A   1      34.046  33.036  30.155  1.00  0.00     0.014 A 
ATOM     33  C   UNL A   1      35.556  34.381  28.816  1.00  0.00     0.014 A 
ATOM     34  C   UNL A   1      35.140  32.401  30.741  1.00  0.00     0.010 A 
ATOM     35  C   UNL A   1      36.640  33.685  29.332  1.00  0.00     0.010 A 
ATOM     36  C   UNL A   1      36.442  32.704  30.312  1.00  0.00    -0.014 A 
BRANCH  36  37
ATOM     37  C   UNL A   1      37.618  32.035  30.914  1.00  0.00     0.031 A 
ATOM     38  C   UNL A   1      38.059  32.418  32.299  1.00  0.00     0.074 A 
ATOM     39  C   UNL A   1      38.312  31.132  30.198  1.00  0.00     0.049 A 
ATOM     40  N   UNL A   1      39.079  31.982  32.993  1.00  0.00    -0.248 NA
ATOM     41  C   UNL A   1      37.270  33.457  32.981  1.00  0.00     0.031 C 
ATOM     42  C   UNL A   1      38.016  30.733  28.820  1.00  0.00     0.029 A 
ATOM     43  N   UNL A   1      39.414  30.387  30.531  1.00  0.00    -0.354 N 
ATOM     44  C   UNL A   1      39.061  32.704  34.179  1.00  0.00     0.074 A 
ATOM     45  C   UNL A   1      37.972  33.650  34.087  1.00  0.00     0.031 C 
ATOM     46  C   UNL A   1      38.896  29.793  28.438  1.00  0.00     0.029 A 
ATOM     47  C   UNL A   1      39.829  29.542  29.532  1.00  0.00     0.049 A 
ATOM     48  H   UNL A   1      39.866  30.453  31.403  1.00  0.00     0.167 HD
ATOM     49  C   UNL A   1      39.862  32.568  35.261  1.00  0.00     0.037 A 
ATOM     50  C   UNL A   1      40.842  28.657  29.513  1.00  0.00     0.037 A 
ATOM     51  C   UNL A   1      40.918  31.598  35.360  1.00  0.00     0.049 A 
ATOM     52  C   UNL A   1      41.686  28.488  30.747  1.00  0.00     0.074 A 
ATOM     53  C   UNL A   1      41.758  31.338  36.429  1.00  0.00     0.029 A 
ATOM     54  N   UNL A   1      41.273  30.717  34.349  1.00  0.00    -0.354 N 
ATOM     55  N   UNL A   1      41.616  29.126  31.890  1.00  0.00    -0.248 NA
ATOM     56  C   UNL A   1      42.736  27.463  30.694  1.00  0.00     0.031 C 
ATOM     57  C   UNL A   1      42.639  30.318  36.053  1.00  0.00     0.029 A 
ATOM     58  C   UNL A   1      42.320  29.914  34.766  1.00  0.00     0.049 A 
ATOM     59  H   UNL A   1      40.843  30.670  33.464  1.00  0.00     0.167 HD
ATOM     60  C   UNL A   1      42.587  28.558  32.704  1.00  0.00     0.074 A 
ATOM     61  C   UNL A   1      43.223  27.515  31.925  1.00  0.00     0.031 C 
ATOM     62  C   UNL A   1      42.922  28.869  33.980  1.00  0.00     0.037 A 
BRANCH  49  63
ATOM     63  C   UNL A   1      39.612  33.482  36.424  1.00  0.00     0.064 A 
ATOM     64  C   UNL A   1      38.773  33.105  37.486  1.00  0.00     0.173 A 
ATOM     65  C   UNL A   1      40.222  34.742  36.486  1.00  0.00     0.173 A 
ATOM     66  F   UNL A   1      38.151  31.917  37.465  1.00  0.00    -0.203 F 
ATOM     67  C   UNL A   1      38.531  33.970  38.550  1.00  0.00     0.198 A 
ATOM     68  C   UNL A   1      40.003  35.592  37.568  1.00  0.00     0.198 A 
ATOM     69  F   UNL A   1      41.032  35.151  35.498  1.00  0.00    -0.203 F 
ATOM     70  F   UNL A   1      37.683  33.610  39.523  1.00  0.00    -0.200 F 
ATOM     71  C   UNL A   1      39.151  35.209  38.593  1.00  0.00     0.200 A 
ATOM     72  F   UNL A   1      40.608  36.787  37.614  1.00  0.00    -0.200 F 
ATOM     73  F   UNL A   1      38.920  36.039  39.620  1.00  0.00    -0.200 F 
ENDBRANCH  49  63
BRANCH  50  74
ATOM     74  C   UNL A   1      41.073  27.818  28.309  1.00  0.00     0.064 A 
ATOM     75  C   UNL A   1      40.447  26.571  28.173  1.00  0.00     0.173 A 
ATOM     76  C   UNL A   1      41.921  28.240  27.275  1.00  0.00     0.173 A 
ATOM     77  F   UNL A   1      39.641  26.118  29.144  1.00  0.00    -0.203 F 
ATOM     78  C   UNL A   1      40.681  25.765  27.060  1.00  0.00     0.198 A 
ATOM     79  C   UNL A   1      42.134  27.445  26.151  1.00  0.00     0.198 A 
ATOM     80  F   UNL A   1      42.536  29.429  27.355  1.00  0.00    -0.203 F 
ATOM     81  F   UNL A   1      40.106  24.558  26.978  1.00  0.00    -0.200 F 
ATOM     82  C   UNL A   1      41.521  26.205  26.048  1.00  0.00     0.200 A 
ATOM     83  F   UNL A   1      42.935  27.878  25.168  1.00  0.00    -0.200 F 
ATOM     84  F   UNL A   1      41.744  25.431  24.977  1.00  0.00    -0.200 F 
ENDBRANCH  50  74
BRANCH  62  85
ATOM     85  C   UNL A   1      43.989  28.037  34.627  1.00  0.00     0.064 A 
ATOM     86  C   UNL A   1      45.338  28.419  34.603  1.00  0.00     0.173 A 
ATOM     87  C   UNL A   1      43.649  26.858  35.306  1.00  0.00     0.173 A 
ATOM     88  F   UNL A   1      45.713  29.532  33.956  1.00  0.00    -0.203 F 
ATOM     89  C   UNL A   1      46.313  27.632  35.210  1.00  0.00     0.198 A 
ATOM     90  C   UNL A   1      44.622  26.088  35.936  1.00  0.00     0.198 A 
ATOM     91  F   UNL A   1      42.371  26.455  35.364  1.00  0.00    -0.203 F 
ATOM     92  F   UNL A   1      47.602  27.987  35.130  1.00  0.00    -0.200 F 
ATOM     93  C   UNL A   1      45.953  26.470  35.879  1.00  0.00     0.200 A 
ATOM     94  F   UNL A   1      44.272  24.974  36.593  1.00  0.00    -0.200 F 
ATOM     95  F   UNL A   1      46.894  25.715  36.464  1.00  0.00    -0.200 F 
ENDBRANCH  62  85
ENDBRANCH  36  37
ENDBRANCH  28  31
ENDBRANCH  26  27
ENDBRANCH  25  26
ENDBRANCH   1  25
TORSDOF 13
ENDMDL
MODEL 3
REMARK VINA RESULT:     -13.2      5.199     10.789
REMARK SMILES C[C@@H]1CN(S(=O)(=O)c2ccc(Cl)c(C(=O)NCCCCNC(=O)c3ccc(-c4c5nc(c(-c6c(F)c(F)c(F)c(F)c6F)c6ccc([nH]6)c(-c6c(F)c(F)c(F)c(F)c6F)c6nc(c(-c7c(F)c(F)c(F)c(F)c7F)c7ccc4[nH]7)C=C6)C=C5)cc3)c2Cl)C[C@H]1C
REMARK SMILES IDX 18 1 17 2 16 3 14 4 15 5 13 7 8 8 9 9 87 10 10 11 88 12
REMARK SMILES IDX 11 13 12 14 5 15 6 16 7 17 4 18 1 19 2 20 3 21 90 22 89 23
REMARK SMILES IDX 91 24 19 25 20 26 21 27 22 28 23 30 24 31 25 32 86 33 26 34
REMARK SMILES IDX 85 35 27 36 28 37 29 38 79 39 30 40 84 41 78 42 80 43 31 44
REMARK SMILES IDX 83 45 77 46 76 47 32 49 64 50 44 51 63 52 45 53 48 54 62 55
REMARK SMILES IDX 81 56 46 57 47 58 61 60 82 61 49 62 33 63 34 64 42 65 35 66
REMARK SMILES IDX 36 67 40 68 43 69 37 70 38 71 41 72 39 73 65 74 66 75 74 76
REMARK SMILES IDX 67 77 68 78 72 79 75 80 69 81 70 82 73 83 71 84 50 85 51 86
REMARK SMILES IDX 59 87 52 88 53 89 57 90 60 91 54 92 55 93 58 94 56 95
REMARK H PARENT 16 6 21 29 80 48 48 59
REMARK Flexibility Score: inf
ROOT
ATOM      1  C   UNL A   1      36.832  20.817  24.679  1.00  0.00     0.023 C 
ENDROOT
BRANCH   1   2
ATOM      2  C   UNL A   1      36.667  21.921  25.734  1.00  0.00     0.116 C 
BRANCH   2   3
ATOM      3  N   UNL A   1      35.655  21.518  26.687  1.00  0.00    -0.352 N 
ATOM      4  C   UNL A   1      34.286  21.604  26.676  1.00  0.00     0.254 C 
ATOM      5  O   UNL A   1      33.743  21.626  27.784  1.00  0.00    -0.269 OA
ATOM      6  H   UNL A   1      36.020  21.100  27.501  1.00  0.00     0.163 HD
BRANCH   4   7
ATOM      7  C   UNL A   1      33.392  21.623  25.478  1.00  0.00     0.078 A 
ATOM      8  C   UNL A   1      32.885  22.909  23.443  1.00  0.00     0.102 A 
ATOM      9  C   UNL A   1      32.423  21.737  22.836  1.00  0.00     0.025 A 
ATOM     10  C   UNL A   1      33.307  22.874  24.784  1.00  0.00     0.075 A 
ATOM     11  C   UNL A   1      32.350  20.560  23.549  1.00  0.00     0.023 A 
ATOM     12  Cl  UNL A   1      33.597  24.355  25.652  1.00  0.00    -0.082 Cl
ATOM     13  C   UNL A   1      32.894  20.476  24.831  1.00  0.00     0.055 A 
ATOM     14  Cl  UNL A   1      32.976  18.850  25.361  1.00  0.00    -0.083 Cl
BRANCH   8  15
ATOM     15  S   UNL A   1      33.172  24.268  22.322  1.00  0.00     0.244 S 
ATOM     16  O   UNL A   1      33.159  23.705  20.984  1.00  0.00    -0.207 OA
ATOM     17  O   UNL A   1      34.310  25.047  22.751  1.00  0.00    -0.207 OA
BRANCH  15  18
ATOM     18  N   UNL A   1      31.784  25.256  22.441  1.00  0.00    -0.197 NA
ATOM     19  C   UNL A   1      31.024  28.434  24.274  1.00  0.00     0.009 C 
ATOM     20  C   UNL A   1      31.400  26.973  24.083  1.00  0.00     0.005 C 
ATOM     21  C   UNL A   1      31.976  26.709  22.698  1.00  0.00     0.106 C 
ATOM     22  C   UNL A   1      30.225  26.004  24.128  1.00  0.00     0.005 C 
ATOM     23  C   UNL A   1      30.814  24.751  23.473  1.00  0.00     0.106 C 
ATOM     24  C   UNL A   1      29.720  25.747  25.541  1.00  0.00     0.009 C 
ENDBRANCH  15  18
ENDBRANCH   8  15
ENDBRANCH   4   7
ENDBRANCH   2   3
ENDBRANCH   1   2
BRANCH   1  25
ATOM     25  C   UNL A   1      37.821  19.703  24.990  1.00  0.00     0.023 C 
BRANCH  25  26
ATOM     26  C   UNL A   1      39.069  20.155  25.725  1.00  0.00     0.116 C 
BRANCH  26  27
ATOM     27  N   UNL A   1      40.119  19.149  25.786  1.00  0.00    -0.352 N 
ATOM     28  C   UNL A   1      41.449  19.316  26.079  1.00  0.00     0.251 C 
ATOM     29  H   UNL A   1      39.837  18.225  25.592  1.00  0.00     0.163 HD
ATOM     30  O   UNL A   1      42.224  18.367  26.031  1.00  0.00    -0.269 OA
BRANCH  28  31
ATOM     31  C   UNL A   1      41.946  20.667  26.404  1.00  0.00     0.039 A 
ATOM     32  C   UNL A   1      42.198  21.557  25.358  1.00  0.00     0.014 A 
ATOM     33  C   UNL A   1      42.117  21.066  27.732  1.00  0.00     0.014 A 
ATOM     34  C   UNL A   1      42.569  22.869  25.648  1.00  0.00     0.010 A 
ATOM     35  C   UNL A   1      42.395  22.393  28.021  1.00  0.00     0.010 A 
ATOM     36  C   UNL A   1      42.643  23.301  26.982  1.00  0.00    -0.014 A 
BRANCH  36  37
ATOM     37  C   UNL A   1      43.026  24.693  27.313  1.00  0.00     0.031 A 
ATOM     38  C   UNL A   1      44.428  25.159  27.039  1.00  0.00     0.074 A 
ATOM     39  C   UNL A   1      42.134  25.508  27.904  1.00  0.00     0.049 A 
ATOM     40  N   UNL A   1      44.976  26.322  27.285  1.00  0.00    -0.248 NA
ATOM     41  C   UNL A   1      45.349  24.177  26.444  1.00  0.00     0.031 C 
ATOM     42  C   UNL A   1      40.767  25.141  28.278  1.00  0.00     0.029 A 
ATOM     43  N   UNL A   1      42.247  26.817  28.296  1.00  0.00    -0.354 N 
ATOM     44  C   UNL A   1      46.302  26.202  26.891  1.00  0.00     0.074 A 
ATOM     45  C   UNL A   1      46.495  24.838  26.452  1.00  0.00     0.031 C 
ATOM     46  C   UNL A   1      40.158  26.210  28.817  1.00  0.00     0.029 A 
ATOM     47  C   UNL A   1      41.098  27.327  28.847  1.00  0.00     0.049 A 
ATOM     48  H   UNL A   1      43.074  27.342  28.193  1.00  0.00     0.167 HD
ATOM     49  C   UNL A   1      47.264  27.152  26.869  1.00  0.00     0.037 A 
ATOM     50  C   UNL A   1      40.834  28.562  29.311  1.00  0.00     0.037 A 
ATOM     51  C   UNL A   1      47.054  28.516  27.271  1.00  0.00     0.049 A 
ATOM     52  C   UNL A   1      41.906  29.616  29.227  1.00  0.00     0.074 A 
ATOM     53  C   UNL A   1      47.945  29.575  27.241  1.00  0.00     0.029 A 
ATOM     54  N   UNL A   1      45.859  29.012  27.771  1.00  0.00    -0.354 N 
ATOM     55  N   UNL A   1      43.136  29.511  28.787  1.00  0.00    -0.248 NA
ATOM     56  C   UNL A   1      41.545  30.963  29.687  1.00  0.00     0.031 C 
ATOM     57  C   UNL A   1      47.295  30.706  27.748  1.00  0.00     0.029 A 
ATOM     58  C   UNL A   1      45.988  30.361  28.055  1.00  0.00     0.049 A 
ATOM     59  H   UNL A   1      45.039  28.482  27.904  1.00  0.00     0.167 HD
ATOM     60  C   UNL A   1      43.686  30.782  28.883  1.00  0.00     0.074 A 
ATOM     61  C   UNL A   1      42.648  31.644  29.413  1.00  0.00     0.031 C 
ATOM     62  C   UNL A   1      44.934  31.201  28.562  1.00  0.00     0.037 A 
BRANCH  49  63
ATOM     63  C   UNL A   1      48.624  26.747  26.379  1.00  0.00     0.064 A 
ATOM     64  C   UNL A   1      49.019  26.964  25.049  1.00  0.00     0.173 A 
ATOM     65  C   UNL A   1      49.545  26.144  27.246  1.00  0.00     0.173 A 
ATOM     66  F   UNL A   1      48.168  27.520  24.174  1.00  0.00    -0.203 F 
ATOM     67  C   UNL A   1      50.275  26.566  24.600  1.00  0.00     0.198 A 
ATOM     68  C   UNL A   1      50.812  25.775  26.802  1.00  0.00     0.198 A 
ATOM     69  F   UNL A   1      49.219  25.914  28.527  1.00  0.00    -0.203 F 
ATOM     70  F   UNL A   1      50.608  26.733  23.313  1.00  0.00    -0.200 F 
ATOM     71  C   UNL A   1      51.172  25.978  25.478  1.00  0.00     0.200 A 
ATOM     72  F   UNL A   1      51.683  25.215  27.652  1.00  0.00    -0.200 F 
ATOM     73  F   UNL A   1      52.383  25.597  25.045  1.00  0.00    -0.200 F 
ENDBRANCH  49  63
BRANCH  50  74
ATOM     74  C   UNL A   1      39.484  28.887  29.835  1.00  0.00     0.064 A 
ATOM     75  C   UNL A   1      38.504  29.443  29.000  1.00  0.00     0.173 A 
ATOM     76  C   UNL A   1      39.143  28.654  31.175  1.00  0.00     0.173 A 
ATOM     77  F   UNL A   1      38.790  29.699  27.715  1.00  0.00    -0.203 F 
ATOM     78  C   UNL A   1      37.244  29.777  29.490  1.00  0.00     0.198 A 
ATOM     79  C   UNL A   1      37.874  28.964  31.659  1.00  0.00     0.198 A 
ATOM     80  F   UNL A   1      40.042  28.115  32.012  1.00  0.00    -0.203 F 
ATOM     81  F   UNL A   1      36.343  30.350  28.681  1.00  0.00    -0.200 F 
ATOM     82  C   UNL A   1      36.928  29.533  30.818  1.00  0.00     0.200 A 
ATOM     83  F   UNL A   1      37.567  28.715  32.939  1.00  0.00    -0.200 F 
ATOM     84  F   UNL A   1      35.715  29.853  31.290  1.00  0.00    -0.200 F 
ENDBRANCH  50  74
BRANCH  62  85
ATOM     85  C   UNL A   1      45.228  32.662  28.727  1.00  0.00     0.064 A 
ATOM     86  C   UNL A   1      45.799  33.172  29.901  1.00  0.00     0.173 A 
ATOM     87  C   UNL A   1      44.959  33.557  27.681  1.00  0.00     0.173 A 
ATOM     88  F   UNL A   1      46.062  32.357  30.933  1.00  0.00    -0.203 F 
ATOM     89  C   UNL A   1      46.062  34.533  30.034  1.00  0.00     0.198 A 
ATOM     90  C   UNL A   1      45.250  34.913  27.806  1.00  0.00     0.198 A 
ATOM     91  F   UNL A   1      44.420  33.117  26.534  1.00  0.00    -0.203 F 
ATOM     92  F   UNL A   1      46.560  35.006  31.184  1.00  0.00    -0.200 F 
ATOM     93  C   UNL A   1      45.792  35.400  28.985  1.00  0.00     0.200 A 
ATOM     94  F   UNL A   1      45.000  35.747  26.788  1.00  0.00    -0.200 F 
ATOM     95  F   UNL A   1      46.048  36.709  29.115  1.00  0.00    -0.200 F 
ENDBRANCH  62  85
ENDBRANCH  36  37
ENDBRANCH  28  31
ENDBRANCH  26  27
ENDBRANCH  25  26
ENDBRANCH   1  25
TORSDOF 13
ENDMDL
