MODEL 1
REMARK VINA RESULT:     -13.4      0.000      0.000
REMARK SMILES O=C(NCCCCNC(=O)c1cc(Cl)ccc1NC(=O)c1ccc2c(c1)C(=O)N(Cc1ccco1)C2=O)c1ccc(-c2c3nc(c(-c4c(F)c(F)c(F)c(F)c4F)c4ccc([nH]4)c(-c4c(F)c(F)c(F)c(F)c4F)c4nc(c(-c5c(F)c(F)c(F)c(F)c5F)c5ccc2[nH]5)C=C4)C=C3)cc1
REMARK SMILES IDX 6 1 5 2 4 3 3 4 1 5 2 6 38 8 39 9 100 10 40 11 99 12 41 13
REMARK SMILES IDX 42 14 43 15 93 16 44 17 98 18 92 19 94 20 45 21 97 22 91 23
REMARK SMILES IDX 90 24 46 26 78 27 58 28 77 29 59 30 62 31 76 32 95 33 60 34
REMARK SMILES IDX 61 35 75 37 96 38 63 39 47 40 48 41 56 42 49 43 50 44 54 45
REMARK SMILES IDX 57 46 51 47 52 48 55 49 53 50 79 51 80 52 88 53 81 54 82 55
REMARK SMILES IDX 86 56 89 57 83 58 84 59 87 60 85 61 64 62 65 63 73 64 66 65
REMARK SMILES IDX 67 66 71 67 74 68 68 69 69 70 72 71 70 72 7 73 8 74 9 75
REMARK SMILES IDX 10 77 11 78 12 79 17 80 13 81 16 82 14 83 15 84 18 85 19 86
REMARK SMILES IDX 20 88 21 89 22 90 26 91 23 92 25 93 24 94 27 95 36 96 28 97
REMARK SMILES IDX 29 98 37 99 30 100 31 101 32 102 35 103 33 104 34 105
REMARK H PARENT 3 7 94 25 62 36 8 76 18 87
REMARK Flexibility Score: inf
ROOT
ATOM      1  C   UNL A   1      32.142  27.076  26.758  1.00  0.00     0.023 C 
ENDROOT
BRANCH   1   2
ATOM      2  C   UNL A   1      31.811  28.226  25.813  1.00  0.00     0.023 C 
BRANCH   2   3
ATOM      3  C   UNL A   1      32.918  29.258  25.651  1.00  0.00     0.116 C 
BRANCH   3   4
ATOM      4  N   UNL A   1      32.509  30.601  26.038  1.00  0.00    -0.352 N 
ATOM      5  O   UNL A   1      32.522  32.501  27.262  1.00  0.00    -0.269 OA
ATOM      6  C   UNL A   1      33.077  31.449  26.961  1.00  0.00     0.251 C 
ATOM      7  H   UNL A   1      31.717  30.952  25.574  1.00  0.00     0.163 HD
BRANCH   6   8
ATOM      8  C   UNL A   1      34.346  31.068  27.615  1.00  0.00     0.039 A 
ATOM      9  C   UNL A   1      34.555  29.756  28.043  1.00  0.00     0.014 A 
ATOM     10  C   UNL A   1      35.325  32.043  27.826  1.00  0.00     0.014 A 
ATOM     11  C   UNL A   1      35.658  29.458  28.832  1.00  0.00     0.010 A 
ATOM     12  C   UNL A   1      36.488  31.713  28.530  1.00  0.00     0.010 A 
ATOM     13  C   UNL A   1      36.647  30.427  29.069  1.00  0.00    -0.014 A 
BRANCH  13  14
ATOM     14  C   UNL A   1      37.866  30.049  29.827  1.00  0.00     0.031 A 
ATOM     15  C   UNL A   1      38.890  29.115  29.247  1.00  0.00     0.074 A 
ATOM     16  C   UNL A   1      38.050  30.578  31.052  1.00  0.00     0.049 A 
ATOM     17  N   UNL A   1      40.003  28.676  29.780  1.00  0.00    -0.248 NA
ATOM     18  C   UNL A   1      38.631  28.598  27.895  1.00  0.00     0.031 C 
ATOM     19  C   UNL A   1      37.121  31.492  31.721  1.00  0.00     0.029 A 
ATOM     20  N   UNL A   1      39.077  30.436  31.949  1.00  0.00    -0.354 N 
ATOM     21  C   UNL A   1      40.567  27.822  28.842  1.00  0.00     0.074 A 
ATOM     22  C   UNL A   1      39.658  27.779  27.716  1.00  0.00     0.031 C 
ATOM     23  C   UNL A   1      37.637  31.862  32.900  1.00  0.00     0.029 A 
ATOM     24  C   UNL A   1      38.894  31.153  33.106  1.00  0.00     0.049 A 
ATOM     25  H   UNL A   1      39.868  29.875  31.780  1.00  0.00     0.167 HD
ATOM     26  C   UNL A   1      41.739  27.145  28.914  1.00  0.00     0.037 A 
ATOM     27  C   UNL A   1      39.640  31.211  34.224  1.00  0.00     0.037 A 
ATOM     28  C   UNL A   1      42.638  27.199  30.040  1.00  0.00     0.049 A 
ATOM     29  C   UNL A   1      40.907  30.410  34.296  1.00  0.00     0.074 A 
ATOM     30  C   UNL A   1      43.865  26.577  30.197  1.00  0.00     0.029 A 
ATOM     31  N   UNL A   1      42.403  27.910  31.210  1.00  0.00    -0.354 N 
ATOM     32  N   UNL A   1      41.449  29.636  33.387  1.00  0.00    -0.248 NA
ATOM     33  C   UNL A   1      41.667  30.491  35.548  1.00  0.00     0.031 C 
ATOM     34  C   UNL A   1      44.340  26.858  31.482  1.00  0.00     0.029 A 
ATOM     35  C   UNL A   1      43.446  27.714  32.103  1.00  0.00     0.049 A 
ATOM     36  H   UNL A   1      41.611  28.471  31.380  1.00  0.00     0.167 HD
ATOM     37  C   UNL A   1      42.625  29.158  33.947  1.00  0.00     0.074 A 
ATOM     38  C   UNL A   1      42.727  29.745  35.266  1.00  0.00     0.031 C 
ATOM     39  C   UNL A   1      43.537  28.308  33.414  1.00  0.00     0.037 A 
BRANCH  26  40
ATOM     40  C   UNL A   1      42.111  26.261  27.755  1.00  0.00     0.064 A 
ATOM     41  C   UNL A   1      43.039  26.664  26.783  1.00  0.00     0.173 A 
ATOM     42  C   UNL A   1      41.565  24.973  27.642  1.00  0.00     0.173 A 
ATOM     43  F   UNL A   1      43.587  27.887  26.838  1.00  0.00    -0.203 F 
ATOM     44  C   UNL A   1      43.382  25.823  25.726  1.00  0.00     0.198 A 
ATOM     45  C   UNL A   1      41.935  24.122  26.603  1.00  0.00     0.198 A 
ATOM     46  F   UNL A   1      40.679  24.531  28.547  1.00  0.00    -0.203 F 
ATOM     47  F   UNL A   1      44.233  26.249  24.782  1.00  0.00    -0.200 F 
ATOM     48  C   UNL A   1      42.836  24.551  25.641  1.00  0.00     0.200 A 
ATOM     49  F   UNL A   1      41.419  22.887  26.533  1.00  0.00    -0.200 F 
ATOM     50  F   UNL A   1      43.174  23.741  24.628  1.00  0.00    -0.200 F 
ENDBRANCH  26  40
BRANCH  27  51
ATOM     51  C   UNL A   1      39.191  32.051  35.366  1.00  0.00     0.064 A 
ATOM     52  C   UNL A   1      39.522  33.410  35.437  1.00  0.00     0.173 A 
ATOM     53  C   UNL A   1      38.415  31.512  36.404  1.00  0.00     0.173 A 
ATOM     54  F   UNL A   1      40.274  33.967  34.477  1.00  0.00    -0.203 F 
ATOM     55  C   UNL A   1      39.112  34.194  36.514  1.00  0.00     0.198 A 
ATOM     56  C   UNL A   1      37.975  32.304  37.460  1.00  0.00     0.198 A 
ATOM     57  F   UNL A   1      38.064  30.217  36.379  1.00  0.00    -0.203 F 
ATOM     58  F   UNL A   1      39.482  35.479  36.582  1.00  0.00    -0.200 F 
ATOM     59  C   UNL A   1      38.333  33.642  37.520  1.00  0.00     0.200 A 
ATOM     60  F   UNL A   1      37.205  31.771  38.419  1.00  0.00    -0.200 F 
ATOM     61  F   UNL A   1      37.932  34.398  38.551  1.00  0.00    -0.200 F 
ENDBRANCH  27  51
BRANCH  39  62
ATOM     62  C   UNL A   1      44.750  27.996  34.245  1.00  0.00     0.064 A 
ATOM     63  C   UNL A   1      44.803  26.877  35.089  1.00  0.00     0.173 A 
ATOM     64  C   UNL A   1      45.887  28.817  34.172  1.00  0.00     0.173 A 
ATOM     65  F   UNL A   1      43.737  26.071  35.209  1.00  0.00    -0.203 F 
ATOM     66  C   UNL A   1      45.935  26.609  35.853  1.00  0.00     0.198 A 
ATOM     67  C   UNL A   1      47.031  28.525  34.909  1.00  0.00     0.198 A 
ATOM     68  F   UNL A   1      45.892  29.897  33.376  1.00  0.00    -0.203 F 
ATOM     69  F   UNL A   1      45.941  25.568  36.696  1.00  0.00    -0.200 F 
ATOM     70  C   UNL A   1      47.051  27.428  35.755  1.00  0.00     0.200 A 
ATOM     71  F   UNL A   1      48.113  29.308  34.801  1.00  0.00    -0.200 F 
ATOM     72  F   UNL A   1      48.143  27.163  36.485  1.00  0.00    -0.200 F 
ENDBRANCH  39  62
ENDBRANCH  13  14
ENDBRANCH   6   8
ENDBRANCH   3   4
ENDBRANCH   2   3
ENDBRANCH   1   2
BRANCH   1  73
ATOM     73  C   UNL A   1      32.896  25.916  26.118  1.00  0.00     0.116 C 
BRANCH  73  74
ATOM     74  N   UNL A   1      32.383  24.612  26.524  1.00  0.00    -0.352 N 
ATOM     75  C   UNL A   1      32.888  23.365  26.234  1.00  0.00     0.253 C 
ATOM     76  H   UNL A   1      31.570  24.626  27.078  1.00  0.00     0.163 HD
ATOM     77  O   UNL A   1      32.257  22.348  26.494  1.00  0.00    -0.269 OA
BRANCH  75  78
ATOM     78  C   UNL A   1      34.178  23.279  25.523  1.00  0.00     0.064 A 
ATOM     79  C   UNL A   1      35.346  23.590  26.237  1.00  0.00     0.036 A 
ATOM     80  C   UNL A   1      34.211  23.012  24.143  1.00  0.00     0.054 A 
ATOM     81  C   UNL A   1      36.529  23.804  25.547  1.00  0.00     0.041 A 
ATOM     82  C   UNL A   1      35.383  23.363  23.467  1.00  0.00     0.028 A 
ATOM     83  Cl  UNL A   1      37.950  24.252  26.400  1.00  0.00    -0.084 Cl
ATOM     84  C   UNL A   1      36.541  23.739  24.160  1.00  0.00     0.023 A 
BRANCH  80  85
ATOM     85  N   UNL A   1      33.086  22.412  23.519  1.00  0.00    -0.321 N 
ATOM     86  C   UNL A   1      31.864  22.908  23.113  1.00  0.00     0.255 C 
ATOM     87  H   UNL A   1      33.202  21.451  23.340  1.00  0.00     0.170 HD
ATOM     88  O   UNL A   1      30.985  22.159  22.694  1.00  0.00    -0.269 OA
BRANCH  86  89
ATOM     89  C   UNL A   1      31.572  24.355  23.159  1.00  0.00     0.041 A 
ATOM     90  C   UNL A   1      32.442  25.214  22.448  1.00  0.00     0.015 A 
ATOM     91  C   UNL A   1      30.396  24.831  23.760  1.00  0.00     0.028 A 
ATOM     92  C   UNL A   1      32.077  26.538  22.204  1.00  0.00     0.015 A 
ATOM     93  C   UNL A   1      30.049  26.136  23.473  1.00  0.00     0.054 A 
ATOM     94  C   UNL A   1      30.853  26.951  22.694  1.00  0.00     0.053 A 
ATOM     95  C   UNL A   1      28.786  26.844  23.692  1.00  0.00     0.261 C 
ATOM     96  C   UNL A   1      30.093  28.160  22.395  1.00  0.00     0.261 C 
ATOM     97  O   UNL A   1      27.826  26.347  24.249  1.00  0.00    -0.269 OA
ATOM     98  N   UNL A   1      28.904  28.049  23.061  1.00  0.00    -0.267 N 
ATOM     99  O   UNL A   1      30.473  29.015  21.618  1.00  0.00    -0.269 OA
BRANCH  98 100
ATOM    100  C   UNL A   1      27.832  29.017  22.954  1.00  0.00     0.204 C 
BRANCH 100 101
ATOM    101  C   UNL A   1      28.387  30.394  23.045  1.00  0.00     0.123 A 
ATOM    102  C   UNL A   1      29.123  31.058  24.006  1.00  0.00     0.047 A 
ATOM    103  O   UNL A   1      28.172  31.215  21.977  1.00  0.00    -0.467 OA
ATOM    104  C   UNL A   1      29.353  32.361  23.508  1.00  0.00     0.042 A 
ATOM    105  C   UNL A   1      28.763  32.404  22.268  1.00  0.00     0.195 A 
ENDBRANCH 100 101
ENDBRANCH  98 100
ENDBRANCH  86  89
ENDBRANCH  80  85
ENDBRANCH  75  78
ENDBRANCH  73  74
ENDBRANCH   1  73
TORSDOF 15
ENDMDL
MODEL 2
REMARK VINA RESULT:     -13.4      0.253      6.908
REMARK SMILES O=C(NCCCCNC(=O)c1cc(Cl)ccc1NC(=O)c1ccc2c(c1)C(=O)N(Cc1ccco1)C2=O)c1ccc(-c2c3nc(c(-c4c(F)c(F)c(F)c(F)c4F)c4ccc([nH]4)c(-c4c(F)c(F)c(F)c(F)c4F)c4nc(c(-c5c(F)c(F)c(F)c(F)c5F)c5ccc2[nH]5)C=C4)C=C3)cc1
REMARK SMILES IDX 6 1 5 2 4 3 3 4 1 5 2 6 38 8 39 9 100 10 40 11 99 12 41 13
REMARK SMILES IDX 42 14 43 15 93 16 44 17 98 18 92 19 94 20 45 21 97 22 91 23
REMARK SMILES IDX 90 24 46 26 78 27 58 28 77 29 59 30 62 31 76 32 95 33 60 34
REMARK SMILES IDX 61 35 75 37 96 38 63 39 47 40 48 41 56 42 49 43 50 44 54 45
REMARK SMILES IDX 57 46 51 47 52 48 55 49 53 50 79 51 80 52 88 53 81 54 82 55
REMARK SMILES IDX 86 56 89 57 83 58 84 59 87 60 85 61 64 62 65 63 73 64 66 65
REMARK SMILES IDX 67 66 71 67 74 68 68 69 69 70 72 71 70 72 7 73 8 74 9 75
REMARK SMILES IDX 10 77 11 78 12 79 17 80 13 81 16 82 14 83 15 84 18 85 19 86
REMARK SMILES IDX 20 88 21 89 22 90 26 91 23 92 25 93 24 94 27 95 36 96 28 97
REMARK SMILES IDX 29 98 37 99 30 100 31 101 32 102 35 103 33 104 34 105
REMARK H PARENT 3 7 94 25 62 36 8 76 18 87
REMARK Flexibility Score: inf
ROOT
ATOM      1  C   UNL A   1      32.304  27.065  26.704  1.00  0.00     0.023 C 
ENDROOT
BRANCH   1   2
ATOM      2  C   UNL A   1      31.952  28.177  25.723  1.00  0.00     0.023 C 
BRANCH   2   3
ATOM      3  C   UNL A   1      33.018  29.253  25.568  1.00  0.00     0.116 C 
BRANCH   3   4
ATOM      4  N   UNL A   1      32.576  30.566  26.017  1.00  0.00    -0.352 N 
ATOM      5  O   UNL A   1      32.532  32.400  27.337  1.00  0.00    -0.269 OA
ATOM      6  C   UNL A   1      33.112  31.376  26.990  1.00  0.00     0.251 C 
ATOM      7  H   UNL A   1      31.782  30.924  25.560  1.00  0.00     0.163 HD
BRANCH   6   8
ATOM      8  C   UNL A   1      34.382  30.989  27.642  1.00  0.00     0.039 A 
ATOM      9  C   UNL A   1      34.556  29.695  28.134  1.00  0.00     0.014 A 
ATOM     10  C   UNL A   1      35.395  31.940  27.785  1.00  0.00     0.014 A 
ATOM     11  C   UNL A   1      35.663  29.402  28.919  1.00  0.00     0.010 A 
ATOM     12  C   UNL A   1      36.559  31.610  28.484  1.00  0.00     0.010 A 
ATOM     13  C   UNL A   1      36.687  30.349  29.088  1.00  0.00    -0.014 A 
BRANCH  13  14
ATOM     14  C   UNL A   1      37.908  29.971  29.845  1.00  0.00     0.031 A 
ATOM     15  C   UNL A   1      38.167  30.500  31.227  1.00  0.00     0.074 A 
ATOM     16  C   UNL A   1      38.779  29.120  29.270  1.00  0.00     0.049 A 
ATOM     17  N   UNL A   1      39.187  30.276  32.018  1.00  0.00    -0.248 NA
ATOM     18  C   UNL A   1      37.157  31.405  31.795  1.00  0.00     0.031 C 
ATOM     19  C   UNL A   1      38.635  28.545  27.931  1.00  0.00     0.029 A 
ATOM     20  N   UNL A   1      39.950  28.581  29.737  1.00  0.00    -0.354 N 
ATOM     21  C   UNL A   1      38.953  31.021  33.166  1.00  0.00     0.074 A 
ATOM     22  C   UNL A   1      37.708  31.730  32.957  1.00  0.00     0.031 C 
ATOM     23  C   UNL A   1      39.651  27.705  27.699  1.00  0.00     0.029 A 
ATOM     24  C   UNL A   1      40.560  27.739  28.839  1.00  0.00     0.049 A 
ATOM     25  H   UNL A   1      40.319  28.779  30.628  1.00  0.00     0.167 HD
ATOM     26  C   UNL A   1      39.705  31.098  34.291  1.00  0.00     0.037 A 
ATOM     27  C   UNL A   1      41.734  27.087  28.911  1.00  0.00     0.037 A 
ATOM     28  C   UNL A   1      40.943  30.384  34.488  1.00  0.00     0.049 A 
ATOM     29  C   UNL A   1      42.571  27.232  30.149  1.00  0.00     0.074 A 
ATOM     30  C   UNL A   1      41.762  30.368  35.603  1.00  0.00     0.029 A 
ATOM     31  N   UNL A   1      41.545  29.566  33.542  1.00  0.00    -0.354 N 
ATOM     32  N   UNL A   1      42.320  27.909  31.242  1.00  0.00    -0.248 NA
ATOM     33  C   UNL A   1      43.855  26.521  30.162  1.00  0.00     0.031 C 
ATOM     34  C   UNL A   1      42.890  29.595  35.310  1.00  0.00     0.029 A 
ATOM     35  C   UNL A   1      42.742  29.068  34.037  1.00  0.00     0.049 A 
ATOM     36  H   UNL A   1      41.178  29.367  32.649  1.00  0.00     0.167 HD
ATOM     37  C   UNL A   1      43.401  27.687  32.084  1.00  0.00     0.074 A 
ATOM     38  C   UNL A   1      44.300  26.796  31.381  1.00  0.00     0.031 C 
ATOM     39  C   UNL A   1      43.627  28.178  33.327  1.00  0.00     0.037 A 
BRANCH  26  40
ATOM     40  C   UNL A   1      39.231  32.007  35.391  1.00  0.00     0.064 A 
ATOM     41  C   UNL A   1      38.460  31.533  36.464  1.00  0.00     0.173 A 
ATOM     42  C   UNL A   1      39.592  33.363  35.397  1.00  0.00     0.173 A 
ATOM     43  F   UNL A   1      38.080  30.247  36.507  1.00  0.00    -0.203 F 
ATOM     44  C   UNL A   1      38.044  32.388  37.482  1.00  0.00     0.198 A 
ATOM     45  C   UNL A   1      39.203  34.208  36.433  1.00  0.00     0.198 A 
ATOM     46  F   UNL A   1      40.335  33.870  34.402  1.00  0.00    -0.203 F 
ATOM     47  F   UNL A   1      37.267  31.923  38.470  1.00  0.00    -0.200 F 
ATOM     48  C   UNL A   1      38.422  33.722  37.471  1.00  0.00     0.200 A 
ATOM     49  F   UNL A   1      39.584  35.493  36.428  1.00  0.00    -0.200 F 
ATOM     50  F   UNL A   1      38.028  34.541  38.455  1.00  0.00    -0.200 F 
ENDBRANCH  26  40
BRANCH  27  51
ATOM     51  C   UNL A   1      42.186  26.255  27.766  1.00  0.00     0.064 A 
ATOM     52  C   UNL A   1      43.124  26.739  26.845  1.00  0.00     0.173 A 
ATOM     53  C   UNL A   1      41.695  24.953  27.575  1.00  0.00     0.173 A 
ATOM     54  F   UNL A   1      43.610  27.982  26.976  1.00  0.00    -0.203 F 
ATOM     55  C   UNL A   1      43.537  25.963  25.765  1.00  0.00     0.198 A 
ATOM     56  C   UNL A   1      42.136  24.165  26.516  1.00  0.00     0.198 A 
ATOM     57  F   UNL A   1      40.801  24.439  28.434  1.00  0.00    -0.203 F 
ATOM     58  F   UNL A   1      44.399  26.468  24.872  1.00  0.00    -0.200 F 
ATOM     59  C   UNL A   1      43.049  24.674  25.605  1.00  0.00     0.200 A 
ATOM     60  F   UNL A   1      41.678  22.914  26.379  1.00  0.00    -0.200 F 
ATOM     61  F   UNL A   1      43.453  23.926  24.571  1.00  0.00    -0.200 F 
ENDBRANCH  27  51
BRANCH  39  62
ATOM     62  C   UNL A   1      44.878  27.725  34.026  1.00  0.00     0.064 A 
ATOM     63  C   UNL A   1      44.912  26.556  34.801  1.00  0.00     0.173 A 
ATOM     64  C   UNL A   1      46.068  28.458  33.892  1.00  0.00     0.173 A 
ATOM     65  F   UNL A   1      43.798  25.829  34.976  1.00  0.00    -0.203 F 
ATOM     66  C   UNL A   1      46.081  26.157  35.443  1.00  0.00     0.198 A 
ATOM     67  C   UNL A   1      47.244  28.036  34.504  1.00  0.00     0.198 A 
ATOM     68  F   UNL A   1      46.092  29.581  33.157  1.00  0.00    -0.203 F 
ATOM     69  F   UNL A   1      46.075  25.069  36.225  1.00  0.00    -0.200 F 
ATOM     70  C   UNL A   1      47.248  26.891  35.286  1.00  0.00     0.200 A 
ATOM     71  F   UNL A   1      48.373  28.738  34.339  1.00  0.00    -0.200 F 
ATOM     72  F   UNL A   1      48.374  26.500  35.898  1.00  0.00    -0.200 F 
ENDBRANCH  39  62
ENDBRANCH  13  14
ENDBRANCH   6   8
ENDBRANCH   3   4
ENDBRANCH   2   3
ENDBRANCH   1   2
BRANCH   1  73
ATOM     73  C   UNL A   1      33.079  25.899  26.103  1.00  0.00     0.116 C 
BRANCH  73  74
ATOM     74  N   UNL A   1      32.554  24.599  26.505  1.00  0.00    -0.352 N 
ATOM     75  C   UNL A   1      33.031  23.347  26.190  1.00  0.00     0.253 C 
ATOM     76  H   UNL A   1      31.752  24.620  27.077  1.00  0.00     0.163 HD
ATOM     77  O   UNL A   1      32.388  22.338  26.453  1.00  0.00    -0.269 OA
BRANCH  75  78
ATOM     78  C   UNL A   1      34.304  23.247  25.450  1.00  0.00     0.064 A 
ATOM     79  C   UNL A   1      35.490  23.559  26.135  1.00  0.00     0.036 A 
ATOM     80  C   UNL A   1      34.304  22.968  24.073  1.00  0.00     0.054 A 
ATOM     81  C   UNL A   1      36.657  23.760  25.416  1.00  0.00     0.041 A 
ATOM     82  C   UNL A   1      35.461  23.308  23.366  1.00  0.00     0.028 A 
ATOM     83  Cl  UNL A   1      38.100  24.208  26.232  1.00  0.00    -0.084 Cl
ATOM     84  C   UNL A   1      36.637  23.683  24.030  1.00  0.00     0.023 A 
BRANCH  80  85
ATOM     85  N   UNL A   1      33.162  22.370  23.480  1.00  0.00    -0.321 N 
ATOM     86  C   UNL A   1      31.933  22.869  23.098  1.00  0.00     0.255 C 
ATOM     87  H   UNL A   1      33.268  21.406  23.306  1.00  0.00     0.170 HD
ATOM     88  O   UNL A   1      31.040  22.121  22.706  1.00  0.00    -0.269 OA
BRANCH  86  89
ATOM     89  C   UNL A   1      31.649  24.317  23.139  1.00  0.00     0.041 A 
ATOM     90  C   UNL A   1      32.520  25.168  22.419  1.00  0.00     0.015 A 
ATOM     91  C   UNL A   1      30.479  24.802  23.742  1.00  0.00     0.028 A 
ATOM     92  C   UNL A   1      32.162  26.493  22.170  1.00  0.00     0.015 A 
ATOM     93  C   UNL A   1      30.138  26.108  23.451  1.00  0.00     0.054 A 
ATOM     94  C   UNL A   1      30.942  26.915  22.664  1.00  0.00     0.053 A 
ATOM     95  C   UNL A   1      28.880  26.824  23.672  1.00  0.00     0.261 C 
ATOM     96  C   UNL A   1      30.189  28.127  22.363  1.00  0.00     0.261 C 
ATOM     97  O   UNL A   1      27.920  26.336  24.237  1.00  0.00    -0.269 OA
ATOM     98  N   UNL A   1      29.002  28.026  23.035  1.00  0.00    -0.267 N 
ATOM     99  O   UNL A   1      30.569  28.976  21.581  1.00  0.00    -0.269 OA
BRANCH  98 100
ATOM    100  C   UNL A   1      27.935  28.999  22.928  1.00  0.00     0.204 C 
BRANCH 100 101
ATOM    101  C   UNL A   1      28.481  30.367  23.134  1.00  0.00     0.123 A 
ATOM    102  C   UNL A   1      29.304  30.926  24.091  1.00  0.00     0.047 A 
ATOM    103  O   UNL A   1      28.147  31.309  22.205  1.00  0.00    -0.467 OA
ATOM    104  C   UNL A   1      29.467  32.285  23.738  1.00  0.00     0.042 A 
ATOM    105  C   UNL A   1      28.751  32.466  22.580  1.00  0.00     0.195 A 
ENDBRANCH 100 101
ENDBRANCH  98 100
ENDBRANCH  86  89
ENDBRANCH  80  85
ENDBRANCH  75  78
ENDBRANCH  73  74
ENDBRANCH   1  73
TORSDOF 15
ENDMDL
MODEL 3
REMARK VINA RESULT:     -13.0      4.313      7.225
REMARK SMILES O=C(NCCCCNC(=O)c1cc(Cl)ccc1NC(=O)c1ccc2c(c1)C(=O)N(Cc1ccco1)C2=O)c1ccc(-c2c3nc(c(-c4c(F)c(F)c(F)c(F)c4F)c4ccc([nH]4)c(-c4c(F)c(F)c(F)c(F)c4F)c4nc(c(-c5c(F)c(F)c(F)c(F)c5F)c5ccc2[nH]5)C=C4)C=C3)cc1
REMARK SMILES IDX 6 1 5 2 4 3 3 4 1 5 2 6 38 8 39 9 100 10 40 11 99 12 41 13
REMARK SMILES IDX 42 14 43 15 93 16 44 17 98 18 92 19 94 20 45 21 97 22 91 23
REMARK SMILES IDX 90 24 46 26 78 27 58 28 77 29 59 30 62 31 76 32 95 33 60 34
REMARK SMILES IDX 61 35 75 37 96 38 63 39 47 40 48 41 56 42 49 43 50 44 54 45
REMARK SMILES IDX 57 46 51 47 52 48 55 49 53 50 79 51 80 52 88 53 81 54 82 55
REMARK SMILES IDX 86 56 89 57 83 58 84 59 87 60 85 61 64 62 65 63 73 64 66 65
REMARK SMILES IDX 67 66 71 67 74 68 68 69 69 70 72 71 70 72 7 73 8 74 9 75
REMARK SMILES IDX 10 77 11 78 12 79 17 80 13 81 16 82 14 83 15 84 18 85 19 86
REMARK SMILES IDX 20 88 21 89 22 90 26 91 23 92 25 93 24 94 27 95 36 96 28 97
REMARK SMILES IDX 29 98 37 99 30 100 31 101 32 102 35 103 33 104 34 105
REMARK H PARENT 3 7 94 25 62 36 8 76 18 87
REMARK Flexibility Score: inf
ROOT
ATOM      1  C   UNL A   1      36.725  18.594  25.039  1.00  0.00     0.023 C 
ENDROOT
BRANCH   1   2
ATOM      2  C   UNL A   1      37.850  19.545  24.651  1.00  0.00     0.023 C 
BRANCH   2   3
ATOM      3  C   UNL A   1      38.792  19.918  25.787  1.00  0.00     0.116 C 
BRANCH   3   4
ATOM      4  N   UNL A   1      39.952  19.043  25.878  1.00  0.00    -0.352 N 
ATOM      5  O   UNL A   1      42.144  18.514  26.036  1.00  0.00    -0.269 OA
ATOM      6  C   UNL A   1      41.266  19.367  26.126  1.00  0.00     0.251 C 
ATOM      7  H   UNL A   1      39.771  18.085  25.745  1.00  0.00     0.163 HD
BRANCH   6   8
ATOM      8  C   UNL A   1      41.620  20.760  26.471  1.00  0.00     0.039 A 
ATOM      9  C   UNL A   1      41.610  21.754  25.491  1.00  0.00     0.014 A 
ATOM     10  C   UNL A   1      41.992  21.066  27.782  1.00  0.00     0.014 A 
ATOM     11  C   UNL A   1      42.136  23.006  25.777  1.00  0.00     0.010 A 
ATOM     12  C   UNL A   1      42.421  22.360  28.094  1.00  0.00     0.010 A 
ATOM     13  C   UNL A   1      42.531  23.330  27.086  1.00  0.00    -0.014 A 
BRANCH  13  14
ATOM     14  C   UNL A   1      42.990  24.711  27.385  1.00  0.00     0.031 A 
ATOM     15  C   UNL A   1      44.397  25.149  27.087  1.00  0.00     0.074 A 
ATOM     16  C   UNL A   1      42.108  25.579  27.915  1.00  0.00     0.049 A 
ATOM     17  N   UNL A   1      44.959  26.313  27.295  1.00  0.00    -0.248 NA
ATOM     18  C   UNL A   1      45.293  24.150  26.486  1.00  0.00     0.031 C 
ATOM     19  C   UNL A   1      40.718  25.266  28.251  1.00  0.00     0.029 A 
ATOM     20  N   UNL A   1      42.241  26.900  28.256  1.00  0.00    -0.354 N 
ATOM     21  C   UNL A   1      46.274  26.185  26.869  1.00  0.00     0.074 A 
ATOM     22  C   UNL A   1      46.437  24.819  26.418  1.00  0.00     0.031 C 
ATOM     23  C   UNL A   1      40.114  26.370  28.709  1.00  0.00     0.029 A 
ATOM     24  C   UNL A   1      41.093  27.449  28.774  1.00  0.00     0.049 A 
ATOM     25  H   UNL A   1      43.077  27.407  28.142  1.00  0.00     0.167 HD
ATOM     26  C   UNL A   1      47.251  27.125  26.849  1.00  0.00     0.037 A 
ATOM     27  C   UNL A   1      40.858  28.675  29.273  1.00  0.00     0.037 A 
ATOM     28  C   UNL A   1      47.076  28.485  27.298  1.00  0.00     0.049 A 
ATOM     29  C   UNL A   1      41.973  29.680  29.286  1.00  0.00     0.074 A 
ATOM     30  C   UNL A   1      47.992  29.522  27.289  1.00  0.00     0.029 A 
ATOM     31  N   UNL A   1      45.907  28.994  27.848  1.00  0.00    -0.354 N 
ATOM     32  N   UNL A   1      43.202  29.558  28.844  1.00  0.00    -0.248 NA
ATOM     33  C   UNL A   1      41.670  30.993  29.866  1.00  0.00     0.031 C 
ATOM     34  C   UNL A   1      47.401  30.638  27.891  1.00  0.00     0.029 A 
ATOM     35  C   UNL A   1      46.091  30.320  28.211  1.00  0.00     0.049 A 
ATOM     36  H   UNL A   1      45.069  28.488  27.963  1.00  0.00     0.167 HD
ATOM     37  C   UNL A   1      43.810  30.785  29.070  1.00  0.00     0.074 A 
ATOM     38  C   UNL A   1      42.809  31.642  29.669  1.00  0.00     0.031 C 
ATOM     39  C   UNL A   1      45.084  31.165  28.804  1.00  0.00     0.037 A 
BRANCH  26  40
ATOM     40  C   UNL A   1      48.610  26.715  26.352  1.00  0.00     0.064 A 
ATOM     41  C   UNL A   1      49.014  26.940  25.027  1.00  0.00     0.173 A 
ATOM     42  C   UNL A   1      49.538  26.130  27.226  1.00  0.00     0.173 A 
ATOM     43  F   UNL A   1      48.165  27.489  24.146  1.00  0.00    -0.203 F 
ATOM     44  C   UNL A   1      50.283  26.567  24.591  1.00  0.00     0.198 A 
ATOM     45  C   UNL A   1      50.818  25.789  26.796  1.00  0.00     0.198 A 
ATOM     46  F   UNL A   1      49.211  25.899  28.507  1.00  0.00    -0.203 F 
ATOM     47  F   UNL A   1      50.629  26.746  23.308  1.00  0.00    -0.200 F 
ATOM     48  C   UNL A   1      51.187  25.999  25.476  1.00  0.00     0.200 A 
ATOM     49  F   UNL A   1      51.695  25.256  27.659  1.00  0.00    -0.200 F 
ATOM     50  F   UNL A   1      52.410  25.649  25.056  1.00  0.00    -0.200 F 
ENDBRANCH  26  40
BRANCH  27  51
ATOM     51  C   UNL A   1      39.514  29.007  29.812  1.00  0.00     0.064 A 
ATOM     52  C   UNL A   1      38.545  29.622  29.010  1.00  0.00     0.173 A 
ATOM     53  C   UNL A   1      39.168  28.706  31.140  1.00  0.00     0.173 A 
ATOM     54  F   UNL A   1      38.832  29.943  27.740  1.00  0.00    -0.203 F 
ATOM     55  C   UNL A   1      37.288  29.944  29.519  1.00  0.00     0.198 A 
ATOM     56  C   UNL A   1      37.901  28.995  31.637  1.00  0.00     0.198 A 
ATOM     57  F   UNL A   1      40.058  28.109  31.947  1.00  0.00    -0.203 F 
ATOM     58  F   UNL A   1      36.396  30.576  28.745  1.00  0.00    -0.200 F 
ATOM     59  C   UNL A   1      36.965  29.624  30.830  1.00  0.00     0.200 A 
ATOM     60  F   UNL A   1      37.586  28.664  32.897  1.00  0.00    -0.200 F 
ATOM     61  F   UNL A   1      35.754  29.926  31.316  1.00  0.00    -0.200 F 
ENDBRANCH  27  51
BRANCH  39  62
ATOM     62  C   UNL A   1      45.455  32.586  29.120  1.00  0.00     0.064 A 
ATOM     63  C   UNL A   1      45.255  33.626  28.200  1.00  0.00     0.173 A 
ATOM     64  C   UNL A   1      45.993  32.915  30.375  1.00  0.00     0.173 A 
ATOM     65  F   UNL A   1      44.761  33.364  26.981  1.00  0.00    -0.203 F 
ATOM     66  C   UNL A   1      45.609  34.936  28.512  1.00  0.00     0.198 A 
ATOM     67  C   UNL A   1      46.311  34.231  30.696  1.00  0.00     0.198 A 
ATOM     68  F   UNL A   1      46.200  31.960  31.294  1.00  0.00    -0.203 F 
ATOM     69  F   UNL A   1      45.463  35.903  27.596  1.00  0.00    -0.200 F 
ATOM     70  C   UNL A   1      46.128  35.239  29.762  1.00  0.00     0.200 A 
ATOM     71  F   UNL A   1      46.797  34.523  31.910  1.00  0.00    -0.200 F 
ATOM     72  F   UNL A   1      46.460  36.501  30.064  1.00  0.00    -0.200 F 
ENDBRANCH  39  62
ENDBRANCH  13  14
ENDBRANCH   6   8
ENDBRANCH   3   4
ENDBRANCH   2   3
ENDBRANCH   1   2
BRANCH   1  73
ATOM     73  C   UNL A   1      35.375  18.900  24.400  1.00  0.00     0.116 C 
BRANCH  73  74
ATOM     74  N   UNL A   1      34.386  19.377  25.361  1.00  0.00    -0.352 N 
ATOM     75  C   UNL A   1      34.185  20.659  25.818  1.00  0.00     0.253 C 
ATOM     76  H   UNL A   1      33.784  18.691  25.731  1.00  0.00     0.163 HD
ATOM     77  O   UNL A   1      33.433  20.888  26.757  1.00  0.00    -0.269 OA
BRANCH  75  78
ATOM     78  C   UNL A   1      34.963  21.753  25.204  1.00  0.00     0.064 A 
ATOM     79  C   UNL A   1      36.124  22.186  25.865  1.00  0.00     0.036 A 
ATOM     80  C   UNL A   1      34.479  22.413  24.062  1.00  0.00     0.054 A 
ATOM     81  C   UNL A   1      36.714  23.382  25.489  1.00  0.00     0.041 A 
ATOM     82  C   UNL A   1      35.017  23.676  23.796  1.00  0.00     0.028 A 
ATOM     83  Cl  UNL A   1      38.096  23.958  26.331  1.00  0.00    -0.084 Cl
ATOM     84  C   UNL A   1      36.138  24.153  24.489  1.00  0.00     0.023 A 
BRANCH  80  85
ATOM     85  N   UNL A   1      33.498  21.785  23.252  1.00  0.00    -0.321 N 
ATOM     86  C   UNL A   1      32.164  22.052  23.018  1.00  0.00     0.255 C 
ATOM     87  H   UNL A   1      33.836  21.002  22.760  1.00  0.00     0.170 HD
ATOM     88  O   UNL A   1      31.472  21.283  22.355  1.00  0.00    -0.269 OA
BRANCH  86  89
ATOM     89  C   UNL A   1      31.525  23.272  23.547  1.00  0.00     0.041 A 
ATOM     90  C   UNL A   1      31.283  23.326  24.939  1.00  0.00     0.015 A 
ATOM     91  C   UNL A   1      31.308  24.386  22.719  1.00  0.00     0.028 A 
ATOM     92  C   UNL A   1      30.955  24.536  25.550  1.00  0.00     0.015 A 
ATOM     93  C   UNL A   1      31.016  25.574  23.358  1.00  0.00     0.054 A 
ATOM     94  C   UNL A   1      30.875  25.648  24.734  1.00  0.00     0.053 A 
ATOM     95  C   UNL A   1      31.010  26.944  22.842  1.00  0.00     0.261 C 
ATOM     96  C   UNL A   1      30.808  27.060  25.093  1.00  0.00     0.261 C 
ATOM     97  O   UNL A   1      31.225  27.223  21.678  1.00  0.00    -0.269 OA
ATOM     98  N   UNL A   1      30.840  27.764  23.921  1.00  0.00    -0.267 N 
ATOM     99  O   UNL A   1      30.818  27.461  26.241  1.00  0.00    -0.269 OA
BRANCH  98 100
ATOM    100  C   UNL A   1      30.876  29.210  23.855  1.00  0.00     0.204 C 
BRANCH 100 101
ATOM    101  C   UNL A   1      29.527  29.729  23.505  1.00  0.00     0.123 A 
ATOM    102  C   UNL A   1      28.446  29.190  22.837  1.00  0.00     0.047 A 
ATOM    103  O   UNL A   1      29.228  30.994  23.922  1.00  0.00    -0.467 OA
ATOM    104  C   UNL A   1      27.441  30.184  22.827  1.00  0.00     0.042 A 
ATOM    105  C   UNL A   1      27.962  31.259  23.507  1.00  0.00     0.195 A 
ENDBRANCH 100 101
ENDBRANCH  98 100
ENDBRANCH  86  89
ENDBRANCH  80  85
ENDBRANCH  75  78
ENDBRANCH  73  74
ENDBRANCH   1  73
TORSDOF 15
ENDMDL
