MODEL 1
REMARK VINA RESULT:     -13.3      0.000      0.000
REMARK SMILES C[C@@H]1CN(C(=O)Nc2ccc(O)c(C(=O)NCCCCNC(=O)c3ccc(-c4c5nc(c(-c6c(F)c(F)c(F)c(F)c6F)c6ccc([nH]6)c(-c6c(F)c(F)c(F)c(F)c6F)c6nc(c(-c7c(F)c(F)c(F)c(F)c7F)c7ccc4[nH]7)C=C6)C=C5)cc3)c2)C[C@@H]1C
REMARK SMILES IDX 18 1 17 2 16 3 14 4 15 5 13 7 8 8 9 9 87 10 10 11 11 12 7 13
REMARK SMILES IDX 5 14 6 15 4 17 1 18 2 19 3 20 89 21 88 22 90 23 12 24 19 26
REMARK SMILES IDX 20 27 21 28 22 29 23 31 24 32 25 33 86 34 26 35 85 36 27 37
REMARK SMILES IDX 28 38 29 39 79 40 30 41 84 42 78 43 80 44 31 45 83 46 77 47
REMARK SMILES IDX 76 48 32 50 64 51 44 52 63 53 45 54 48 55 62 56 81 57 46 58
REMARK SMILES IDX 47 59 61 61 82 62 49 63 33 64 34 65 42 66 35 67 36 68 40 69
REMARK SMILES IDX 43 70 37 71 38 72 41 73 39 74 65 75 66 76 74 77 67 78 68 79
REMARK SMILES IDX 72 80 75 81 69 82 70 83 73 84 71 85 50 86 51 87 59 88 52 89
REMARK SMILES IDX 53 90 57 91 60 92 54 93 55 94 58 95 56 96
REMARK H PARENT 16 6 7 16 12 25 21 30 80 49 48 60
REMARK Flexibility Score: inf
ROOT
ATOM      1  C   UNL A   1      31.588  30.909  25.961  1.00  0.00     0.023 C 
ENDROOT
BRANCH   1   2
ATOM      2  C   UNL A   1      32.862  30.067  26.067  1.00  0.00     0.116 C 
BRANCH   2   3
ATOM      3  N   UNL A   1      33.361  29.732  24.755  1.00  0.00    -0.352 N 
ATOM      4  C   UNL A   1      32.940  28.833  23.813  1.00  0.00     0.255 C 
ATOM      5  O   UNL A   1      33.620  28.785  22.782  1.00  0.00    -0.269 OA
ATOM      6  H   UNL A   1      34.155  30.249  24.486  1.00  0.00     0.163 HD
BRANCH   4   7
ATOM      7  C   UNL A   1      31.718  27.970  23.887  1.00  0.00     0.083 A 
ATOM      8  C   UNL A   1      30.598  26.306  25.293  1.00  0.00     0.043 A 
ATOM      9  C   UNL A   1      29.485  26.334  24.464  1.00  0.00     0.030 A 
ATOM     10  C   UNL A   1      31.665  27.173  25.051  1.00  0.00     0.044 A 
ATOM     11  C   UNL A   1      29.512  27.102  23.308  1.00  0.00     0.049 A 
ATOM     12  C   UNL A   1      30.632  27.885  23.003  1.00  0.00     0.128 A 
BRANCH   8  13
ATOM     13  N   UNL A   1      30.681  25.440  26.384  1.00  0.00    -0.308 N 
ATOM     14  C   UNL A   1      30.965  24.110  26.439  1.00  0.00     0.321 C 
ATOM     15  O   UNL A   1      30.512  23.466  27.387  1.00  0.00    -0.248 OA
ATOM     16  H   UNL A   1      30.506  25.860  27.257  1.00  0.00     0.171 HD
BRANCH  14  17
ATOM     17  N   UNL A   1      31.852  23.555  25.543  1.00  0.00    -0.324 N 
ATOM     18  C   UNL A   1      33.167  23.046  22.103  1.00  0.00     0.010 C 
ATOM     19  C   UNL A   1      33.036  22.856  23.604  1.00  0.00     0.010 C 
ATOM     20  C   UNL A   1      31.657  23.254  24.126  1.00  0.00     0.125 C 
ATOM     21  C   UNL A   1      33.984  23.659  24.503  1.00  0.00     0.010 C 
ATOM     22  C   UNL A   1      33.275  23.549  25.861  1.00  0.00     0.125 C 
ATOM     23  C   UNL A   1      34.154  25.119  24.080  1.00  0.00     0.010 C 
ENDBRANCH  14  17
ENDBRANCH   8  13
BRANCH  12  24
ATOM     24  O   UNL A   1      30.570  28.560  21.826  1.00  0.00    -0.507 OA
ATOM     25  H   UNL A   1      31.352  28.901  21.439  1.00  0.00     0.293 HD
ENDBRANCH  12  24
ENDBRANCH   4   7
ENDBRANCH   2   3
ENDBRANCH   1   2
BRANCH   1  26
ATOM     26  C   UNL A   1      31.418  31.985  27.027  1.00  0.00     0.023 C 
BRANCH  26  27
ATOM     27  C   UNL A   1      32.656  32.823  27.289  1.00  0.00     0.116 C 
BRANCH  27  28
ATOM     28  N   UNL A   1      32.366  34.212  27.617  1.00  0.00    -0.352 N 
ATOM     29  C   UNL A   1      33.003  35.024  28.530  1.00  0.00     0.251 C 
ATOM     30  H   UNL A   1      31.620  34.624  27.124  1.00  0.00     0.163 HD
ATOM     31  O   UNL A   1      32.601  36.151  28.756  1.00  0.00    -0.269 OA
BRANCH  29  32
ATOM     32  C   UNL A   1      34.157  34.474  29.270  1.00  0.00     0.039 A 
ATOM     33  C   UNL A   1      33.920  33.761  30.447  1.00  0.00     0.014 A 
ATOM     34  C   UNL A   1      35.452  34.599  28.761  1.00  0.00     0.014 A 
ATOM     35  C   UNL A   1      34.979  33.106  31.075  1.00  0.00     0.010 A 
ATOM     36  C   UNL A   1      36.489  33.882  29.342  1.00  0.00     0.010 A 
ATOM     37  C   UNL A   1      36.262  33.128  30.503  1.00  0.00    -0.014 A 
BRANCH  37  38
ATOM     38  C   UNL A   1      37.385  32.370  31.103  1.00  0.00     0.031 A 
ATOM     39  C   UNL A   1      37.874  32.726  32.477  1.00  0.00     0.074 A 
ATOM     40  C   UNL A   1      38.007  31.419  30.383  1.00  0.00     0.049 A 
ATOM     41  N   UNL A   1      38.888  32.239  33.147  1.00  0.00    -0.248 NA
ATOM     42  C   UNL A   1      37.145  33.792  33.182  1.00  0.00     0.031 C 
ATOM     43  C   UNL A   1      37.658  31.026  29.016  1.00  0.00     0.029 A 
ATOM     44  N   UNL A   1      39.076  30.617  30.696  1.00  0.00    -0.354 N 
ATOM     45  C   UNL A   1      38.927  32.951  34.337  1.00  0.00     0.074 A 
ATOM     46  C   UNL A   1      37.873  33.939  34.278  1.00  0.00     0.031 C 
ATOM     47  C   UNL A   1      38.481  30.043  28.617  1.00  0.00     0.029 A 
ATOM     48  C   UNL A   1      39.436  29.760  29.685  1.00  0.00     0.049 A 
ATOM     49  H   UNL A   1      39.540  30.653  31.563  1.00  0.00     0.167 HD
ATOM     50  C   UNL A   1      39.754  32.778  35.395  1.00  0.00     0.037 A 
ATOM     51  C   UNL A   1      40.428  28.851  29.627  1.00  0.00     0.037 A 
ATOM     52  C   UNL A   1      40.780  31.772  35.462  1.00  0.00     0.049 A 
ATOM     53  C   UNL A   1      41.325  28.672  30.821  1.00  0.00     0.074 A 
ATOM     54  C   UNL A   1      41.628  31.471  36.513  1.00  0.00     0.029 A 
ATOM     55  N   UNL A   1      41.097  30.902  34.429  1.00  0.00    -0.354 N 
ATOM     56  N   UNL A   1      41.308  29.301  31.971  1.00  0.00    -0.248 NA
ATOM     57  C   UNL A   1      42.375  27.649  30.712  1.00  0.00     0.031 C 
ATOM     58  C   UNL A   1      42.483  30.443  36.103  1.00  0.00     0.029 A 
ATOM     59  C   UNL A   1      42.139  30.073  34.813  1.00  0.00     0.049 A 
ATOM     60  H   UNL A   1      40.648  30.875  33.554  1.00  0.00     0.167 HD
ATOM     61  C   UNL A   1      42.323  28.735  32.732  1.00  0.00     0.074 A 
ATOM     62  C   UNL A   1      42.927  27.701  31.916  1.00  0.00     0.031 C 
ATOM     63  C   UNL A   1      42.719  29.043  33.990  1.00  0.00     0.037 A 
BRANCH  50  64
ATOM     64  C   UNL A   1      39.571  33.691  36.571  1.00  0.00     0.064 A 
ATOM     65  C   UNL A   1      38.779  33.324  37.670  1.00  0.00     0.173 A 
ATOM     66  C   UNL A   1      40.213  34.938  36.612  1.00  0.00     0.173 A 
ATOM     67  F   UNL A   1      38.132  32.149  37.673  1.00  0.00    -0.203 F 
ATOM     68  C   UNL A   1      38.613  34.184  38.753  1.00  0.00     0.198 A 
ATOM     69  C   UNL A   1      40.069  35.783  37.709  1.00  0.00     0.198 A 
ATOM     70  F   UNL A   1      40.984  35.336  35.588  1.00  0.00    -0.203 F 
ATOM     71  F   UNL A   1      37.810  33.833  39.767  1.00  0.00    -0.200 F 
ATOM     72  C   UNL A   1      39.263  35.409  38.775  1.00  0.00     0.200 A 
ATOM     73  F   UNL A   1      40.706  36.962  37.734  1.00  0.00    -0.200 F 
ATOM     74  F   UNL A   1      39.105  36.233  39.819  1.00  0.00    -0.200 F 
ENDBRANCH  50  64
BRANCH  51  75
ATOM     75  C   UNL A   1      40.603  28.018  28.410  1.00  0.00     0.064 A 
ATOM     76  C   UNL A   1      39.994  26.758  28.311  1.00  0.00     0.173 A 
ATOM     77  C   UNL A   1      41.378  28.456  27.328  1.00  0.00     0.173 A 
ATOM     78  F   UNL A   1      39.259  26.289  29.329  1.00  0.00    -0.203 F 
ATOM     79  C   UNL A   1      40.171  25.961  27.182  1.00  0.00     0.198 A 
ATOM     80  C   UNL A   1      41.534  27.668  26.189  1.00  0.00     0.198 A 
ATOM     81  F   UNL A   1      41.976  29.656  27.372  1.00  0.00    -0.203 F 
ATOM     82  F   UNL A   1      39.614  24.744  27.132  1.00  0.00    -0.200 F 
ATOM     83  C   UNL A   1      40.937  26.419  26.121  1.00  0.00     0.200 A 
ATOM     84  F   UNL A   1      42.264  28.118  25.160  1.00  0.00    -0.200 F 
ATOM     85  F   UNL A   1      41.105  25.652  25.035  1.00  0.00    -0.200 F 
ENDBRANCH  51  75
BRANCH  63  86
ATOM     86  C   UNL A   1      43.835  28.231  34.576  1.00  0.00     0.064 A 
ATOM     87  C   UNL A   1      45.169  28.655  34.504  1.00  0.00     0.173 A 
ATOM     88  C   UNL A   1      43.559  27.035  35.257  1.00  0.00     0.173 A 
ATOM     89  F   UNL A   1      45.484  29.783  33.850  1.00  0.00    -0.203 F 
ATOM     90  C   UNL A   1      46.190  27.899  35.074  1.00  0.00     0.198 A 
ATOM     91  C   UNL A   1      44.579  26.297  35.849  1.00  0.00     0.198 A 
ATOM     92  F   UNL A   1      42.297  26.591  35.359  1.00  0.00    -0.203 F 
ATOM     93  F   UNL A   1      47.464  28.301  34.957  1.00  0.00    -0.200 F 
ATOM     94  C   UNL A   1      45.893  26.726  35.752  1.00  0.00     0.200 A 
ATOM     95  F   UNL A   1      44.289  25.170  36.514  1.00  0.00    -0.200 F 
ATOM     96  F   UNL A   1      46.878  26.005  36.306  1.00  0.00    -0.200 F 
ENDBRANCH  63  86
ENDBRANCH  37  38
ENDBRANCH  29  32
ENDBRANCH  27  28
ENDBRANCH  26  27
ENDBRANCH   1  26
TORSDOF 14
ENDMDL
MODEL 2
REMARK VINA RESULT:     -13.3      0.154      1.591
REMARK SMILES C[C@@H]1CN(C(=O)Nc2ccc(O)c(C(=O)NCCCCNC(=O)c3ccc(-c4c5nc(c(-c6c(F)c(F)c(F)c(F)c6F)c6ccc([nH]6)c(-c6c(F)c(F)c(F)c(F)c6F)c6nc(c(-c7c(F)c(F)c(F)c(F)c7F)c7ccc4[nH]7)C=C6)C=C5)cc3)c2)C[C@@H]1C
REMARK SMILES IDX 18 1 17 2 16 3 14 4 15 5 13 7 8 8 9 9 87 10 10 11 11 12 7 13
REMARK SMILES IDX 5 14 6 15 4 17 1 18 2 19 3 20 89 21 88 22 90 23 12 24 19 26
REMARK SMILES IDX 20 27 21 28 22 29 23 31 24 32 25 33 86 34 26 35 85 36 27 37
REMARK SMILES IDX 28 38 29 39 79 40 30 41 84 42 78 43 80 44 31 45 83 46 77 47
REMARK SMILES IDX 76 48 32 50 64 51 44 52 63 53 45 54 48 55 62 56 81 57 46 58
REMARK SMILES IDX 47 59 61 61 82 62 49 63 33 64 34 65 42 66 35 67 36 68 40 69
REMARK SMILES IDX 43 70 37 71 38 72 41 73 39 74 65 75 66 76 74 77 67 78 68 79
REMARK SMILES IDX 72 80 75 81 69 82 70 83 73 84 71 85 50 86 51 87 59 88 52 89
REMARK SMILES IDX 53 90 57 91 60 92 54 93 55 94 58 95 56 96
REMARK H PARENT 16 6 7 16 12 25 21 30 80 49 48 60
REMARK Flexibility Score: inf
ROOT
ATOM      1  C   UNL A   1      31.688  30.823  25.993  1.00  0.00     0.023 C 
ENDROOT
BRANCH   1   2
ATOM      2  C   UNL A   1      32.977  30.052  26.290  1.00  0.00     0.116 C 
BRANCH   2   3
ATOM      3  N   UNL A   1      33.603  29.618  25.064  1.00  0.00    -0.352 N 
ATOM      4  C   UNL A   1      33.230  28.704  24.115  1.00  0.00     0.255 C 
ATOM      5  O   UNL A   1      34.023  28.557  23.178  1.00  0.00    -0.269 OA
ATOM      6  H   UNL A   1      34.460  30.062  24.874  1.00  0.00     0.163 HD
BRANCH   4   7
ATOM      7  C   UNL A   1      31.946  27.934  24.074  1.00  0.00     0.083 A 
ATOM      8  C   UNL A   1      30.616  26.306  25.330  1.00  0.00     0.043 A 
ATOM      9  C   UNL A   1      29.566  26.452  24.435  1.00  0.00     0.030 A 
ATOM     10  C   UNL A   1      31.758  27.098  25.195  1.00  0.00     0.044 A 
ATOM     11  C   UNL A   1      29.725  27.261  23.319  1.00  0.00     0.049 A 
ATOM     12  C   UNL A   1      30.918  27.969  23.121  1.00  0.00     0.128 A 
BRANCH   8  13
ATOM     13  N   UNL A   1      30.564  25.393  26.384  1.00  0.00    -0.308 N 
ATOM     14  C   UNL A   1      30.739  24.043  26.395  1.00  0.00     0.321 C 
ATOM     15  O   UNL A   1      30.179  23.400  27.286  1.00  0.00    -0.248 OA
ATOM     16  H   UNL A   1      30.368  25.790  27.263  1.00  0.00     0.171 HD
BRANCH  14  17
ATOM     17  N   UNL A   1      31.633  23.454  25.529  1.00  0.00    -0.324 N 
ATOM     18  C   UNL A   1      33.147  23.013  22.162  1.00  0.00     0.010 C 
ATOM     19  C   UNL A   1      32.887  22.753  23.635  1.00  0.00     0.010 C 
ATOM     20  C   UNL A   1      31.517  23.254  24.086  1.00  0.00     0.125 C 
ATOM     21  C   UNL A   1      33.837  23.406  24.646  1.00  0.00     0.010 C 
ATOM     22  C   UNL A   1      33.022  23.290  25.943  1.00  0.00     0.125 C 
ATOM     23  C   UNL A   1      34.176  24.864  24.330  1.00  0.00     0.010 C 
ENDBRANCH  14  17
ENDBRANCH   8  13
BRANCH  12  24
ATOM     24  O   UNL A   1      30.983  28.693  21.973  1.00  0.00    -0.507 OA
ATOM     25  H   UNL A   1      31.038  28.256  21.146  1.00  0.00     0.293 HD
ENDBRANCH  12  24
ENDBRANCH   4   7
ENDBRANCH   2   3
ENDBRANCH   1   2
BRANCH   1  26
ATOM     26  C   UNL A   1      31.408  32.013  26.904  1.00  0.00     0.023 C 
BRANCH  26  27
ATOM     27  C   UNL A   1      32.637  32.806  27.312  1.00  0.00     0.116 C 
BRANCH  27  28
ATOM     28  N   UNL A   1      32.358  34.199  27.628  1.00  0.00    -0.352 N 
ATOM     29  C   UNL A   1      33.002  35.014  28.533  1.00  0.00     0.251 C 
ATOM     30  H   UNL A   1      31.615  34.613  27.131  1.00  0.00     0.163 HD
ATOM     31  O   UNL A   1      32.609  36.146  28.749  1.00  0.00    -0.269 OA
BRANCH  29  32
ATOM     32  C   UNL A   1      34.153  34.462  29.277  1.00  0.00     0.039 A 
ATOM     33  C   UNL A   1      33.909  33.737  30.445  1.00  0.00     0.014 A 
ATOM     34  C   UNL A   1      35.450  34.597  28.779  1.00  0.00     0.014 A 
ATOM     35  C   UNL A   1      34.966  33.080  31.075  1.00  0.00     0.010 A 
ATOM     36  C   UNL A   1      36.486  33.879  29.362  1.00  0.00     0.010 A 
ATOM     37  C   UNL A   1      36.253  33.113  30.513  1.00  0.00    -0.014 A 
BRANCH  37  38
ATOM     38  C   UNL A   1      37.374  32.353  31.115  1.00  0.00     0.031 A 
ATOM     39  C   UNL A   1      37.867  32.714  32.487  1.00  0.00     0.074 A 
ATOM     40  C   UNL A   1      37.992  31.396  30.398  1.00  0.00     0.049 A 
ATOM     41  N   UNL A   1      38.880  32.226  33.157  1.00  0.00    -0.248 NA
ATOM     42  C   UNL A   1      37.143  33.786  33.188  1.00  0.00     0.031 C 
ATOM     43  C   UNL A   1      37.639  30.999  29.034  1.00  0.00     0.029 A 
ATOM     44  N   UNL A   1      39.058  30.592  30.713  1.00  0.00    -0.354 N 
ATOM     45  C   UNL A   1      38.924  32.943  34.343  1.00  0.00     0.074 A 
ATOM     46  C   UNL A   1      37.873  33.935  34.282  1.00  0.00     0.031 C 
ATOM     47  C   UNL A   1      38.458  30.011  28.638  1.00  0.00     0.029 A 
ATOM     48  C   UNL A   1      39.413  29.729  29.705  1.00  0.00     0.049 A 
ATOM     49  H   UNL A   1      39.524  30.630  31.579  1.00  0.00     0.167 HD
ATOM     50  C   UNL A   1      39.752  32.772  35.401  1.00  0.00     0.037 A 
ATOM     51  C   UNL A   1      40.402  28.817  29.650  1.00  0.00     0.037 A 
ATOM     52  C   UNL A   1      40.775  31.763  35.471  1.00  0.00     0.049 A 
ATOM     53  C   UNL A   1      41.301  28.640  30.843  1.00  0.00     0.074 A 
ATOM     54  C   UNL A   1      41.624  31.464  36.522  1.00  0.00     0.029 A 
ATOM     55  N   UNL A   1      41.087  30.887  34.441  1.00  0.00    -0.354 N 
ATOM     56  N   UNL A   1      41.288  29.274  31.991  1.00  0.00    -0.248 NA
ATOM     57  C   UNL A   1      42.347  27.613  30.737  1.00  0.00     0.031 C 
ATOM     58  C   UNL A   1      42.474  30.431  36.115  1.00  0.00     0.029 A 
ATOM     59  C   UNL A   1      42.126  30.056  34.827  1.00  0.00     0.049 A 
ATOM     60  H   UNL A   1      40.636  30.858  33.567  1.00  0.00     0.167 HD
ATOM     61  C   UNL A   1      42.302  28.708  32.752  1.00  0.00     0.074 A 
ATOM     62  C   UNL A   1      42.901  27.669  31.940  1.00  0.00     0.031 C 
ATOM     63  C   UNL A   1      42.701  29.021  34.008  1.00  0.00     0.037 A 
BRANCH  50  64
ATOM     64  C   UNL A   1      39.575  33.692  36.573  1.00  0.00     0.064 A 
ATOM     65  C   UNL A   1      40.194  34.950  36.619  1.00  0.00     0.173 A 
ATOM     66  C   UNL A   1      38.758  33.323  37.652  1.00  0.00     0.173 A 
ATOM     67  F   UNL A   1      40.998  35.344  35.619  1.00  0.00    -0.203 F 
ATOM     68  C   UNL A   1      40.027  35.792  37.716  1.00  0.00     0.198 A 
ATOM     69  C   UNL A   1      38.568  34.179  38.734  1.00  0.00     0.198 A 
ATOM     70  F   UNL A   1      38.140  32.132  37.657  1.00  0.00    -0.203 F 
ATOM     71  F   UNL A   1      40.671  36.967  37.760  1.00  0.00    -0.200 F 
ATOM     72  C   UNL A   1      39.210  35.410  38.768  1.00  0.00     0.200 A 
ATOM     73  F   UNL A   1      37.770  33.813  39.745  1.00  0.00    -0.200 F 
ATOM     74  F   UNL A   1      39.046  36.222  39.820  1.00  0.00    -0.200 F 
ENDBRANCH  50  64
BRANCH  51  75
ATOM     75  C   UNL A   1      40.572  27.977  28.436  1.00  0.00     0.064 A 
ATOM     76  C   UNL A   1      41.350  28.426  27.359  1.00  0.00     0.173 A 
ATOM     77  C   UNL A   1      39.964  26.719  28.325  1.00  0.00     0.173 A 
ATOM     78  F   UNL A   1      41.934  29.631  27.412  1.00  0.00    -0.203 F 
ATOM     79  C   UNL A   1      41.496  27.654  26.208  1.00  0.00     0.198 A 
ATOM     80  C   UNL A   1      40.133  25.938  27.183  1.00  0.00     0.198 A 
ATOM     81  F   UNL A   1      39.216  26.243  29.331  1.00  0.00    -0.203 F 
ATOM     82  F   UNL A   1      42.208  28.126  25.176  1.00  0.00    -0.200 F 
ATOM     83  C   UNL A   1      40.892  26.409  26.123  1.00  0.00     0.200 A 
ATOM     84  F   UNL A   1      39.558  24.730  27.110  1.00  0.00    -0.200 F 
ATOM     85  F   UNL A   1      41.034  25.668  25.017  1.00  0.00    -0.200 F 
ENDBRANCH  51  75
BRANCH  63  86
ATOM     86  C   UNL A   1      43.815  28.207  34.596  1.00  0.00     0.064 A 
ATOM     87  C   UNL A   1      45.151  28.627  34.523  1.00  0.00     0.173 A 
ATOM     88  C   UNL A   1      43.537  27.014  35.280  1.00  0.00     0.173 A 
ATOM     89  F   UNL A   1      45.469  29.753  33.866  1.00  0.00    -0.203 F 
ATOM     90  C   UNL A   1      46.170  27.870  35.094  1.00  0.00     0.198 A 
ATOM     91  C   UNL A   1      44.555  26.275  35.874  1.00  0.00     0.198 A 
ATOM     92  F   UNL A   1      42.273  26.573  35.383  1.00  0.00    -0.203 F 
ATOM     93  F   UNL A   1      47.444  28.269  34.975  1.00  0.00    -0.200 F 
ATOM     94  C   UNL A   1      45.870  26.700  35.775  1.00  0.00     0.200 A 
ATOM     95  F   UNL A   1      44.262  25.150  36.542  1.00  0.00    -0.200 F 
ATOM     96  F   UNL A   1      46.853  25.978  36.331  1.00  0.00    -0.200 F 
ENDBRANCH  63  86
ENDBRANCH  37  38
ENDBRANCH  29  32
ENDBRANCH  27  28
ENDBRANCH  26  27
ENDBRANCH   1  26
TORSDOF 14
ENDMDL
MODEL 3
REMARK VINA RESULT:     -13.3      0.176      1.594
REMARK SMILES C[C@@H]1CN(C(=O)Nc2ccc(O)c(C(=O)NCCCCNC(=O)c3ccc(-c4c5nc(c(-c6c(F)c(F)c(F)c(F)c6F)c6ccc([nH]6)c(-c6c(F)c(F)c(F)c(F)c6F)c6nc(c(-c7c(F)c(F)c(F)c(F)c7F)c7ccc4[nH]7)C=C6)C=C5)cc3)c2)C[C@@H]1C
REMARK SMILES IDX 18 1 17 2 16 3 14 4 15 5 13 7 8 8 9 9 87 10 10 11 11 12 7 13
REMARK SMILES IDX 5 14 6 15 4 17 1 18 2 19 3 20 89 21 88 22 90 23 12 24 19 26
REMARK SMILES IDX 20 27 21 28 22 29 23 31 24 32 25 33 86 34 26 35 85 36 27 37
REMARK SMILES IDX 28 38 29 39 79 40 30 41 84 42 78 43 80 44 31 45 83 46 77 47
REMARK SMILES IDX 76 48 32 50 64 51 44 52 63 53 45 54 48 55 62 56 81 57 46 58
REMARK SMILES IDX 47 59 61 61 82 62 49 63 33 64 34 65 42 66 35 67 36 68 40 69
REMARK SMILES IDX 43 70 37 71 38 72 41 73 39 74 65 75 66 76 74 77 67 78 68 79
REMARK SMILES IDX 72 80 75 81 69 82 70 83 73 84 71 85 50 86 51 87 59 88 52 89
REMARK SMILES IDX 53 90 57 91 60 92 54 93 55 94 58 95 56 96
REMARK H PARENT 16 6 7 16 12 25 21 30 80 49 48 60
REMARK Flexibility Score: inf
ROOT
ATOM      1  C   UNL A   1      31.709  30.694  26.034  1.00  0.00     0.023 C 
ENDROOT
BRANCH   1   2
ATOM      2  C   UNL A   1      33.073  30.044  26.278  1.00  0.00     0.116 C 
BRANCH   2   3
ATOM      3  N   UNL A   1      33.669  29.629  25.030  1.00  0.00    -0.352 N 
ATOM      4  C   UNL A   1      33.275  28.728  24.078  1.00  0.00     0.255 C 
ATOM      5  O   UNL A   1      34.044  28.596  23.119  1.00  0.00    -0.269 OA
ATOM      6  H   UNL A   1      34.521  30.079  24.825  1.00  0.00     0.163 HD
BRANCH   4   7
ATOM      7  C   UNL A   1      31.992  27.956  24.058  1.00  0.00     0.083 A 
ATOM      8  C   UNL A   1      30.682  26.332  25.340  1.00  0.00     0.043 A 
ATOM      9  C   UNL A   1      29.619  26.471  24.459  1.00  0.00     0.030 A 
ATOM     10  C   UNL A   1      31.820  27.125  25.186  1.00  0.00     0.044 A 
ATOM     11  C   UNL A   1      29.762  27.275  23.336  1.00  0.00     0.049 A 
ATOM     12  C   UNL A   1      30.951  27.983  23.118  1.00  0.00     0.128 A 
BRANCH   8  13
ATOM     13  N   UNL A   1      30.645  25.425  26.400  1.00  0.00    -0.308 N 
ATOM     14  C   UNL A   1      30.833  24.076  26.418  1.00  0.00     0.321 C 
ATOM     15  O   UNL A   1      30.285  23.434  27.316  1.00  0.00    -0.248 OA
ATOM     16  H   UNL A   1      30.450  25.825  27.278  1.00  0.00     0.171 HD
BRANCH  14  17
ATOM     17  N   UNL A   1      31.728  23.492  25.550  1.00  0.00    -0.324 N 
ATOM     18  C   UNL A   1      33.249  23.072  22.184  1.00  0.00     0.010 C 
ATOM     19  C   UNL A   1      32.984  22.801  23.654  1.00  0.00     0.010 C 
ATOM     20  C   UNL A   1      31.614  23.304  24.105  1.00  0.00     0.125 C 
ATOM     21  C   UNL A   1      33.934  23.442  24.673  1.00  0.00     0.010 C 
ATOM     22  C   UNL A   1      33.115  23.319  25.966  1.00  0.00     0.125 C 
ATOM     23  C   UNL A   1      34.278  24.902  24.369  1.00  0.00     0.010 C 
ENDBRANCH  14  17
ENDBRANCH   8  13
BRANCH  12  24
ATOM     24  O   UNL A   1      30.999  28.701  21.966  1.00  0.00    -0.507 OA
ATOM     25  H   UNL A   1      31.822  28.858  21.546  1.00  0.00     0.293 HD
ENDBRANCH  12  24
ENDBRANCH   4   7
ENDBRANCH   2   3
ENDBRANCH   1   2
BRANCH   1  26
ATOM     26  C   UNL A   1      31.416  31.942  26.859  1.00  0.00     0.023 C 
BRANCH  26  27
ATOM     27  C   UNL A   1      32.644  32.734  27.273  1.00  0.00     0.116 C 
BRANCH  27  28
ATOM     28  N   UNL A   1      32.365  34.129  27.584  1.00  0.00    -0.352 N 
ATOM     29  C   UNL A   1      33.006  34.946  28.490  1.00  0.00     0.251 C 
ATOM     30  H   UNL A   1      31.625  34.542  27.082  1.00  0.00     0.163 HD
ATOM     31  O   UNL A   1      32.613  36.079  28.701  1.00  0.00    -0.269 OA
BRANCH  29  32
ATOM     32  C   UNL A   1      34.152  34.394  29.241  1.00  0.00     0.039 A 
ATOM     33  C   UNL A   1      33.899  33.598  30.359  1.00  0.00     0.014 A 
ATOM     34  C   UNL A   1      35.459  34.602  28.794  1.00  0.00     0.014 A 
ATOM     35  C   UNL A   1      34.959  32.945  30.988  1.00  0.00     0.010 A 
ATOM     36  C   UNL A   1      36.502  33.890  29.372  1.00  0.00     0.010 A 
ATOM     37  C   UNL A   1      36.261  33.054  30.472  1.00  0.00    -0.014 A 
BRANCH  37  38
ATOM     38  C   UNL A   1      37.390  32.302  31.069  1.00  0.00     0.031 A 
ATOM     39  C   UNL A   1      37.880  32.659  32.443  1.00  0.00     0.074 A 
ATOM     40  C   UNL A   1      38.018  31.356  30.346  1.00  0.00     0.049 A 
ATOM     41  N   UNL A   1      38.898  32.179  33.110  1.00  0.00    -0.248 NA
ATOM     42  C   UNL A   1      37.144  33.720  33.151  1.00  0.00     0.031 C 
ATOM     43  C   UNL A   1      37.668  30.963  28.980  1.00  0.00     0.029 A 
ATOM     44  N   UNL A   1      39.092  30.561  30.656  1.00  0.00    -0.354 N 
ATOM     45  C   UNL A   1      38.935  32.889  34.301  1.00  0.00     0.074 A 
ATOM     46  C   UNL A   1      37.873  33.870  34.245  1.00  0.00     0.031 C 
ATOM     47  C   UNL A   1      38.498  29.986  28.578  1.00  0.00     0.029 A 
ATOM     48  C   UNL A   1      39.456  29.708  29.643  1.00  0.00     0.049 A 
ATOM     49  H   UNL A   1      39.558  30.599  31.523  1.00  0.00     0.167 HD
ATOM     50  C   UNL A   1      39.764  32.720  35.358  1.00  0.00     0.037 A 
ATOM     51  C   UNL A   1      40.454  28.806  29.583  1.00  0.00     0.037 A 
ATOM     52  C   UNL A   1      40.798  31.721  35.421  1.00  0.00     0.049 A 
ATOM     53  C   UNL A   1      41.355  28.631  30.775  1.00  0.00     0.074 A 
ATOM     54  C   UNL A   1      41.649  31.425  36.471  1.00  0.00     0.029 A 
ATOM     55  N   UNL A   1      41.118  30.855  34.386  1.00  0.00    -0.354 N 
ATOM     56  N   UNL A   1      41.336  29.259  31.926  1.00  0.00    -0.248 NA
ATOM     57  C   UNL A   1      42.411  27.616  30.662  1.00  0.00     0.031 C 
ATOM     58  C   UNL A   1      42.511  30.403  36.057  1.00  0.00     0.029 A 
ATOM     59  C   UNL A   1      42.166  30.032  34.767  1.00  0.00     0.049 A 
ATOM     60  H   UNL A   1      40.668  30.826  33.512  1.00  0.00     0.167 HD
ATOM     61  C   UNL A   1      42.356  28.698  32.684  1.00  0.00     0.074 A 
ATOM     62  C   UNL A   1      42.965  27.670  31.865  1.00  0.00     0.031 C 
ATOM     63  C   UNL A   1      42.752  29.008  33.942  1.00  0.00     0.037 A 
BRANCH  50  64
ATOM     64  C   UNL A   1      39.577  33.631  36.535  1.00  0.00     0.064 A 
ATOM     65  C   UNL A   1      40.189  34.893  36.592  1.00  0.00     0.173 A 
ATOM     66  C   UNL A   1      38.759  33.250  37.609  1.00  0.00     0.173 A 
ATOM     67  F   UNL A   1      40.993  35.298  35.597  1.00  0.00    -0.203 F 
ATOM     68  C   UNL A   1      40.013  35.726  37.693  1.00  0.00     0.198 A 
ATOM     69  C   UNL A   1      38.561  34.097  38.696  1.00  0.00     0.198 A 
ATOM     70  F   UNL A   1      38.149  32.054  37.604  1.00  0.00    -0.203 F 
ATOM     71  F   UNL A   1      40.649  36.904  37.748  1.00  0.00    -0.200 F 
ATOM     72  C   UNL A   1      39.195  35.331  38.740  1.00  0.00     0.200 A 
ATOM     73  F   UNL A   1      37.762  33.719  39.702  1.00  0.00    -0.200 F 
ATOM     74  F   UNL A   1      39.023  36.136  39.798  1.00  0.00    -0.200 F 
ENDBRANCH  50  64
BRANCH  51  75
ATOM     75  C   UNL A   1      40.633  27.976  28.364  1.00  0.00     0.064 A 
ATOM     76  C   UNL A   1      40.028  26.715  28.262  1.00  0.00     0.173 A 
ATOM     77  C   UNL A   1      41.407  28.419  27.283  1.00  0.00     0.173 A 
ATOM     78  F   UNL A   1      39.295  26.241  29.279  1.00  0.00    -0.203 F 
ATOM     79  C   UNL A   1      40.209  25.920  27.132  1.00  0.00     0.198 A 
ATOM     80  C   UNL A   1      41.566  27.634  26.142  1.00  0.00     0.198 A 
ATOM     81  F   UNL A   1      42.001  29.621  27.330  1.00  0.00    -0.203 F 
ATOM     82  F   UNL A   1      39.656  24.701  27.079  1.00  0.00    -0.200 F 
ATOM     83  C   UNL A   1      40.973  26.383  26.072  1.00  0.00     0.200 A 
ATOM     84  F   UNL A   1      42.295  28.089  25.115  1.00  0.00    -0.200 F 
ATOM     85  F   UNL A   1      41.145  25.618  24.984  1.00  0.00    -0.200 F 
ENDBRANCH  51  75
BRANCH  63  86
ATOM     86  C   UNL A   1      43.874  28.202  34.524  1.00  0.00     0.064 A 
ATOM     87  C   UNL A   1      43.642  26.989  35.188  1.00  0.00     0.173 A 
ATOM     88  C   UNL A   1      45.204  28.628  34.376  1.00  0.00     0.173 A 
ATOM     89  F   UNL A   1      42.388  26.548  35.367  1.00  0.00    -0.203 F 
ATOM     90  C   UNL A   1      44.699  26.243  35.702  1.00  0.00     0.198 A 
ATOM     91  C   UNL A   1      46.258  27.866  34.867  1.00  0.00     0.198 A 
ATOM     92  F   UNL A   1      45.477  29.779  33.743  1.00  0.00    -0.203 F 
ATOM     93  F   UNL A   1      44.451  25.107  36.371  1.00  0.00    -0.200 F 
ATOM     94  C   UNL A   1      46.005  26.678  35.535  1.00  0.00     0.200 A 
ATOM     95  F   UNL A   1      47.521  28.282  34.694  1.00  0.00    -0.200 F 
ATOM     96  F   UNL A   1      47.020  25.953  36.024  1.00  0.00    -0.200 F 
ENDBRANCH  63  86
ENDBRANCH  37  38
ENDBRANCH  29  32
ENDBRANCH  27  28
ENDBRANCH  26  27
ENDBRANCH   1  26
TORSDOF 14
ENDMDL
