MODEL 1
REMARK VINA RESULT:     -12.0      0.000      0.000
REMARK SMILES CC(C)(C)CN1C(=O)CC[C@@H](C(=O)NCCCCNC(=O)c2ccc(-c3c4nc(c(-c5c(F)c(F)c(F)c(F)c5F)c5ccc([nH]5)c(-c5c(F)c(F)c(F)c(F)c5F)c5nc(c(-c6c(F)c(F)c(F)c(F)c6F)c6ccc3[nH]6)C=C5)C=C4)cc2)[C@H]1c1cccc2c1OCO2
REMARK SMILES IDX 16 1 15 2 14 3 12 4 13 5 11 7 6 8 7 9 85 10 8 11 9 12 10 13
REMARK SMILES IDX 5 14 2 15 1 16 3 17 4 18 86 19 87 20 91 21 88 22 90 23 92 24
REMARK SMILES IDX 89 25 94 26 93 27 17 28 18 29 19 30 20 31 21 33 22 34 23 35
REMARK SMILES IDX 84 36 24 37 83 38 25 39 26 40 27 41 77 42 28 43 82 44 76 45
REMARK SMILES IDX 78 46 29 47 81 48 75 49 74 50 30 52 62 53 42 54 61 55 43 56
REMARK SMILES IDX 46 57 60 58 79 59 44 60 45 61 59 63 80 64 47 65 31 66 32 67
REMARK SMILES IDX 40 68 33 69 34 70 38 71 41 72 35 73 36 74 39 75 37 76 63 77
REMARK SMILES IDX 64 78 72 79 65 80 66 81 70 82 73 83 67 84 68 85 71 86 69 87
REMARK SMILES IDX 48 88 49 89 57 90 50 91 51 92 55 93 58 94 52 95 53 96 56 97
REMARK SMILES IDX 54 98
REMARK H PARENT 14 6 19 32 78 51 46 62
REMARK Flexibility Score: inf
ROOT
ATOM      1  C   UNL A   1      30.943  28.073  24.902  1.00  0.00     0.023 C 
ENDROOT
BRANCH   1   2
ATOM      2  C   UNL A   1      30.281  26.718  25.128  1.00  0.00     0.116 C 
BRANCH   2   3
ATOM      3  N   UNL A   1      30.833  26.015  26.270  1.00  0.00    -0.356 N 
ATOM      4  C   UNL A   1      31.339  24.753  26.361  1.00  0.00     0.225 C 
ATOM      5  O   UNL A   1      31.905  24.466  27.417  1.00  0.00    -0.275 OA
ATOM      6  H   UNL A   1      30.844  26.529  27.109  1.00  0.00     0.163 HD
BRANCH   4   7
ATOM      7  C   UNL A   1      31.216  23.771  25.193  1.00  0.00     0.106 C 
ATOM      8  N   UNL A   1      33.474  22.500  25.049  1.00  0.00    -0.334 N 
ATOM      9  C   UNL A   1      32.977  21.548  25.968  1.00  0.00     0.223 C 
ATOM     10  C   UNL A   1      32.541  23.503  24.424  1.00  0.00     0.132 C 
ATOM     11  O   UNL A   1      33.642  20.578  26.350  1.00  0.00    -0.275 OA
ATOM     12  C   UNL A   1      31.586  21.687  26.535  1.00  0.00     0.101 C 
ATOM     13  C   UNL A   1      30.615  22.460  25.678  1.00  0.00     0.026 C 
BRANCH   8  14
ATOM     14  C   UNL A   1      34.690  21.971  24.346  1.00  0.00     0.126 C 
BRANCH  14  15
ATOM     15  C   UNL A   1      36.137  22.500  24.562  1.00  0.00    -0.021 C 
ATOM     16  C   UNL A   1      36.666  23.170  23.280  1.00  0.00     0.012 C 
ATOM     17  C   UNL A   1      37.089  21.294  24.799  1.00  0.00     0.012 C 
ATOM     18  C   UNL A   1      36.242  23.345  25.843  1.00  0.00     0.012 C 
ENDBRANCH  14  15
ENDBRANCH   8  14
BRANCH  10  19
ATOM     19  C   UNL A   1      33.125  24.845  23.996  1.00  0.00     0.021 A 
ATOM     20  C   UNL A   1      33.823  25.688  24.882  1.00  0.00     0.010 A 
ATOM     21  C   UNL A   1      32.929  25.357  22.716  1.00  0.00     0.171 A 
ATOM     22  C   UNL A   1      34.375  26.915  24.464  1.00  0.00     0.004 A 
ATOM     23  C   UNL A   1      33.481  26.552  22.304  1.00  0.00     0.166 A 
ATOM     24  O   UNL A   1      32.229  24.756  21.709  1.00  0.00    -0.453 OA
ATOM     25  C   UNL A   1      34.219  27.349  23.150  1.00  0.00     0.050 A 
ATOM     26  O   UNL A   1      33.230  26.825  20.996  1.00  0.00    -0.454 OA
ATOM     27  C   UNL A   1      32.523  25.635  20.601  1.00  0.00     0.468 C 
ENDBRANCH  10  19
ENDBRANCH   4   7
ENDBRANCH   2   3
ENDBRANCH   1   2
BRANCH   1  28
ATOM     28  C   UNL A   1      31.667  28.657  26.118  1.00  0.00     0.023 C 
BRANCH  28  29
ATOM     29  C   UNL A   1      32.819  29.608  25.806  1.00  0.00     0.116 C 
BRANCH  29  30
ATOM     30  N   UNL A   1      32.547  30.975  26.224  1.00  0.00    -0.352 N 
ATOM     31  C   UNL A   1      33.184  31.741  27.169  1.00  0.00     0.251 C 
ATOM     32  H   UNL A   1      31.798  31.415  25.762  1.00  0.00     0.163 HD
ATOM     33  O   UNL A   1      32.695  32.810  27.532  1.00  0.00    -0.269 OA
BRANCH  31  34
ATOM     34  C   UNL A   1      34.450  31.274  27.770  1.00  0.00     0.039 A 
ATOM     35  C   UNL A   1      35.494  32.183  27.952  1.00  0.00     0.014 A 
ATOM     36  C   UNL A   1      34.608  29.939  28.152  1.00  0.00     0.014 A 
ATOM     37  C   UNL A   1      36.668  31.770  28.588  1.00  0.00     0.010 A 
ATOM     38  C   UNL A   1      35.745  29.549  28.856  1.00  0.00     0.010 A 
ATOM     39  C   UNL A   1      36.788  30.460  29.084  1.00  0.00    -0.014 A 
BRANCH  39  40
ATOM     40  C   UNL A   1      37.993  30.030  29.841  1.00  0.00     0.031 A 
ATOM     41  C   UNL A   1      38.254  30.570  31.222  1.00  0.00     0.074 A 
ATOM     42  C   UNL A   1      38.880  29.192  29.267  1.00  0.00     0.049 A 
ATOM     43  N   UNL A   1      39.281  30.367  32.010  1.00  0.00    -0.248 NA
ATOM     44  C   UNL A   1      37.238  31.473  31.783  1.00  0.00     0.031 C 
ATOM     45  C   UNL A   1      38.764  28.627  27.921  1.00  0.00     0.029 A 
ATOM     46  N   UNL A   1      40.062  28.674  29.739  1.00  0.00    -0.354 N 
ATOM     47  C   UNL A   1      39.033  31.116  33.153  1.00  0.00     0.074 A 
ATOM     48  C   UNL A   1      37.794  31.828  32.933  1.00  0.00     0.031 C 
ATOM     49  C   UNL A   1      39.814  27.825  27.687  1.00  0.00     0.029 A 
ATOM     50  C   UNL A   1      40.703  27.852  28.844  1.00  0.00     0.049 A 
ATOM     51  H   UNL A   1      40.416  28.873  30.636  1.00  0.00     0.167 HD
ATOM     52  C   UNL A   1      39.758  31.180  34.296  1.00  0.00     0.037 A 
ATOM     53  C   UNL A   1      41.880  27.203  28.941  1.00  0.00     0.037 A 
ATOM     54  C   UNL A   1      40.985  30.462  34.520  1.00  0.00     0.049 A 
ATOM     55  C   UNL A   1      42.684  27.329  30.210  1.00  0.00     0.074 A 
ATOM     56  C   UNL A   1      41.779  30.445  35.654  1.00  0.00     0.029 A 
ATOM     57  N   UNL A   1      41.596  29.632  33.593  1.00  0.00    -0.354 N 
ATOM     58  N   UNL A   1      42.408  27.995  31.305  1.00  0.00    -0.248 NA
ATOM     59  C   UNL A   1      43.962  26.604  30.258  1.00  0.00     0.031 C 
ATOM     60  C   UNL A   1      42.894  29.642  35.396  1.00  0.00     0.029 A 
ATOM     61  C   UNL A   1      42.763  29.108  34.125  1.00  0.00     0.049 A 
ATOM     62  H   UNL A   1      41.251  29.442  32.690  1.00  0.00     0.167 HD
ATOM     63  C   UNL A   1      43.450  27.730  32.184  1.00  0.00     0.074 A 
ATOM     64  C   UNL A   1      44.357  26.833  31.501  1.00  0.00     0.031 C 
ATOM     65  C   UNL A   1      43.641  28.190  33.445  1.00  0.00     0.037 A 
BRANCH  52  66
ATOM     66  C   UNL A   1      39.236  32.044  35.407  1.00  0.00     0.064 A 
ATOM     67  C   UNL A   1      38.444  31.511  36.436  1.00  0.00     0.173 A 
ATOM     68  C   UNL A   1      39.587  33.401  35.486  1.00  0.00     0.173 A 
ATOM     69  F   UNL A   1      38.071  30.223  36.404  1.00  0.00    -0.203 F 
ATOM     70  C   UNL A   1      38.006  32.308  37.491  1.00  0.00     0.198 A 
ATOM     71  C   UNL A   1      39.174  34.186  36.559  1.00  0.00     0.198 A 
ATOM     72  F   UNL A   1      40.347  33.960  34.533  1.00  0.00    -0.203 F 
ATOM     73  F   UNL A   1      37.218  31.786  38.441  1.00  0.00    -0.200 F 
ATOM     74  C   UNL A   1      38.381  33.642  37.558  1.00  0.00     0.200 A 
ATOM     75  F   UNL A   1      39.550  35.470  36.631  1.00  0.00    -0.200 F 
ATOM     76  F   UNL A   1      37.975  34.402  38.583  1.00  0.00    -0.200 F 
ENDBRANCH  52  66
BRANCH  53  77
ATOM     77  C   UNL A   1      42.380  26.366  27.815  1.00  0.00     0.064 A 
ATOM     78  C   UNL A   1      43.280  26.888  26.873  1.00  0.00     0.173 A 
ATOM     79  C   UNL A   1      41.928  25.053  27.624  1.00  0.00     0.173 A 
ATOM     80  F   UNL A   1      43.727  28.146  27.000  1.00  0.00    -0.203 F 
ATOM     81  C   UNL A   1      43.670  26.146  25.761  1.00  0.00     0.198 A 
ATOM     82  C   UNL A   1      42.349  24.298  26.530  1.00  0.00     0.198 A 
ATOM     83  F   UNL A   1      41.074  24.501  28.497  1.00  0.00    -0.203 F 
ATOM     84  F   UNL A   1      44.469  26.697  24.837  1.00  0.00    -0.200 F 
ATOM     85  C   UNL A   1      43.206  24.850  25.590  1.00  0.00     0.200 A 
ATOM     86  F   UNL A   1      41.912  23.040  26.379  1.00  0.00    -0.200 F 
ATOM     87  F   UNL A   1      43.574  24.141  24.515  1.00  0.00    -0.200 F 
ENDBRANCH  53  77
BRANCH  65  88
ATOM     88  C   UNL A   1      44.835  27.677  34.199  1.00  0.00     0.064 A 
ATOM     89  C   UNL A   1      44.779  26.506  34.970  1.00  0.00     0.173 A 
ATOM     90  C   UNL A   1      46.063  28.350  34.116  1.00  0.00     0.173 A 
ATOM     91  F   UNL A   1      43.627  25.832  35.093  1.00  0.00    -0.203 F 
ATOM     92  C   UNL A   1      45.901  26.049  35.657  1.00  0.00     0.198 A 
ATOM     93  C   UNL A   1      47.191  27.871  34.774  1.00  0.00     0.198 A 
ATOM     94  F   UNL A   1      46.173  29.469  33.384  1.00  0.00    -0.203 F 
ATOM     95  F   UNL A   1      45.811  24.961  36.434  1.00  0.00    -0.200 F 
ATOM     96  C   UNL A   1      47.107  26.726  35.551  1.00  0.00     0.200 A 
ATOM     97  F   UNL A   1      48.360  28.516  34.656  1.00  0.00    -0.200 F 
ATOM     98  F   UNL A   1      48.187  26.279  36.207  1.00  0.00    -0.200 F 
ENDBRANCH  65  88
ENDBRANCH  39  40
ENDBRANCH  31  34
ENDBRANCH  29  30
ENDBRANCH  28  29
ENDBRANCH   1  28
TORSDOF 14
ENDMDL
MODEL 2
REMARK VINA RESULT:     -11.6      1.666      3.284
REMARK SMILES CC(C)(C)CN1C(=O)CC[C@@H](C(=O)NCCCCNC(=O)c2ccc(-c3c4nc(c(-c5c(F)c(F)c(F)c(F)c5F)c5ccc([nH]5)c(-c5c(F)c(F)c(F)c(F)c5F)c5nc(c(-c6c(F)c(F)c(F)c(F)c6F)c6ccc3[nH]6)C=C5)C=C4)cc2)[C@H]1c1cccc2c1OCO2
REMARK SMILES IDX 16 1 15 2 14 3 12 4 13 5 11 7 6 8 7 9 85 10 8 11 9 12 10 13
REMARK SMILES IDX 5 14 2 15 1 16 3 17 4 18 86 19 87 20 91 21 88 22 90 23 92 24
REMARK SMILES IDX 89 25 94 26 93 27 17 28 18 29 19 30 20 31 21 33 22 34 23 35
REMARK SMILES IDX 84 36 24 37 83 38 25 39 26 40 27 41 77 42 28 43 82 44 76 45
REMARK SMILES IDX 78 46 29 47 81 48 75 49 74 50 30 52 62 53 42 54 61 55 43 56
REMARK SMILES IDX 46 57 60 58 79 59 44 60 45 61 59 63 80 64 47 65 31 66 32 67
REMARK SMILES IDX 40 68 33 69 34 70 38 71 41 72 35 73 36 74 39 75 37 76 63 77
REMARK SMILES IDX 64 78 72 79 65 80 66 81 70 82 73 83 67 84 68 85 71 86 69 87
REMARK SMILES IDX 48 88 49 89 57 90 50 91 51 92 55 93 58 94 52 95 53 96 56 97
REMARK SMILES IDX 54 98
REMARK H PARENT 14 6 19 32 78 51 46 62
REMARK Flexibility Score: inf
ROOT
ATOM      1  C   UNL A   1      30.649  31.126  25.060  1.00  0.00     0.023 C 
ENDROOT
BRANCH   1   2
ATOM      2  C   UNL A   1      31.608  30.083  24.495  1.00  0.00     0.116 C 
BRANCH   2   3
ATOM      3  N   UNL A   1      30.968  29.208  23.531  1.00  0.00    -0.356 N 
ATOM      4  C   UNL A   1      31.456  28.113  22.885  1.00  0.00     0.225 C 
ATOM      5  O   UNL A   1      30.641  27.447  22.246  1.00  0.00    -0.275 OA
ATOM      6  H   UNL A   1      30.039  29.443  23.309  1.00  0.00     0.163 HD
BRANCH   4   7
ATOM      7  C   UNL A   1      32.938  27.738  22.981  1.00  0.00     0.106 C 
ATOM      8  N   UNL A   1      33.031  25.223  23.612  1.00  0.00    -0.334 N 
ATOM      9  C   UNL A   1      32.985  24.894  22.238  1.00  0.00     0.223 C 
ATOM     10  C   UNL A   1      33.268  26.647  24.039  1.00  0.00     0.132 C 
ATOM     11  O   UNL A   1      33.003  23.727  21.829  1.00  0.00    -0.275 OA
ATOM     12  C   UNL A   1      32.903  25.981  21.194  1.00  0.00     0.101 C 
ATOM     13  C   UNL A   1      33.457  27.319  21.614  1.00  0.00     0.026 C 
BRANCH   8  14
ATOM     14  C   UNL A   1      33.484  24.043  24.422  1.00  0.00     0.126 C 
BRANCH  14  15
ATOM     15  C   UNL A   1      32.542  23.127  25.255  1.00  0.00    -0.021 C 
ATOM     16  C   UNL A   1      32.788  23.324  26.762  1.00  0.00     0.012 C 
ATOM     17  C   UNL A   1      32.911  21.641  24.985  1.00  0.00     0.012 C 
ATOM     18  C   UNL A   1      31.080  23.261  24.799  1.00  0.00     0.012 C 
ENDBRANCH  14  15
ENDBRANCH   8  14
BRANCH  10  19
ATOM     19  C   UNL A   1      32.692  27.091  25.380  1.00  0.00     0.021 A 
ATOM     20  C   UNL A   1      31.432  26.668  25.844  1.00  0.00     0.010 A 
ATOM     21  C   UNL A   1      33.347  28.014  26.191  1.00  0.00     0.171 A 
ATOM     22  C   UNL A   1      30.925  27.071  27.096  1.00  0.00     0.004 A 
ATOM     23  C   UNL A   1      32.856  28.398  27.422  1.00  0.00     0.166 A 
ATOM     24  O   UNL A   1      34.543  28.615  25.920  1.00  0.00    -0.453 OA
ATOM     25  C   UNL A   1      31.654  27.936  27.908  1.00  0.00     0.050 A 
ATOM     26  O   UNL A   1      33.691  29.245  28.080  1.00  0.00    -0.454 OA
ATOM     27  C   UNL A   1      34.801  29.298  27.167  1.00  0.00     0.468 C 
ENDBRANCH  10  19
ENDBRANCH   4   7
ENDBRANCH   2   3
ENDBRANCH   1   2
BRANCH   1  28
ATOM     28  C   UNL A   1      31.008  31.657  26.451  1.00  0.00     0.023 C 
BRANCH  28  29
ATOM     29  C   UNL A   1      32.425  32.202  26.604  1.00  0.00     0.116 C 
BRANCH  29  30
ATOM     30  N   UNL A   1      32.451  33.558  27.128  1.00  0.00    -0.352 N 
ATOM     31  C   UNL A   1      33.245  34.100  28.109  1.00  0.00     0.251 C 
ATOM     32  H   UNL A   1      31.807  34.180  26.719  1.00  0.00     0.163 HD
ATOM     33  O   UNL A   1      32.996  35.216  28.562  1.00  0.00    -0.269 OA
BRANCH  31  34
ATOM     34  C   UNL A   1      34.391  33.333  28.640  1.00  0.00     0.039 A 
ATOM     35  C   UNL A   1      35.686  33.700  28.270  1.00  0.00     0.014 A 
ATOM     36  C   UNL A   1      34.187  32.253  29.504  1.00  0.00     0.014 A 
ATOM     37  C   UNL A   1      36.780  33.030  28.826  1.00  0.00     0.010 A 
ATOM     38  C   UNL A   1      35.278  31.640  30.116  1.00  0.00     0.010 A 
ATOM     39  C   UNL A   1      36.587  32.022  29.786  1.00  0.00    -0.014 A 
BRANCH  39  40
ATOM     40  C   UNL A   1      37.740  31.362  30.453  1.00  0.00     0.031 A 
ATOM     41  C   UNL A   1      38.116  31.733  31.862  1.00  0.00     0.074 A 
ATOM     42  C   UNL A   1      38.482  30.464  29.773  1.00  0.00     0.049 A 
ATOM     43  N   UNL A   1      39.125  31.319  32.587  1.00  0.00    -0.248 NA
ATOM     44  C   UNL A   1      37.255  32.715  32.541  1.00  0.00     0.031 C 
ATOM     45  C   UNL A   1      38.247  30.045  28.390  1.00  0.00     0.029 A 
ATOM     46  N   UNL A   1      39.591  29.746  30.150  1.00  0.00    -0.354 N 
ATOM     47  C   UNL A   1      39.020  31.989  33.799  1.00  0.00     0.074 A 
ATOM     48  C   UNL A   1      37.889  32.884  33.693  1.00  0.00     0.031 C 
ATOM     49  C   UNL A   1      39.165  29.128  28.044  1.00  0.00     0.029 A 
ATOM     50  C   UNL A   1      40.082  28.926  29.162  1.00  0.00     0.049 A 
ATOM     51  H   UNL A   1      39.996  29.811  31.045  1.00  0.00     0.167 HD
ATOM     52  C   UNL A   1      39.780  31.848  34.913  1.00  0.00     0.037 A 
ATOM     53  C   UNL A   1      41.156  28.114  29.154  1.00  0.00     0.037 A 
ATOM     54  C   UNL A   1      40.898  30.948  35.023  1.00  0.00     0.049 A 
ATOM     55  C   UNL A   1      42.007  28.012  30.395  1.00  0.00     0.074 A 
ATOM     56  C   UNL A   1      41.715  30.719  36.117  1.00  0.00     0.029 A 
ATOM     57  N   UNL A   1      41.357  30.128  34.004  1.00  0.00    -0.354 N 
ATOM     58  N   UNL A   1      41.861  28.608  31.553  1.00  0.00    -0.248 NA
ATOM     59  C   UNL A   1      43.170  27.114  30.328  1.00  0.00     0.031 C 
ATOM     60  C   UNL A   1      42.696  29.795  35.746  1.00  0.00     0.029 A 
ATOM     61  C   UNL A   1      42.453  29.402  34.440  1.00  0.00     0.049 A 
ATOM     62  H   UNL A   1      40.962  30.071  33.103  1.00  0.00     0.167 HD
ATOM     63  C   UNL A   1      42.880  28.122  32.362  1.00  0.00     0.074 A 
ATOM     64  C   UNL A   1      43.629  27.173  31.568  1.00  0.00     0.031 C 
ATOM     65  C   UNL A   1      43.171  28.435  33.649  1.00  0.00     0.037 A 
BRANCH  52  66
ATOM     66  C   UNL A   1      39.418  32.672  36.114  1.00  0.00     0.064 A 
ATOM     67  C   UNL A   1      38.500  32.209  37.068  1.00  0.00     0.173 A 
ATOM     68  C   UNL A   1      40.046  33.905  36.353  1.00  0.00     0.173 A 
ATOM     69  F   UNL A   1      37.864  31.043  36.883  1.00  0.00    -0.203 F 
ATOM     70  C   UNL A   1      38.209  32.956  38.207  1.00  0.00     0.198 A 
ATOM     71  C   UNL A   1      39.777  34.634  37.508  1.00  0.00     0.198 A 
ATOM     72  F   UNL A   1      40.937  34.392  35.477  1.00  0.00    -0.203 F 
ATOM     73  F   UNL A   1      37.299  32.511  39.085  1.00  0.00    -0.200 F 
ATOM     74  C   UNL A   1      38.856  34.162  38.432  1.00  0.00     0.200 A 
ATOM     75  F   UNL A   1      40.414  35.791  37.732  1.00  0.00    -0.200 F 
ATOM     76  F   UNL A   1      38.589  34.871  39.537  1.00  0.00    -0.200 F 
ENDBRANCH  52  66
BRANCH  53  77
ATOM     77  C   UNL A   1      41.499  27.320  27.941  1.00  0.00     0.064 A 
ATOM     78  C   UNL A   1      41.022  26.010  27.778  1.00  0.00     0.173 A 
ATOM     79  C   UNL A   1      42.353  27.828  26.952  1.00  0.00     0.173 A 
ATOM     80  F   UNL A   1      40.218  25.470  28.706  1.00  0.00    -0.203 F 
ATOM     81  C   UNL A   1      41.424  25.226  26.699  1.00  0.00     0.198 A 
ATOM     82  C   UNL A   1      42.724  27.055  25.853  1.00  0.00     0.198 A 
ATOM     83  F   UNL A   1      42.832  29.076  27.053  1.00  0.00    -0.203 F 
ATOM     84  F   UNL A   1      41.014  23.953  26.610  1.00  0.00    -0.200 F 
ATOM     85  C   UNL A   1      42.273  25.750  25.736  1.00  0.00     0.200 A 
ATOM     86  F   UNL A   1      43.531  27.571  24.916  1.00  0.00    -0.200 F 
ATOM     87  F   UNL A   1      42.667  24.992  24.704  1.00  0.00    -0.200 F 
ENDBRANCH  53  77
BRANCH  65  88
ATOM     88  C   UNL A   1      44.301  27.695  34.306  1.00  0.00     0.064 A 
ATOM     89  C   UNL A   1      45.610  28.198  34.320  1.00  0.00     0.173 A 
ATOM     90  C   UNL A   1      44.059  26.478  34.962  1.00  0.00     0.173 A 
ATOM     91  F   UNL A   1      45.898  29.350  33.696  1.00  0.00    -0.203 F 
ATOM     92  C   UNL A   1      46.640  27.494  34.939  1.00  0.00     0.198 A 
ATOM     93  C   UNL A   1      45.083  25.795  35.610  1.00  0.00     0.198 A 
ATOM     94  F   UNL A   1      42.823  25.957  34.986  1.00  0.00    -0.203 F 
ATOM     95  F   UNL A   1      47.894  27.965  34.891  1.00  0.00    -0.200 F 
ATOM     96  C   UNL A   1      46.374  26.299  35.590  1.00  0.00     0.200 A 
ATOM     97  F   UNL A   1      44.821  24.650  36.254  1.00  0.00    -0.200 F 
ATOM     98  F   UNL A   1      47.366  25.628  36.191  1.00  0.00    -0.200 F 
ENDBRANCH  65  88
ENDBRANCH  39  40
ENDBRANCH  31  34
ENDBRANCH  29  30
ENDBRANCH  28  29
ENDBRANCH   1  28
TORSDOF 14
ENDMDL
MODEL 3
REMARK VINA RESULT:     -11.6      4.233      7.633
REMARK SMILES CC(C)(C)CN1C(=O)CC[C@@H](C(=O)NCCCCNC(=O)c2ccc(-c3c4nc(c(-c5c(F)c(F)c(F)c(F)c5F)c5ccc([nH]5)c(-c5c(F)c(F)c(F)c(F)c5F)c5nc(c(-c6c(F)c(F)c(F)c(F)c6F)c6ccc3[nH]6)C=C5)C=C4)cc2)[C@H]1c1cccc2c1OCO2
REMARK SMILES IDX 16 1 15 2 14 3 12 4 13 5 11 7 6 8 7 9 85 10 8 11 9 12 10 13
REMARK SMILES IDX 5 14 2 15 1 16 3 17 4 18 86 19 87 20 91 21 88 22 90 23 92 24
REMARK SMILES IDX 89 25 94 26 93 27 17 28 18 29 19 30 20 31 21 33 22 34 23 35
REMARK SMILES IDX 84 36 24 37 83 38 25 39 26 40 27 41 77 42 28 43 82 44 76 45
REMARK SMILES IDX 78 46 29 47 81 48 75 49 74 50 30 52 62 53 42 54 61 55 43 56
REMARK SMILES IDX 46 57 60 58 79 59 44 60 45 61 59 63 80 64 47 65 31 66 32 67
REMARK SMILES IDX 40 68 33 69 34 70 38 71 41 72 35 73 36 74 39 75 37 76 63 77
REMARK SMILES IDX 64 78 72 79 65 80 66 81 70 82 73 83 67 84 68 85 71 86 69 87
REMARK SMILES IDX 48 88 49 89 57 90 50 91 51 92 55 93 58 94 52 95 53 96 56 97
REMARK SMILES IDX 54 98
REMARK H PARENT 14 6 19 32 78 51 46 62
REMARK Flexibility Score: inf
ROOT
ATOM      1  C   UNL A   1      36.068  20.185  24.693  1.00  0.00     0.023 C 
ENDROOT
BRANCH   1   2
ATOM      2  C   UNL A   1      35.114  20.464  25.849  1.00  0.00     0.116 C 
BRANCH   2   3
ATOM      3  N   UNL A   1      33.729  20.517  25.424  1.00  0.00    -0.356 N 
ATOM      4  C   UNL A   1      32.790  21.486  25.618  1.00  0.00     0.225 C 
ATOM      5  O   UNL A   1      31.734  21.355  24.998  1.00  0.00    -0.275 OA
ATOM      6  H   UNL A   1      33.419  19.733  24.918  1.00  0.00     0.163 HD
BRANCH   4   7
ATOM      7  C   UNL A   1      33.065  22.673  26.545  1.00  0.00     0.106 C 
ATOM      8  N   UNL A   1      32.224  24.794  25.308  1.00  0.00    -0.334 N 
ATOM      9  C   UNL A   1      30.942  24.590  25.866  1.00  0.00     0.223 C 
ATOM     10  C   UNL A   1      33.402  24.005  25.816  1.00  0.00     0.132 C 
ATOM     11  O   UNL A   1      29.987  25.344  25.642  1.00  0.00    -0.275 OA
ATOM     12  C   UNL A   1      30.682  23.412  26.774  1.00  0.00     0.101 C 
ATOM     13  C   UNL A   1      31.893  22.874  27.493  1.00  0.00     0.026 C 
BRANCH   8  14
ATOM     14  C   UNL A   1      32.349  26.189  24.768  1.00  0.00     0.126 C 
BRANCH  14  15
ATOM     15  C   UNL A   1      32.252  26.568  23.263  1.00  0.00    -0.021 C 
ATOM     16  C   UNL A   1      33.622  27.026  22.730  1.00  0.00     0.012 C 
ATOM     17  C   UNL A   1      31.333  27.812  23.111  1.00  0.00     0.012 C 
ATOM     18  C   UNL A   1      31.560  25.462  22.448  1.00  0.00     0.012 C 
ENDBRANCH  14  15
ENDBRANCH   8  14
BRANCH  10  19
ATOM     19  C   UNL A   1      34.552  23.744  24.849  1.00  0.00     0.021 A 
ATOM     20  C   UNL A   1      34.348  23.436  23.491  1.00  0.00     0.010 A 
ATOM     21  C   UNL A   1      35.877  23.712  25.275  1.00  0.00     0.171 A 
ATOM     22  C   UNL A   1      35.423  23.220  22.606  1.00  0.00     0.004 A 
ATOM     23  C   UNL A   1      36.930  23.513  24.406  1.00  0.00     0.166 A 
ATOM     24  O   UNL A   1      36.314  23.910  26.554  1.00  0.00    -0.453 OA
ATOM     25  C   UNL A   1      36.737  23.275  23.064  1.00  0.00     0.050 A 
ATOM     26  O   UNL A   1      38.141  23.597  25.018  1.00  0.00    -0.454 OA
ATOM     27  C   UNL A   1      37.745  23.948  26.356  1.00  0.00     0.468 C 
ENDBRANCH  10  19
ENDBRANCH   4   7
ENDBRANCH   2   3
ENDBRANCH   1   2
BRANCH   1  28
ATOM     28  C   UNL A   1      37.253  19.274  25.029  1.00  0.00     0.023 C 
BRANCH  28  29
ATOM     29  C   UNL A   1      38.523  19.985  25.485  1.00  0.00     0.116 C 
BRANCH  29  30
ATOM     30  N   UNL A   1      39.621  19.066  25.740  1.00  0.00    -0.352 N 
ATOM     31  C   UNL A   1      40.919  19.335  26.097  1.00  0.00     0.251 C 
ATOM     32  H   UNL A   1      39.402  18.112  25.645  1.00  0.00     0.163 HD
ATOM     33  O   UNL A   1      41.764  18.441  26.081  1.00  0.00    -0.269 OA
BRANCH  31  34
ATOM     34  C   UNL A   1      41.312  20.706  26.483  1.00  0.00     0.039 A 
ATOM     35  C   UNL A   1      41.890  20.922  27.736  1.00  0.00     0.014 A 
ATOM     36  C   UNL A   1      41.110  21.778  25.609  1.00  0.00     0.014 A 
ATOM     37  C   UNL A   1      42.334  22.202  28.081  1.00  0.00     0.010 A 
ATOM     38  C   UNL A   1      41.624  23.034  25.922  1.00  0.00     0.010 A 
ATOM     39  C   UNL A   1      42.243  23.261  27.161  1.00  0.00    -0.014 A 
BRANCH  39  40
ATOM     40  C   UNL A   1      42.791  24.606  27.478  1.00  0.00     0.031 A 
ATOM     41  C   UNL A   1      41.900  25.670  28.061  1.00  0.00     0.074 A 
ATOM     42  C   UNL A   1      44.078  24.888  27.194  1.00  0.00     0.049 A 
ATOM     43  N   UNL A   1      42.175  26.919  28.341  1.00  0.00    -0.248 NA
ATOM     44  C   UNL A   1      40.509  25.285  28.349  1.00  0.00     0.031 C 
ATOM     45  C   UNL A   1      45.037  23.959  26.593  1.00  0.00     0.029 A 
ATOM     46  N   UNL A   1      44.804  26.042  27.365  1.00  0.00    -0.354 N 
ATOM     47  C   UNL A   1      40.997  27.466  28.833  1.00  0.00     0.074 A 
ATOM     48  C   UNL A   1      39.987  26.433  28.756  1.00  0.00     0.031 C 
ATOM     49  C   UNL A   1      46.226  24.569  26.469  1.00  0.00     0.029 A 
ATOM     50  C   UNL A   1      46.107  25.947  26.938  1.00  0.00     0.049 A 
ATOM     51  H   UNL A   1      44.426  26.863  27.758  1.00  0.00     0.167 HD
ATOM     52  C   UNL A   1      40.783  28.706  29.335  1.00  0.00     0.037 A 
ATOM     53  C   UNL A   1      47.089  26.867  26.915  1.00  0.00     0.037 A 
ATOM     54  C   UNL A   1      41.792  29.730  29.423  1.00  0.00     0.049 A 
ATOM     55  C   UNL A   1      46.808  28.253  27.440  1.00  0.00     0.074 A 
ATOM     56  C   UNL A   1      41.677  31.010  29.936  1.00  0.00     0.029 A 
ATOM     57  N   UNL A   1      43.101  29.590  28.989  1.00  0.00    -0.354 N 
ATOM     58  N   UNL A   1      45.704  28.736  27.957  1.00  0.00    -0.248 NA
ATOM     59  C   UNL A   1      47.915  29.218  27.386  1.00  0.00     0.031 C 
ATOM     60  C   UNL A   1      42.903  31.660  29.770  1.00  0.00     0.029 A 
ATOM     61  C   UNL A   1      43.800  30.765  29.211  1.00  0.00     0.049 A 
ATOM     62  H   UNL A   1      43.478  28.775  28.583  1.00  0.00     0.167 HD
ATOM     63  C   UNL A   1      45.999  30.041  28.331  1.00  0.00     0.074 A 
ATOM     64  C   UNL A   1      47.387  30.270  27.994  1.00  0.00     0.031 C 
ATOM     65  C   UNL A   1      45.192  30.969  28.901  1.00  0.00     0.037 A 
BRANCH  52  66
ATOM     66  C   UNL A   1      39.409  29.026  29.847  1.00  0.00     0.064 A 
ATOM     67  C   UNL A   1      39.045  28.761  31.176  1.00  0.00     0.173 A 
ATOM     68  C   UNL A   1      38.469  29.668  29.025  1.00  0.00     0.173 A 
ATOM     69  F   UNL A   1      39.902  28.141  32.000  1.00  0.00    -0.203 F 
ATOM     70  C   UNL A   1      37.786  29.109  31.658  1.00  0.00     0.198 A 
ATOM     71  C   UNL A   1      37.222  30.042  29.520  1.00  0.00     0.198 A 
ATOM     72  F   UNL A   1      38.766  29.950  27.748  1.00  0.00    -0.203 F 
ATOM     73  F   UNL A   1      37.447  28.810  32.920  1.00  0.00    -0.200 F 
ATOM     74  C   UNL A   1      36.879  29.759  30.834  1.00  0.00     0.200 A 
ATOM     75  F   UNL A   1      36.354  30.685  28.727  1.00  0.00    -0.200 F 
ATOM     76  F   UNL A   1      35.675  30.110  31.304  1.00  0.00    -0.200 F 
ENDBRANCH  52  66
BRANCH  53  77
ATOM     77  C   UNL A   1      48.438  26.525  26.385  1.00  0.00     0.064 A 
ATOM     78  C   UNL A   1      49.408  25.935  27.211  1.00  0.00     0.173 A 
ATOM     79  C   UNL A   1      48.806  26.832  25.068  1.00  0.00     0.173 A 
ATOM     80  F   UNL A   1      49.113  25.640  28.485  1.00  0.00    -0.203 F 
ATOM     81  C   UNL A   1      50.704  25.709  26.752  1.00  0.00     0.198 A 
ATOM     82  C   UNL A   1      50.093  26.570  24.599  1.00  0.00     0.198 A 
ATOM     83  F   UNL A   1      47.918  27.390  24.233  1.00  0.00    -0.203 F 
ATOM     84  F   UNL A   1      51.631  25.216  27.585  1.00  0.00    -0.200 F 
ATOM     85  C   UNL A   1      51.045  26.024  25.446  1.00  0.00     0.200 A 
ATOM     86  F   UNL A   1      50.413  26.861  23.331  1.00  0.00    -0.200 F 
ATOM     87  F   UNL A   1      52.294  25.816  25.008  1.00  0.00    -0.200 F 
ENDBRANCH  53  77
BRANCH  65  88
ATOM     88  C   UNL A   1      45.803  32.291  29.267  1.00  0.00     0.064 A 
ATOM     89  C   UNL A   1      46.427  32.504  30.505  1.00  0.00     0.173 A 
ATOM     90  C   UNL A   1      45.795  33.350  28.346  1.00  0.00     0.173 A 
ATOM     91  F   UNL A   1      46.451  31.530  31.426  1.00  0.00    -0.203 F 
ATOM     92  C   UNL A   1      46.990  33.739  30.819  1.00  0.00     0.198 A 
ATOM     93  C   UNL A   1      46.390  34.571  28.649  1.00  0.00     0.198 A 
ATOM     94  F   UNL A   1      45.220  33.197  27.144  1.00  0.00    -0.203 F 
ATOM     95  F   UNL A   1      47.530  33.938  32.030  1.00  0.00    -0.200 F 
ATOM     96  C   UNL A   1      46.978  34.767  29.889  1.00  0.00     0.200 A 
ATOM     97  F   UNL A   1      46.393  35.557  27.742  1.00  0.00    -0.200 F 
ATOM     98  F   UNL A   1      47.528  35.951  30.191  1.00  0.00    -0.200 F 
ENDBRANCH  65  88
ENDBRANCH  39  40
ENDBRANCH  31  34
ENDBRANCH  29  30
ENDBRANCH  28  29
ENDBRANCH   1  28
TORSDOF 14
ENDMDL
