MODEL 1
REMARK VINA RESULT:     -10.9      0.000      0.000
REMARK SMILES CCN(Cc1ccc(Br)s1)C(=O)C[N@@H+](C)CC(=O)NCCCCNC(=O)c1ccc(-c2c3nc(c(-c4c(F)c(F)c(F)c(F)c4F)c4ccc([nH]4)c(-c4c(F)c(F)c(F)c(F)c4F)c4nc(c(-c5c(F)c(F)c(F)c(F)c5F)c5ccc2[nH]5)C=C4)C=C3)cc1
REMARK SMILES IDX 17 1 18 2 19 3 16 5 14 6 15 7 13 9 11 10 12 11 3 12 2 13
REMARK SMILES IDX 1 14 4 15 5 16 6 17 10 18 7 19 8 20 9 21 20 22 21 23 22 24
REMARK SMILES IDX 23 25 24 26 25 27 26 29 27 30 28 31 89 32 29 33 88 34 30 35
REMARK SMILES IDX 31 36 32 37 82 38 33 39 87 40 81 41 83 42 34 43 86 44 80 45
REMARK SMILES IDX 79 46 35 48 67 49 47 50 66 51 48 52 51 53 65 54 84 55 49 56
REMARK SMILES IDX 50 57 64 59 85 60 52 61 36 62 37 63 45 64 38 65 39 66 43 67
REMARK SMILES IDX 46 68 40 69 41 70 44 71 42 72 68 73 69 74 77 75 70 76 71 77
REMARK SMILES IDX 75 78 78 79 72 80 73 81 76 82 74 83 53 84 54 85 62 86 55 87
REMARK SMILES IDX 56 88 60 89 63 90 57 91 58 92 61 93 59 94
REMARK H PARENT 19 4 14 8 24 28 83 47 51 58
REMARK Flexibility Score: inf
ROOT
ATOM      1  C   UNL A   1      33.407  28.513  24.591  1.00  0.00     0.275 C 
ATOM      2  O   UNL A   1      33.949  28.431  23.486  1.00  0.00    -0.269 OA
ATOM      3  N   UNL A   1      33.604  29.668  25.287  1.00  0.00    -0.351 N 
ATOM      4  H   UNL A   1      34.093  30.371  24.803  1.00  0.00     0.163 HD
ENDROOT
BRANCH   1   5
ATOM      5  C   UNL A   1      32.503  27.395  25.124  1.00  0.00     0.363 C 
BRANCH   5   6
ATOM      6  N   UNL A   1      31.342  27.019  24.295  1.00  0.00    -0.322 N 
ATOM      7  C   UNL A   1      30.493  28.108  23.865  1.00  0.00     0.333 C 
ATOM      8  H   UNL A   1      31.802  26.705  23.441  1.00  0.00     0.348 HD
BRANCH   6   9
ATOM      9  C   UNL A   1      30.578  25.856  24.778  1.00  0.00     0.363 C 
BRANCH   9  10
ATOM     10  C   UNL A   1      30.993  24.567  24.056  1.00  0.00     0.278 C 
ATOM     11  O   UNL A   1      30.924  24.512  22.823  1.00  0.00    -0.268 OA
BRANCH  10  12
ATOM     12  N   UNL A   1      31.472  23.489  24.802  1.00  0.00    -0.333 N 
BRANCH  12  13
ATOM     13  C   UNL A   1      31.464  23.630  26.256  1.00  0.00     0.116 C 
ATOM     14  C   UNL A   1      30.249  22.951  26.880  1.00  0.00     0.027 C 
ENDBRANCH  12  13
BRANCH  12  15
ATOM     15  C   UNL A   1      32.100  22.285  24.249  1.00  0.00     0.166 C 
BRANCH  15  16
ATOM     16  C   UNL A   1      33.605  22.368  24.210  1.00  0.00     0.025 A 
ATOM     17  C   UNL A   1      34.380  23.107  23.328  1.00  0.00     0.018 A 
ATOM     18  S   UNL A   1      34.603  21.530  25.332  1.00  0.00    -0.131 S 
ATOM     19  C   UNL A   1      35.775  22.858  23.476  1.00  0.00     0.028 A 
ATOM     20  C   UNL A   1      36.012  22.009  24.525  1.00  0.00     0.070 A 
ATOM     21  Br  UNL A   1      37.725  21.441  25.024  1.00  0.00    -0.039 Br
ENDBRANCH  15  16
ENDBRANCH  12  15
ENDBRANCH  10  12
ENDBRANCH   9  10
ENDBRANCH   6   9
ENDBRANCH   5   6
ENDBRANCH   1   5
BRANCH   3  22
ATOM     22  C   UNL A   1      33.200  30.015  26.629  1.00  0.00     0.116 C 
BRANCH  22  23
ATOM     23  C   UNL A   1      31.777  30.578  26.631  1.00  0.00     0.023 C 
BRANCH  23  24
ATOM     24  C   UNL A   1      31.681  32.094  26.551  1.00  0.00     0.023 C 
BRANCH  24  25
ATOM     25  C   UNL A   1      32.794  32.841  27.261  1.00  0.00     0.116 C 
BRANCH  25  26
ATOM     26  N   UNL A   1      32.445  34.206  27.627  1.00  0.00    -0.352 N 
ATOM     27  C   UNL A   1      33.009  34.998  28.606  1.00  0.00     0.251 C 
ATOM     28  H   UNL A   1      31.713  34.616  27.111  1.00  0.00     0.163 HD
ATOM     29  O   UNL A   1      32.559  36.097  28.864  1.00  0.00    -0.269 OA
BRANCH  27  30
ATOM     30  C   UNL A   1      34.152  34.451  29.367  1.00  0.00     0.039 A 
ATOM     31  C   UNL A   1      33.899  33.713  30.526  1.00  0.00     0.014 A 
ATOM     32  C   UNL A   1      35.450  34.581  28.872  1.00  0.00     0.014 A 
ATOM     33  C   UNL A   1      34.949  33.033  31.144  1.00  0.00     0.010 A 
ATOM     34  C   UNL A   1      36.472  33.825  29.430  1.00  0.00     0.010 A 
ATOM     35  C   UNL A   1      36.232  33.046  30.572  1.00  0.00    -0.014 A 
BRANCH  35  36
ATOM     36  C   UNL A   1      37.352  32.271  31.160  1.00  0.00     0.031 A 
ATOM     37  C   UNL A   1      37.848  32.615  32.535  1.00  0.00     0.074 A 
ATOM     38  C   UNL A   1      37.973  31.327  30.427  1.00  0.00     0.049 A 
ATOM     39  N   UNL A   1      38.877  32.140  33.189  1.00  0.00    -0.248 NA
ATOM     40  C   UNL A   1      37.113  33.667  33.258  1.00  0.00     0.031 C 
ATOM     41  C   UNL A   1      37.626  30.950  29.056  1.00  0.00     0.029 A 
ATOM     42  N   UNL A   1      39.039  30.519  30.733  1.00  0.00    -0.354 N 
ATOM     43  C   UNL A   1      38.926  32.852  34.378  1.00  0.00     0.074 A 
ATOM     44  C   UNL A   1      37.865  33.833  34.334  1.00  0.00     0.031 C 
ATOM     45  C   UNL A   1      38.446  29.968  28.648  1.00  0.00     0.029 A 
ATOM     46  C   UNL A   1      39.397  29.669  29.714  1.00  0.00     0.049 A 
ATOM     47  H   UNL A   1      39.505  30.545  31.600  1.00  0.00     0.167 HD
ATOM     48  C   UNL A   1      39.763  32.683  35.430  1.00  0.00     0.037 A 
ATOM     49  C   UNL A   1      40.384  28.756  29.651  1.00  0.00     0.037 A 
ATOM     50  C   UNL A   1      40.784  31.674  35.490  1.00  0.00     0.049 A 
ATOM     51  C   UNL A   1      41.276  28.560  30.847  1.00  0.00     0.074 A 
ATOM     52  C   UNL A   1      41.637  31.369  36.536  1.00  0.00     0.029 A 
ATOM     53  N   UNL A   1      41.084  30.798  34.457  1.00  0.00    -0.354 N 
ATOM     54  N   UNL A   1      41.270  29.191  31.996  1.00  0.00    -0.248 NA
ATOM     55  C   UNL A   1      42.308  27.519  30.741  1.00  0.00     0.031 C 
ATOM     56  C   UNL A   1      42.475  30.328  36.124  1.00  0.00     0.029 A 
ATOM     57  C   UNL A   1      42.117  29.958  34.837  1.00  0.00     0.049 A 
ATOM     58  H   UNL A   1      40.629  30.776  33.584  1.00  0.00     0.167 HD
ATOM     59  C   UNL A   1      42.274  28.611  32.757  1.00  0.00     0.074 A 
ATOM     60  C   UNL A   1      42.860  27.565  31.944  1.00  0.00     0.031 C 
ATOM     61  C   UNL A   1      42.677  28.915  34.015  1.00  0.00     0.037 A 
BRANCH  48  62
ATOM     62  C   UNL A   1      39.589  33.601  36.604  1.00  0.00     0.064 A 
ATOM     63  C   UNL A   1      38.779  33.253  37.695  1.00  0.00     0.173 A 
ATOM     64  C   UNL A   1      40.250  34.838  36.645  1.00  0.00     0.173 A 
ATOM     65  F   UNL A   1      38.112  32.089  37.696  1.00  0.00    -0.203 F 
ATOM     66  C   UNL A   1      38.611  34.123  38.769  1.00  0.00     0.198 A 
ATOM     67  C   UNL A   1      40.105  35.692  37.735  1.00  0.00     0.198 A 
ATOM     68  F   UNL A   1      41.039  35.219  35.629  1.00  0.00    -0.203 F 
ATOM     69  F   UNL A   1      37.786  33.792  39.774  1.00  0.00    -0.200 F 
ATOM     70  C   UNL A   1      39.278  35.338  38.791  1.00  0.00     0.200 A 
ATOM     71  F   UNL A   1      40.758  36.862  37.762  1.00  0.00    -0.200 F 
ATOM     72  F   UNL A   1      39.117  36.172  39.828  1.00  0.00    -0.200 F 
ENDBRANCH  48  62
BRANCH  49  73
ATOM     73  C   UNL A   1      40.554  27.927  28.430  1.00  0.00     0.064 A 
ATOM     74  C   UNL A   1      39.941  26.671  28.324  1.00  0.00     0.173 A 
ATOM     75  C   UNL A   1      41.327  28.369  27.347  1.00  0.00     0.173 A 
ATOM     76  F   UNL A   1      39.207  26.197  29.343  1.00  0.00    -0.203 F 
ATOM     77  C   UNL A   1      40.112  25.879  27.191  1.00  0.00     0.198 A 
ATOM     78  C   UNL A   1      41.476  27.586  26.203  1.00  0.00     0.198 A 
ATOM     79  F   UNL A   1      41.929  29.566  27.395  1.00  0.00    -0.203 F 
ATOM     80  F   UNL A   1      39.548  24.664  27.135  1.00  0.00    -0.200 F 
ATOM     81  C   UNL A   1      40.874  26.339  26.129  1.00  0.00     0.200 A 
ATOM     82  F   UNL A   1      42.204  28.040  25.173  1.00  0.00    -0.200 F 
ATOM     83  F   UNL A   1      41.036  25.578  25.038  1.00  0.00    -0.200 F 
ENDBRANCH  49  73
BRANCH  61  84
ATOM     84  C   UNL A   1      43.779  28.087  34.602  1.00  0.00     0.064 A 
ATOM     85  C   UNL A   1      43.516  26.883  35.271  1.00  0.00     0.173 A 
ATOM     86  C   UNL A   1      45.118  28.479  34.450  1.00  0.00     0.173 A 
ATOM     87  F   UNL A   1      42.252  26.475  35.453  1.00  0.00    -0.203 F 
ATOM     88  C   UNL A   1      44.555  26.112  35.786  1.00  0.00     0.198 A 
ATOM     89  C   UNL A   1      46.154  27.692  34.942  1.00  0.00     0.198 A 
ATOM     90  F   UNL A   1      45.420  29.620  33.812  1.00  0.00    -0.203 F 
ATOM     91  F   UNL A   1      44.280  24.985  36.457  1.00  0.00    -0.200 F 
ATOM     92  C   UNL A   1      45.871  26.513  35.615  1.00  0.00     0.200 A 
ATOM     93  F   UNL A   1      47.426  28.075  34.766  1.00  0.00    -0.200 F 
ATOM     94  F   UNL A   1      46.869  25.764  36.104  1.00  0.00    -0.200 F 
ENDBRANCH  61  84
ENDBRANCH  35  36
ENDBRANCH  27  30
ENDBRANCH  25  26
ENDBRANCH  24  25
ENDBRANCH  23  24
ENDBRANCH  22  23
ENDBRANCH   3  22
TORSDOF 18
ENDMDL
MODEL 2
REMARK VINA RESULT:     -10.9      1.213      7.439
REMARK SMILES CCN(Cc1ccc(Br)s1)C(=O)C[N@@H+](C)CC(=O)NCCCCNC(=O)c1ccc(-c2c3nc(c(-c4c(F)c(F)c(F)c(F)c4F)c4ccc([nH]4)c(-c4c(F)c(F)c(F)c(F)c4F)c4nc(c(-c5c(F)c(F)c(F)c(F)c5F)c5ccc2[nH]5)C=C4)C=C3)cc1
REMARK SMILES IDX 17 1 18 2 19 3 16 5 14 6 15 7 13 9 11 10 12 11 3 12 2 13
REMARK SMILES IDX 1 14 4 15 5 16 6 17 10 18 7 19 8 20 9 21 20 22 21 23 22 24
REMARK SMILES IDX 23 25 24 26 25 27 26 29 27 30 28 31 89 32 29 33 88 34 30 35
REMARK SMILES IDX 31 36 32 37 82 38 33 39 87 40 81 41 83 42 34 43 86 44 80 45
REMARK SMILES IDX 79 46 35 48 67 49 47 50 66 51 48 52 51 53 65 54 84 55 49 56
REMARK SMILES IDX 50 57 64 59 85 60 52 61 36 62 37 63 45 64 38 65 39 66 43 67
REMARK SMILES IDX 46 68 40 69 41 70 44 71 42 72 68 73 69 74 77 75 70 76 71 77
REMARK SMILES IDX 75 78 78 79 72 80 73 81 76 82 74 83 53 84 54 85 62 86 55 87
REMARK SMILES IDX 56 88 60 89 63 90 57 91 58 92 61 93 59 94
REMARK H PARENT 19 4 14 8 24 28 83 47 51 58
REMARK Flexibility Score: inf
ROOT
ATOM      1  C   UNL A   1      33.083  28.816  23.677  1.00  0.00     0.275 C 
ATOM      2  O   UNL A   1      32.723  29.099  22.532  1.00  0.00    -0.269 OA
ATOM      3  N   UNL A   1      32.878  29.761  24.637  1.00  0.00    -0.351 N 
ATOM      4  H   UNL A   1      32.378  30.555  24.342  1.00  0.00     0.163 HD
ENDROOT
BRANCH   1   5
ATOM      5  C   UNL A   1      33.673  27.440  24.013  1.00  0.00     0.363 C 
BRANCH   5   6
ATOM      6  N   UNL A   1      33.015  26.264  23.413  1.00  0.00    -0.322 N 
ATOM      7  C   UNL A   1      33.220  26.081  21.993  1.00  0.00     0.333 C 
ATOM      8  H   UNL A   1      33.539  25.503  23.844  1.00  0.00     0.348 HD
BRANCH   6   9
ATOM      9  C   UNL A   1      31.615  26.055  23.818  1.00  0.00     0.363 C 
BRANCH   9  10
ATOM     10  C   UNL A   1      31.317  24.572  24.078  1.00  0.00     0.278 C 
ATOM     11  O   UNL A   1      30.508  23.979  23.355  1.00  0.00    -0.268 OA
BRANCH  10  12
ATOM     12  N   UNL A   1      31.989  23.909  25.106  1.00  0.00    -0.333 N 
BRANCH  12  13
ATOM     13  C   UNL A   1      31.468  24.077  26.460  1.00  0.00     0.116 C 
ATOM     14  C   UNL A   1      30.318  23.117  26.742  1.00  0.00     0.027 C 
ENDBRANCH  12  13
BRANCH  12  15
ATOM     15  C   UNL A   1      33.246  23.168  24.959  1.00  0.00     0.166 C 
BRANCH  15  16
ATOM     16  C   UNL A   1      33.037  21.702  24.671  1.00  0.00     0.025 A 
ATOM     17  C   UNL A   1      32.558  21.140  23.497  1.00  0.00     0.018 A 
ATOM     18  S   UNL A   1      33.412  20.476  25.818  1.00  0.00    -0.131 S 
ATOM     19  C   UNL A   1      32.353  19.733  23.602  1.00  0.00     0.028 A 
ATOM     20  C   UNL A   1      32.770  19.267  24.821  1.00  0.00     0.070 A 
ATOM     21  Br  UNL A   1      32.652  17.470  25.332  1.00  0.00    -0.039 Br
ENDBRANCH  15  16
ENDBRANCH  12  15
ENDBRANCH  10  12
ENDBRANCH   9  10
ENDBRANCH   6   9
ENDBRANCH   5   6
ENDBRANCH   1   5
BRANCH   3  22
ATOM     22  C   UNL A   1      33.283  29.770  26.022  1.00  0.00     0.116 C 
BRANCH  22  23
ATOM     23  C   UNL A   1      32.160  30.318  26.904  1.00  0.00     0.023 C 
BRANCH  23  24
ATOM     24  C   UNL A   1      31.914  31.814  26.784  1.00  0.00     0.023 C 
BRANCH  24  25
ATOM     25  C   UNL A   1      32.955  32.687  27.461  1.00  0.00     0.116 C 
BRANCH  25  26
ATOM     26  N   UNL A   1      32.514  34.054  27.692  1.00  0.00    -0.352 N 
ATOM     27  C   UNL A   1      33.015  34.972  28.594  1.00  0.00     0.251 C 
ATOM     28  H   UNL A   1      31.764  34.365  27.136  1.00  0.00     0.163 HD
ATOM     29  O   UNL A   1      32.492  36.058  28.743  1.00  0.00    -0.269 OA
BRANCH  27  30
ATOM     30  C   UNL A   1      34.182  34.575  29.410  1.00  0.00     0.039 A 
ATOM     31  C   UNL A   1      33.965  34.032  30.678  1.00  0.00     0.014 A 
ATOM     32  C   UNL A   1      35.468  34.645  28.874  1.00  0.00     0.014 A 
ATOM     33  C   UNL A   1      35.039  33.480  31.377  1.00  0.00     0.010 A 
ATOM     34  C   UNL A   1      36.514  34.007  29.525  1.00  0.00     0.010 A 
ATOM     35  C   UNL A   1      36.311  33.422  30.784  1.00  0.00    -0.014 A 
BRANCH  35  36
ATOM     36  C   UNL A   1      37.457  32.772  31.466  1.00  0.00     0.031 A 
ATOM     37  C   UNL A   1      38.169  31.633  30.793  1.00  0.00     0.074 A 
ATOM     38  C   UNL A   1      37.797  33.147  32.714  1.00  0.00     0.049 A 
ATOM     39  N   UNL A   1      39.118  30.860  31.256  1.00  0.00    -0.248 NA
ATOM     40  C   UNL A   1      37.723  31.287  29.434  1.00  0.00     0.031 C 
ATOM     41  C   UNL A   1      37.138  34.194  33.496  1.00  0.00     0.029 A 
ATOM     42  N   UNL A   1      38.777  32.676  33.551  1.00  0.00    -0.354 N 
ATOM     43  C   UNL A   1      39.359  29.927  30.257  1.00  0.00     0.074 A 
ATOM     44  C   UNL A   1      38.418  30.188  29.191  1.00  0.00     0.031 C 
ATOM     45  C   UNL A   1      37.747  34.304  34.688  1.00  0.00     0.029 A 
ATOM     46  C   UNL A   1      38.818  33.314  34.767  1.00  0.00     0.049 A 
ATOM     47  H   UNL A   1      39.394  31.950  33.304  1.00  0.00     0.167 HD
ATOM     48  C   UNL A   1      40.303  28.957  30.219  1.00  0.00     0.037 A 
ATOM     49  C   UNL A   1      39.627  33.118  35.825  1.00  0.00     0.037 A 
ATOM     50  C   UNL A   1      41.269  28.734  31.259  1.00  0.00     0.049 A 
ATOM     51  C   UNL A   1      40.693  32.059  35.742  1.00  0.00     0.074 A 
ATOM     52  C   UNL A   1      42.314  27.826  31.289  1.00  0.00     0.029 A 
ATOM     53  N   UNL A   1      41.311  29.433  32.456  1.00  0.00    -0.354 N 
ATOM     54  N   UNL A   1      40.959  31.227  34.765  1.00  0.00    -0.248 NA
ATOM     55  C   UNL A   1      41.577  31.917  36.908  1.00  0.00     0.031 C 
ATOM     56  C   UNL A   1      42.969  27.957  32.517  1.00  0.00     0.029 A 
ATOM     57  C   UNL A   1      42.357  28.973  33.236  1.00  0.00     0.049 A 
ATOM     58  H   UNL A   1      40.688  30.153  32.712  1.00  0.00     0.167 HD
ATOM     59  C   UNL A   1      42.053  30.483  35.183  1.00  0.00     0.074 A 
ATOM     60  C   UNL A   1      42.411  30.972  36.499  1.00  0.00     0.031 C 
ATOM     61  C   UNL A   1      42.702  29.483  34.538  1.00  0.00     0.037 A 
BRANCH  48  62
ATOM     62  C   UNL A   1      40.343  28.081  29.001  1.00  0.00     0.064 A 
ATOM     63  C   UNL A   1      41.099  28.428  27.870  1.00  0.00     0.173 A 
ATOM     64  C   UNL A   1      39.628  26.875  28.967  1.00  0.00     0.173 A 
ATOM     65  F   UNL A   1      41.787  29.580  27.847  1.00  0.00    -0.203 F 
ATOM     66  C   UNL A   1      41.111  27.616  26.740  1.00  0.00     0.198 A 
ATOM     67  C   UNL A   1      39.667  26.050  27.846  1.00  0.00     0.198 A 
ATOM     68  F   UNL A   1      38.891  26.495  30.021  1.00  0.00    -0.203 F 
ATOM     69  F   UNL A   1      41.795  27.998  25.651  1.00  0.00    -0.200 F 
ATOM     70  C   UNL A   1      40.401  26.426  26.731  1.00  0.00     0.200 A 
ATOM     71  F   UNL A   1      38.989  24.894  27.841  1.00  0.00    -0.200 F 
ATOM     72  F   UNL A   1      40.417  25.644  25.642  1.00  0.00    -0.200 F 
ENDBRANCH  48  62
BRANCH  49  73
ATOM     73  C   UNL A   1      39.490  33.969  37.035  1.00  0.00     0.064 A 
ATOM     74  C   UNL A   1      38.750  33.529  38.141  1.00  0.00     0.173 A 
ATOM     75  C   UNL A   1      40.092  35.233  37.113  1.00  0.00     0.173 A 
ATOM     76  F   UNL A   1      38.140  32.335  38.105  1.00  0.00    -0.203 F 
ATOM     77  C   UNL A   1      38.599  34.329  39.271  1.00  0.00     0.198 A 
ATOM     78  C   UNL A   1      39.961  36.022  38.255  1.00  0.00     0.198 A 
ATOM     79  F   UNL A   1      40.815  35.698  36.084  1.00  0.00    -0.203 F 
ATOM     80  F   UNL A   1      37.852  33.901  40.297  1.00  0.00    -0.200 F 
ATOM     81  C   UNL A   1      39.209  35.573  39.330  1.00  0.00     0.200 A 
ATOM     82  F   UNL A   1      40.563  37.218  38.313  1.00  0.00    -0.200 F 
ATOM     83  F   UNL A   1      39.067  36.341  40.419  1.00  0.00    -0.200 F 
ENDBRANCH  49  73
BRANCH  61  84
ATOM     84  C   UNL A   1      43.885  28.875  35.229  1.00  0.00     0.064 A 
ATOM     85  C   UNL A   1      43.741  27.802  36.120  1.00  0.00     0.173 A 
ATOM     86  C   UNL A   1      45.181  29.341  34.959  1.00  0.00     0.173 A 
ATOM     87  F   UNL A   1      42.522  27.333  36.421  1.00  0.00    -0.203 F 
ATOM     88  C   UNL A   1      44.854  27.231  36.732  1.00  0.00     0.198 A 
ATOM     89  C   UNL A   1      46.291  28.749  35.552  1.00  0.00     0.198 A 
ATOM     90  F   UNL A   1      45.368  30.361  34.108  1.00  0.00    -0.203 F 
ATOM     91  F   UNL A   1      44.693  26.232  37.612  1.00  0.00    -0.200 F 
ATOM     92  C   UNL A   1      46.127  27.700  36.442  1.00  0.00     0.200 A 
ATOM     93  F   UNL A   1      47.521  29.196  35.261  1.00  0.00    -0.200 F 
ATOM     94  F   UNL A   1      47.196  27.141  37.026  1.00  0.00    -0.200 F 
ENDBRANCH  61  84
ENDBRANCH  35  36
ENDBRANCH  27  30
ENDBRANCH  25  26
ENDBRANCH  24  25
ENDBRANCH  23  24
ENDBRANCH  22  23
ENDBRANCH   3  22
TORSDOF 18
ENDMDL
MODEL 3
REMARK VINA RESULT:     -10.8      0.943      7.483
REMARK SMILES CCN(Cc1ccc(Br)s1)C(=O)C[N@@H+](C)CC(=O)NCCCCNC(=O)c1ccc(-c2c3nc(c(-c4c(F)c(F)c(F)c(F)c4F)c4ccc([nH]4)c(-c4c(F)c(F)c(F)c(F)c4F)c4nc(c(-c5c(F)c(F)c(F)c(F)c5F)c5ccc2[nH]5)C=C4)C=C3)cc1
REMARK SMILES IDX 17 1 18 2 19 3 16 5 14 6 15 7 13 9 11 10 12 11 3 12 2 13
REMARK SMILES IDX 1 14 4 15 5 16 6 17 10 18 7 19 8 20 9 21 20 22 21 23 22 24
REMARK SMILES IDX 23 25 24 26 25 27 26 29 27 30 28 31 89 32 29 33 88 34 30 35
REMARK SMILES IDX 31 36 32 37 82 38 33 39 87 40 81 41 83 42 34 43 86 44 80 45
REMARK SMILES IDX 79 46 35 48 67 49 47 50 66 51 48 52 51 53 65 54 84 55 49 56
REMARK SMILES IDX 50 57 64 59 85 60 52 61 36 62 37 63 45 64 38 65 39 66 43 67
REMARK SMILES IDX 46 68 40 69 41 70 44 71 42 72 68 73 69 74 77 75 70 76 71 77
REMARK SMILES IDX 75 78 78 79 72 80 73 81 76 82 74 83 53 84 54 85 62 86 55 87
REMARK SMILES IDX 56 88 60 89 63 90 57 91 58 92 61 93 59 94
REMARK H PARENT 19 4 14 8 24 28 83 47 51 58
REMARK Flexibility Score: inf
ROOT
ATOM      1  C   UNL A   1      33.690  28.199  24.671  1.00  0.00     0.275 C 
ATOM      2  O   UNL A   1      33.924  28.139  23.462  1.00  0.00    -0.269 OA
ATOM      3  N   UNL A   1      33.699  29.437  25.239  1.00  0.00    -0.351 N 
ATOM      4  H   UNL A   1      33.807  30.186  24.609  1.00  0.00     0.163 HD
ENDROOT
BRANCH   1   5
ATOM      5  C   UNL A   1      33.341  26.944  25.481  1.00  0.00     0.363 C 
BRANCH   5   6
ATOM      6  N   UNL A   1      32.007  26.353  25.261  1.00  0.00    -0.322 N 
ATOM      7  C   UNL A   1      30.888  27.109  25.778  1.00  0.00     0.333 C 
ATOM      8  H   UNL A   1      31.920  26.434  24.248  1.00  0.00     0.348 HD
BRANCH   6   9
ATOM      9  C   UNL A   1      31.905  24.912  25.548  1.00  0.00     0.363 C 
BRANCH   9  10
ATOM     10  C   UNL A   1      31.710  24.092  24.266  1.00  0.00     0.278 C 
ATOM     11  O   UNL A   1      30.813  24.405  23.475  1.00  0.00    -0.268 OA
BRANCH  10  12
ATOM     12  N   UNL A   1      32.570  23.026  23.999  1.00  0.00    -0.333 N 
BRANCH  12  13
ATOM     13  C   UNL A   1      32.732  22.635  22.601  1.00  0.00     0.116 C 
ATOM     14  C   UNL A   1      32.124  21.264  22.327  1.00  0.00     0.027 C 
ENDBRANCH  12  13
BRANCH  12  15
ATOM     15  C   UNL A   1      33.221  22.186  25.010  1.00  0.00     0.166 C 
BRANCH  15  16
ATOM     16  C   UNL A   1      34.678  22.521  25.208  1.00  0.00     0.025 A 
ATOM     17  C   UNL A   1      35.301  23.733  24.950  1.00  0.00     0.018 A 
ATOM     18  S   UNL A   1      35.808  21.385  25.835  1.00  0.00    -0.131 S 
ATOM     19  C   UNL A   1      36.715  23.675  25.117  1.00  0.00     0.028 A 
ATOM     20  C   UNL A   1      37.103  22.446  25.583  1.00  0.00     0.070 A 
ATOM     21  Br  UNL A   1      38.887  21.986  25.915  1.00  0.00    -0.039 Br
ENDBRANCH  15  16
ENDBRANCH  12  15
ENDBRANCH  10  12
ENDBRANCH   9  10
ENDBRANCH   6   9
ENDBRANCH   5   6
ENDBRANCH   1   5
BRANCH   3  22
ATOM     22  C   UNL A   1      33.571  29.816  26.626  1.00  0.00     0.116 C 
BRANCH  22  23
ATOM     23  C   UNL A   1      32.134  30.238  26.935  1.00  0.00     0.023 C 
BRANCH  23  24
ATOM     24  C   UNL A   1      31.859  31.731  26.828  1.00  0.00     0.023 C 
BRANCH  24  25
ATOM     25  C   UNL A   1      32.929  32.620  27.434  1.00  0.00     0.116 C 
BRANCH  25  26
ATOM     26  N   UNL A   1      32.496  33.992  27.653  1.00  0.00    -0.352 N 
ATOM     27  C   UNL A   1      33.000  34.914  28.549  1.00  0.00     0.251 C 
ATOM     28  H   UNL A   1      31.748  34.303  27.092  1.00  0.00     0.163 HD
ATOM     29  O   UNL A   1      32.483  36.005  28.688  1.00  0.00    -0.269 OA
BRANCH  27  30
ATOM     30  C   UNL A   1      34.161  34.516  29.372  1.00  0.00     0.039 A 
ATOM     31  C   UNL A   1      33.937  33.975  30.640  1.00  0.00     0.014 A 
ATOM     32  C   UNL A   1      35.451  34.584  28.842  1.00  0.00     0.014 A 
ATOM     33  C   UNL A   1      35.007  33.422  31.344  1.00  0.00     0.010 A 
ATOM     34  C   UNL A   1      36.493  33.945  29.500  1.00  0.00     0.010 A 
ATOM     35  C   UNL A   1      36.282  33.361  30.758  1.00  0.00    -0.014 A 
BRANCH  35  36
ATOM     36  C   UNL A   1      37.423  32.711  31.447  1.00  0.00     0.031 A 
ATOM     37  C   UNL A   1      38.117  31.550  30.793  1.00  0.00     0.074 A 
ATOM     38  C   UNL A   1      37.775  33.106  32.685  1.00  0.00     0.049 A 
ATOM     39  N   UNL A   1      39.059  30.774  31.265  1.00  0.00    -0.248 NA
ATOM     40  C   UNL A   1      37.659  31.183  29.443  1.00  0.00     0.031 C 
ATOM     41  C   UNL A   1      37.133  34.177  33.450  1.00  0.00     0.029 A 
ATOM     42  N   UNL A   1      38.753  32.639  33.526  1.00  0.00    -0.354 N 
ATOM     43  C   UNL A   1      39.283  29.818  30.284  1.00  0.00     0.074 A 
ATOM     44  C   UNL A   1      38.339  30.070  29.218  1.00  0.00     0.031 C 
ATOM     45  C   UNL A   1      37.751  34.302  34.636  1.00  0.00     0.029 A 
ATOM     46  C   UNL A   1      38.809  33.301  34.729  1.00  0.00     0.049 A 
ATOM     47  H   UNL A   1      39.360  31.900  33.291  1.00  0.00     0.167 HD
ATOM     48  C   UNL A   1      40.214  28.836  30.260  1.00  0.00     0.037 A 
ATOM     49  C   UNL A   1      39.622  33.115  35.786  1.00  0.00     0.037 A 
ATOM     50  C   UNL A   1      41.183  28.621  31.300  1.00  0.00     0.049 A 
ATOM     51  C   UNL A   1      40.674  32.042  35.719  1.00  0.00     0.074 A 
ATOM     52  C   UNL A   1      42.216  27.702  31.341  1.00  0.00     0.029 A 
ATOM     53  N   UNL A   1      41.240  29.344  32.482  1.00  0.00    -0.354 N 
ATOM     54  N   UNL A   1      40.924  31.187  34.757  1.00  0.00    -0.248 NA
ATOM     55  C   UNL A   1      41.563  31.912  36.882  1.00  0.00     0.031 C 
ATOM     56  C   UNL A   1      42.880  27.849  32.564  1.00  0.00     0.029 A 
ATOM     57  C   UNL A   1      42.285  28.885  33.265  1.00  0.00     0.049 A 
ATOM     58  H   UNL A   1      40.628  30.076  32.727  1.00  0.00     0.167 HD
ATOM     59  C   UNL A   1      42.010  30.438  35.183  1.00  0.00     0.074 A 
ATOM     60  C   UNL A   1      42.382  30.948  36.488  1.00  0.00     0.031 C 
ATOM     61  C   UNL A   1      42.644  29.417  34.555  1.00  0.00     0.037 A 
BRANCH  48  62
ATOM     62  C   UNL A   1      40.236  27.936  29.060  1.00  0.00     0.064 A 
ATOM     63  C   UNL A   1      40.973  28.261  27.910  1.00  0.00     0.173 A 
ATOM     64  C   UNL A   1      39.524  26.728  29.062  1.00  0.00     0.173 A 
ATOM     65  F   UNL A   1      41.658  29.414  27.852  1.00  0.00    -0.203 F 
ATOM     66  C   UNL A   1      40.969  27.427  26.797  1.00  0.00     0.198 A 
ATOM     67  C   UNL A   1      39.547  25.881  27.957  1.00  0.00     0.198 A 
ATOM     68  F   UNL A   1      38.804  26.368  30.135  1.00  0.00    -0.203 F 
ATOM     69  F   UNL A   1      41.635  27.788  25.689  1.00  0.00    -0.200 F 
ATOM     70  C   UNL A   1      40.261  26.235  26.822  1.00  0.00     0.200 A 
ATOM     71  F   UNL A   1      38.871  24.724  27.986  1.00  0.00    -0.200 F 
ATOM     72  F   UNL A   1      40.261  25.432  25.749  1.00  0.00    -0.200 F 
ENDBRANCH  48  62
BRANCH  49  73
ATOM     73  C   UNL A   1      39.502  33.992  36.979  1.00  0.00     0.064 A 
ATOM     74  C   UNL A   1      40.132  35.243  37.017  1.00  0.00     0.173 A 
ATOM     75  C   UNL A   1      38.759  33.601  38.103  1.00  0.00     0.173 A 
ATOM     76  F   UNL A   1      40.869  35.652  35.974  1.00  0.00    -0.203 F 
ATOM     77  C   UNL A   1      40.041  36.062  38.140  1.00  0.00     0.198 A 
ATOM     78  C   UNL A   1      38.648  34.433  39.216  1.00  0.00     0.198 A 
ATOM     79  F   UNL A   1      38.132  32.416  38.115  1.00  0.00    -0.203 F 
ATOM     80  F   UNL A   1      40.688  37.235  38.165  1.00  0.00    -0.200 F 
ATOM     81  C   UNL A   1      39.295  35.659  39.237  1.00  0.00     0.200 A 
ATOM     82  F   UNL A   1      37.915  34.044  40.269  1.00  0.00    -0.200 F 
ATOM     83  F   UNL A   1      39.205  36.448  40.316  1.00  0.00    -0.200 F 
ENDBRANCH  49  73
BRANCH  61  84
ATOM     84  C   UNL A   1      43.822  28.808  35.252  1.00  0.00     0.064 A 
ATOM     85  C   UNL A   1      43.674  27.733  36.140  1.00  0.00     0.173 A 
ATOM     86  C   UNL A   1      45.120  29.275  34.991  1.00  0.00     0.173 A 
ATOM     87  F   UNL A   1      42.453  27.262  36.432  1.00  0.00    -0.203 F 
ATOM     88  C   UNL A   1      44.783  27.161  36.757  1.00  0.00     0.198 A 
ATOM     89  C   UNL A   1      46.227  28.682  35.589  1.00  0.00     0.198 A 
ATOM     90  F   UNL A   1      45.312  30.297  34.144  1.00  0.00    -0.203 F 
ATOM     91  F   UNL A   1      44.617  26.160  37.633  1.00  0.00    -0.200 F 
ATOM     92  C   UNL A   1      46.057  27.631  36.476  1.00  0.00     0.200 A 
ATOM     93  F   UNL A   1      47.458  29.130  35.306  1.00  0.00    -0.200 F 
ATOM     94  F   UNL A   1      47.124  27.071  37.065  1.00  0.00    -0.200 F 
ENDBRANCH  61  84
ENDBRANCH  35  36
ENDBRANCH  27  30
ENDBRANCH  25  26
ENDBRANCH  24  25
ENDBRANCH  23  24
ENDBRANCH  22  23
ENDBRANCH   3  22
TORSDOF 18
ENDMDL
