MODEL 1
REMARK VINA RESULT:     -12.8      0.000      0.000
REMARK SMILES C[C@@H]1Oc2c(C(=O)NCCCCNC(=O)c3ccc(-c4c5nc(c(-c6c(F)c(F)c(F)c(F)c6F)c6ccc([nH]6)c(-c6c(F)c(F)c(F)c(F)c6F)c6nc(c(-c7c(F)c(F)c(F)c(F)c7F)c7ccc4[nH]7)C=C6)C=C5)cc3)cccc2[C@@H]1C
REMARK SMILES IDX 11 1 10 2 9 3 8 4 6 5 7 6 5 8 1 9 2 10 3 11 83 12 4 13 82 14
REMARK SMILES IDX 84 15 81 16 79 17 80 18 12 19 13 20 14 21 15 23 16 24 17 25
REMARK SMILES IDX 78 26 18 27 77 28 19 29 20 30 21 31 71 32 22 33 76 34 70 35
REMARK SMILES IDX 72 36 23 37 75 38 69 39 68 40 24 42 56 43 36 44 55 45 37 46
REMARK SMILES IDX 40 47 54 48 73 49 38 50 39 51 53 53 74 54 41 55 25 56 26 57
REMARK SMILES IDX 34 58 27 59 28 60 32 61 35 62 29 63 30 64 33 65 31 66 57 67
REMARK SMILES IDX 58 68 66 69 59 70 60 71 64 72 67 73 61 74 62 75 65 76 63 77
REMARK SMILES IDX 42 78 43 79 51 80 44 81 45 82 49 83 52 84 46 85 47 86 50 87
REMARK SMILES IDX 48 88
REMARK H PARENT 8 7 13 22 72 41 40 52
REMARK Flexibility Score: inf
ROOT
ATOM      1  C   UNL A   1      31.637  28.800  26.029  1.00  0.00     0.023 C 
ENDROOT
BRANCH   1   2
ATOM      2  C   UNL A   1      31.821  27.580  26.934  1.00  0.00     0.023 C 
BRANCH   2   3
ATOM      3  C   UNL A   1      32.005  26.257  26.182  1.00  0.00     0.116 C 
BRANCH   3   4
ATOM      4  N   UNL A   1      31.068  25.264  26.660  1.00  0.00    -0.352 N 
ATOM      5  C   UNL A   1      31.155  23.909  26.876  1.00  0.00     0.255 C 
ATOM      6  O   UNL A   1      30.111  23.372  27.251  1.00  0.00    -0.269 OA
ATOM      7  H   UNL A   1      30.181  25.636  26.875  1.00  0.00     0.163 HD
BRANCH   5   8
ATOM      8  C   UNL A   1      32.407  23.106  26.697  1.00  0.00     0.082 A 
ATOM      9  C   UNL A   1      33.258  23.790  22.066  1.00  0.00     0.053 C 
ATOM     10  C   UNL A   1      33.111  22.751  23.170  1.00  0.00     0.177 C 
ATOM     11  O   UNL A   1      32.351  23.349  24.247  1.00  0.00    -0.489 OA
ATOM     12  C   UNL A   1      34.427  22.179  23.738  1.00  0.00     0.060 C 
ATOM     13  C   UNL A   1      32.901  22.874  25.411  1.00  0.00     0.136 A 
ATOM     14  C   UNL A   1      34.072  22.154  25.184  1.00  0.00     0.001 A 
ATOM     15  C   UNL A   1      35.684  23.012  23.506  1.00  0.00     0.017 C 
ATOM     16  C   UNL A   1      34.793  21.602  26.229  1.00  0.00     0.008 A 
ATOM     17  C   UNL A   1      33.183  22.597  27.750  1.00  0.00     0.018 A 
ATOM     18  C   UNL A   1      34.344  21.834  27.522  1.00  0.00     0.001 A 
ENDBRANCH   5   8
ENDBRANCH   3   4
ENDBRANCH   2   3
ENDBRANCH   1   2
BRANCH   1  19
ATOM     19  C   UNL A   1      32.824  29.757  26.006  1.00  0.00     0.116 C 
BRANCH  19  20
ATOM     20  N   UNL A   1      32.509  31.094  26.487  1.00  0.00    -0.352 N 
ATOM     21  C   UNL A   1      33.270  31.911  27.294  1.00  0.00     0.251 C 
ATOM     22  H   UNL A   1      31.642  31.461  26.199  1.00  0.00     0.163 HD
ATOM     23  O   UNL A   1      32.837  32.983  27.687  1.00  0.00    -0.269 OA
BRANCH  21  24
ATOM     24  C   UNL A   1      34.601  31.437  27.730  1.00  0.00     0.039 A 
ATOM     25  C   UNL A   1      34.815  30.086  28.010  1.00  0.00     0.014 A 
ATOM     26  C   UNL A   1      35.616  32.373  27.936  1.00  0.00     0.014 A 
ATOM     27  C   UNL A   1      35.977  29.700  28.663  1.00  0.00     0.010 A 
ATOM     28  C   UNL A   1      36.818  31.968  28.522  1.00  0.00     0.010 A 
ATOM     29  C   UNL A   1      36.982  30.640  28.944  1.00  0.00    -0.014 A 
BRANCH  29  30
ATOM     30  C   UNL A   1      38.177  30.214  29.714  1.00  0.00     0.031 A 
ATOM     31  C   UNL A   1      38.360  30.646  31.144  1.00  0.00     0.074 A 
ATOM     32  C   UNL A   1      39.063  29.378  29.145  1.00  0.00     0.049 A 
ATOM     33  N   UNL A   1      39.322  30.346  31.981  1.00  0.00    -0.248 NA
ATOM     34  C   UNL A   1      37.333  31.534  31.709  1.00  0.00     0.031 C 
ATOM     35  C   UNL A   1      38.983  28.878  27.772  1.00  0.00     0.029 A 
ATOM     36  N   UNL A   1      40.184  28.775  29.656  1.00  0.00    -0.354 N 
ATOM     37  C   UNL A   1      39.028  31.021  33.157  1.00  0.00     0.074 A 
ATOM     38  C   UNL A   1      37.812  31.769  32.923  1.00  0.00     0.031 C 
ATOM     39  C   UNL A   1      39.976  28.001  27.568  1.00  0.00     0.029 A 
ATOM     40  C   UNL A   1      40.795  27.920  28.774  1.00  0.00     0.049 A 
ATOM     41  H   UNL A   1      40.518  28.940  30.567  1.00  0.00     0.167 HD
ATOM     42  C   UNL A   1      39.705  31.008  34.331  1.00  0.00     0.037 A 
ATOM     43  C   UNL A   1      41.894  27.157  28.916  1.00  0.00     0.037 A 
ATOM     44  C   UNL A   1      40.896  30.236  34.573  1.00  0.00     0.049 A 
ATOM     45  C   UNL A   1      42.643  27.183  30.216  1.00  0.00     0.074 A 
ATOM     46  C   UNL A   1      41.633  30.131  35.740  1.00  0.00     0.029 A 
ATOM     47  N   UNL A   1      41.523  29.434  33.630  1.00  0.00    -0.354 N 
ATOM     48  N   UNL A   1      42.357  27.828  31.320  1.00  0.00    -0.248 NA
ATOM     49  C   UNL A   1      43.876  26.387  30.285  1.00  0.00     0.031 C 
ATOM     50  C   UNL A   1      42.728  29.295  35.492  1.00  0.00     0.029 A 
ATOM     51  C   UNL A   1      42.651  28.849  34.183  1.00  0.00     0.049 A 
ATOM     52  H   UNL A   1      41.213  29.301  32.706  1.00  0.00     0.167 HD
ATOM     53  C   UNL A   1      43.370  27.520  32.215  1.00  0.00     0.074 A 
ATOM     54  C   UNL A   1      44.269  26.610  31.533  1.00  0.00     0.031 C 
ATOM     55  C   UNL A   1      43.543  27.960  33.485  1.00  0.00     0.037 A 
BRANCH  42  56
ATOM     56  C   UNL A   1      39.183  31.865  35.446  1.00  0.00     0.064 A 
ATOM     57  C   UNL A   1      38.330  31.351  36.432  1.00  0.00     0.173 A 
ATOM     58  C   UNL A   1      39.585  33.205  35.557  1.00  0.00     0.173 A 
ATOM     59  F   UNL A   1      37.908  30.078  36.363  1.00  0.00    -0.203 F 
ATOM     60  C   UNL A   1      37.881  32.151  37.479  1.00  0.00     0.198 A 
ATOM     61  C   UNL A   1      39.154  33.996  36.618  1.00  0.00     0.198 A 
ATOM     62  F   UNL A   1      40.404  33.744  34.643  1.00  0.00    -0.203 F 
ATOM     63  F   UNL A   1      37.037  31.649  38.391  1.00  0.00    -0.200 F 
ATOM     64  C   UNL A   1      38.299  33.471  37.575  1.00  0.00     0.200 A 
ATOM     65  F   UNL A   1      39.566  35.268  36.716  1.00  0.00    -0.200 F 
ATOM     66  F   UNL A   1      37.872  34.238  38.588  1.00  0.00    -0.200 F 
ENDBRANCH  42  56
BRANCH  43  67
ATOM     67  C   UNL A   1      42.332  26.302  27.786  1.00  0.00     0.064 A 
ATOM     68  C   UNL A   1      43.302  26.752  26.881  1.00  0.00     0.173 A 
ATOM     69  C   UNL A   1      41.839  24.999  27.628  1.00  0.00     0.173 A 
ATOM     70  F   UNL A   1      43.789  27.997  26.984  1.00  0.00    -0.203 F 
ATOM     71  C   UNL A   1      43.769  25.924  25.863  1.00  0.00     0.198 A 
ATOM     72  C   UNL A   1      42.323  24.166  26.623  1.00  0.00     0.198 A 
ATOM     73  F   UNL A   1      40.913  24.525  28.474  1.00  0.00    -0.203 F 
ATOM     74  F   UNL A   1      44.687  26.380  24.999  1.00  0.00    -0.200 F 
ATOM     75  C   UNL A   1      43.288  24.629  25.741  1.00  0.00     0.200 A 
ATOM     76  F   UNL A   1      41.867  22.909  26.520  1.00  0.00    -0.200 F 
ATOM     77  F   UNL A   1      43.753  23.826  24.774  1.00  0.00    -0.200 F 
ENDBRANCH  43  67
BRANCH  55  78
ATOM     78  C   UNL A   1      44.755  27.473  34.221  1.00  0.00     0.064 A 
ATOM     79  C   UNL A   1      45.949  28.208  34.218  1.00  0.00     0.173 A 
ATOM     80  C   UNL A   1      44.705  26.298  34.985  1.00  0.00     0.173 A 
ATOM     81  F   UNL A   1      46.049  29.331  33.491  1.00  0.00    -0.203 F 
ATOM     82  C   UNL A   1      47.055  27.777  34.946  1.00  0.00     0.198 A 
ATOM     83  C   UNL A   1      45.805  25.881  35.728  1.00  0.00     0.198 A 
ATOM     84  F   UNL A   1      43.583  25.564  35.023  1.00  0.00    -0.203 F 
ATOM     85  F   UNL A   1      48.196  28.478  34.905  1.00  0.00    -0.200 F 
ATOM     86  C   UNL A   1      46.979  26.619  35.706  1.00  0.00     0.200 A 
ATOM     87  F   UNL A   1      45.728  24.768  36.471  1.00  0.00    -0.200 F 
ATOM     88  F   UNL A   1      48.042  26.212  36.414  1.00  0.00    -0.200 F 
ENDBRANCH  55  78
ENDBRANCH  29  30
ENDBRANCH  21  24
ENDBRANCH  19  20
ENDBRANCH   1  19
TORSDOF 11
ENDMDL
MODEL 2
REMARK VINA RESULT:     -12.8      1.176      1.698
REMARK SMILES C[C@@H]1Oc2c(C(=O)NCCCCNC(=O)c3ccc(-c4c5nc(c(-c6c(F)c(F)c(F)c(F)c6F)c6ccc([nH]6)c(-c6c(F)c(F)c(F)c(F)c6F)c6nc(c(-c7c(F)c(F)c(F)c(F)c7F)c7ccc4[nH]7)C=C6)C=C5)cc3)cccc2[C@@H]1C
REMARK SMILES IDX 11 1 10 2 9 3 8 4 6 5 7 6 5 8 1 9 2 10 3 11 83 12 4 13 82 14
REMARK SMILES IDX 84 15 81 16 79 17 80 18 12 19 13 20 14 21 15 23 16 24 17 25
REMARK SMILES IDX 78 26 18 27 77 28 19 29 20 30 21 31 71 32 22 33 76 34 70 35
REMARK SMILES IDX 72 36 23 37 75 38 69 39 68 40 24 42 56 43 36 44 55 45 37 46
REMARK SMILES IDX 40 47 54 48 73 49 38 50 39 51 53 53 74 54 41 55 25 56 26 57
REMARK SMILES IDX 34 58 27 59 28 60 32 61 35 62 29 63 30 64 33 65 31 66 57 67
REMARK SMILES IDX 58 68 66 69 59 70 60 71 64 72 67 73 61 74 62 75 65 76 63 77
REMARK SMILES IDX 42 78 43 79 51 80 44 81 45 82 49 83 52 84 46 85 47 86 50 87
REMARK SMILES IDX 48 88
REMARK H PARENT 8 7 13 22 72 41 40 52
REMARK Flexibility Score: inf
ROOT
ATOM      1  C   UNL A   1      31.603  28.981  25.212  1.00  0.00     0.023 C 
ENDROOT
BRANCH   1   2
ATOM      2  C   UNL A   1      31.589  29.064  23.683  1.00  0.00     0.023 C 
BRANCH   2   3
ATOM      3  C   UNL A   1      30.970  27.845  22.990  1.00  0.00     0.116 C 
BRANCH   3   4
ATOM      4  N   UNL A   1      31.904  27.261  22.053  1.00  0.00    -0.352 N 
ATOM      5  C   UNL A   1      32.914  26.336  22.176  1.00  0.00     0.255 C 
ATOM      6  O   UNL A   1      33.547  26.114  21.143  1.00  0.00    -0.269 OA
ATOM      7  H   UNL A   1      31.794  27.597  21.133  1.00  0.00     0.163 HD
BRANCH   5   8
ATOM      8  C   UNL A   1      33.247  25.617  23.448  1.00  0.00     0.082 A 
ATOM      9  C   UNL A   1      32.058  21.156  22.297  1.00  0.00     0.053 C 
ATOM     10  C   UNL A   1      31.893  22.269  23.324  1.00  0.00     0.177 C 
ATOM     11  O   UNL A   1      32.203  23.525  22.675  1.00  0.00    -0.489 OA
ATOM     12  C   UNL A   1      32.745  22.139  24.604  1.00  0.00     0.060 C 
ATOM     13  C   UNL A   1      32.859  24.285  23.610  1.00  0.00     0.136 A 
ATOM     14  C   UNL A   1      33.160  23.560  24.761  1.00  0.00     0.001 A 
ATOM     15  C   UNL A   1      33.966  21.227  24.514  1.00  0.00     0.017 C 
ATOM     16  C   UNL A   1      33.836  24.138  25.822  1.00  0.00     0.008 A 
ATOM     17  C   UNL A   1      33.988  26.171  24.503  1.00  0.00     0.018 A 
ATOM     18  C   UNL A   1      34.258  25.453  25.684  1.00  0.00     0.001 A 
ENDBRANCH   5   8
ENDBRANCH   3   4
ENDBRANCH   2   3
ENDBRANCH   1   2
BRANCH   1  19
ATOM     19  C   UNL A   1      32.765  29.711  25.875  1.00  0.00     0.116 C 
BRANCH  19  20
ATOM     20  N   UNL A   1      32.406  31.012  26.419  1.00  0.00    -0.352 N 
ATOM     21  C   UNL A   1      33.141  31.815  27.264  1.00  0.00     0.251 C 
ATOM     22  H   UNL A   1      31.526  31.363  26.149  1.00  0.00     0.163 HD
ATOM     23  O   UNL A   1      32.673  32.852  27.708  1.00  0.00    -0.269 OA
BRANCH  21  24
ATOM     24  C   UNL A   1      34.488  31.365  27.676  1.00  0.00     0.039 A 
ATOM     25  C   UNL A   1      34.720  30.027  27.997  1.00  0.00     0.014 A 
ATOM     26  C   UNL A   1      35.502  32.315  27.818  1.00  0.00     0.014 A 
ATOM     27  C   UNL A   1      35.905  29.672  28.628  1.00  0.00     0.010 A 
ATOM     28  C   UNL A   1      36.724  31.940  28.381  1.00  0.00     0.010 A 
ATOM     29  C   UNL A   1      36.911  30.628  28.845  1.00  0.00    -0.014 A 
BRANCH  29  30
ATOM     30  C   UNL A   1      38.131  30.239  29.594  1.00  0.00     0.031 A 
ATOM     31  C   UNL A   1      38.332  30.685  31.017  1.00  0.00     0.074 A 
ATOM     32  C   UNL A   1      39.027  29.422  29.012  1.00  0.00     0.049 A 
ATOM     33  N   UNL A   1      39.317  30.414  31.837  1.00  0.00    -0.248 NA
ATOM     34  C   UNL A   1      37.293  31.549  31.597  1.00  0.00     0.031 C 
ATOM     35  C   UNL A   1      38.932  28.912  27.644  1.00  0.00     0.029 A 
ATOM     36  N   UNL A   1      40.173  28.851  29.503  1.00  0.00    -0.354 N 
ATOM     37  C   UNL A   1      39.029  31.089  33.014  1.00  0.00     0.074 A 
ATOM     38  C   UNL A   1      37.790  31.804  32.800  1.00  0.00     0.031 C 
ATOM     39  C   UNL A   1      39.943  28.059  27.424  1.00  0.00     0.029 A 
ATOM     40  C   UNL A   1      40.788  28.006  28.614  1.00  0.00     0.049 A 
ATOM     41  H   UNL A   1      40.521  29.031  30.407  1.00  0.00     0.167 HD
ATOM     42  C   UNL A   1      39.730  31.101  34.174  1.00  0.00     0.037 A 
ATOM     43  C   UNL A   1      41.909  27.273  28.739  1.00  0.00     0.037 A 
ATOM     44  C   UNL A   1      40.945  30.362  34.397  1.00  0.00     0.049 A 
ATOM     45  C   UNL A   1      42.683  27.326  30.024  1.00  0.00     0.074 A 
ATOM     46  C   UNL A   1      41.707  30.283  35.550  1.00  0.00     0.029 A 
ATOM     47  N   UNL A   1      41.574  29.570  33.447  1.00  0.00    -0.354 N 
ATOM     48  N   UNL A   1      42.402  27.971  31.129  1.00  0.00    -0.248 NA
ATOM     49  C   UNL A   1      43.937  26.563  30.073  1.00  0.00     0.031 C 
ATOM     50  C   UNL A   1      42.818  29.474  35.285  1.00  0.00     0.029 A 
ATOM     51  C   UNL A   1      42.727  29.018  33.980  1.00  0.00     0.049 A 
ATOM     52  H   UNL A   1      41.249  29.423  32.529  1.00  0.00     0.167 HD
ATOM     53  C   UNL A   1      43.441  27.695  32.006  1.00  0.00     0.074 A 
ATOM     54  C   UNL A   1      44.349  26.804  31.311  1.00  0.00     0.031 C 
ATOM     55  C   UNL A   1      43.628  28.147  33.269  1.00  0.00     0.037 A 
BRANCH  42  56
ATOM     56  C   UNL A   1      39.208  31.952  35.294  1.00  0.00     0.064 A 
ATOM     57  C   UNL A   1      38.425  31.413  36.325  1.00  0.00     0.173 A 
ATOM     58  C   UNL A   1      39.541  33.313  35.365  1.00  0.00     0.173 A 
ATOM     59  F   UNL A   1      38.070  30.119  36.296  1.00  0.00    -0.203 F 
ATOM     60  C   UNL A   1      37.976  32.210  37.375  1.00  0.00     0.198 A 
ATOM     61  C   UNL A   1      39.111  34.102  36.428  1.00  0.00     0.198 A 
ATOM     62  F   UNL A   1      40.292  33.876  34.407  1.00  0.00    -0.203 F 
ATOM     63  F   UNL A   1      37.199  31.682  38.330  1.00  0.00    -0.200 F 
ATOM     64  C   UNL A   1      38.326  33.551  37.429  1.00  0.00     0.200 A 
ATOM     65  F   UNL A   1      39.458  35.395  36.485  1.00  0.00    -0.200 F 
ATOM     66  F   UNL A   1      37.900  34.315  38.445  1.00  0.00    -0.200 F 
ENDBRANCH  42  56
BRANCH  43  67
ATOM     67  C   UNL A   1      42.347  26.423  27.605  1.00  0.00     0.064 A 
ATOM     68  C   UNL A   1      43.314  26.876  26.701  1.00  0.00     0.173 A 
ATOM     69  C   UNL A   1      41.855  25.119  27.444  1.00  0.00     0.173 A 
ATOM     70  F   UNL A   1      43.800  28.122  26.807  1.00  0.00    -0.203 F 
ATOM     71  C   UNL A   1      43.781  26.053  25.679  1.00  0.00     0.198 A 
ATOM     72  C   UNL A   1      42.338  24.290  26.436  1.00  0.00     0.198 A 
ATOM     73  F   UNL A   1      40.931  24.641  28.290  1.00  0.00    -0.203 F 
ATOM     74  F   UNL A   1      44.697  26.513  24.816  1.00  0.00    -0.200 F 
ATOM     75  C   UNL A   1      43.301  24.757  25.554  1.00  0.00     0.200 A 
ATOM     76  F   UNL A   1      41.884  23.033  26.329  1.00  0.00    -0.200 F 
ATOM     77  F   UNL A   1      43.766  23.959  24.584  1.00  0.00    -0.200 F 
ENDBRANCH  43  67
BRANCH  55  78
ATOM     78  C   UNL A   1      44.866  27.697  33.984  1.00  0.00     0.064 A 
ATOM     79  C   UNL A   1      46.031  28.478  33.980  1.00  0.00     0.173 A 
ATOM     80  C   UNL A   1      44.871  26.508  34.728  1.00  0.00     0.173 A 
ATOM     81  F   UNL A   1      46.078  29.616  33.271  1.00  0.00    -0.203 F 
ATOM     82  C   UNL A   1      47.161  28.079  34.688  1.00  0.00     0.198 A 
ATOM     83  C   UNL A   1      45.996  26.123  35.452  1.00  0.00     0.198 A 
ATOM     84  F   UNL A   1      43.779  25.730  34.766  1.00  0.00    -0.203 F 
ATOM     85  F   UNL A   1      48.273  28.825  34.647  1.00  0.00    -0.200 F 
ATOM     86  C   UNL A   1      47.139  26.907  35.430  1.00  0.00     0.200 A 
ATOM     87  F   UNL A   1      45.971  24.996  36.177  1.00  0.00    -0.200 F 
ATOM     88  F   UNL A   1      48.225  26.530  36.119  1.00  0.00    -0.200 F 
ENDBRANCH  55  78
ENDBRANCH  29  30
ENDBRANCH  21  24
ENDBRANCH  19  20
ENDBRANCH   1  19
TORSDOF 11
ENDMDL
MODEL 3
REMARK VINA RESULT:     -12.8      2.072      3.582
REMARK SMILES C[C@@H]1Oc2c(C(=O)NCCCCNC(=O)c3ccc(-c4c5nc(c(-c6c(F)c(F)c(F)c(F)c6F)c6ccc([nH]6)c(-c6c(F)c(F)c(F)c(F)c6F)c6nc(c(-c7c(F)c(F)c(F)c(F)c7F)c7ccc4[nH]7)C=C6)C=C5)cc3)cccc2[C@@H]1C
REMARK SMILES IDX 11 1 10 2 9 3 8 4 6 5 7 6 5 8 1 9 2 10 3 11 83 12 4 13 82 14
REMARK SMILES IDX 84 15 81 16 79 17 80 18 12 19 13 20 14 21 15 23 16 24 17 25
REMARK SMILES IDX 78 26 18 27 77 28 19 29 20 30 21 31 71 32 22 33 76 34 70 35
REMARK SMILES IDX 72 36 23 37 75 38 69 39 68 40 24 42 56 43 36 44 55 45 37 46
REMARK SMILES IDX 40 47 54 48 73 49 38 50 39 51 53 53 74 54 41 55 25 56 26 57
REMARK SMILES IDX 34 58 27 59 28 60 32 61 35 62 29 63 30 64 33 65 31 66 57 67
REMARK SMILES IDX 58 68 66 69 59 70 60 71 64 72 67 73 61 74 62 75 65 76 63 77
REMARK SMILES IDX 42 78 43 79 51 80 44 81 45 82 49 83 52 84 46 85 47 86 50 87
REMARK SMILES IDX 48 88
REMARK H PARENT 8 7 13 22 72 41 40 52
REMARK Flexibility Score: inf
ROOT
ATOM      1  C   UNL A   1      31.911  31.662  26.673  1.00  0.00     0.023 C 
ENDROOT
BRANCH   1   2
ATOM      2  C   UNL A   1      32.057  30.161  26.938  1.00  0.00     0.023 C 
BRANCH   2   3
ATOM      3  C   UNL A   1      33.378  29.559  26.446  1.00  0.00     0.116 C 
BRANCH   3   4
ATOM      4  N   UNL A   1      33.465  29.629  25.004  1.00  0.00    -0.352 N 
ATOM      5  C   UNL A   1      32.969  28.847  23.987  1.00  0.00     0.255 C 
ATOM      6  O   UNL A   1      33.297  29.196  22.852  1.00  0.00    -0.269 OA
ATOM      7  H   UNL A   1      33.991  30.398  24.681  1.00  0.00     0.163 HD
BRANCH   5   8
ATOM      8  C   UNL A   1      32.081  27.658  24.196  1.00  0.00     0.082 A 
ATOM      9  C   UNL A   1      35.256  24.395  25.577  1.00  0.00     0.053 C 
ATOM     10  C   UNL A   1      34.114  24.700  24.617  1.00  0.00     0.177 C 
ATOM     11  O   UNL A   1      33.993  26.139  24.509  1.00  0.00    -0.489 OA
ATOM     12  C   UNL A   1      32.740  24.105  24.991  1.00  0.00     0.060 C 
ATOM     13  C   UNL A   1      32.650  26.403  24.424  1.00  0.00     0.136 A 
ATOM     14  C   UNL A   1      31.874  25.266  24.647  1.00  0.00     0.001 A 
ATOM     15  C   UNL A   1      32.551  23.706  26.453  1.00  0.00     0.017 C 
ATOM     16  C   UNL A   1      30.492  25.321  24.621  1.00  0.00     0.008 A 
ATOM     17  C   UNL A   1      30.679  27.710  24.238  1.00  0.00     0.018 A 
ATOM     18  C   UNL A   1      29.893  26.557  24.421  1.00  0.00     0.001 A 
ENDBRANCH   5   8
ENDBRANCH   3   4
ENDBRANCH   2   3
ENDBRANCH   1   2
BRANCH   1  19
ATOM     19  C   UNL A   1      32.949  32.532  27.372  1.00  0.00     0.116 C 
BRANCH  19  20
ATOM     20  N   UNL A   1      32.493  33.888  27.640  1.00  0.00    -0.352 N 
ATOM     21  C   UNL A   1      33.013  34.802  28.530  1.00  0.00     0.251 C 
ATOM     22  H   UNL A   1      31.715  34.190  27.118  1.00  0.00     0.163 HD
ATOM     23  O   UNL A   1      32.470  35.882  28.709  1.00  0.00    -0.269 OA
BRANCH  21  24
ATOM     24  C   UNL A   1      34.207  34.425  29.317  1.00  0.00     0.039 A 
ATOM     25  C   UNL A   1      35.488  34.643  28.808  1.00  0.00     0.014 A 
ATOM     26  C   UNL A   1      34.030  33.774  30.540  1.00  0.00     0.014 A 
ATOM     27  C   UNL A   1      36.580  34.053  29.431  1.00  0.00     0.010 A 
ATOM     28  C   UNL A   1      35.139  33.249  31.207  1.00  0.00     0.010 A 
ATOM     29  C   UNL A   1      36.414  33.332  30.625  1.00  0.00    -0.014 A 
BRANCH  29  30
ATOM     30  C   UNL A   1      37.585  32.644  31.224  1.00  0.00     0.031 A 
ATOM     31  C   UNL A   1      38.033  32.974  32.622  1.00  0.00     0.074 A 
ATOM     32  C   UNL A   1      38.200  31.670  30.532  1.00  0.00     0.049 A 
ATOM     33  N   UNL A   1      39.012  32.452  33.320  1.00  0.00    -0.248 NA
ATOM     34  C   UNL A   1      37.290  34.027  33.330  1.00  0.00     0.031 C 
ATOM     35  C   UNL A   1      37.845  31.251  29.176  1.00  0.00     0.029 A 
ATOM     36  N   UNL A   1      39.229  30.833  30.881  1.00  0.00    -0.354 N 
ATOM     37  C   UNL A   1      39.015  33.126  34.534  1.00  0.00     0.074 A 
ATOM     38  C   UNL A   1      37.958  34.113  34.473  1.00  0.00     0.031 C 
ATOM     39  C   UNL A   1      38.603  30.200  28.830  1.00  0.00     0.029 A 
ATOM     40  C   UNL A   1      39.534  29.908  29.915  1.00  0.00     0.049 A 
ATOM     41  H   UNL A   1      39.704  30.891  31.743  1.00  0.00     0.167 HD
ATOM     42  C   UNL A   1      39.819  32.931  35.606  1.00  0.00     0.037 A 
ATOM     43  C   UNL A   1      40.463  28.934  29.900  1.00  0.00     0.037 A 
ATOM     44  C   UNL A   1      40.847  31.926  35.678  1.00  0.00     0.049 A 
ATOM     45  C   UNL A   1      41.360  28.757  31.090  1.00  0.00     0.074 A 
ATOM     46  C   UNL A   1      41.689  31.628  36.736  1.00  0.00     0.029 A 
ATOM     47  N   UNL A   1      41.171  31.051  34.651  1.00  0.00    -0.354 N 
ATOM     48  N   UNL A   1      41.356  29.403  32.230  1.00  0.00    -0.248 NA
ATOM     49  C   UNL A   1      42.403  27.727  30.985  1.00  0.00     0.031 C 
ATOM     50  C   UNL A   1      42.549  30.598  36.335  1.00  0.00     0.029 A 
ATOM     51  C   UNL A   1      42.216  30.229  35.041  1.00  0.00     0.049 A 
ATOM     52  H   UNL A   1      40.725  31.020  33.774  1.00  0.00     0.167 HD
ATOM     53  C   UNL A   1      42.390  28.861  32.979  1.00  0.00     0.074 A 
ATOM     54  C   UNL A   1      42.988  27.816  32.172  1.00  0.00     0.031 C 
ATOM     55  C   UNL A   1      42.810  29.207  34.220  1.00  0.00     0.037 A 
BRANCH  42  56
ATOM     56  C   UNL A   1      39.630  33.830  36.791  1.00  0.00     0.064 A 
ATOM     57  C   UNL A   1      40.200  35.110  36.843  1.00  0.00     0.173 A 
ATOM     58  C   UNL A   1      38.825  33.426  37.866  1.00  0.00     0.173 A 
ATOM     59  F   UNL A   1      40.989  35.539  35.845  1.00  0.00    -0.203 F 
ATOM     60  C   UNL A   1      39.987  35.946  37.937  1.00  0.00     0.198 A 
ATOM     61  C   UNL A   1      38.593  34.272  38.947  1.00  0.00     0.198 A 
ATOM     62  F   UNL A   1      38.252  32.213  37.864  1.00  0.00    -0.203 F 
ATOM     63  F   UNL A   1      40.571  37.151  37.981  1.00  0.00    -0.200 F 
ATOM     64  C   UNL A   1      39.178  35.529  38.984  1.00  0.00     0.200 A 
ATOM     65  F   UNL A   1      37.804  33.873  39.954  1.00  0.00    -0.200 F 
ATOM     66  F   UNL A   1      38.968  36.338  40.032  1.00  0.00    -0.200 F 
ENDBRANCH  42  56
BRANCH  43  67
ATOM     67  C   UNL A   1      40.569  28.054  28.711  1.00  0.00     0.064 A 
ATOM     68  C   UNL A   1      39.857  26.850  28.646  1.00  0.00     0.173 A 
ATOM     69  C   UNL A   1      41.330  28.430  27.595  1.00  0.00     0.173 A 
ATOM     70  F   UNL A   1      39.130  26.443  29.697  1.00  0.00    -0.203 F 
ATOM     71  C   UNL A   1      39.896  26.056  27.502  1.00  0.00     0.198 A 
ATOM     72  C   UNL A   1      41.350  27.646  26.445  1.00  0.00     0.198 A 
ATOM     73  F   UNL A   1      42.024  29.576  27.612  1.00  0.00    -0.203 F 
ATOM     74  F   UNL A   1      39.218  24.901  27.467  1.00  0.00    -0.200 F 
ATOM     75  C   UNL A   1      40.633  26.460  26.398  1.00  0.00     0.200 A 
ATOM     76  F   UNL A   1      42.050  28.049  25.375  1.00  0.00    -0.200 F 
ATOM     77  F   UNL A   1      40.653  25.707  25.290  1.00  0.00    -0.200 F 
ENDBRANCH  43  67
BRANCH  55  78
ATOM     78  C   UNL A   1      43.980  28.457  34.782  1.00  0.00     0.064 A 
ATOM     79  C   UNL A   1      45.287  28.946  34.648  1.00  0.00     0.173 A 
ATOM     80  C   UNL A   1      43.789  27.275  35.513  1.00  0.00     0.173 A 
ATOM     81  F   UNL A   1      45.521  30.065  33.946  1.00  0.00    -0.203 F 
ATOM     82  C   UNL A   1      46.364  28.272  35.217  1.00  0.00     0.198 A 
ATOM     83  C   UNL A   1      44.865  26.615  36.099  1.00  0.00     0.198 A 
ATOM     84  F   UNL A   1      42.556  26.771  35.673  1.00  0.00    -0.203 F 
ATOM     85  F   UNL A   1      47.609  28.740  35.052  1.00  0.00    -0.200 F 
ATOM     86  C   UNL A   1      46.151  27.112  35.948  1.00  0.00     0.200 A 
ATOM     87  F   UNL A   1      44.658  25.501  36.814  1.00  0.00    -0.200 F 
ATOM     88  F   UNL A   1      47.188  26.470  36.504  1.00  0.00    -0.200 F 
ENDBRANCH  55  78
ENDBRANCH  29  30
ENDBRANCH  21  24
ENDBRANCH  19  20
ENDBRANCH   1  19
TORSDOF 11
ENDMDL
