MODEL 1
REMARK VINA RESULT:     -13.1      0.000      0.000
REMARK SMILES CCCCc1cc(S(F)(F)(F)(F)F)cc2c1O[C@@H](C(F)(F)F)C(C(=O)NCCCCNC(=O)c1ccc(-c3c4nc(c(-c5c(F)c(F)c(F)c(F)c5F)c5ccc([nH]5)c(-c5c(F)c(F)c(F)c(F)c5F)c5nc(c(-c6c(F)c(F)c(F)c(F)c6F)c6ccc3[nH]6)C=C5)C=C4)cc1)=C2
REMARK SMILES IDX 28 1 27 2 26 3 24 4 25 5 23 7 5 8 6 9 16 10 7 11 15 12 17 13
REMARK SMILES IDX 14 14 97 15 18 16 4 17 3 18 2 19 1 20 8 21 9 22 10 23 11 24
REMARK SMILES IDX 12 25 13 26 19 27 20 28 21 29 22 30 29 31 30 32 31 33 32 34
REMARK SMILES IDX 33 36 34 37 35 38 96 39 36 40 95 41 37 42 38 43 39 44 89 45
REMARK SMILES IDX 40 46 94 47 88 48 90 49 41 50 93 51 87 52 86 53 42 55 74 56
REMARK SMILES IDX 54 57 73 58 55 59 58 60 72 61 91 62 56 63 57 64 71 66 92 67
REMARK SMILES IDX 59 68 43 69 44 70 52 71 45 72 46 73 50 74 53 75 47 76 48 77
REMARK SMILES IDX 51 78 49 79 75 80 76 81 84 82 77 83 78 84 82 85 85 86 79 87
REMARK SMILES IDX 80 88 83 89 81 90 60 91 61 92 69 93 62 94 63 95 67 96 70 97
REMARK SMILES IDX 64 98 65 99 68 100 66 101
REMARK H PARENT 26 6 31 35 90 54 58 65
REMARK Flexibility Score: inf
ROOT
ATOM      1  C   UNL A   1      34.792  23.576  24.591  1.00  0.00     0.023 C 
ENDROOT
BRANCH   1   2
ATOM      2  C   UNL A   1      34.276  24.427  25.740  1.00  0.00     0.116 C 
BRANCH   2   3
ATOM      3  N   UNL A   1      33.332  23.640  26.547  1.00  0.00    -0.352 N 
ATOM      4  C   UNL A   1      31.952  24.111  26.733  1.00  0.00     0.251 C 
ATOM      5  O   UNL A   1      31.137  23.430  27.430  1.00  0.00    -0.270 OA
ATOM      6  H   UNL A   1      33.625  22.797  26.963  1.00  0.00     0.163 HD
BRANCH   4   7
ATOM      7  C   UNL A   1      31.500  25.413  26.090  1.00  0.00     0.067 C 
ATOM      8  C   UNL A   1      30.617  28.900  23.968  1.00  0.00    -0.004 A 
ATOM      9  C   UNL A   1      30.879  30.136  24.531  1.00  0.00     0.032 A 
ATOM     10  C   UNL A   1      30.967  27.769  24.665  1.00  0.00     0.131 A 
ATOM     11  C   UNL A   1      31.480  30.237  25.758  1.00  0.00     0.108 A 
ATOM     12  C   UNL A   1      31.558  27.833  25.914  1.00  0.00     0.019 A 
ATOM     13  O   UNL A   1      30.804  26.555  24.046  1.00  0.00    -0.475 OA
ATOM     14  C   UNL A   1      31.812  29.091  26.449  1.00  0.00     0.036 A 
ATOM     15  C   UNL A   1      31.925  26.582  26.554  1.00  0.00     0.025 C 
ATOM     16  C   UNL A   1      30.550  25.403  24.900  1.00  0.00     0.314 C 
BRANCH   8  17
ATOM     17  C   UNL A   1      29.955  28.795  22.604  1.00  0.00     0.039 C 
BRANCH  17  18
ATOM     18  C   UNL A   1      29.290  30.119  22.260  1.00  0.00     0.005 C 
BRANCH  18  19
ATOM     19  C   UNL A   1      27.846  30.098  22.736  1.00  0.00    -0.003 C 
ATOM     20  C   UNL A   1      27.540  31.388  23.481  1.00  0.00     0.004 C 
ENDBRANCH  18  19
ENDBRANCH  17  18
ENDBRANCH   8  17
BRANCH  11  21
ATOM     21  S   UNL A   1      31.837  31.865  26.467  1.00  0.00     0.310 S 
ATOM     22  F   UNL A   1      30.694  31.711  27.555  1.00  0.00    -0.094 F 
ATOM     23  F   UNL A   1      30.750  32.493  25.514  1.00  0.00    -0.094 F 
ATOM     24  F   UNL A   1      32.148  33.260  27.079  1.00  0.00    -0.094 F 
ATOM     25  F   UNL A   1      32.818  31.197  27.510  1.00  0.00    -0.094 F 
ATOM     26  F   UNL A   1      31.450  30.427  25.933  1.00  0.00    -0.094 F 
ENDBRANCH  11  21
BRANCH  16  27
ATOM     27  C   UNL A   1      30.773  24.132  24.097  1.00  0.00     0.429 C 
ATOM     28  F   UNL A   1      29.919  24.097  23.077  1.00  0.00    -0.167 F 
ATOM     29  F   UNL A   1      32.019  24.113  23.633  1.00  0.00    -0.167 F 
ATOM     30  F   UNL A   1      30.575  23.073  24.878  1.00  0.00    -0.167 F 
ENDBRANCH  16  27
ENDBRANCH   4   7
ENDBRANCH   2   3
ENDBRANCH   1   2
BRANCH   1  31
ATOM     31  C   UNL A   1      36.291  23.780  24.444  1.00  0.00     0.023 C 
BRANCH  31  32
ATOM     32  C   UNL A   1      36.945  23.738  25.816  1.00  0.00     0.116 C 
BRANCH  32  33
ATOM     33  N   UNL A   1      37.842  22.576  25.896  1.00  0.00    -0.352 N 
ATOM     34  C   UNL A   1      39.166  22.711  26.521  1.00  0.00     0.251 C 
ATOM     35  H   UNL A   1      37.557  21.708  25.530  1.00  0.00     0.163 HD
ATOM     36  O   UNL A   1      39.941  21.707  26.591  1.00  0.00    -0.269 OA
BRANCH  34  37
ATOM     37  C   UNL A   1      39.606  24.052  27.086  1.00  0.00     0.039 A 
ATOM     38  C   UNL A   1      39.413  24.336  28.428  1.00  0.00     0.014 A 
ATOM     39  C   UNL A   1      40.165  24.936  26.268  1.00  0.00     0.014 A 
ATOM     40  C   UNL A   1      39.582  25.702  28.755  1.00  0.00     0.010 A 
ATOM     41  C   UNL A   1      40.427  26.216  26.695  1.00  0.00     0.010 A 
ATOM     42  C   UNL A   1      40.205  26.583  27.993  1.00  0.00    -0.014 A 
BRANCH  42  43
ATOM     43  C   UNL A   1      40.652  27.933  28.531  1.00  0.00     0.031 A 
ATOM     44  C   UNL A   1      39.656  28.893  28.713  1.00  0.00     0.074 A 
ATOM     45  C   UNL A   1      41.989  28.139  28.826  1.00  0.00     0.049 A 
ATOM     46  N   UNL A   1      39.792  30.121  29.213  1.00  0.00    -0.248 NA
ATOM     47  C   UNL A   1      38.240  28.687  28.370  1.00  0.00     0.031 C 
ATOM     48  C   UNL A   1      42.999  27.172  28.654  1.00  0.00     0.029 A 
ATOM     49  N   UNL A   1      42.578  29.280  29.323  1.00  0.00    -0.354 N 
ATOM     50  C   UNL A   1      38.609  30.739  29.249  1.00  0.00     0.074 A 
ATOM     51  C   UNL A   1      37.594  29.827  28.701  1.00  0.00     0.031 C 
ATOM     52  C   UNL A   1      44.181  27.727  29.030  1.00  0.00     0.029 A 
ATOM     53  C   UNL A   1      43.930  29.049  29.445  1.00  0.00     0.049 A 
ATOM     54  H   UNL A   1      42.113  30.117  29.551  1.00  0.00     0.167 HD
ATOM     55  C   UNL A   1      38.335  32.024  29.718  1.00  0.00     0.037 A 
ATOM     56  C   UNL A   1      44.906  29.927  29.889  1.00  0.00     0.037 A 
ATOM     57  C   UNL A   1      39.305  32.888  30.203  1.00  0.00     0.049 A 
ATOM     58  C   UNL A   1      44.641  31.234  30.304  1.00  0.00     0.074 A 
ATOM     59  C   UNL A   1      39.045  34.185  30.687  1.00  0.00     0.029 A 
ATOM     60  N   UNL A   1      40.660  32.664  30.302  1.00  0.00    -0.354 N 
ATOM     61  N   UNL A   1      43.453  31.836  30.376  1.00  0.00    -0.248 NA
ATOM     62  C   UNL A   1      45.670  32.185  30.746  1.00  0.00     0.031 C 
ATOM     63  C   UNL A   1      40.227  34.739  31.064  1.00  0.00     0.029 A 
ATOM     64  C   UNL A   1      41.247  33.797  30.820  1.00  0.00     0.049 A 
ATOM     65  H   UNL A   1      41.129  31.837  30.046  1.00  0.00     0.167 HD
ATOM     66  C   UNL A   1      43.596  33.080  30.838  1.00  0.00     0.074 A 
ATOM     67  C   UNL A   1      45.025  33.325  31.074  1.00  0.00     0.031 C 
ATOM     68  C   UNL A   1      42.591  34.020  31.074  1.00  0.00     0.037 A 
BRANCH  55  69
ATOM     69  C   UNL A   1      36.893  32.504  29.697  1.00  0.00     0.064 A 
ATOM     70  C   UNL A   1      36.436  33.185  28.581  1.00  0.00     0.173 A 
ATOM     71  C   UNL A   1      36.107  32.297  30.747  1.00  0.00     0.173 A 
ATOM     72  F   UNL A   1      37.086  33.198  27.422  1.00  0.00    -0.203 F 
ATOM     73  C   UNL A   1      35.213  33.867  28.787  1.00  0.00     0.198 A 
ATOM     74  C   UNL A   1      34.868  32.886  30.821  1.00  0.00     0.198 A 
ATOM     75  F   UNL A   1      36.524  31.512  31.737  1.00  0.00    -0.203 F 
ATOM     76  F   UNL A   1      34.883  34.821  27.922  1.00  0.00    -0.200 F 
ATOM     77  C   UNL A   1      34.377  33.622  29.779  1.00  0.00     0.200 A 
ATOM     78  F   UNL A   1      34.136  32.736  31.922  1.00  0.00    -0.200 F 
ATOM     79  F   UNL A   1      33.124  34.067  29.766  1.00  0.00    -0.200 F 
ENDBRANCH  55  69
BRANCH  56  80
ATOM     80  C   UNL A   1      46.346  29.441  29.926  1.00  0.00     0.064 A 
ATOM     81  C   UNL A   1      47.171  29.624  28.829  1.00  0.00     0.173 A 
ATOM     82  C   UNL A   1      46.798  28.879  31.042  1.00  0.00     0.173 A 
ATOM     83  F   UNL A   1      46.844  30.399  27.797  1.00  0.00    -0.203 F 
ATOM     84  C   UNL A   1      48.391  28.913  28.904  1.00  0.00     0.198 A 
ATOM     85  C   UNL A   1      48.055  28.324  31.085  1.00  0.00     0.198 A 
ATOM     86  F   UNL A   1      46.029  28.854  32.126  1.00  0.00    -0.203 F 
ATOM     87  F   UNL A   1      49.073  28.734  27.775  1.00  0.00    -0.200 F 
ATOM     88  C   UNL A   1      48.901  28.416  30.016  1.00  0.00     0.200 A 
ATOM     89  F   UNL A   1      48.452  27.688  32.183  1.00  0.00    -0.200 F 
ATOM     90  F   UNL A   1      50.170  28.025  30.090  1.00  0.00    -0.200 F 
ENDBRANCH  56  80
BRANCH  68  91
ATOM     91  C   UNL A   1      42.996  35.370  31.644  1.00  0.00     0.064 A 
ATOM     92  C   UNL A   1      43.407  36.391  30.804  1.00  0.00     0.173 A 
ATOM     93  C   UNL A   1      42.962  35.533  32.960  1.00  0.00     0.173 A 
ATOM     94  F   UNL A   1      43.222  36.368  29.487  1.00  0.00    -0.203 F 
ATOM     95  C   UNL A   1      44.044  37.463  31.474  1.00  0.00     0.198 A 
ATOM     96  C   UNL A   1      43.479  36.667  33.539  1.00  0.00     0.198 A 
ATOM     97  F   UNL A   1      42.421  34.590  33.727  1.00  0.00    -0.203 F 
ATOM     98  F   UNL A   1      44.780  38.298  30.746  1.00  0.00    -0.200 F 
ATOM     99  C   UNL A   1      43.957  37.692  32.772  1.00  0.00     0.200 A 
ATOM    100  F   UNL A   1      43.516  36.769  34.865  1.00  0.00    -0.200 F 
ATOM    101  F   UNL A   1      44.316  38.857  33.303  1.00  0.00    -0.200 F 
ENDBRANCH  68  91
ENDBRANCH  42  43
ENDBRANCH  34  37
ENDBRANCH  32  33
ENDBRANCH  31  32
ENDBRANCH   1  31
TORSDOF 16
ENDMDL
MODEL 2
REMARK VINA RESULT:     -12.9      4.348      8.146
REMARK SMILES CCCCc1cc(S(F)(F)(F)(F)F)cc2c1O[C@@H](C(F)(F)F)C(C(=O)NCCCCNC(=O)c1ccc(-c3c4nc(c(-c5c(F)c(F)c(F)c(F)c5F)c5ccc([nH]5)c(-c5c(F)c(F)c(F)c(F)c5F)c5nc(c(-c6c(F)c(F)c(F)c(F)c6F)c6ccc3[nH]6)C=C5)C=C4)cc1)=C2
REMARK SMILES IDX 28 1 27 2 26 3 24 4 25 5 23 7 5 8 6 9 16 10 7 11 15 12 17 13
REMARK SMILES IDX 14 14 97 15 18 16 4 17 3 18 2 19 1 20 8 21 9 22 10 23 11 24
REMARK SMILES IDX 12 25 13 26 19 27 20 28 21 29 22 30 29 31 30 32 31 33 32 34
REMARK SMILES IDX 33 36 34 37 35 38 96 39 36 40 95 41 37 42 38 43 39 44 89 45
REMARK SMILES IDX 40 46 94 47 88 48 90 49 41 50 93 51 87 52 86 53 42 55 74 56
REMARK SMILES IDX 54 57 73 58 55 59 58 60 72 61 91 62 56 63 57 64 71 66 92 67
REMARK SMILES IDX 59 68 43 69 44 70 52 71 45 72 46 73 50 74 53 75 47 76 48 77
REMARK SMILES IDX 51 78 49 79 75 80 76 81 84 82 77 83 78 84 82 85 85 86 79 87
REMARK SMILES IDX 80 88 83 89 81 90 60 91 61 92 69 93 62 94 63 95 67 96 70 97
REMARK SMILES IDX 64 98 65 99 68 100 66 101
REMARK H PARENT 26 6 31 35 90 54 58 65
REMARK Flexibility Score: inf
ROOT
ATOM      1  C   UNL A   1      31.932  30.000  26.864  1.00  0.00     0.023 C 
ENDROOT
BRANCH   1   2
ATOM      2  C   UNL A   1      32.900  29.408  25.853  1.00  0.00     0.116 C 
BRANCH   2   3
ATOM      3  N   UNL A   1      32.338  29.542  24.500  1.00  0.00    -0.352 N 
ATOM      4  C   UNL A   1      32.114  28.346  23.675  1.00  0.00     0.251 C 
ATOM      5  O   UNL A   1      31.628  28.462  22.508  1.00  0.00    -0.270 OA
ATOM      6  H   UNL A   1      32.112  30.433  24.148  1.00  0.00     0.163 HD
BRANCH   4   7
ATOM      7  C   UNL A   1      32.463  26.970  24.221  1.00  0.00     0.067 C 
ATOM      8  C   UNL A   1      33.312  23.381  26.182  1.00  0.00    -0.004 A 
ATOM      9  C   UNL A   1      34.610  22.905  26.219  1.00  0.00     0.032 A 
ATOM     10  C   UNL A   1      33.069  24.591  25.577  1.00  0.00     0.131 A 
ATOM     11  C   UNL A   1      35.639  23.623  25.668  1.00  0.00     0.108 A 
ATOM     12  C   UNL A   1      34.080  25.334  24.994  1.00  0.00     0.019 A 
ATOM     13  O   UNL A   1      31.797  25.103  25.648  1.00  0.00    -0.475 OA
ATOM     14  C   UNL A   1      35.374  24.829  25.052  1.00  0.00     0.036 A 
ATOM     15  C   UNL A   1      33.728  26.618  24.413  1.00  0.00     0.025 C 
ATOM     16  C   UNL A   1      31.368  25.967  24.558  1.00  0.00     0.314 C 
BRANCH   8  17
ATOM     17  C   UNL A   1      32.176  22.582  26.800  1.00  0.00     0.039 C 
BRANCH  17  18
ATOM     18  C   UNL A   1      31.395  21.879  25.701  1.00  0.00     0.005 C 
BRANCH  18  19
ATOM     19  C   UNL A   1      32.216  20.721  25.158  1.00  0.00    -0.003 C 
ATOM     20  C   UNL A   1      32.469  20.932  23.674  1.00  0.00     0.004 C 
ENDBRANCH  18  19
ENDBRANCH  17  18
ENDBRANCH   8  17
BRANCH  11  21
ATOM     21  S   UNL A   1      37.335  22.993  25.747  1.00  0.00     0.310 S 
ATOM     22  F   UNL A   1      37.853  24.076  24.711  1.00  0.00    -0.094 F 
ATOM     23  F   UNL A   1      37.023  22.063  24.514  1.00  0.00    -0.094 F 
ATOM     24  F   UNL A   1      38.792  22.455  25.821  1.00  0.00    -0.094 F 
ATOM     25  F   UNL A   1      37.669  24.033  26.889  1.00  0.00    -0.094 F 
ATOM     26  F   UNL A   1      35.893  23.628  25.611  1.00  0.00    -0.094 F 
ENDBRANCH  11  21
BRANCH  16  27
ATOM     27  C   UNL A   1      30.119  26.720  24.985  1.00  0.00     0.429 C 
ATOM     28  F   UNL A   1      29.189  25.852  25.376  1.00  0.00    -0.167 F 
ATOM     29  F   UNL A   1      30.415  27.536  25.994  1.00  0.00    -0.167 F 
ATOM     30  F   UNL A   1      29.657  27.432  23.961  1.00  0.00    -0.167 F 
ENDBRANCH  16  27
ENDBRANCH   4   7
ENDBRANCH   2   3
ENDBRANCH   1   2
BRANCH   1  31
ATOM     31  C   UNL A   1      31.700  31.468  26.543  1.00  0.00     0.023 C 
BRANCH  31  32
ATOM     32  C   UNL A   1      32.922  32.275  26.951  1.00  0.00     0.116 C 
BRANCH  32  33
ATOM     33  N   UNL A   1      32.504  33.626  27.353  1.00  0.00    -0.352 N 
ATOM     34  C   UNL A   1      33.246  34.344  28.399  1.00  0.00     0.251 C 
ATOM     35  H   UNL A   1      31.728  34.051  26.921  1.00  0.00     0.163 HD
ATOM     36  O   UNL A   1      32.886  35.512  28.746  1.00  0.00    -0.269 OA
BRANCH  34  37
ATOM     37  C   UNL A   1      34.445  33.690  29.066  1.00  0.00     0.039 A 
ATOM     38  C   UNL A   1      35.729  34.057  28.699  1.00  0.00     0.014 A 
ATOM     39  C   UNL A   1      34.232  32.761  29.992  1.00  0.00     0.014 A 
ATOM     40  C   UNL A   1      36.733  33.174  29.162  1.00  0.00     0.010 A 
ATOM     41  C   UNL A   1      35.278  32.028  30.500  1.00  0.00     0.010 A 
ATOM     42  C   UNL A   1      36.568  32.298  30.137  1.00  0.00    -0.014 A 
BRANCH  42  43
ATOM     43  C   UNL A   1      37.749  31.625  30.817  1.00  0.00     0.031 A 
ATOM     44  C   UNL A   1      38.033  32.033  32.122  1.00  0.00     0.074 A 
ATOM     45  C   UNL A   1      38.460  30.650  30.138  1.00  0.00     0.049 A 
ATOM     46  N   UNL A   1      38.978  31.559  32.934  1.00  0.00    -0.248 NA
ATOM     47  C   UNL A   1      37.299  33.091  32.833  1.00  0.00     0.031 C 
ATOM     48  C   UNL A   1      38.174  30.226  28.826  1.00  0.00     0.029 A 
ATOM     49  N   UNL A   1      39.545  29.930  30.587  1.00  0.00    -0.354 N 
ATOM     50  C   UNL A   1      38.931  32.186  34.111  1.00  0.00     0.074 A 
ATOM     51  C   UNL A   1      37.854  33.185  34.061  1.00  0.00     0.031 C 
ATOM     52  C   UNL A   1      39.080  29.274  28.484  1.00  0.00     0.029 A 
ATOM     53  C   UNL A   1      39.947  29.084  29.577  1.00  0.00     0.049 A 
ATOM     54  H   UNL A   1      39.961  30.006  31.476  1.00  0.00     0.167 HD
ATOM     55  C   UNL A   1      39.741  31.964  35.226  1.00  0.00     0.037 A 
ATOM     56  C   UNL A   1      41.009  28.193  29.588  1.00  0.00     0.037 A 
ATOM     57  C   UNL A   1      40.776  31.040  35.252  1.00  0.00     0.049 A 
ATOM     58  C   UNL A   1      41.857  28.011  30.682  1.00  0.00     0.074 A 
ATOM     59  C   UNL A   1      41.597  30.798  36.369  1.00  0.00     0.029 A 
ATOM     60  N   UNL A   1      41.193  30.214  34.233  1.00  0.00    -0.354 N 
ATOM     61  N   UNL A   1      41.784  28.611  31.872  1.00  0.00    -0.248 NA
ATOM     62  C   UNL A   1      43.004  27.094  30.695  1.00  0.00     0.031 C 
ATOM     63  C   UNL A   1      42.504  29.845  36.026  1.00  0.00     0.029 A 
ATOM     64  C   UNL A   1      42.264  29.477  34.688  1.00  0.00     0.049 A 
ATOM     65  H   UNL A   1      40.796  30.158  33.334  1.00  0.00     0.167 HD
ATOM     66  C   UNL A   1      42.757  28.166  32.670  1.00  0.00     0.074 A 
ATOM     67  C   UNL A   1      43.560  27.190  31.921  1.00  0.00     0.031 C 
ATOM     68  C   UNL A   1      43.005  28.533  33.994  1.00  0.00     0.037 A 
BRANCH  55  69
ATOM     69  C   UNL A   1      39.475  32.778  36.481  1.00  0.00     0.064 A 
ATOM     70  C   UNL A   1      38.523  32.323  37.378  1.00  0.00     0.173 A 
ATOM     71  C   UNL A   1      40.125  33.917  36.685  1.00  0.00     0.173 A 
ATOM     72  F   UNL A   1      38.035  31.087  37.354  1.00  0.00    -0.203 F 
ATOM     73  C   UNL A   1      38.116  33.295  38.323  1.00  0.00     0.198 A 
ATOM     74  C   UNL A   1      39.763  34.755  37.711  1.00  0.00     0.198 A 
ATOM     75  F   UNL A   1      41.137  34.251  35.887  1.00  0.00    -0.203 F 
ATOM     76  F   UNL A   1      36.978  33.084  38.977  1.00  0.00    -0.200 F 
ATOM     77  C   UNL A   1      38.789  34.397  38.601  1.00  0.00     0.200 A 
ATOM     78  F   UNL A   1      40.369  35.932  37.842  1.00  0.00    -0.200 F 
ATOM     79  F   UNL A   1      38.533  35.119  39.688  1.00  0.00    -0.200 F 
ENDBRANCH  55  69
BRANCH  56  80
ATOM     80  C   UNL A   1      41.264  27.367  28.337  1.00  0.00     0.064 A 
ATOM     81  C   UNL A   1      40.619  26.154  28.162  1.00  0.00     0.173 A 
ATOM     82  C   UNL A   1      42.082  27.853  27.410  1.00  0.00     0.173 A 
ATOM     83  F   UNL A   1      39.612  25.750  28.930  1.00  0.00    -0.203 F 
ATOM     84  C   UNL A   1      41.130  25.384  27.091  1.00  0.00     0.198 A 
ATOM     85  C   UNL A   1      42.431  27.095  26.319  1.00  0.00     0.198 A 
ATOM     86  F   UNL A   1      42.566  29.085  27.540  1.00  0.00    -0.203 F 
ATOM     87  F   UNL A   1      40.835  24.086  27.066  1.00  0.00    -0.200 F 
ATOM     88  C   UNL A   1      41.878  25.863  26.113  1.00  0.00     0.200 A 
ATOM     89  F   UNL A   1      43.320  27.568  25.450  1.00  0.00    -0.200 F 
ATOM     90  F   UNL A   1      42.081  25.182  24.989  1.00  0.00    -0.200 F 
ENDBRANCH  56  80
BRANCH  68  91
ATOM     91  C   UNL A   1      44.157  27.856  34.719  1.00  0.00     0.064 A 
ATOM     92  C   UNL A   1      45.420  28.423  34.712  1.00  0.00     0.173 A 
ATOM     93  C   UNL A   1      43.922  26.705  35.337  1.00  0.00     0.173 A 
ATOM     94  F   UNL A   1      45.651  29.676  34.333  1.00  0.00    -0.203 F 
ATOM     95  C   UNL A   1      46.444  27.547  35.145  1.00  0.00     0.198 A 
ATOM     96  C   UNL A   1      44.957  25.965  35.857  1.00  0.00     0.198 A 
ATOM     97  F   UNL A   1      42.673  26.263  35.455  1.00  0.00    -0.203 F 
ATOM     98  F   UNL A   1      47.699  27.863  34.839  1.00  0.00    -0.200 F 
ATOM     99  C   UNL A   1      46.239  26.438  35.833  1.00  0.00     0.200 A 
ATOM    100  F   UNL A   1      44.708  24.773  36.392  1.00  0.00    -0.200 F 
ATOM    101  F   UNL A   1      47.229  25.814  36.466  1.00  0.00    -0.200 F 
ENDBRANCH  68  91
ENDBRANCH  42  43
ENDBRANCH  34  37
ENDBRANCH  32  33
ENDBRANCH  31  32
ENDBRANCH   1  31
TORSDOF 16
ENDMDL
MODEL 3
REMARK VINA RESULT:     -12.9      0.388      7.073
REMARK SMILES CCCCc1cc(S(F)(F)(F)(F)F)cc2c1O[C@@H](C(F)(F)F)C(C(=O)NCCCCNC(=O)c1ccc(-c3c4nc(c(-c5c(F)c(F)c(F)c(F)c5F)c5ccc([nH]5)c(-c5c(F)c(F)c(F)c(F)c5F)c5nc(c(-c6c(F)c(F)c(F)c(F)c6F)c6ccc3[nH]6)C=C5)C=C4)cc1)=C2
REMARK SMILES IDX 28 1 27 2 26 3 24 4 25 5 23 7 5 8 6 9 16 10 7 11 15 12 17 13
REMARK SMILES IDX 14 14 97 15 18 16 4 17 3 18 2 19 1 20 8 21 9 22 10 23 11 24
REMARK SMILES IDX 12 25 13 26 19 27 20 28 21 29 22 30 29 31 30 32 31 33 32 34
REMARK SMILES IDX 33 36 34 37 35 38 96 39 36 40 95 41 37 42 38 43 39 44 89 45
REMARK SMILES IDX 40 46 94 47 88 48 90 49 41 50 93 51 87 52 86 53 42 55 74 56
REMARK SMILES IDX 54 57 73 58 55 59 58 60 72 61 91 62 56 63 57 64 71 66 92 67
REMARK SMILES IDX 59 68 43 69 44 70 52 71 45 72 46 73 50 74 53 75 47 76 48 77
REMARK SMILES IDX 51 78 49 79 75 80 76 81 84 82 77 83 78 84 82 85 85 86 79 87
REMARK SMILES IDX 80 88 83 89 81 90 60 91 61 92 69 93 62 94 63 95 67 96 70 97
REMARK SMILES IDX 64 98 65 99 68 100 66 101
REMARK H PARENT 26 6 31 35 90 54 58 65
REMARK Flexibility Score: inf
ROOT
ATOM      1  C   UNL A   1      34.837  23.466  24.657  1.00  0.00     0.023 C 
ENDROOT
BRANCH   1   2
ATOM      2  C   UNL A   1      34.237  24.376  25.716  1.00  0.00     0.116 C 
BRANCH   2   3
ATOM      3  N   UNL A   1      33.290  23.612  26.540  1.00  0.00    -0.352 N 
ATOM      4  C   UNL A   1      31.919  24.105  26.734  1.00  0.00     0.251 C 
ATOM      5  O   UNL A   1      31.100  23.444  27.445  1.00  0.00    -0.270 OA
ATOM      6  H   UNL A   1      33.574  22.769  26.962  1.00  0.00     0.163 HD
BRANCH   4   7
ATOM      7  C   UNL A   1      31.481  25.407  26.081  1.00  0.00     0.067 C 
ATOM      8  C   UNL A   1      30.640  28.893  23.939  1.00  0.00    -0.004 A 
ATOM      9  C   UNL A   1      30.894  30.129  24.506  1.00  0.00     0.032 A 
ATOM     10  C   UNL A   1      30.976  27.763  24.644  1.00  0.00     0.131 A 
ATOM     11  C   UNL A   1      31.473  30.231  25.743  1.00  0.00     0.108 A 
ATOM     12  C   UNL A   1      31.544  27.827  25.904  1.00  0.00     0.019 A 
ATOM     13  O   UNL A   1      30.822  26.547  24.024  1.00  0.00    -0.475 OA
ATOM     14  C   UNL A   1      31.790  29.085  26.442  1.00  0.00     0.036 A 
ATOM     15  C   UNL A   1      31.898  26.576  26.552  1.00  0.00     0.025 C 
ATOM     16  C   UNL A   1      30.552  25.397  24.874  1.00  0.00     0.314 C 
BRANCH   8  17
ATOM     17  C   UNL A   1      30.003  28.788  22.564  1.00  0.00     0.039 C 
BRANCH  17  18
ATOM     18  C   UNL A   1      29.548  30.165  22.109  1.00  0.00     0.005 C 
BRANCH  18  19
ATOM     19  C   UNL A   1      28.031  30.240  22.160  1.00  0.00    -0.003 C 
ATOM     20  C   UNL A   1      27.605  31.095  23.342  1.00  0.00     0.004 C 
ENDBRANCH  18  19
ENDBRANCH  17  18
ENDBRANCH   8  17
BRANCH  11  21
ATOM     21  S   UNL A   1      31.819  31.859  26.457  1.00  0.00     0.310 S 
ATOM     22  F   UNL A   1      30.678  31.694  27.547  1.00  0.00    -0.094 F 
ATOM     23  F   UNL A   1      30.726  32.482  25.508  1.00  0.00    -0.094 F 
ATOM     24  F   UNL A   1      32.121  33.254  27.073  1.00  0.00    -0.094 F 
ATOM     25  F   UNL A   1      32.807  31.195  27.496  1.00  0.00    -0.094 F 
ATOM     26  F   UNL A   1      31.441  30.420  25.919  1.00  0.00    -0.094 F 
ENDBRANCH  11  21
BRANCH  16  27
ATOM     27  C   UNL A   1      30.788  24.125  24.077  1.00  0.00     0.429 C 
ATOM     28  F   UNL A   1      29.950  24.088  23.044  1.00  0.00    -0.167 F 
ATOM     29  F   UNL A   1      32.041  24.105  23.632  1.00  0.00    -0.167 F 
ATOM     30  F   UNL A   1      30.577  23.067  24.856  1.00  0.00    -0.167 F 
ENDBRANCH  16  27
ENDBRANCH   4   7
ENDBRANCH   2   3
ENDBRANCH   1   2
BRANCH   1  31
ATOM     31  C   UNL A   1      36.303  23.816  24.460  1.00  0.00     0.023 C 
BRANCH  31  32
ATOM     32  C   UNL A   1      37.020  23.773  25.800  1.00  0.00     0.116 C 
BRANCH  32  33
ATOM     33  N   UNL A   1      37.914  22.607  25.840  1.00  0.00    -0.352 N 
ATOM     34  C   UNL A   1      39.248  22.724  26.445  1.00  0.00     0.251 C 
ATOM     35  H   UNL A   1      37.620  21.747  25.461  1.00  0.00     0.163 HD
ATOM     36  O   UNL A   1      40.021  21.716  26.480  1.00  0.00    -0.269 OA
BRANCH  34  37
ATOM     37  C   UNL A   1      39.703  24.051  27.030  1.00  0.00     0.039 A 
ATOM     38  C   UNL A   1      39.558  24.298  28.386  1.00  0.00     0.014 A 
ATOM     39  C   UNL A   1      40.229  24.960  26.217  1.00  0.00     0.014 A 
ATOM     40  C   UNL A   1      39.732  25.656  28.744  1.00  0.00     0.010 A 
ATOM     41  C   UNL A   1      40.501  26.229  26.670  1.00  0.00     0.010 A 
ATOM     42  C   UNL A   1      40.325  26.560  27.984  1.00  0.00    -0.014 A 
BRANCH  42  43
ATOM     43  C   UNL A   1      40.785  27.897  28.542  1.00  0.00     0.031 A 
ATOM     44  C   UNL A   1      42.154  28.038  28.775  1.00  0.00     0.074 A 
ATOM     45  C   UNL A   1      39.853  28.895  28.773  1.00  0.00     0.049 A 
ATOM     46  N   UNL A   1      42.797  29.122  29.210  1.00  0.00    -0.248 NA
ATOM     47  C   UNL A   1      43.141  26.968  28.562  1.00  0.00     0.031 C 
ATOM     48  C   UNL A   1      38.471  28.764  28.532  1.00  0.00     0.029 A 
ATOM     49  N   UNL A   1      40.077  30.163  29.263  1.00  0.00    -0.354 N 
ATOM     50  C   UNL A   1      44.107  28.879  29.291  1.00  0.00     0.074 A 
ATOM     51  C   UNL A   1      44.346  27.488  28.881  1.00  0.00     0.031 C 
ATOM     52  C   UNL A   1      37.870  29.930  28.884  1.00  0.00     0.029 A 
ATOM     53  C   UNL A   1      38.865  30.811  29.349  1.00  0.00     0.049 A 
ATOM     54  H   UNL A   1      40.952  30.539  29.511  1.00  0.00     0.167 HD
ATOM     55  C   UNL A   1      45.112  29.762  29.687  1.00  0.00     0.037 A 
ATOM     56  C   UNL A   1      38.620  32.096  29.806  1.00  0.00     0.037 A 
ATOM     57  C   UNL A   1      44.872  31.063  30.103  1.00  0.00     0.049 A 
ATOM     58  C   UNL A   1      39.619  32.961  30.258  1.00  0.00     0.074 A 
ATOM     59  C   UNL A   1      45.874  31.969  30.499  1.00  0.00     0.029 A 
ATOM     60  N   UNL A   1      43.657  31.702  30.212  1.00  0.00    -0.354 N 
ATOM     61  N   UNL A   1      40.933  32.731  30.301  1.00  0.00    -0.248 NA
ATOM     62  C   UNL A   1      39.368  34.313  30.775  1.00  0.00     0.031 C 
ATOM     63  C   UNL A   1      45.272  33.136  30.851  1.00  0.00     0.029 A 
ATOM     64  C   UNL A   1      43.883  32.977  30.681  1.00  0.00     0.049 A 
ATOM     65  H   UNL A   1      42.779  31.315  29.993  1.00  0.00     0.167 HD
ATOM     66  C   UNL A   1      41.571  33.802  30.777  1.00  0.00     0.074 A 
ATOM     67  C   UNL A   1      40.573  34.832  31.096  1.00  0.00     0.031 C 
ATOM     68  C   UNL A   1      42.946  33.962  30.954  1.00  0.00     0.037 A 
BRANCH  55  69
ATOM     69  C   UNL A   1      46.551  29.271  29.662  1.00  0.00     0.064 A 
ATOM     70  C   UNL A   1      47.078  28.700  30.808  1.00  0.00     0.173 A 
ATOM     71  C   UNL A   1      47.286  29.424  28.567  1.00  0.00     0.173 A 
ATOM     72  F   UNL A   1      46.328  28.298  31.829  1.00  0.00    -0.203 F 
ATOM     73  C   UNL A   1      48.488  28.583  30.793  1.00  0.00     0.198 A 
ATOM     74  C   UNL A   1      48.634  29.161  28.587  1.00  0.00     0.198 A 
ATOM     75  F   UNL A   1      46.711  29.835  27.439  1.00  0.00    -0.203 F 
ATOM     76  F   UNL A   1      49.106  28.392  31.955  1.00  0.00    -0.200 F 
ATOM     77  C   UNL A   1      49.234  28.651  29.705  1.00  0.00     0.200 A 
ATOM     78  F   UNL A   1      49.366  29.406  27.504  1.00  0.00    -0.200 F 
ATOM     79  F   UNL A   1      50.500  28.244  29.696  1.00  0.00    -0.200 F 
ENDBRANCH  55  69
BRANCH  56  80
ATOM     80  C   UNL A   1      37.183  32.593  29.815  1.00  0.00     0.064 A 
ATOM     81  C   UNL A   1      36.409  32.459  30.956  1.00  0.00     0.173 A 
ATOM     82  C   UNL A   1      36.709  33.188  28.727  1.00  0.00     0.173 A 
ATOM     83  F   UNL A   1      36.911  32.106  32.136  1.00  0.00    -0.203 F 
ATOM     84  C   UNL A   1      35.036  32.731  30.751  1.00  0.00     0.198 A 
ATOM     85  C   UNL A   1      35.387  33.551  28.648  1.00  0.00     0.198 A 
ATOM     86  F   UNL A   1      37.523  33.435  27.704  1.00  0.00    -0.203 F 
ATOM     87  F   UNL A   1      34.175  32.291  31.665  1.00  0.00    -0.200 F 
ATOM     88  C   UNL A   1      34.549  33.392  29.716  1.00  0.00     0.200 A 
ATOM     89  F   UNL A   1      34.914  34.063  27.515  1.00  0.00    -0.200 F 
ATOM     90  F   UNL A   1      33.311  33.877  29.715  1.00  0.00    -0.200 F 
ENDBRANCH  56  80
BRANCH  68  91
ATOM     91  C   UNL A   1      43.448  35.299  31.479  1.00  0.00     0.064 A 
ATOM     92  C   UNL A   1      43.566  35.517  32.841  1.00  0.00     0.173 A 
ATOM     93  C   UNL A   1      43.747  36.247  30.600  1.00  0.00     0.173 A 
ATOM     94  F   UNL A   1      43.524  34.539  33.740  1.00  0.00    -0.203 F 
ATOM     95  C   UNL A   1      43.736  36.878  33.190  1.00  0.00     0.198 A 
ATOM     96  C   UNL A   1      44.036  37.523  31.019  1.00  0.00     0.198 A 
ATOM     97  F   UNL A   1      43.767  35.960  29.302  1.00  0.00    -0.203 F 
ATOM     98  F   UNL A   1      43.501  37.228  34.452  1.00  0.00    -0.200 F 
ATOM     99  C   UNL A   1      44.113  37.825  32.350  1.00  0.00     0.200 A 
ATOM    100  F   UNL A   1      44.245  38.479  30.117  1.00  0.00    -0.200 F 
ATOM    101  F   UNL A   1      44.543  39.010  32.777  1.00  0.00    -0.200 F 
ENDBRANCH  68  91
ENDBRANCH  42  43
ENDBRANCH  34  37
ENDBRANCH  32  33
ENDBRANCH  31  32
ENDBRANCH   1  31
TORSDOF 16
ENDMDL
