MODEL 1
REMARK VINA RESULT:     -13.0      0.000      0.000
REMARK SMILES COc1ccc(/C=C/C(=O)NCCCCNC(=O)c2ccc(-c3c4nc(c(-c5c(F)c(F)c(F)c(F)c5F)c5ccc([nH]5)c(-c5c(F)c(F)c(F)c(F)c5F)c5nc(c(-c6c(F)c(F)c(F)c(F)c6F)c6ccc3[nH]6)C=C5)C=C4)cc2)cc1S(=O)(=O)Nc1ccc(F)cc1F
REMARK SMILES IDX 12 1 11 2 9 3 10 4 8 6 7 7 6 8 3 9 4 10 83 11 5 12 82 13
REMARK SMILES IDX 2 14 1 15 84 16 85 17 86 18 87 19 88 21 89 22 94 23 90 24
REMARK SMILES IDX 93 25 95 26 91 27 92 28 13 29 14 30 15 31 16 32 17 33 18 35
REMARK SMILES IDX 19 36 20 37 81 38 21 39 80 40 22 41 23 42 24 43 74 44 25 45
REMARK SMILES IDX 79 46 73 47 75 48 26 49 78 50 72 51 71 52 27 54 59 55 39 56
REMARK SMILES IDX 58 57 40 58 43 59 57 60 76 61 41 62 42 63 56 65 77 66 44 67
REMARK SMILES IDX 28 68 29 69 37 70 30 71 31 72 35 73 38 74 32 75 33 76 36 77
REMARK SMILES IDX 34 78 60 79 61 80 69 81 62 82 63 83 67 84 70 85 64 86 65 87
REMARK SMILES IDX 68 88 66 89 45 90 46 91 54 92 47 93 48 94 52 95 55 96 49 97
REMARK SMILES IDX 50 98 53 99 51 100
REMARK H PARENT 11 5 87 20 16 34 75 53 43 64
REMARK Flexibility Score: inf
ROOT
ATOM      1  C   UNL A   1      32.123  29.953  25.422  1.00  0.00     0.116 C 
ENDROOT
BRANCH   1   2
ATOM      2  N   UNL A   1      30.976  30.188  24.568  1.00  0.00    -0.353 N 
ATOM      3  C   UNL A   1      30.272  29.325  23.790  1.00  0.00     0.243 C 
ATOM      4  O   UNL A   1      29.309  29.728  23.143  1.00  0.00    -0.270 OA
ATOM      5  H   UNL A   1      30.654  31.118  24.551  1.00  0.00     0.163 HD
BRANCH   3   6
ATOM      6  C   UNL A   1      30.561  27.878  23.838  1.00  0.00     0.072 C 
ATOM      7  C   UNL A   1      31.398  27.199  23.036  1.00  0.00     0.014 C 
BRANCH   7   8
ATOM      8  C   UNL A   1      31.693  25.775  23.266  1.00  0.00    -0.024 A 
ATOM      9  C   UNL A   1      31.867  22.991  23.616  1.00  0.00     0.139 A 
ATOM     10  C   UNL A   1      32.317  23.587  22.435  1.00  0.00     0.048 A 
ATOM     11  C   UNL A   1      31.517  23.794  24.697  1.00  0.00     0.130 A 
ATOM     12  C   UNL A   1      32.247  24.969  22.268  1.00  0.00     0.012 A 
ATOM     13  C   UNL A   1      31.392  25.187  24.502  1.00  0.00     0.034 A 
BRANCH   9  14
ATOM     14  O   UNL A   1      31.887  21.629  23.614  1.00  0.00    -0.495 OA
ATOM     15  C   UNL A   1      32.059  21.105  22.300  1.00  0.00     0.278 C 
ENDBRANCH   9  14
BRANCH  11  16
ATOM     16  S   UNL A   1      31.297  23.241  26.372  1.00  0.00     0.265 S 
ATOM     17  O   UNL A   1      31.256  24.421  27.211  1.00  0.00    -0.201 OA
ATOM     18  O   UNL A   1      30.155  22.347  26.333  1.00  0.00    -0.201 OA
BRANCH  16  19
ATOM     19  N   UNL A   1      32.556  22.277  26.912  1.00  0.00    -0.277 N 
ATOM     20  H   UNL A   1      32.384  21.704  27.694  1.00  0.00     0.180 HD
BRANCH  19  21
ATOM     21  C   UNL A   1      33.856  22.220  26.331  1.00  0.00     0.085 A 
ATOM     22  C   UNL A   1      34.281  20.949  25.910  1.00  0.00     0.033 A 
ATOM     23  C   UNL A   1      34.669  23.329  26.061  1.00  0.00     0.150 A 
ATOM     24  C   UNL A   1      35.408  20.818  25.099  1.00  0.00     0.041 A 
ATOM     25  C   UNL A   1      35.794  23.202  25.253  1.00  0.00     0.080 A 
ATOM     26  F   UNL A   1      34.326  24.553  26.482  1.00  0.00    -0.205 F 
ATOM     27  C   UNL A   1      36.134  21.951  24.753  1.00  0.00     0.126 A 
ATOM     28  F   UNL A   1      37.168  21.834  23.911  1.00  0.00    -0.207 F 
ENDBRANCH  19  21
ENDBRANCH  16  19
ENDBRANCH  11  16
ENDBRANCH   7   8
ENDBRANCH   3   6
ENDBRANCH   1   2
BRANCH   1  29
ATOM     29  C   UNL A   1      31.847  30.474  26.831  1.00  0.00     0.023 C 
BRANCH  29  30
ATOM     30  C   UNL A   1      31.592  31.983  26.896  1.00  0.00     0.023 C 
BRANCH  30  31
ATOM     31  C   UNL A   1      32.798  32.822  27.303  1.00  0.00     0.116 C 
BRANCH  31  32
ATOM     32  N   UNL A   1      32.454  34.193  27.647  1.00  0.00    -0.352 N 
ATOM     33  C   UNL A   1      33.012  35.006  28.606  1.00  0.00     0.251 C 
ATOM     34  H   UNL A   1      31.725  34.593  27.120  1.00  0.00     0.163 HD
ATOM     35  O   UNL A   1      32.538  36.102  28.849  1.00  0.00    -0.269 OA
BRANCH  33  36
ATOM     36  C   UNL A   1      34.174  34.510  29.372  1.00  0.00     0.039 A 
ATOM     37  C   UNL A   1      33.951  33.905  30.611  1.00  0.00     0.014 A 
ATOM     38  C   UNL A   1      35.466  34.611  28.852  1.00  0.00     0.014 A 
ATOM     39  C   UNL A   1      35.024  33.340  31.301  1.00  0.00     0.010 A 
ATOM     40  C   UNL A   1      36.522  33.987  29.506  1.00  0.00     0.010 A 
ATOM     41  C   UNL A   1      36.310  33.345  30.737  1.00  0.00    -0.014 A 
BRANCH  41  42
ATOM     42  C   UNL A   1      37.449  32.681  31.417  1.00  0.00     0.031 A 
ATOM     43  C   UNL A   1      38.142  31.521  30.762  1.00  0.00     0.074 A 
ATOM     44  C   UNL A   1      37.811  33.081  32.651  1.00  0.00     0.049 A 
ATOM     45  N   UNL A   1      39.111  30.769  31.220  1.00  0.00    -0.248 NA
ATOM     46  C   UNL A   1      37.663  31.135  29.426  1.00  0.00     0.031 C 
ATOM     47  C   UNL A   1      37.179  34.161  33.409  1.00  0.00     0.029 A 
ATOM     48  N   UNL A   1      38.793  32.616  33.489  1.00  0.00    -0.354 N 
ATOM     49  C   UNL A   1      39.344  29.816  30.238  1.00  0.00     0.074 A 
ATOM     50  C   UNL A   1      38.381  30.048  29.184  1.00  0.00     0.031 C 
ATOM     51  C   UNL A   1      37.804  34.293  34.590  1.00  0.00     0.029 A 
ATOM     52  C   UNL A   1      38.855  33.284  34.687  1.00  0.00     0.049 A 
ATOM     53  H   UNL A   1      39.397  31.874  33.254  1.00  0.00     0.167 HD
ATOM     54  C   UNL A   1      40.294  28.851  30.208  1.00  0.00     0.037 A 
ATOM     55  C   UNL A   1      39.666  33.098  35.746  1.00  0.00     0.037 A 
ATOM     56  C   UNL A   1      41.266  28.642  31.248  1.00  0.00     0.049 A 
ATOM     57  C   UNL A   1      40.709  32.016  35.689  1.00  0.00     0.074 A 
ATOM     58  C   UNL A   1      42.312  27.736  31.282  1.00  0.00     0.029 A 
ATOM     59  N   UNL A   1      41.308  29.348  32.442  1.00  0.00    -0.354 N 
ATOM     60  N   UNL A   1      40.972  31.169  34.723  1.00  0.00    -0.248 NA
ATOM     61  C   UNL A   1      41.573  31.868  36.868  1.00  0.00     0.031 C 
ATOM     62  C   UNL A   1      42.956  27.860  32.518  1.00  0.00     0.029 A 
ATOM     63  C   UNL A   1      42.346  28.880  33.232  1.00  0.00     0.049 A 
ATOM     64  H   UNL A   1      40.691  30.073  32.691  1.00  0.00     0.167 HD
ATOM     65  C   UNL A   1      42.045  30.407  35.164  1.00  0.00     0.074 A 
ATOM     66  C   UNL A   1      42.396  30.903  36.479  1.00  0.00     0.031 C 
ATOM     67  C   UNL A   1      42.683  29.388  34.537  1.00  0.00     0.037 A 
BRANCH  54  68
ATOM     68  C   UNL A   1      40.325  27.949  29.007  1.00  0.00     0.064 A 
ATOM     69  C   UNL A   1      41.073  28.269  27.864  1.00  0.00     0.173 A 
ATOM     70  C   UNL A   1      39.618  26.736  29.009  1.00  0.00     0.173 A 
ATOM     71  F   UNL A   1      41.757  29.422  27.806  1.00  0.00    -0.203 F 
ATOM     72  C   UNL A   1      41.085  27.427  26.755  1.00  0.00     0.198 A 
ATOM     73  C   UNL A   1      39.658  25.881  27.910  1.00  0.00     0.198 A 
ATOM     74  F   UNL A   1      38.892  26.378  30.078  1.00  0.00    -0.203 F 
ATOM     75  F   UNL A   1      41.761  27.782  25.654  1.00  0.00    -0.200 F 
ATOM     76  C   UNL A   1      40.383  26.232  26.782  1.00  0.00     0.200 A 
ATOM     77  F   UNL A   1      38.991  24.720  27.942  1.00  0.00    -0.200 F 
ATOM     78  F   UNL A   1      40.400  25.421  25.716  1.00  0.00    -0.200 F 
ENDBRANCH  54  68
BRANCH  55  79
ATOM     79  C   UNL A   1      39.541  33.975  36.939  1.00  0.00     0.064 A 
ATOM     80  C   UNL A   1      38.791  33.570  38.053  1.00  0.00     0.173 A 
ATOM     81  C   UNL A   1      40.162  35.231  36.993  1.00  0.00     0.173 A 
ATOM     82  F   UNL A   1      38.161  32.386  38.039  1.00  0.00    -0.203 F 
ATOM     83  C   UNL A   1      38.652  34.395  39.167  1.00  0.00     0.198 A 
ATOM     84  C   UNL A   1      40.046  36.044  38.120  1.00  0.00     0.198 A 
ATOM     85  F   UNL A   1      40.894  35.663  35.956  1.00  0.00    -0.203 F 
ATOM     86  F   UNL A   1      37.893  34.002  40.198  1.00  0.00    -0.200 F 
ATOM     87  C   UNL A   1      39.284  35.629  39.202  1.00  0.00     0.200 A 
ATOM     88  F   UNL A   1      40.669  37.229  38.155  1.00  0.00    -0.200 F 
ATOM     89  F   UNL A   1      39.154  36.421  40.275  1.00  0.00    -0.200 F 
ENDBRANCH  55  79
BRANCH  67  90
ATOM     90  C   UNL A   1      43.844  28.760  35.253  1.00  0.00     0.064 A 
ATOM     91  C   UNL A   1      45.154  29.233  35.086  1.00  0.00     0.173 A 
ATOM     92  C   UNL A   1      43.637  27.699  36.146  1.00  0.00     0.173 A 
ATOM     93  F   UNL A   1      45.407  30.235  34.231  1.00  0.00    -0.203 F 
ATOM     94  C   UNL A   1      46.217  28.649  35.771  1.00  0.00     0.198 A 
ATOM     95  C   UNL A   1      44.697  27.138  36.851  1.00  0.00     0.198 A 
ATOM     96  F   UNL A   1      42.401  27.215  36.346  1.00  0.00    -0.203 F 
ATOM     97  F   UNL A   1      47.467  29.085  35.560  1.00  0.00    -0.200 F 
ATOM     98  C   UNL A   1      45.987  27.608  36.658  1.00  0.00     0.200 A 
ATOM     99  F   UNL A   1      44.471  26.142  37.720  1.00  0.00    -0.200 F 
ATOM    100  F   UNL A   1      47.010  27.053  37.321  1.00  0.00    -0.200 F 
ENDBRANCH  67  90
ENDBRANCH  41  42
ENDBRANCH  33  36
ENDBRANCH  31  32
ENDBRANCH  30  31
ENDBRANCH  29  30
ENDBRANCH   1  29
TORSDOF 16
ENDMDL
MODEL 2
REMARK VINA RESULT:     -12.8      0.527      7.178
REMARK SMILES COc1ccc(/C=C/C(=O)NCCCCNC(=O)c2ccc(-c3c4nc(c(-c5c(F)c(F)c(F)c(F)c5F)c5ccc([nH]5)c(-c5c(F)c(F)c(F)c(F)c5F)c5nc(c(-c6c(F)c(F)c(F)c(F)c6F)c6ccc3[nH]6)C=C5)C=C4)cc2)cc1S(=O)(=O)Nc1ccc(F)cc1F
REMARK SMILES IDX 12 1 11 2 9 3 10 4 8 6 7 7 6 8 3 9 4 10 83 11 5 12 82 13
REMARK SMILES IDX 2 14 1 15 84 16 85 17 86 18 87 19 88 21 89 22 94 23 90 24
REMARK SMILES IDX 93 25 95 26 91 27 92 28 13 29 14 30 15 31 16 32 17 33 18 35
REMARK SMILES IDX 19 36 20 37 81 38 21 39 80 40 22 41 23 42 24 43 74 44 25 45
REMARK SMILES IDX 79 46 73 47 75 48 26 49 78 50 72 51 71 52 27 54 59 55 39 56
REMARK SMILES IDX 58 57 40 58 43 59 57 60 76 61 41 62 42 63 56 65 77 66 44 67
REMARK SMILES IDX 28 68 29 69 37 70 30 71 31 72 35 73 38 74 32 75 33 76 36 77
REMARK SMILES IDX 34 78 60 79 61 80 69 81 62 82 63 83 67 84 70 85 64 86 65 87
REMARK SMILES IDX 68 88 66 89 45 90 46 91 54 92 47 93 48 94 52 95 55 96 49 97
REMARK SMILES IDX 50 98 53 99 51 100
REMARK H PARENT 11 5 87 20 16 34 75 53 43 64
REMARK Flexibility Score: inf
ROOT
ATOM      1  C   UNL A   1      31.878  29.915  25.357  1.00  0.00     0.116 C 
ENDROOT
BRANCH   1   2
ATOM      2  N   UNL A   1      30.745  30.114  24.475  1.00  0.00    -0.353 N 
ATOM      3  C   UNL A   1      30.087  29.229  23.682  1.00  0.00     0.243 C 
ATOM      4  O   UNL A   1      29.129  29.601  23.010  1.00  0.00    -0.270 OA
ATOM      5  H   UNL A   1      30.396  31.034  24.448  1.00  0.00     0.163 HD
BRANCH   3   6
ATOM      6  C   UNL A   1      30.419  27.791  23.740  1.00  0.00     0.072 C 
ATOM      7  C   UNL A   1      31.327  27.145  22.990  1.00  0.00     0.014 C 
BRANCH   7   8
ATOM      8  C   UNL A   1      31.652  25.730  23.231  1.00  0.00    -0.024 A 
ATOM      9  C   UNL A   1      31.890  22.950  23.583  1.00  0.00     0.139 A 
ATOM     10  C   UNL A   1      32.376  23.563  22.425  1.00  0.00     0.048 A 
ATOM     11  C   UNL A   1      31.468  23.739  24.648  1.00  0.00     0.130 A 
ATOM     12  C   UNL A   1      32.274  24.943  22.258  1.00  0.00     0.012 A 
ATOM     13  C   UNL A   1      31.312  25.129  24.450  1.00  0.00     0.034 A 
BRANCH   9  14
ATOM     14  O   UNL A   1      31.949  21.590  23.580  1.00  0.00    -0.495 OA
ATOM     15  C   UNL A   1      31.991  21.066  22.255  1.00  0.00     0.278 C 
ENDBRANCH   9  14
BRANCH  11  16
ATOM     16  S   UNL A   1      31.187  23.175  26.310  1.00  0.00     0.265 S 
ATOM     17  O   UNL A   1      30.941  24.347  27.126  1.00  0.00    -0.201 OA
ATOM     18  O   UNL A   1      30.166  22.150  26.199  1.00  0.00    -0.201 OA
BRANCH  16  19
ATOM     19  N   UNL A   1      32.507  22.372  26.960  1.00  0.00    -0.277 N 
ATOM     20  H   UNL A   1      32.374  21.900  27.813  1.00  0.00     0.180 HD
BRANCH  19  21
ATOM     21  C   UNL A   1      33.805  22.319  26.375  1.00  0.00     0.085 A 
ATOM     22  C   UNL A   1      34.247  21.044  25.987  1.00  0.00     0.033 A 
ATOM     23  C   UNL A   1      34.600  23.432  26.072  1.00  0.00     0.150 A 
ATOM     24  C   UNL A   1      35.373  20.907  25.175  1.00  0.00     0.041 A 
ATOM     25  C   UNL A   1      35.725  23.300  25.263  1.00  0.00     0.080 A 
ATOM     26  F   UNL A   1      34.242  24.662  26.460  1.00  0.00    -0.205 F 
ATOM     27  C   UNL A   1      36.082  22.041  24.796  1.00  0.00     0.126 A 
ATOM     28  F   UNL A   1      37.114  21.915  23.953  1.00  0.00    -0.207 F 
ENDBRANCH  19  21
ENDBRANCH  16  19
ENDBRANCH  11  16
ENDBRANCH   7   8
ENDBRANCH   3   6
ENDBRANCH   1   2
BRANCH   1  29
ATOM     29  C   UNL A   1      31.601  30.547  26.720  1.00  0.00     0.023 C 
BRANCH  29  30
ATOM     30  C   UNL A   1      31.497  32.075  26.687  1.00  0.00     0.023 C 
BRANCH  30  31
ATOM     31  C   UNL A   1      32.719  32.814  27.221  1.00  0.00     0.116 C 
BRANCH  31  32
ATOM     32  N   UNL A   1      32.428  34.177  27.639  1.00  0.00    -0.352 N 
ATOM     33  C   UNL A   1      33.033  34.923  28.624  1.00  0.00     0.251 C 
ATOM     34  H   UNL A   1      31.700  34.626  27.151  1.00  0.00     0.163 HD
ATOM     35  O   UNL A   1      32.601  36.020  28.931  1.00  0.00    -0.269 OA
BRANCH  33  36
ATOM     36  C   UNL A   1      34.196  34.353  29.336  1.00  0.00     0.039 A 
ATOM     37  C   UNL A   1      33.972  33.611  30.497  1.00  0.00     0.014 A 
ATOM     38  C   UNL A   1      35.490  34.522  28.839  1.00  0.00     0.014 A 
ATOM     39  C   UNL A   1      35.046  32.980  31.126  1.00  0.00     0.010 A 
ATOM     40  C   UNL A   1      36.547  33.837  29.425  1.00  0.00     0.010 A 
ATOM     41  C   UNL A   1      36.335  33.059  30.574  1.00  0.00    -0.014 A 
BRANCH  41  42
ATOM     42  C   UNL A   1      37.475  32.331  31.181  1.00  0.00     0.031 A 
ATOM     43  C   UNL A   1      37.964  32.707  32.551  1.00  0.00     0.074 A 
ATOM     44  C   UNL A   1      38.110  31.378  30.471  1.00  0.00     0.049 A 
ATOM     45  N   UNL A   1      38.982  32.236  33.225  1.00  0.00    -0.248 NA
ATOM     46  C   UNL A   1      37.228  33.776  33.243  1.00  0.00     0.031 C 
ATOM     47  C   UNL A   1      37.760  30.962  29.113  1.00  0.00     0.029 A 
ATOM     48  N   UNL A   1      39.191  30.596  30.791  1.00  0.00    -0.354 N 
ATOM     49  C   UNL A   1      39.017  32.961  34.408  1.00  0.00     0.074 A 
ATOM     50  C   UNL A   1      37.954  33.939  34.338  1.00  0.00     0.031 C 
ATOM     51  C   UNL A   1      38.593  29.984  28.724  1.00  0.00     0.029 A 
ATOM     52  C   UNL A   1      39.558  29.730  29.790  1.00  0.00     0.049 A 
ATOM     53  H   UNL A   1      39.659  30.649  31.656  1.00  0.00     0.167 HD
ATOM     54  C   UNL A   1      39.845  32.805  35.469  1.00  0.00     0.037 A 
ATOM     55  C   UNL A   1      40.565  28.838  29.738  1.00  0.00     0.037 A 
ATOM     56  C   UNL A   1      40.884  31.812  35.543  1.00  0.00     0.049 A 
ATOM     57  C   UNL A   1      41.474  28.688  30.927  1.00  0.00     0.074 A 
ATOM     58  C   UNL A   1      41.733  31.528  36.599  1.00  0.00     0.029 A 
ATOM     59  N   UNL A   1      41.218  30.942  34.515  1.00  0.00    -0.354 N 
ATOM     60  N   UNL A   1      41.450  29.325  32.073  1.00  0.00    -0.248 NA
ATOM     61  C   UNL A   1      42.546  27.689  30.818  1.00  0.00     0.031 C 
ATOM     62  C   UNL A   1      42.613  30.519  36.192  1.00  0.00     0.029 A 
ATOM     63  C   UNL A   1      42.279  30.137  34.902  1.00  0.00     0.049 A 
ATOM     64  H   UNL A   1      40.769  30.903  33.640  1.00  0.00     0.167 HD
ATOM     65  C   UNL A   1      42.483  28.789  32.829  1.00  0.00     0.074 A 
ATOM     66  C   UNL A   1      43.104  27.761  32.019  1.00  0.00     0.031 C 
ATOM     67  C   UNL A   1      42.882  29.117  34.083  1.00  0.00     0.037 A 
BRANCH  54  68
ATOM     68  C   UNL A   1      39.657  33.732  36.635  1.00  0.00     0.064 A 
ATOM     69  C   UNL A   1      38.851  33.386  37.730  1.00  0.00     0.173 A 
ATOM     70  C   UNL A   1      40.312  34.974  36.671  1.00  0.00     0.173 A 
ATOM     71  F   UNL A   1      38.194  32.216  37.740  1.00  0.00    -0.203 F 
ATOM     72  C   UNL A   1      38.679  34.260  38.800  1.00  0.00     0.198 A 
ATOM     73  C   UNL A   1      40.162  35.832  37.757  1.00  0.00     0.198 A 
ATOM     74  F   UNL A   1      41.099  35.353  35.653  1.00  0.00    -0.203 F 
ATOM     75  F   UNL A   1      37.859  33.929  39.807  1.00  0.00    -0.200 F 
ATOM     76  C   UNL A   1      39.340  35.478  38.816  1.00  0.00     0.200 A 
ATOM     77  F   UNL A   1      40.812  37.004  37.778  1.00  0.00    -0.200 F 
ATOM     78  F   UNL A   1      39.177  36.316  39.848  1.00  0.00    -0.200 F 
ENDBRANCH  54  68
BRANCH  55  79
ATOM     79  C   UNL A   1      40.748  27.996  28.526  1.00  0.00     0.064 A 
ATOM     80  C   UNL A   1      41.529  28.445  27.452  1.00  0.00     0.173 A 
ATOM     81  C   UNL A   1      40.150  26.733  28.414  1.00  0.00     0.173 A 
ATOM     82  F   UNL A   1      42.105  29.656  27.504  1.00  0.00    -0.203 F 
ATOM     83  C   UNL A   1      41.690  27.672  26.305  1.00  0.00     0.198 A 
ATOM     84  C   UNL A   1      40.334  25.948  27.278  1.00  0.00     0.198 A 
ATOM     85  F   UNL A   1      39.397  26.256  29.416  1.00  0.00    -0.203 F 
ATOM     86  F   UNL A   1      42.404  28.145  25.275  1.00  0.00    -0.200 F 
ATOM     87  C   UNL A   1      41.097  26.421  26.220  1.00  0.00     0.200 A 
ATOM     88  F   UNL A   1      39.771  24.734  27.206  1.00  0.00    -0.200 F 
ATOM     89  F   UNL A   1      41.254  25.675  25.119  1.00  0.00    -0.200 F 
ENDBRANCH  55  79
BRANCH  67  90
ATOM     90  C   UNL A   1      44.025  28.339  34.667  1.00  0.00     0.064 A 
ATOM     91  C   UNL A   1      45.348  28.798  34.581  1.00  0.00     0.173 A 
ATOM     92  C   UNL A   1      43.789  27.139  35.354  1.00  0.00     0.173 A 
ATOM     93  F   UNL A   1      45.628  29.931  33.920  1.00  0.00    -0.203 F 
ATOM     94  C   UNL A   1      46.394  28.071  35.143  1.00  0.00     0.198 A 
ATOM     95  C   UNL A   1      44.833  26.432  35.941  1.00  0.00     0.198 A 
ATOM     96  F   UNL A   1      42.541  26.660  35.470  1.00  0.00    -0.203 F 
ATOM     97  F   UNL A   1      47.656  28.503  35.007  1.00  0.00    -0.200 F 
ATOM     98  C   UNL A   1      46.136  26.894  35.828  1.00  0.00     0.200 A 
ATOM     99  F   UNL A   1      44.581  25.301  36.616  1.00  0.00    -0.200 F 
ATOM    100  F   UNL A   1      47.144  26.200  36.374  1.00  0.00    -0.200 F 
ENDBRANCH  67  90
ENDBRANCH  41  42
ENDBRANCH  33  36
ENDBRANCH  31  32
ENDBRANCH  30  31
ENDBRANCH  29  30
ENDBRANCH   1  29
TORSDOF 16
ENDMDL
MODEL 3
REMARK VINA RESULT:     -12.8      2.119      7.782
REMARK SMILES COc1ccc(/C=C/C(=O)NCCCCNC(=O)c2ccc(-c3c4nc(c(-c5c(F)c(F)c(F)c(F)c5F)c5ccc([nH]5)c(-c5c(F)c(F)c(F)c(F)c5F)c5nc(c(-c6c(F)c(F)c(F)c(F)c6F)c6ccc3[nH]6)C=C5)C=C4)cc2)cc1S(=O)(=O)Nc1ccc(F)cc1F
REMARK SMILES IDX 12 1 11 2 9 3 10 4 8 6 7 7 6 8 3 9 4 10 83 11 5 12 82 13
REMARK SMILES IDX 2 14 1 15 84 16 85 17 86 18 87 19 88 21 89 22 94 23 90 24
REMARK SMILES IDX 93 25 95 26 91 27 92 28 13 29 14 30 15 31 16 32 17 33 18 35
REMARK SMILES IDX 19 36 20 37 81 38 21 39 80 40 22 41 23 42 24 43 74 44 25 45
REMARK SMILES IDX 79 46 73 47 75 48 26 49 78 50 72 51 71 52 27 54 59 55 39 56
REMARK SMILES IDX 58 57 40 58 43 59 57 60 76 61 41 62 42 63 56 65 77 66 44 67
REMARK SMILES IDX 28 68 29 69 37 70 30 71 31 72 35 73 38 74 32 75 33 76 36 77
REMARK SMILES IDX 34 78 60 79 61 80 69 81 62 82 63 83 67 84 70 85 64 86 65 87
REMARK SMILES IDX 68 88 66 89 45 90 46 91 54 92 47 93 48 94 52 95 55 96 49 97
REMARK SMILES IDX 50 98 53 99 51 100
REMARK H PARENT 11 5 87 20 16 34 75 53 43 64
REMARK Flexibility Score: inf
ROOT
ATOM      1  C   UNL A   1      34.170  32.098  28.012  1.00  0.00     0.116 C 
ENDROOT
BRANCH   1   2
ATOM      2  N   UNL A   1      35.358  31.275  28.129  1.00  0.00    -0.353 N 
ATOM      3  C   UNL A   1      35.537  29.954  27.869  1.00  0.00     0.243 C 
ATOM      4  O   UNL A   1      36.643  29.442  28.023  1.00  0.00    -0.270 OA
ATOM      5  H   UNL A   1      36.162  31.748  28.445  1.00  0.00     0.163 HD
BRANCH   3   6
ATOM      6  C   UNL A   1      34.450  29.165  27.254  1.00  0.00     0.072 C 
ATOM      7  C   UNL A   1      34.437  28.646  26.014  1.00  0.00     0.014 C 
BRANCH   7   8
ATOM      8  C   UNL A   1      33.343  27.771  25.562  1.00  0.00    -0.024 A 
ATOM      9  C   UNL A   1      31.491  25.794  24.811  1.00  0.00     0.139 A 
ATOM     10  C   UNL A   1      31.346  26.479  26.020  1.00  0.00     0.048 A 
ATOM     11  C   UNL A   1      32.437  26.228  23.888  1.00  0.00     0.130 A 
ATOM     12  C   UNL A   1      32.254  27.471  26.384  1.00  0.00     0.012 A 
ATOM     13  C   UNL A   1      33.389  27.192  24.287  1.00  0.00     0.034 A 
BRANCH   9  14
ATOM     14  O   UNL A   1      30.607  24.776  24.620  1.00  0.00    -0.495 OA
ATOM     15  C   UNL A   1      30.608  23.863  25.714  1.00  0.00     0.278 C 
ENDBRANCH   9  14
BRANCH  11  16
ATOM     16  S   UNL A   1      32.514  25.750  22.178  1.00  0.00     0.265 S 
ATOM     17  O   UNL A   1      31.292  26.209  21.548  1.00  0.00    -0.201 OA
ATOM     18  O   UNL A   1      33.795  26.238  21.702  1.00  0.00    -0.201 OA
BRANCH  16  19
ATOM     19  N   UNL A   1      32.601  24.090  21.967  1.00  0.00    -0.277 N 
ATOM     20  H   UNL A   1      32.308  23.728  21.100  1.00  0.00     0.180 HD
BRANCH  19  21
ATOM     21  C   UNL A   1      33.067  23.161  22.942  1.00  0.00     0.085 A 
ATOM     22  C   UNL A   1      32.239  22.050  23.170  1.00  0.00     0.033 A 
ATOM     23  C   UNL A   1      34.307  23.225  23.590  1.00  0.00     0.150 A 
ATOM     24  C   UNL A   1      32.714  20.957  23.896  1.00  0.00     0.041 A 
ATOM     25  C   UNL A   1      34.784  22.138  24.317  1.00  0.00     0.080 A 
ATOM     26  F   UNL A   1      35.111  24.286  23.439  1.00  0.00    -0.205 F 
ATOM     27  C   UNL A   1      33.994  21.002  24.435  1.00  0.00     0.126 A 
ATOM     28  F   UNL A   1      34.476  19.923  25.065  1.00  0.00    -0.207 F 
ENDBRANCH  19  21
ENDBRANCH  16  19
ENDBRANCH  11  16
ENDBRANCH   7   8
ENDBRANCH   3   6
ENDBRANCH   1   2
BRANCH   1  29
ATOM     29  C   UNL A   1      34.202  33.218  29.051  1.00  0.00     0.023 C 
BRANCH  29  30
ATOM     30  C   UNL A   1      33.253  34.380  28.740  1.00  0.00     0.023 C 
BRANCH  30  31
ATOM     31  C   UNL A   1      33.559  35.676  29.481  1.00  0.00     0.116 C 
BRANCH  31  32
ATOM     32  N   UNL A   1      32.595  35.982  30.526  1.00  0.00    -0.352 N 
ATOM     33  C   UNL A   1      32.643  35.662  31.862  1.00  0.00     0.251 C 
ATOM     34  H   UNL A   1      31.800  36.488  30.237  1.00  0.00     0.163 HD
ATOM     35  O   UNL A   1      31.697  35.896  32.596  1.00  0.00    -0.269 OA
BRANCH  33  36
ATOM     36  C   UNL A   1      33.847  34.988  32.391  1.00  0.00     0.039 A 
ATOM     37  C   UNL A   1      33.730  33.676  32.856  1.00  0.00     0.014 A 
ATOM     38  C   UNL A   1      35.084  35.635  32.392  1.00  0.00     0.014 A 
ATOM     39  C   UNL A   1      34.874  32.988  33.263  1.00  0.00     0.010 A 
ATOM     40  C   UNL A   1      36.231  34.927  32.731  1.00  0.00     0.010 A 
ATOM     41  C   UNL A   1      36.136  33.596  33.169  1.00  0.00    -0.014 A 
BRANCH  41  42
ATOM     42  C   UNL A   1      37.372  32.856  33.520  1.00  0.00     0.031 A 
ATOM     43  C   UNL A   1      38.092  33.161  34.802  1.00  0.00     0.074 A 
ATOM     44  C   UNL A   1      37.879  31.959  32.653  1.00  0.00     0.049 A 
ATOM     45  N   UNL A   1      39.218  32.671  35.257  1.00  0.00    -0.248 NA
ATOM     46  C   UNL A   1      37.482  34.173  35.677  1.00  0.00     0.031 C 
ATOM     47  C   UNL A   1      37.297  31.615  31.355  1.00  0.00     0.029 A 
ATOM     48  N   UNL A   1      39.006  31.180  32.729  1.00  0.00    -0.354 N 
ATOM     49  C   UNL A   1      39.455  33.326  36.458  1.00  0.00     0.074 A 
ATOM     50  C   UNL A   1      38.388  34.286  36.635  1.00  0.00     0.031 C 
ATOM     51  C   UNL A   1      38.058  30.678  30.767  1.00  0.00     0.029 A 
ATOM     52  C   UNL A   1      39.198  30.381  31.628  1.00  0.00     0.049 A 
ATOM     53  H   UNL A   1      39.619  31.191  33.499  1.00  0.00     0.167 HD
ATOM     54  C   UNL A   1      40.459  33.124  37.344  1.00  0.00     0.037 A 
ATOM     55  C   UNL A   1      40.187  29.512  31.346  1.00  0.00     0.037 A 
ATOM     56  C   UNL A   1      41.503  32.149  37.174  1.00  0.00     0.049 A 
ATOM     57  C   UNL A   1      41.293  29.311  32.345  1.00  0.00     0.074 A 
ATOM     58  C   UNL A   1      42.528  31.820  38.044  1.00  0.00     0.029 A 
ATOM     59  N   UNL A   1      41.658  31.347  36.052  1.00  0.00    -0.354 N 
ATOM     60  N   UNL A   1      41.467  29.879  33.513  1.00  0.00    -0.248 NA
ATOM     61  C   UNL A   1      42.337  28.341  31.988  1.00  0.00     0.031 C 
ATOM     62  C   UNL A   1      43.331  30.854  37.428  1.00  0.00     0.029 A 
ATOM     63  C   UNL A   1      42.777  30.541  36.196  1.00  0.00     0.049 A 
ATOM     64  H   UNL A   1      41.061  31.350  35.269  1.00  0.00     0.167 HD
ATOM     65  C   UNL A   1      42.622  29.320  34.042  1.00  0.00     0.074 A 
ATOM     66  C   UNL A   1      43.098  28.353  33.074  1.00  0.00     0.031 C 
ATOM     67  C   UNL A   1      43.234  29.582  35.224  1.00  0.00     0.037 A 
BRANCH  54  68
ATOM     68  C   UNL A   1      40.473  33.979  38.579  1.00  0.00     0.064 A 
ATOM     69  C   UNL A   1      39.788  33.601  39.744  1.00  0.00     0.173 A 
ATOM     70  C   UNL A   1      41.202  35.178  38.608  1.00  0.00     0.173 A 
ATOM     71  F   UNL A   1      39.066  32.470  39.766  1.00  0.00    -0.203 F 
ATOM     72  C   UNL A   1      39.802  34.408  40.879  1.00  0.00     0.198 A 
ATOM     73  C   UNL A   1      41.240  35.966  39.755  1.00  0.00     0.198 A 
ATOM     74  F   UNL A   1      41.880  35.584  37.524  1.00  0.00    -0.203 F 
ATOM     75  F   UNL A   1      39.093  34.054  41.959  1.00  0.00    -0.200 F 
ATOM     76  C   UNL A   1      40.533  35.586  40.885  1.00  0.00     0.200 A 
ATOM     77  F   UNL A   1      41.958  37.098  39.765  1.00  0.00    -0.200 F 
ATOM     78  F   UNL A   1      40.549  36.358  41.980  1.00  0.00    -0.200 F 
ENDBRANCH  54  68
BRANCH  55  79
ATOM     79  C   UNL A   1      40.160  28.746  30.072  1.00  0.00     0.064 A 
ATOM     80  C   UNL A   1      40.758  29.260  28.913  1.00  0.00     0.173 A 
ATOM     81  C   UNL A   1      39.539  27.492  29.984  1.00  0.00     0.173 A 
ATOM     82  F   UNL A   1      41.346  30.466  28.942  1.00  0.00    -0.203 F 
ATOM     83  C   UNL A   1      40.720  28.558  27.710  1.00  0.00     0.198 A 
ATOM     84  C   UNL A   1      39.526  26.778  28.788  1.00  0.00     0.198 A 
ATOM     85  F   UNL A   1      38.956  26.954  31.066  1.00  0.00    -0.203 F 
ATOM     86  F   UNL A   1      41.259  29.093  26.607  1.00  0.00    -0.200 F 
ATOM     87  C   UNL A   1      40.108  27.315  27.649  1.00  0.00     0.200 A 
ATOM     88  F   UNL A   1      38.946  25.571  28.737  1.00  0.00    -0.200 F 
ATOM     89  F   UNL A   1      40.075  26.637  26.494  1.00  0.00    -0.200 F 
ENDBRANCH  55  79
BRANCH  67  90
ATOM     90  C   UNL A   1      44.469  28.793  35.548  1.00  0.00     0.064 A 
ATOM     91  C   UNL A   1      44.401  27.562  36.218  1.00  0.00     0.173 A 
ATOM     92  C   UNL A   1      45.732  29.255  35.149  1.00  0.00     0.173 A 
ATOM     93  F   UNL A   1      43.219  27.084  36.634  1.00  0.00    -0.203 F 
ATOM     94  C   UNL A   1      45.556  26.835  36.496  1.00  0.00     0.198 A 
ATOM     95  C   UNL A   1      46.880  28.511  35.402  1.00  0.00     0.198 A 
ATOM     96  F   UNL A   1      45.850  30.423  34.500  1.00  0.00    -0.203 F 
ATOM     97  F   UNL A   1      45.472  25.685  37.179  1.00  0.00    -0.200 F 
ATOM     98  C   UNL A   1      46.792  27.306  36.082  1.00  0.00     0.200 A 
ATOM     99  F   UNL A   1      48.073  28.961  34.987  1.00  0.00    -0.200 F 
ATOM    100  F   UNL A   1      47.901  26.601  36.344  1.00  0.00    -0.200 F 
ENDBRANCH  67  90
ENDBRANCH  41  42
ENDBRANCH  33  36
ENDBRANCH  31  32
ENDBRANCH  30  31
ENDBRANCH  29  30
ENDBRANCH   1  29
TORSDOF 16
ENDMDL
