MODEL 1
REMARK VINA RESULT:     -11.0      0.000      0.000
REMARK SMILES O=C(NCCCCNC(=O)c1cc(NC(=O)c2cccc(Cl)c2)ccc1N1CC[NH+](CC(=O)N2CCOCC2)CC1)c1ccc(-c2c3nc(c(-c4c(F)c(F)c(F)c(F)c4F)c4ccc([nH]4)c(-c4c(F)c(F)c(F)c(F)c4F)c4nc(c(-c5c(F)c(F)c(F)c(F)c5F)c5ccc2[nH]5)C=C4)C=C3)cc1
REMARK SMILES IDX 6 1 5 2 4 3 3 4 1 5 2 6 42 8 43 9 104 10 44 11 103 12 45 13
REMARK SMILES IDX 46 14 47 15 97 16 48 17 102 18 96 19 98 20 49 21 101 22
REMARK SMILES IDX 95 23 94 24 50 26 82 27 62 28 81 29 63 30 66 31 80 32 99 33
REMARK SMILES IDX 64 34 65 35 79 37 100 38 67 39 51 40 52 41 60 42 53 43 54 44
REMARK SMILES IDX 58 45 61 46 55 47 56 48 59 49 57 50 83 51 84 52 92 53 85 54
REMARK SMILES IDX 86 55 90 56 93 57 87 58 88 59 91 60 89 61 68 62 69 63 77 64
REMARK SMILES IDX 70 65 71 66 75 67 78 68 72 69 73 70 76 71 74 72 7 73 8 74
REMARK SMILES IDX 9 75 10 77 11 78 12 79 26 80 13 81 25 82 24 83 27 84 28 85
REMARK SMILES IDX 41 86 29 87 40 88 30 89 31 91 32 92 33 93 34 94 35 95 39 96
REMARK SMILES IDX 36 97 38 98 37 99 14 100 15 101 16 103 17 104 18 105 23 106
REMARK SMILES IDX 19 107 21 108 20 109 22 110
REMARK H PARENT 3 7 98 25 66 36 8 76 30 90 14 102
REMARK Flexibility Score: inf
ROOT
ATOM      1  C   UNL A   1      41.239  33.377  31.414  1.00  0.00     0.023 C 
ENDROOT
BRANCH   1   2
ATOM      2  C   UNL A   1      40.563  34.582  30.755  1.00  0.00     0.023 C 
BRANCH   2   3
ATOM      3  C   UNL A   1      40.402  34.562  29.239  1.00  0.00     0.116 C 
BRANCH   3   4
ATOM      4  N   UNL A   1      40.715  35.817  28.579  1.00  0.00    -0.352 N 
ATOM      5  O   UNL A   1      41.936  37.272  27.347  1.00  0.00    -0.269 OA
ATOM      6  C   UNL A   1      41.806  36.144  27.801  1.00  0.00     0.251 C 
ATOM      7  H   UNL A   1      40.055  36.537  28.704  1.00  0.00     0.163 HD
BRANCH   6   8
ATOM      8  C   UNL A   1      42.858  35.129  27.567  1.00  0.00     0.039 A 
ATOM      9  C   UNL A   1      43.591  34.598  28.630  1.00  0.00     0.014 A 
ATOM     10  C   UNL A   1      43.141  34.749  26.253  1.00  0.00     0.014 A 
ATOM     11  C   UNL A   1      44.712  33.813  28.366  1.00  0.00     0.010 A 
ATOM     12  C   UNL A   1      44.228  33.908  25.995  1.00  0.00     0.010 A 
ATOM     13  C   UNL A   1      45.054  33.478  27.045  1.00  0.00    -0.014 A 
BRANCH  13  14
ATOM     14  C   UNL A   1      46.279  32.682  26.773  1.00  0.00     0.031 A 
ATOM     15  C   UNL A   1      47.604  33.358  26.549  1.00  0.00     0.074 A 
ATOM     16  C   UNL A   1      46.199  31.339  26.747  1.00  0.00     0.049 A 
ATOM     17  N   UNL A   1      48.776  32.824  26.297  1.00  0.00    -0.248 NA
ATOM     18  C   UNL A   1      47.620  34.827  26.607  1.00  0.00     0.031 C 
ATOM     19  C   UNL A   1      44.973  30.567  26.946  1.00  0.00     0.029 A 
ATOM     20  N   UNL A   1      47.167  30.387  26.550  1.00  0.00    -0.354 N 
ATOM     21  C   UNL A   1      49.657  33.887  26.149  1.00  0.00     0.074 A 
ATOM     22  C   UNL A   1      48.885  35.099  26.314  1.00  0.00     0.031 C 
ATOM     23  C   UNL A   1      45.266  29.259  26.889  1.00  0.00     0.029 A 
ATOM     24  C   UNL A   1      46.689  29.101  26.602  1.00  0.00     0.049 A 
ATOM     25  H   UNL A   1      48.113  30.604  26.386  1.00  0.00     0.167 HD
ATOM     26  C   UNL A   1      50.991  33.852  25.905  1.00  0.00     0.037 A 
ATOM     27  C   UNL A   1      47.320  27.927  26.424  1.00  0.00     0.037 A 
ATOM     28  C   UNL A   1      51.763  32.644  25.761  1.00  0.00     0.049 A 
ATOM     29  C   UNL A   1      48.793  27.918  26.130  1.00  0.00     0.074 A 
ATOM     30  C   UNL A   1      53.126  32.508  25.563  1.00  0.00     0.029 A 
ATOM     31  N   UNL A   1      51.235  31.361  25.790  1.00  0.00    -0.354 N 
ATOM     32  N   UNL A   1      49.622  28.927  26.030  1.00  0.00    -0.248 NA
ATOM     33  C   UNL A   1      49.417  26.605  25.922  1.00  0.00     0.031 C 
ATOM     34  C   UNL A   1      53.417  31.146  25.428  1.00  0.00     0.029 A 
ATOM     35  C   UNL A   1      52.242  30.430  25.588  1.00  0.00     0.049 A 
ATOM     36  H   UNL A   1      50.287  31.144  25.934  1.00  0.00     0.167 HD
ATOM     37  C   UNL A   1      50.866  28.374  25.762  1.00  0.00     0.074 A 
ATOM     38  C   UNL A   1      50.686  26.937  25.734  1.00  0.00     0.031 C 
ATOM     39  C   UNL A   1      52.049  29.002  25.555  1.00  0.00     0.037 A 
BRANCH  26  40
ATOM     40  C   UNL A   1      51.707  35.166  25.764  1.00  0.00     0.064 A 
ATOM     41  C   UNL A   1      52.089  35.922  26.882  1.00  0.00     0.173 A 
ATOM     42  C   UNL A   1      52.058  35.650  24.494  1.00  0.00     0.173 A 
ATOM     43  F   UNL A   1      51.770  35.509  28.117  1.00  0.00    -0.203 F 
ATOM     44  C   UNL A   1      52.772  37.127  26.732  1.00  0.00     0.198 A 
ATOM     45  C   UNL A   1      52.764  36.840  24.350  1.00  0.00     0.198 A 
ATOM     46  F   UNL A   1      51.724  34.960  23.393  1.00  0.00    -0.203 F 
ATOM     47  F   UNL A   1      53.090  37.854  27.813  1.00  0.00    -0.200 F 
ATOM     48  C   UNL A   1      53.114  37.583  25.467  1.00  0.00     0.200 A 
ATOM     49  F   UNL A   1      53.105  37.273  23.127  1.00  0.00    -0.200 F 
ATOM     50  F   UNL A   1      53.777  38.739  25.326  1.00  0.00    -0.200 F 
ENDBRANCH  26  40
BRANCH  27  51
ATOM     51  C   UNL A   1      46.551  26.662  26.529  1.00  0.00     0.064 A 
ATOM     52  C   UNL A   1      45.885  26.131  25.417  1.00  0.00     0.173 A 
ATOM     53  C   UNL A   1      46.496  25.943  27.732  1.00  0.00     0.173 A 
ATOM     54  F   UNL A   1      45.894  26.795  24.252  1.00  0.00    -0.203 F 
ATOM     55  C   UNL A   1      45.188  24.929  25.506  1.00  0.00     0.198 A 
ATOM     56  C   UNL A   1      45.821  24.728  27.812  1.00  0.00     0.198 A 
ATOM     57  F   UNL A   1      47.122  26.410  28.823  1.00  0.00    -0.203 F 
ATOM     58  F   UNL A   1      44.536  24.455  24.436  1.00  0.00    -0.200 F 
ATOM     59  C   UNL A   1      45.164  24.224  26.700  1.00  0.00     0.200 A 
ATOM     60  F   UNL A   1      45.814  24.043  28.963  1.00  0.00    -0.200 F 
ATOM     61  F   UNL A   1      44.506  23.059  26.780  1.00  0.00    -0.200 F 
ENDBRANCH  27  51
BRANCH  39  62
ATOM     62  C   UNL A   1      53.246  28.135  25.299  1.00  0.00     0.064 A 
ATOM     63  C   UNL A   1      53.695  27.872  23.997  1.00  0.00     0.173 A 
ATOM     64  C   UNL A   1      53.965  27.581  26.368  1.00  0.00     0.173 A 
ATOM     65  F   UNL A   1      53.030  28.365  22.942  1.00  0.00    -0.203 F 
ATOM     66  C   UNL A   1      54.807  27.064  23.773  1.00  0.00     0.198 A 
ATOM     67  C   UNL A   1      55.092  26.795  26.142  1.00  0.00     0.198 A 
ATOM     68  F   UNL A   1      53.579  27.806  27.633  1.00  0.00    -0.203 F 
ATOM     69  F   UNL A   1      55.191  26.787  22.519  1.00  0.00    -0.200 F 
ATOM     70  C   UNL A   1      55.508  26.531  24.845  1.00  0.00     0.200 A 
ATOM     71  F   UNL A   1      55.773  26.288  27.179  1.00  0.00    -0.200 F 
ATOM     72  F   UNL A   1      56.579  25.756  24.629  1.00  0.00    -0.200 F 
ENDBRANCH  39  62
ENDBRANCH  13  14
ENDBRANCH   6   8
ENDBRANCH   3   4
ENDBRANCH   2   3
ENDBRANCH   1   2
BRANCH   1  73
ATOM     73  C   UNL A   1      41.560  32.187  30.514  1.00  0.00     0.116 C 
BRANCH  73  74
ATOM     74  N   UNL A   1      41.430  30.901  31.170  1.00  0.00    -0.352 N 
ATOM     75  C   UNL A   1      40.861  29.748  30.683  1.00  0.00     0.253 C 
ATOM     76  H   UNL A   1      41.794  30.847  32.083  1.00  0.00     0.163 HD
ATOM     77  O   UNL A   1      40.881  28.734  31.380  1.00  0.00    -0.269 OA
BRANCH  75  78
ATOM     78  C   UNL A   1      40.178  29.713  29.357  1.00  0.00     0.065 A 
ATOM     79  C   UNL A   1      41.040  29.480  28.281  1.00  0.00     0.042 A 
ATOM     80  C   UNL A   1      38.802  29.940  29.140  1.00  0.00     0.050 A 
ATOM     81  C   UNL A   1      40.561  29.203  27.010  1.00  0.00     0.042 A 
ATOM     82  C   UNL A   1      38.325  29.703  27.841  1.00  0.00     0.029 A 
ATOM     83  C   UNL A   1      39.189  29.328  26.794  1.00  0.00     0.028 A 
BRANCH  80  84
ATOM     84  N   UNL A   1      37.993  30.485  30.131  1.00  0.00    -0.360 N 
ATOM     85  C   UNL A   1      36.959  29.746  30.883  1.00  0.00     0.178 C 
ATOM     86  C   UNL A   1      37.577  31.862  29.848  1.00  0.00     0.178 C 
ATOM     87  C   UNL A   1      36.465  30.571  32.123  1.00  0.00     0.284 C 
ATOM     88  C   UNL A   1      37.383  32.608  31.166  1.00  0.00     0.284 C 
ATOM     89  N   UNL A   1      36.328  32.043  32.003  1.00  0.00    -0.324 N 
ATOM     90  H   UNL A   1      36.463  32.388  32.954  1.00  0.00     0.348 HD
BRANCH  89  91
ATOM     91  C   UNL A   1      34.984  32.562  31.700  1.00  0.00     0.363 C 
BRANCH  91  92
ATOM     92  C   UNL A   1      34.484  33.718  32.573  1.00  0.00     0.277 C 
ATOM     93  O   UNL A   1      34.565  33.624  33.803  1.00  0.00    -0.268 OA
ATOM     94  N   UNL A   1      33.988  34.879  31.969  1.00  0.00    -0.333 N 
ATOM     95  C   UNL A   1      33.354  34.952  30.641  1.00  0.00     0.148 C 
ATOM     96  C   UNL A   1      33.656  35.994  32.862  1.00  0.00     0.148 C 
ATOM     97  C   UNL A   1      33.278  36.359  30.044  1.00  0.00     0.181 C 
ATOM     98  C   UNL A   1      33.675  37.338  32.136  1.00  0.00     0.181 C 
ATOM     99  O   UNL A   1      32.804  37.313  31.000  1.00  0.00    -0.378 OA
ENDBRANCH  91  92
ENDBRANCH  89  91
ENDBRANCH  80  84
BRANCH  81 100
ATOM    100  N   UNL A   1      41.386  28.809  25.935  1.00  0.00    -0.322 N 
ATOM    101  C   UNL A   1      42.001  27.604  25.644  1.00  0.00     0.255 C 
ATOM    102  H   UNL A   1      41.553  29.518  25.274  1.00  0.00     0.170 HD
ATOM    103  O   UNL A   1      42.825  27.531  24.735  1.00  0.00    -0.269 OA
BRANCH 101 104
ATOM    104  C   UNL A   1      41.669  26.371  26.392  1.00  0.00     0.041 A 
ATOM    105  C   UNL A   1      42.387  26.086  27.561  1.00  0.00     0.014 A 
ATOM    106  C   UNL A   1      40.581  25.577  26.010  1.00  0.00     0.034 A 
ATOM    107  C   UNL A   1      41.954  25.057  28.400  1.00  0.00     0.002 A 
ATOM    108  C   UNL A   1      40.143  24.572  26.871  1.00  0.00     0.041 A 
ATOM    109  C   UNL A   1      40.818  24.317  28.066  1.00  0.00     0.020 A 
ATOM    110  Cl  UNL A   1      38.704  23.704  26.500  1.00  0.00    -0.084 Cl
ENDBRANCH 101 104
ENDBRANCH  81 100
ENDBRANCH  75  78
ENDBRANCH  73  74
ENDBRANCH   1  73
TORSDOF 16
ENDMDL
MODEL 2
REMARK VINA RESULT:     -10.8      0.339      6.838
REMARK SMILES O=C(NCCCCNC(=O)c1cc(NC(=O)c2cccc(Cl)c2)ccc1N1CC[NH+](CC(=O)N2CCOCC2)CC1)c1ccc(-c2c3nc(c(-c4c(F)c(F)c(F)c(F)c4F)c4ccc([nH]4)c(-c4c(F)c(F)c(F)c(F)c4F)c4nc(c(-c5c(F)c(F)c(F)c(F)c5F)c5ccc2[nH]5)C=C4)C=C3)cc1
REMARK SMILES IDX 6 1 5 2 4 3 3 4 1 5 2 6 42 8 43 9 104 10 44 11 103 12 45 13
REMARK SMILES IDX 46 14 47 15 97 16 48 17 102 18 96 19 98 20 49 21 101 22
REMARK SMILES IDX 95 23 94 24 50 26 82 27 62 28 81 29 63 30 66 31 80 32 99 33
REMARK SMILES IDX 64 34 65 35 79 37 100 38 67 39 51 40 52 41 60 42 53 43 54 44
REMARK SMILES IDX 58 45 61 46 55 47 56 48 59 49 57 50 83 51 84 52 92 53 85 54
REMARK SMILES IDX 86 55 90 56 93 57 87 58 88 59 91 60 89 61 68 62 69 63 77 64
REMARK SMILES IDX 70 65 71 66 75 67 78 68 72 69 73 70 76 71 74 72 7 73 8 74
REMARK SMILES IDX 9 75 10 77 11 78 12 79 26 80 13 81 25 82 24 83 27 84 28 85
REMARK SMILES IDX 41 86 29 87 40 88 30 89 31 91 32 92 33 93 34 94 35 95 39 96
REMARK SMILES IDX 36 97 38 98 37 99 14 100 15 101 16 103 17 104 18 105 23 106
REMARK SMILES IDX 19 107 21 108 20 109 22 110
REMARK H PARENT 3 7 98 25 66 36 8 76 30 90 14 102
REMARK Flexibility Score: inf
ROOT
ATOM      1  C   UNL A   1      41.411  33.214  31.589  1.00  0.00     0.023 C 
ENDROOT
BRANCH   1   2
ATOM      2  C   UNL A   1      40.915  34.504  30.930  1.00  0.00     0.023 C 
BRANCH   2   3
ATOM      3  C   UNL A   1      40.664  34.479  29.426  1.00  0.00     0.116 C 
BRANCH   3   4
ATOM      4  N   UNL A   1      40.953  35.727  28.741  1.00  0.00    -0.352 N 
ATOM      5  O   UNL A   1      42.137  37.172  27.464  1.00  0.00    -0.269 OA
ATOM      6  C   UNL A   1      42.025  36.051  27.937  1.00  0.00     0.251 C 
ATOM      7  H   UNL A   1      40.289  36.443  28.869  1.00  0.00     0.163 HD
BRANCH   6   8
ATOM      8  C   UNL A   1      43.081  35.041  27.697  1.00  0.00     0.039 A 
ATOM      9  C   UNL A   1      43.834  34.525  28.754  1.00  0.00     0.014 A 
ATOM     10  C   UNL A   1      43.347  34.650  26.382  1.00  0.00     0.014 A 
ATOM     11  C   UNL A   1      44.956  33.746  28.481  1.00  0.00     0.010 A 
ATOM     12  C   UNL A   1      44.436  33.815  26.116  1.00  0.00     0.010 A 
ATOM     13  C   UNL A   1      45.281  33.400  27.158  1.00  0.00    -0.014 A 
BRANCH  13  14
ATOM     14  C   UNL A   1      46.508  32.610  26.876  1.00  0.00     0.031 A 
ATOM     15  C   UNL A   1      46.455  31.109  26.790  1.00  0.00     0.074 A 
ATOM     16  C   UNL A   1      47.673  33.252  26.678  1.00  0.00     0.049 A 
ATOM     17  N   UNL A   1      47.425  30.257  26.554  1.00  0.00    -0.248 NA
ATOM     18  C   UNL A   1      45.146  30.476  27.001  1.00  0.00     0.031 C 
ATOM     19  C   UNL A   1      47.854  34.702  26.739  1.00  0.00     0.029 A 
ATOM     20  N   UNL A   1      48.923  32.770  26.379  1.00  0.00    -0.354 N 
ATOM     21  C   UNL A   1      46.848  28.995  26.609  1.00  0.00     0.074 A 
ATOM     22  C   UNL A   1      45.448  29.187  26.923  1.00  0.00     0.031 C 
ATOM     23  C   UNL A   1      49.133  34.996  26.458  1.00  0.00     0.029 A 
ATOM     24  C   UNL A   1      49.871  33.754  26.245  1.00  0.00     0.049 A 
ATOM     25  H   UNL A   1      49.121  31.812  26.272  1.00  0.00     0.167 HD
ATOM     26  C   UNL A   1      47.431  27.789  26.406  1.00  0.00     0.037 A 
ATOM     27  C   UNL A   1      51.189  33.667  25.994  1.00  0.00     0.037 A 
ATOM     28  C   UNL A   1      48.821  27.600  26.074  1.00  0.00     0.049 A 
ATOM     29  C   UNL A   1      51.816  32.316  25.799  1.00  0.00     0.074 A 
ATOM     30  C   UNL A   1      49.492  26.420  25.801  1.00  0.00     0.029 A 
ATOM     31  N   UNL A   1      49.756  28.621  25.977  1.00  0.00    -0.354 N 
ATOM     32  N   UNL A   1      51.253  31.133  25.816  1.00  0.00    -0.248 NA
ATOM     33  C   UNL A   1      53.264  32.290  25.553  1.00  0.00     0.031 C 
ATOM     34  C   UNL A   1      50.841  26.722  25.583  1.00  0.00     0.029 A 
ATOM     35  C   UNL A   1      51.002  28.095  25.674  1.00  0.00     0.049 A 
ATOM     36  H   UNL A   1      49.563  29.577  26.104  1.00  0.00     0.167 HD
ATOM     37  C   UNL A   1      52.271  30.223  25.570  1.00  0.00     0.074 A 
ATOM     38  C   UNL A   1      53.484  30.993  25.388  1.00  0.00     0.031 C 
ATOM     39  C   UNL A   1      52.204  28.871  25.503  1.00  0.00     0.037 A 
BRANCH  26  40
ATOM     40  C   UNL A   1      46.571  26.566  26.553  1.00  0.00     0.064 A 
ATOM     41  C   UNL A   1      45.821  26.058  25.482  1.00  0.00     0.173 A 
ATOM     42  C   UNL A   1      46.535  25.864  27.769  1.00  0.00     0.173 A 
ATOM     43  F   UNL A   1      45.813  26.695  24.302  1.00  0.00    -0.203 F 
ATOM     44  C   UNL A   1      45.046  24.910  25.630  1.00  0.00     0.198 A 
ATOM     45  C   UNL A   1      45.781  24.703  27.905  1.00  0.00     0.198 A 
ATOM     46  F   UNL A   1      47.242  26.302  28.822  1.00  0.00    -0.203 F 
ATOM     47  F   UNL A   1      44.304  24.467  24.605  1.00  0.00    -0.200 F 
ATOM     48  C   UNL A   1      45.031  24.230  26.840  1.00  0.00     0.200 A 
ATOM     49  F   UNL A   1      45.778  24.039  29.071  1.00  0.00    -0.200 F 
ATOM     50  F   UNL A   1      44.290  23.122  26.978  1.00  0.00    -0.200 F 
ENDBRANCH  26  40
BRANCH  27  51
ATOM     51  C   UNL A   1      51.998  34.909  25.907  1.00  0.00     0.064 A 
ATOM     52  C   UNL A   1      52.588  35.464  27.050  1.00  0.00     0.173 A 
ATOM     53  C   UNL A   1      52.226  35.542  24.677  1.00  0.00     0.173 A 
ATOM     54  F   UNL A   1      52.381  34.903  28.250  1.00  0.00    -0.203 F 
ATOM     55  C   UNL A   1      53.372  36.612  26.966  1.00  0.00     0.198 A 
ATOM     56  C   UNL A   1      53.033  36.674  24.590  1.00  0.00     0.198 A 
ATOM     57  F   UNL A   1      51.686  35.044  23.555  1.00  0.00    -0.203 F 
ATOM     58  F   UNL A   1      53.903  37.140  28.076  1.00  0.00    -0.200 F 
ATOM     59  C   UNL A   1      53.602  37.211  25.735  1.00  0.00     0.200 A 
ATOM     60  F   UNL A   1      53.265  37.239  23.398  1.00  0.00    -0.200 F 
ATOM     61  F   UNL A   1      54.370  38.305  25.654  1.00  0.00    -0.200 F 
ENDBRANCH  27  51
BRANCH  39  62
ATOM     62  C   UNL A   1      53.479  28.139  25.202  1.00  0.00     0.064 A 
ATOM     63  C   UNL A   1      53.921  27.949  23.885  1.00  0.00     0.173 A 
ATOM     64  C   UNL A   1      54.277  27.644  26.243  1.00  0.00     0.173 A 
ATOM     65  F   UNL A   1      53.183  28.389  22.856  1.00  0.00    -0.203 F 
ATOM     66  C   UNL A   1      55.106  27.267  23.620  1.00  0.00     0.198 A 
ATOM     67  C   UNL A   1      55.475  26.985  25.976  1.00  0.00     0.198 A 
ATOM     68  F   UNL A   1      53.900  27.803  27.521  1.00  0.00    -0.203 F 
ATOM     69  F   UNL A   1      55.487  27.055  22.353  1.00  0.00    -0.200 F 
ATOM     70  C   UNL A   1      55.884  26.791  24.665  1.00  0.00     0.200 A 
ATOM     71  F   UNL A   1      56.230  26.534  26.987  1.00  0.00    -0.200 F 
ATOM     72  F   UNL A   1      57.025  26.136  24.409  1.00  0.00    -0.200 F 
ENDBRANCH  39  62
ENDBRANCH  13  14
ENDBRANCH   6   8
ENDBRANCH   3   4
ENDBRANCH   2   3
ENDBRANCH   1   2
BRANCH   1  73
ATOM     73  C   UNL A   1      41.675  32.025  30.669  1.00  0.00     0.116 C 
BRANCH  73  74
ATOM     74  N   UNL A   1      41.481  30.736  31.303  1.00  0.00    -0.352 N 
ATOM     75  C   UNL A   1      40.857  29.621  30.796  1.00  0.00     0.253 C 
ATOM     76  H   UNL A   1      41.841  30.648  32.215  1.00  0.00     0.163 HD
ATOM     77  O   UNL A   1      40.826  28.596  31.477  1.00  0.00    -0.269 OA
BRANCH  75  78
ATOM     78  C   UNL A   1      40.174  29.642  29.469  1.00  0.00     0.065 A 
ATOM     79  C   UNL A   1      41.025  29.385  28.391  1.00  0.00     0.042 A 
ATOM     80  C   UNL A   1      38.811  29.940  29.257  1.00  0.00     0.050 A 
ATOM     81  C   UNL A   1      40.535  29.154  27.115  1.00  0.00     0.042 A 
ATOM     82  C   UNL A   1      38.325  29.748  27.953  1.00  0.00     0.029 A 
ATOM     83  C   UNL A   1      39.171  29.349  26.900  1.00  0.00     0.028 A 
BRANCH  80  84
ATOM     84  N   UNL A   1      38.029  30.506  30.256  1.00  0.00    -0.360 N 
ATOM     85  C   UNL A   1      36.922  29.824  30.956  1.00  0.00     0.178 C 
ATOM     86  C   UNL A   1      37.732  31.924  30.027  1.00  0.00     0.178 C 
ATOM     87  C   UNL A   1      36.472  30.633  32.223  1.00  0.00     0.284 C 
ATOM     88  C   UNL A   1      37.572  32.626  31.373  1.00  0.00     0.284 C 
ATOM     89  N   UNL A   1      36.458  32.115  32.165  1.00  0.00    -0.324 N 
ATOM     90  H   UNL A   1      36.600  32.407  33.133  1.00  0.00     0.348 HD
BRANCH  89  91
ATOM     91  C   UNL A   1      35.167  32.756  31.862  1.00  0.00     0.363 C 
BRANCH  91  92
ATOM     92  C   UNL A   1      34.749  33.917  32.770  1.00  0.00     0.277 C 
ATOM     93  O   UNL A   1      34.970  33.842  33.985  1.00  0.00    -0.268 OA
ATOM     94  N   UNL A   1      34.169  35.061  32.211  1.00  0.00    -0.333 N 
ATOM     95  C   UNL A   1      33.389  35.105  30.962  1.00  0.00     0.148 C 
ATOM     96  C   UNL A   1      33.920  36.184  33.121  1.00  0.00     0.148 C 
ATOM     97  C   UNL A   1      33.222  36.501  30.359  1.00  0.00     0.181 C 
ATOM     98  C   UNL A   1      33.836  37.517  32.380  1.00  0.00     0.181 C 
ATOM     99  O   UNL A   1      32.843  37.462  31.350  1.00  0.00    -0.378 OA
ENDBRANCH  91  92
ENDBRANCH  89  91
ENDBRANCH  80  84
BRANCH  81 100
ATOM    100  N   UNL A   1      41.341  28.737  26.034  1.00  0.00    -0.322 N 
ATOM    101  C   UNL A   1      41.902  27.510  25.726  1.00  0.00     0.255 C 
ATOM    102  H   UNL A   1      41.538  29.447  25.381  1.00  0.00     0.170 HD
ATOM    103  O   UNL A   1      42.721  27.413  24.815  1.00  0.00    -0.269 OA
BRANCH 101 104
ATOM    104  C   UNL A   1      41.517  26.284  26.459  1.00  0.00     0.041 A 
ATOM    105  C   UNL A   1      42.200  25.970  27.641  1.00  0.00     0.014 A 
ATOM    106  C   UNL A   1      40.414  25.525  26.047  1.00  0.00     0.034 A 
ATOM    107  C   UNL A   1      41.718  24.950  28.463  1.00  0.00     0.002 A 
ATOM    108  C   UNL A   1      39.928  24.528  26.891  1.00  0.00     0.041 A 
ATOM    109  C   UNL A   1      40.568  24.246  28.099  1.00  0.00     0.020 A 
ATOM    110  Cl  UNL A   1      38.473  23.706  26.483  1.00  0.00    -0.084 Cl
ENDBRANCH 101 104
ENDBRANCH  81 100
ENDBRANCH  75  78
ENDBRANCH  73  74
ENDBRANCH   1  73
TORSDOF 16
ENDMDL
MODEL 3
REMARK VINA RESULT:     -10.6      4.232      8.031
REMARK SMILES O=C(NCCCCNC(=O)c1cc(NC(=O)c2cccc(Cl)c2)ccc1N1CC[NH+](CC(=O)N2CCOCC2)CC1)c1ccc(-c2c3nc(c(-c4c(F)c(F)c(F)c(F)c4F)c4ccc([nH]4)c(-c4c(F)c(F)c(F)c(F)c4F)c4nc(c(-c5c(F)c(F)c(F)c(F)c5F)c5ccc2[nH]5)C=C4)C=C3)cc1
REMARK SMILES IDX 6 1 5 2 4 3 3 4 1 5 2 6 42 8 43 9 104 10 44 11 103 12 45 13
REMARK SMILES IDX 46 14 47 15 97 16 48 17 102 18 96 19 98 20 49 21 101 22
REMARK SMILES IDX 95 23 94 24 50 26 82 27 62 28 81 29 63 30 66 31 80 32 99 33
REMARK SMILES IDX 64 34 65 35 79 37 100 38 67 39 51 40 52 41 60 42 53 43 54 44
REMARK SMILES IDX 58 45 61 46 55 47 56 48 59 49 57 50 83 51 84 52 92 53 85 54
REMARK SMILES IDX 86 55 90 56 93 57 87 58 88 59 91 60 89 61 68 62 69 63 77 64
REMARK SMILES IDX 70 65 71 66 75 67 78 68 72 69 73 70 76 71 74 72 7 73 8 74
REMARK SMILES IDX 9 75 10 77 11 78 12 79 26 80 13 81 25 82 24 83 27 84 28 85
REMARK SMILES IDX 41 86 29 87 40 88 30 89 31 91 32 92 33 93 34 94 35 95 39 96
REMARK SMILES IDX 36 97 38 98 37 99 14 100 15 101 16 103 17 104 18 105 23 106
REMARK SMILES IDX 19 107 21 108 20 109 22 110
REMARK H PARENT 3 7 98 25 66 36 8 76 30 90 14 102
REMARK Flexibility Score: inf
ROOT
ATOM      1  C   UNL A   1      42.545  34.817  31.737  1.00  0.00     0.023 C 
ENDROOT
BRANCH   1   2
ATOM      2  C   UNL A   1      42.876  35.997  32.654  1.00  0.00     0.023 C 
BRANCH   2   3
ATOM      3  C   UNL A   1      44.195  35.950  33.418  1.00  0.00     0.116 C 
BRANCH   3   4
ATOM      4  N   UNL A   1      45.255  36.765  32.851  1.00  0.00    -0.352 N 
ATOM      5  O   UNL A   1      47.034  37.242  31.535  1.00  0.00    -0.269 OA
ATOM      6  C   UNL A   1      46.173  36.444  31.873  1.00  0.00     0.251 C 
ATOM      7  H   UNL A   1      45.329  37.676  33.217  1.00  0.00     0.163 HD
BRANCH   6   8
ATOM      8  C   UNL A   1      46.146  35.090  31.274  1.00  0.00     0.039 A 
ATOM      9  C   UNL A   1      45.863  34.911  29.919  1.00  0.00     0.014 A 
ATOM     10  C   UNL A   1      46.359  33.986  32.104  1.00  0.00     0.014 A 
ATOM     11  C   UNL A   1      45.632  33.626  29.429  1.00  0.00     0.010 A 
ATOM     12  C   UNL A   1      46.189  32.695  31.594  1.00  0.00     0.010 A 
ATOM     13  C   UNL A   1      45.772  32.507  30.267  1.00  0.00    -0.014 A 
BRANCH  13  14
ATOM     14  C   UNL A   1      45.475  31.147  29.747  1.00  0.00     0.031 A 
ATOM     15  C   UNL A   1      46.587  30.201  29.383  1.00  0.00     0.074 A 
ATOM     16  C   UNL A   1      44.194  30.756  29.619  1.00  0.00     0.049 A 
ATOM     17  N   UNL A   1      46.515  28.979  28.913  1.00  0.00    -0.248 NA
ATOM     18  C   UNL A   1      47.961  30.690  29.563  1.00  0.00     0.031 C 
ATOM     19  C   UNL A   1      43.029  31.582  29.934  1.00  0.00     0.029 A 
ATOM     20  N   UNL A   1      43.657  29.566  29.198  1.00  0.00    -0.354 N 
ATOM     21  C   UNL A   1      47.826  28.563  28.724  1.00  0.00     0.074 A 
ATOM     22  C   UNL A   1      48.676  29.670  29.107  1.00  0.00     0.031 C 
ATOM     23  C   UNL A   1      41.915  30.865  29.723  1.00  0.00     0.029 A 
ATOM     24  C   UNL A   1      42.285  29.549  29.212  1.00  0.00     0.049 A 
ATOM     25  H   UNL A   1      44.204  28.798  28.912  1.00  0.00     0.167 HD
ATOM     26  C   UNL A   1      48.279  27.365  28.280  1.00  0.00     0.037 A 
ATOM     27  C   UNL A   1      41.421  28.588  28.841  1.00  0.00     0.037 A 
ATOM     28  C   UNL A   1      47.431  26.256  27.918  1.00  0.00     0.049 A 
ATOM     29  C   UNL A   1      41.947  27.278  28.329  1.00  0.00     0.074 A 
ATOM     30  C   UNL A   1      47.799  24.987  27.506  1.00  0.00     0.029 A 
ATOM     31  N   UNL A   1      46.044  26.289  27.917  1.00  0.00    -0.354 N 
ATOM     32  N   UNL A   1      43.189  26.884  28.190  1.00  0.00    -0.248 NA
ATOM     33  C   UNL A   1      40.951  26.281  27.918  1.00  0.00     0.031 C 
ATOM     34  C   UNL A   1      46.636  24.266  27.213  1.00  0.00     0.029 A 
ATOM     35  C   UNL A   1      45.542  25.071  27.487  1.00  0.00     0.049 A 
ATOM     36  H   UNL A   1      45.498  27.062  28.184  1.00  0.00     0.167 HD
ATOM     37  C   UNL A   1      43.126  25.591  27.691  1.00  0.00     0.074 A 
ATOM     38  C   UNL A   1      41.721  25.260  27.568  1.00  0.00     0.031 C 
ATOM     39  C   UNL A   1      44.141  24.756  27.363  1.00  0.00     0.037 A 
BRANCH  26  40
ATOM     40  C   UNL A   1      49.764  27.188  28.145  1.00  0.00     0.064 A 
ATOM     41  C   UNL A   1      50.447  27.548  26.974  1.00  0.00     0.173 A 
ATOM     42  C   UNL A   1      50.521  26.696  29.220  1.00  0.00     0.173 A 
ATOM     43  F   UNL A   1      49.771  28.014  25.914  1.00  0.00    -0.203 F 
ATOM     44  C   UNL A   1      51.829  27.396  26.874  1.00  0.00     0.198 A 
ATOM     45  C   UNL A   1      51.904  26.572  29.127  1.00  0.00     0.198 A 
ATOM     46  F   UNL A   1      49.918  26.345  30.366  1.00  0.00    -0.203 F 
ATOM     47  F   UNL A   1      52.455  27.708  25.730  1.00  0.00    -0.200 F 
ATOM     48  C   UNL A   1      52.557  26.914  27.953  1.00  0.00     0.200 A 
ATOM     49  F   UNL A   1      52.608  26.118  30.174  1.00  0.00    -0.200 F 
ATOM     50  F   UNL A   1      53.887  26.776  27.857  1.00  0.00    -0.200 F 
ENDBRANCH  26  40
BRANCH  27  51
ATOM     51  C   UNL A   1      39.961  28.837  28.953  1.00  0.00     0.064 A 
ATOM     52  C   UNL A   1      39.221  29.283  27.851  1.00  0.00     0.173 A 
ATOM     53  C   UNL A   1      39.274  28.600  30.152  1.00  0.00     0.173 A 
ATOM     54  F   UNL A   1      39.840  29.541  26.690  1.00  0.00    -0.203 F 
ATOM     55  C   UNL A   1      37.847  29.488  27.945  1.00  0.00     0.198 A 
ATOM     56  C   UNL A   1      37.896  28.780  30.238  1.00  0.00     0.198 A 
ATOM     57  F   UNL A   1      39.940  28.167  31.234  1.00  0.00    -0.203 F 
ATOM     58  F   UNL A   1      37.166  29.941  26.885  1.00  0.00    -0.200 F 
ATOM     59  C   UNL A   1      37.184  29.228  29.136  1.00  0.00     0.200 A 
ATOM     60  F   UNL A   1      37.258  28.512  31.385  1.00  0.00    -0.200 F 
ATOM     61  F   UNL A   1      35.860  29.410  29.221  1.00  0.00    -0.200 F 
ENDBRANCH  27  51
BRANCH  39  62
ATOM     62  C   UNL A   1      43.768  23.394  26.856  1.00  0.00     0.064 A 
ATOM     63  C   UNL A   1      43.134  22.454  27.681  1.00  0.00     0.173 A 
ATOM     64  C   UNL A   1      44.025  23.035  25.524  1.00  0.00     0.173 A 
ATOM     65  F   UNL A   1      42.884  22.744  28.965  1.00  0.00    -0.203 F 
ATOM     66  C   UNL A   1      42.794  21.193  27.197  1.00  0.00     0.198 A 
ATOM     67  C   UNL A   1      43.660  21.783  25.037  1.00  0.00     0.198 A 
ATOM     68  F   UNL A   1      44.626  23.901  24.694  1.00  0.00    -0.203 F 
ATOM     69  F   UNL A   1      42.232  20.292  28.015  1.00  0.00    -0.200 F 
ATOM     70  C   UNL A   1      43.052  20.861  25.875  1.00  0.00     0.200 A 
ATOM     71  F   UNL A   1      43.901  21.467  23.757  1.00  0.00    -0.200 F 
ATOM     72  F   UNL A   1      42.722  19.647  25.411  1.00  0.00    -0.200 F 
ENDBRANCH  39  62
ENDBRANCH  13  14
ENDBRANCH   6   8
ENDBRANCH   3   4
ENDBRANCH   2   3
ENDBRANCH   1   2
BRANCH   1  73
ATOM     73  C   UNL A   1      41.391  33.912  32.164  1.00  0.00     0.116 C 
BRANCH  73  74
ATOM     74  N   UNL A   1      40.219  34.631  32.622  1.00  0.00    -0.352 N 
ATOM     75  C   UNL A   1      39.127  34.139  33.296  1.00  0.00     0.253 C 
ATOM     76  H   UNL A   1      40.202  35.595  32.424  1.00  0.00     0.163 HD
ATOM     77  O   UNL A   1      38.239  34.920  33.640  1.00  0.00    -0.269 OA
BRANCH  75  78
ATOM     78  C   UNL A   1      38.969  32.681  33.572  1.00  0.00     0.065 A 
ATOM     79  C   UNL A   1      39.897  32.174  34.486  1.00  0.00     0.042 A 
ATOM     80  C   UNL A   1      38.024  31.831  32.958  1.00  0.00     0.050 A 
ATOM     81  C   UNL A   1      39.772  30.901  35.021  1.00  0.00     0.042 A 
ATOM     82  C   UNL A   1      37.928  30.527  33.471  1.00  0.00     0.029 A 
ATOM     83  C   UNL A   1      38.780  30.072  34.496  1.00  0.00     0.028 A 
BRANCH  80  84
ATOM     84  N   UNL A   1      37.317  32.229  31.829  1.00  0.00    -0.360 N 
ATOM     85  C   UNL A   1      37.921  32.787  30.603  1.00  0.00     0.178 C 
ATOM     86  C   UNL A   1      36.036  32.871  32.143  1.00  0.00     0.178 C 
ATOM     87  C   UNL A   1      36.880  32.829  29.430  1.00  0.00     0.284 C 
ATOM     88  C   UNL A   1      35.049  32.600  31.011  1.00  0.00     0.284 C 
ATOM     89  N   UNL A   1      35.466  33.162  29.730  1.00  0.00    -0.324 N 
ATOM     90  H   UNL A   1      34.935  32.696  28.994  1.00  0.00     0.348 HD
BRANCH  89  91
ATOM     91  C   UNL A   1      35.058  34.563  29.531  1.00  0.00     0.363 C 
BRANCH  91  92
ATOM     92  C   UNL A   1      33.596  34.901  29.844  1.00  0.00     0.277 C 
ATOM     93  O   UNL A   1      32.710  34.509  29.076  1.00  0.00    -0.268 OA
ATOM     94  N   UNL A   1      33.281  35.603  31.013  1.00  0.00    -0.333 N 
ATOM     95  C   UNL A   1      34.167  36.552  31.709  1.00  0.00     0.148 C 
ATOM     96  C   UNL A   1      31.856  35.771  31.314  1.00  0.00     0.148 C 
ATOM     97  C   UNL A   1      33.766  36.862  33.153  1.00  0.00     0.181 C 
ATOM     98  C   UNL A   1      31.608  36.018  32.802  1.00  0.00     0.181 C 
ATOM     99  O   UNL A   1      32.367  37.142  33.262  1.00  0.00    -0.378 OA
ENDBRANCH  91  92
ENDBRANCH  89  91
ENDBRANCH  80  84
BRANCH  81 100
ATOM    100  N   UNL A   1      40.590  30.408  36.059  1.00  0.00    -0.322 N 
ATOM    101  C   UNL A   1      41.820  29.773  36.036  1.00  0.00     0.255 C 
ATOM    102  H   UNL A   1      40.220  30.540  36.962  1.00  0.00     0.170 HD
ATOM    103  O   UNL A   1      42.277  29.268  37.058  1.00  0.00    -0.269 OA
BRANCH 101 104
ATOM    104  C   UNL A   1      42.627  29.708  34.798  1.00  0.00     0.041 A 
ATOM    105  C   UNL A   1      43.689  30.609  34.645  1.00  0.00     0.014 A 
ATOM    106  C   UNL A   1      42.414  28.689  33.860  1.00  0.00     0.034 A 
ATOM    107  C   UNL A   1      44.597  30.431  33.599  1.00  0.00     0.002 A 
ATOM    108  C   UNL A   1      43.343  28.506  32.838  1.00  0.00     0.041 A 
ATOM    109  C   UNL A   1      44.437  29.364  32.711  1.00  0.00     0.020 A 
ATOM    110  Cl  UNL A   1      43.191  27.155  31.784  1.00  0.00    -0.084 Cl
ENDBRANCH 101 104
ENDBRANCH  81 100
ENDBRANCH  75  78
ENDBRANCH  73  74
ENDBRANCH   1  73
TORSDOF 16
ENDMDL
