MODEL 1
REMARK VINA RESULT:     -11.6      0.000      0.000
REMARK SMILES CC(C)n1ccc(C#CC(=O)NCCCCNC(=O)c2ccc(-c3c4nc(c(-c5c(F)c(F)c(F)c(F)c5F)c5ccc([nH]5)c(-c5c(F)c(F)c(F)c(F)c5F)c5nc(c(-c6c(F)c(F)c(F)c(F)c6F)c6ccc3[nH]6)C=C5)C=C4)cc2)n1
REMARK SMILES IDX 14 1 13 2 12 3 10 4 11 5 9 7 8 8 7 9 4 10 5 11 83 12 6 13
REMARK SMILES IDX 2 14 1 15 3 16 15 17 16 18 17 19 18 20 19 22 20 23 21 24
REMARK SMILES IDX 82 25 22 26 81 27 23 28 24 29 25 30 75 31 26 32 80 33 74 34
REMARK SMILES IDX 76 35 27 36 79 37 73 38 72 39 28 41 60 42 40 43 59 44 41 45
REMARK SMILES IDX 44 46 58 47 77 48 42 49 43 50 57 52 78 53 45 54 29 55 30 56
REMARK SMILES IDX 38 57 31 58 32 59 36 60 39 61 33 62 34 63 37 64 35 65 61 66
REMARK SMILES IDX 62 67 70 68 63 69 64 70 68 71 71 72 65 73 66 74 69 75 67 76
REMARK SMILES IDX 46 77 47 78 55 79 48 80 49 81 53 82 56 83 50 84 51 85 54 86
REMARK SMILES IDX 52 87
REMARK H PARENT 12 6 17 21 76 40 44 51
REMARK Flexibility Score: inf
ROOT
ATOM      1  C   UNL A   1      40.924  20.748  26.687  1.00  0.00     0.023 C 
ENDROOT
BRANCH   1   2
ATOM      2  C   UNL A   1      39.568  21.155  26.102  1.00  0.00     0.117 C 
BRANCH   2   3
ATOM      3  N   UNL A   1      39.295  22.570  26.266  1.00  0.00    -0.345 N 
ATOM      4  C   UNL A   1      38.102  23.214  26.079  1.00  0.00     0.296 C 
ATOM      5  O   UNL A   1      38.009  24.424  26.252  1.00  0.00    -0.260 OA
ATOM      6  H   UNL A   1      40.055  23.131  26.543  1.00  0.00     0.164 HD
BRANCH   4   7
ATOM      7  C   UNL A   1      36.933  22.461  25.699  1.00  0.00     0.002 C 
ATOM      8  C   UNL A   1      35.964  21.852  25.345  1.00  0.00    -0.034 C 
BRANCH   8   9
ATOM      9  C   UNL A   1      34.824  21.138  24.876  1.00  0.00     0.135 A 
ATOM     10  N   UNL A   1      33.614  19.473  24.415  1.00  0.00    -0.269 N 
ATOM     11  C   UNL A   1      32.868  20.564  24.057  1.00  0.00     0.110 A 
ATOM     12  N   UNL A   1      34.823  19.804  24.923  1.00  0.00    -0.164 NA
ATOM     13  C   UNL A   1      33.631  21.667  24.356  1.00  0.00     0.059 A 
BRANCH  10  14
ATOM     14  C   UNL A   1      33.251  18.066  24.267  1.00  0.00     0.101 C 
ATOM     15  C   UNL A   1      34.430  17.211  23.802  1.00  0.00     0.033 C 
ATOM     16  C   UNL A   1      32.651  17.520  25.561  1.00  0.00     0.033 C 
ENDBRANCH  10  14
ENDBRANCH   8   9
ENDBRANCH   4   7
ENDBRANCH   2   3
ENDBRANCH   1   2
BRANCH   1  17
ATOM     17  C   UNL A   1      41.603  19.528  26.044  1.00  0.00     0.023 C 
BRANCH  17  18
ATOM     18  C   UNL A   1      43.037  19.287  26.493  1.00  0.00     0.116 C 
BRANCH  18  19
ATOM     19  N   UNL A   1      43.997  19.213  25.388  1.00  0.00    -0.352 N 
ATOM     20  C   UNL A   1      44.429  20.247  24.572  1.00  0.00     0.251 C 
ATOM     21  H   UNL A   1      44.380  18.325  25.204  1.00  0.00     0.163 HD
ATOM     22  O   UNL A   1      44.906  20.026  23.466  1.00  0.00    -0.269 OA
BRANCH  20  23
ATOM     23  C   UNL A   1      44.326  21.632  25.071  1.00  0.00     0.039 A 
ATOM     24  C   UNL A   1      43.368  22.535  24.601  1.00  0.00     0.014 A 
ATOM     25  C   UNL A   1      45.225  22.012  26.063  1.00  0.00     0.014 A 
ATOM     26  C   UNL A   1      43.290  23.798  25.190  1.00  0.00     0.010 A 
ATOM     27  C   UNL A   1      45.011  23.155  26.778  1.00  0.00     0.010 A 
ATOM     28  C   UNL A   1      44.111  24.090  26.292  1.00  0.00    -0.014 A 
BRANCH  28  29
ATOM     29  C   UNL A   1      43.960  25.306  27.082  1.00  0.00     0.031 A 
ATOM     30  C   UNL A   1      44.959  26.345  26.734  1.00  0.00     0.074 A 
ATOM     31  C   UNL A   1      42.871  25.540  27.852  1.00  0.00     0.049 A 
ATOM     32  N   UNL A   1      45.913  26.778  27.486  1.00  0.00    -0.248 NA
ATOM     33  C   UNL A   1      45.033  26.832  25.346  1.00  0.00     0.031 C 
ATOM     34  C   UNL A   1      41.697  24.681  28.048  1.00  0.00     0.029 A 
ATOM     35  N   UNL A   1      42.531  26.657  28.557  1.00  0.00    -0.354 N 
ATOM     36  C   UNL A   1      46.559  27.765  26.751  1.00  0.00     0.074 A 
ATOM     37  C   UNL A   1      46.129  27.594  25.389  1.00  0.00     0.031 C 
ATOM     38  C   UNL A   1      40.697  25.390  28.618  1.00  0.00     0.029 A 
ATOM     39  C   UNL A   1      41.195  26.707  28.966  1.00  0.00     0.049 A 
ATOM     40  H   UNL A   1      43.176  27.371  28.763  1.00  0.00     0.167 HD
ATOM     41  C   UNL A   1      47.147  28.811  27.393  1.00  0.00     0.037 A 
ATOM     42  C   UNL A   1      40.553  27.769  29.526  1.00  0.00     0.037 A 
ATOM     43  C   UNL A   1      47.319  28.508  28.796  1.00  0.00     0.049 A 
ATOM     44  C   UNL A   1      41.605  28.660  30.081  1.00  0.00     0.074 A 
ATOM     45  C   UNL A   1      47.977  27.518  29.501  1.00  0.00     0.029 A 
ATOM     46  N   UNL A   1      46.412  29.051  29.673  1.00  0.00    -0.354 N 
ATOM     47  N   UNL A   1      42.353  28.331  31.097  1.00  0.00    -0.248 NA
ATOM     48  C   UNL A   1      42.155  29.675  29.197  1.00  0.00     0.031 C 
ATOM     49  C   UNL A   1      47.105  27.194  30.583  1.00  0.00     0.029 A 
ATOM     50  C   UNL A   1      46.022  28.071  30.545  1.00  0.00     0.049 A 
ATOM     51  H   UNL A   1      46.098  29.984  29.674  1.00  0.00     0.167 HD
ATOM     52  C   UNL A   1      43.628  28.724  30.724  1.00  0.00     0.074 A 
ATOM     53  C   UNL A   1      43.435  29.609  29.574  1.00  0.00     0.031 C 
ATOM     54  C   UNL A   1      44.724  28.047  31.176  1.00  0.00     0.037 A 
BRANCH  41  55
ATOM     55  C   UNL A   1      47.153  30.238  26.885  1.00  0.00     0.064 A 
ATOM     56  C   UNL A   1      48.349  30.979  26.991  1.00  0.00     0.173 A 
ATOM     57  C   UNL A   1      45.995  30.998  26.615  1.00  0.00     0.173 A 
ATOM     58  F   UNL A   1      49.514  30.365  27.248  1.00  0.00    -0.203 F 
ATOM     59  C   UNL A   1      48.361  32.375  26.949  1.00  0.00     0.198 A 
ATOM     60  C   UNL A   1      46.020  32.389  26.521  1.00  0.00     0.198 A 
ATOM     61  F   UNL A   1      44.776  30.457  26.542  1.00  0.00    -0.203 F 
ATOM     62  F   UNL A   1      49.498  33.037  27.204  1.00  0.00    -0.200 F 
ATOM     63  C   UNL A   1      47.194  33.080  26.725  1.00  0.00     0.200 A 
ATOM     64  F   UNL A   1      44.873  33.053  26.319  1.00  0.00    -0.200 F 
ATOM     65  F   UNL A   1      47.188  34.418  26.756  1.00  0.00    -0.200 F 
ENDBRANCH  41  55
BRANCH  42  66
ATOM     66  C   UNL A   1      39.150  28.235  29.345  1.00  0.00     0.064 A 
ATOM     67  C   UNL A   1      38.291  28.396  30.450  1.00  0.00     0.173 A 
ATOM     68  C   UNL A   1      38.718  28.820  28.140  1.00  0.00     0.173 A 
ATOM     69  F   UNL A   1      38.631  27.903  31.650  1.00  0.00    -0.203 F 
ATOM     70  C   UNL A   1      37.106  29.139  30.365  1.00  0.00     0.198 A 
ATOM     71  C   UNL A   1      37.534  29.558  28.055  1.00  0.00     0.198 A 
ATOM     72  F   UNL A   1      39.484  28.776  27.041  1.00  0.00    -0.203 F 
ATOM     73  F   UNL A   1      36.354  29.332  31.458  1.00  0.00    -0.200 F 
ATOM     74  C   UNL A   1      36.737  29.733  29.170  1.00  0.00     0.200 A 
ATOM     75  F   UNL A   1      37.206  30.154  26.900  1.00  0.00    -0.200 F 
ATOM     76  F   UNL A   1      35.643  30.506  29.103  1.00  0.00    -0.200 F 
ENDBRANCH  42  66
BRANCH  54  77
ATOM     77  C   UNL A   1      44.527  27.052  32.286  1.00  0.00     0.064 A 
ATOM     78  C   UNL A   1      44.291  25.678  32.094  1.00  0.00     0.173 A 
ATOM     79  C   UNL A   1      44.726  27.491  33.600  1.00  0.00     0.173 A 
ATOM     80  F   UNL A   1      44.190  25.158  30.866  1.00  0.00    -0.203 F 
ATOM     81  C   UNL A   1      44.213  24.800  33.175  1.00  0.00     0.198 A 
ATOM     82  C   UNL A   1      44.685  26.607  34.673  1.00  0.00     0.198 A 
ATOM     83  F   UNL A   1      45.009  28.781  33.840  1.00  0.00    -0.203 F 
ATOM     84  F   UNL A   1      43.974  23.496  32.966  1.00  0.00    -0.200 F 
ATOM     85  C   UNL A   1      44.417  25.265  34.462  1.00  0.00     0.200 A 
ATOM     86  F   UNL A   1      44.935  27.054  35.912  1.00  0.00    -0.200 F 
ATOM     87  F   UNL A   1      44.380  24.416  35.499  1.00  0.00    -0.200 F 
ENDBRANCH  54  77
ENDBRANCH  28  29
ENDBRANCH  20  23
ENDBRANCH  18  19
ENDBRANCH  17  18
ENDBRANCH   1  17
TORSDOF 13
ENDMDL
MODEL 2
REMARK VINA RESULT:     -11.3      4.802     10.863
REMARK SMILES CC(C)n1ccc(C#CC(=O)NCCCCNC(=O)c2ccc(-c3c4nc(c(-c5c(F)c(F)c(F)c(F)c5F)c5ccc([nH]5)c(-c5c(F)c(F)c(F)c(F)c5F)c5nc(c(-c6c(F)c(F)c(F)c(F)c6F)c6ccc3[nH]6)C=C5)C=C4)cc2)n1
REMARK SMILES IDX 14 1 13 2 12 3 10 4 11 5 9 7 8 8 7 9 4 10 5 11 83 12 6 13
REMARK SMILES IDX 2 14 1 15 3 16 15 17 16 18 17 19 18 20 19 22 20 23 21 24
REMARK SMILES IDX 82 25 22 26 81 27 23 28 24 29 25 30 75 31 26 32 80 33 74 34
REMARK SMILES IDX 76 35 27 36 79 37 73 38 72 39 28 41 60 42 40 43 59 44 41 45
REMARK SMILES IDX 44 46 58 47 77 48 42 49 43 50 57 52 78 53 45 54 29 55 30 56
REMARK SMILES IDX 38 57 31 58 32 59 36 60 39 61 33 62 34 63 37 64 35 65 61 66
REMARK SMILES IDX 62 67 70 68 63 69 64 70 68 71 71 72 65 73 66 74 69 75 67 76
REMARK SMILES IDX 46 77 47 78 55 79 48 80 49 81 53 82 56 83 50 84 51 85 54 86
REMARK SMILES IDX 52 87
REMARK H PARENT 12 6 17 21 76 40 44 51
REMARK Flexibility Score: inf
ROOT
ATOM      1  C   UNL A   1      37.372  31.012  32.694  1.00  0.00     0.023 C 
ENDROOT
BRANCH   1   2
ATOM      2  C   UNL A   1      37.791  32.384  33.232  1.00  0.00     0.117 C 
BRANCH   2   3
ATOM      3  N   UNL A   1      37.498  32.540  34.644  1.00  0.00    -0.345 N 
ATOM      4  C   UNL A   1      36.607  33.406  35.218  1.00  0.00     0.296 C 
ATOM      5  O   UNL A   1      36.456  33.435  36.434  1.00  0.00    -0.260 OA
ATOM      6  H   UNL A   1      37.998  31.957  35.259  1.00  0.00     0.164 HD
BRANCH   4   7
ATOM      7  C   UNL A   1      35.814  34.275  34.385  1.00  0.00     0.002 C 
ATOM      8  C   UNL A   1      35.177  34.983  33.658  1.00  0.00    -0.034 C 
BRANCH   8   9
ATOM      9  C   UNL A   1      34.438  35.799  32.755  1.00  0.00     0.135 A 
ATOM     10  N   UNL A   1      33.446  36.339  30.973  1.00  0.00    -0.269 N 
ATOM     11  C   UNL A   1      33.311  37.424  31.798  1.00  0.00     0.110 A 
ATOM     12  N   UNL A   1      34.136  35.326  31.543  1.00  0.00    -0.164 NA
ATOM     13  C   UNL A   1      33.943  37.095  32.973  1.00  0.00     0.059 A 
BRANCH  10  14
ATOM     14  C   UNL A   1      32.968  36.208  29.600  1.00  0.00     0.101 C 
ATOM     15  C   UNL A   1      33.634  37.213  28.658  1.00  0.00     0.033 C 
ATOM     16  C   UNL A   1      33.148  34.778  29.095  1.00  0.00     0.033 C 
ENDBRANCH  10  14
ENDBRANCH   8   9
ENDBRANCH   4   7
ENDBRANCH   2   3
ENDBRANCH   1   2
BRANCH   1  17
ATOM     17  C   UNL A   1      35.925  30.890  32.192  1.00  0.00     0.023 C 
BRANCH  17  18
ATOM     18  C   UNL A   1      35.411  32.102  31.428  1.00  0.00     0.116 C 
BRANCH  18  19
ATOM     19  N   UNL A   1      34.714  31.764  30.185  1.00  0.00    -0.352 N 
ATOM     20  C   UNL A   1      35.276  31.491  28.946  1.00  0.00     0.251 C 
ATOM     21  H   UNL A   1      33.732  31.726  30.234  1.00  0.00     0.163 HD
ATOM     22  O   UNL A   1      34.626  31.609  27.915  1.00  0.00    -0.269 OA
BRANCH  20  23
ATOM     23  C   UNL A   1      36.676  31.030  28.892  1.00  0.00     0.039 A 
ATOM     24  C   UNL A   1      37.762  31.881  29.123  1.00  0.00     0.014 A 
ATOM     25  C   UNL A   1      36.884  29.682  28.615  1.00  0.00     0.014 A 
ATOM     26  C   UNL A   1      39.048  31.339  29.133  1.00  0.00     0.010 A 
ATOM     27  C   UNL A   1      38.109  29.120  28.836  1.00  0.00     0.010 A 
ATOM     28  C   UNL A   1      39.206  29.950  29.003  1.00  0.00    -0.014 A 
BRANCH  28  29
ATOM     29  C   UNL A   1      40.489  29.285  29.194  1.00  0.00     0.031 A 
ATOM     30  C   UNL A   1      40.801  29.036  30.622  1.00  0.00     0.074 A 
ATOM     31  C   UNL A   1      41.180  28.733  28.168  1.00  0.00     0.049 A 
ATOM     32  N   UNL A   1      41.743  29.584  31.311  1.00  0.00    -0.248 NA
ATOM     33  C   UNL A   1      39.865  28.237  31.431  1.00  0.00     0.031 C 
ATOM     34  C   UNL A   1      40.815  28.693  26.746  1.00  0.00     0.029 A 
ATOM     35  N   UNL A   1      42.325  27.992  28.192  1.00  0.00    -0.354 N 
ATOM     36  C   UNL A   1      41.668  29.016  32.578  1.00  0.00     0.074 A 
ATOM     37  C   UNL A   1      40.378  28.384  32.655  1.00  0.00     0.031 C 
ATOM     38  C   UNL A   1      41.584  27.789  26.099  1.00  0.00     0.029 A 
ATOM     39  C   UNL A   1      42.592  27.289  27.014  1.00  0.00     0.049 A 
ATOM     40  H   UNL A   1      42.917  27.956  28.977  1.00  0.00     0.167 HD
ATOM     41  C   UNL A   1      42.798  28.869  33.322  1.00  0.00     0.037 A 
ATOM     42  C   UNL A   1      43.560  26.350  26.827  1.00  0.00     0.037 A 
ATOM     43  C   UNL A   1      43.860  29.694  32.792  1.00  0.00     0.049 A 
ATOM     44  C   UNL A   1      44.575  26.565  27.891  1.00  0.00     0.074 A 
ATOM     45  C   UNL A   1      44.014  31.049  32.562  1.00  0.00     0.029 A 
ATOM     46  N   UNL A   1      44.815  29.074  32.023  1.00  0.00    -0.354 N 
ATOM     47  N   UNL A   1      45.339  27.620  27.945  1.00  0.00    -0.248 NA
ATOM     48  C   UNL A   1      44.378  25.865  29.150  1.00  0.00     0.031 C 
ATOM     49  C   UNL A   1      44.706  31.135  31.317  1.00  0.00     0.029 A 
ATOM     50  C   UNL A   1      45.032  29.842  30.910  1.00  0.00     0.049 A 
ATOM     51  H   UNL A   1      45.265  28.225  32.235  1.00  0.00     0.167 HD
ATOM     52  C   UNL A   1      45.323  27.986  29.281  1.00  0.00     0.074 A 
ATOM     53  C   UNL A   1      44.772  26.828  29.988  1.00  0.00     0.031 C 
ATOM     54  C   UNL A   1      45.455  29.295  29.644  1.00  0.00     0.037 A 
BRANCH  41  55
ATOM     55  C   UNL A   1      43.089  27.683  34.218  1.00  0.00     0.064 A 
ATOM     56  C   UNL A   1      43.245  27.914  35.601  1.00  0.00     0.173 A 
ATOM     57  C   UNL A   1      43.538  26.425  33.762  1.00  0.00     0.173 A 
ATOM     58  F   UNL A   1      42.856  29.076  36.149  1.00  0.00    -0.203 F 
ATOM     59  C   UNL A   1      43.904  27.007  36.433  1.00  0.00     0.198 A 
ATOM     60  C   UNL A   1      44.148  25.500  34.607  1.00  0.00     0.198 A 
ATOM     61  F   UNL A   1      43.514  26.072  32.474  1.00  0.00    -0.203 F 
ATOM     62  F   UNL A   1      44.159  27.338  37.706  1.00  0.00    -0.200 F 
ATOM     63  C   UNL A   1      44.366  25.805  35.933  1.00  0.00     0.200 A 
ATOM     64  F   UNL A   1      44.603  24.347  34.097  1.00  0.00    -0.200 F 
ATOM     65  F   UNL A   1      45.062  24.965  36.709  1.00  0.00    -0.200 F 
ENDBRANCH  41  55
BRANCH  42  66
ATOM     66  C   UNL A   1      43.528  25.101  26.017  1.00  0.00     0.064 A 
ATOM     67  C   UNL A   1      44.559  24.800  25.104  1.00  0.00     0.173 A 
ATOM     68  C   UNL A   1      42.662  24.039  26.337  1.00  0.00     0.173 A 
ATOM     69  F   UNL A   1      45.456  25.738  24.763  1.00  0.00    -0.203 F 
ATOM     70  C   UNL A   1      44.740  23.510  24.589  1.00  0.00     0.198 A 
ATOM     71  C   UNL A   1      42.840  22.753  25.819  1.00  0.00     0.198 A 
ATOM     72  F   UNL A   1      41.681  24.198  27.237  1.00  0.00    -0.203 F 
ATOM     73  F   UNL A   1      45.778  23.249  23.782  1.00  0.00    -0.200 F 
ATOM     74  C   UNL A   1      43.889  22.483  24.960  1.00  0.00     0.200 A 
ATOM     75  F   UNL A   1      42.028  21.762  26.213  1.00  0.00    -0.200 F 
ATOM     76  F   UNL A   1      44.103  21.232  24.529  1.00  0.00    -0.200 F 
ENDBRANCH  42  66
BRANCH  54  77
ATOM     77  C   UNL A   1      45.884  30.277  28.590  1.00  0.00     0.064 A 
ATOM     78  C   UNL A   1      45.004  30.968  27.737  1.00  0.00     0.173 A 
ATOM     79  C   UNL A   1      47.237  30.633  28.540  1.00  0.00     0.173 A 
ATOM     80  F   UNL A   1      43.684  30.761  27.790  1.00  0.00    -0.203 F 
ATOM     81  C   UNL A   1      45.470  31.936  26.847  1.00  0.00     0.198 A 
ATOM     82  C   UNL A   1      47.694  31.625  27.679  1.00  0.00     0.198 A 
ATOM     83  F   UNL A   1      48.114  30.047  29.369  1.00  0.00    -0.203 F 
ATOM     84  F   UNL A   1      44.612  32.572  26.034  1.00  0.00    -0.200 F 
ATOM     85  C   UNL A   1      46.814  32.267  26.824  1.00  0.00     0.200 A 
ATOM     86  F   UNL A   1      48.987  31.978  27.698  1.00  0.00    -0.200 F 
ATOM     87  F   UNL A   1      47.257  33.224  25.997  1.00  0.00    -0.200 F 
ENDBRANCH  54  77
ENDBRANCH  28  29
ENDBRANCH  20  23
ENDBRANCH  18  19
ENDBRANCH  17  18
ENDBRANCH   1  17
TORSDOF 13
ENDMDL
MODEL 3
REMARK VINA RESULT:     -11.2      5.285     10.665
REMARK SMILES CC(C)n1ccc(C#CC(=O)NCCCCNC(=O)c2ccc(-c3c4nc(c(-c5c(F)c(F)c(F)c(F)c5F)c5ccc([nH]5)c(-c5c(F)c(F)c(F)c(F)c5F)c5nc(c(-c6c(F)c(F)c(F)c(F)c6F)c6ccc3[nH]6)C=C5)C=C4)cc2)n1
REMARK SMILES IDX 14 1 13 2 12 3 10 4 11 5 9 7 8 8 7 9 4 10 5 11 83 12 6 13
REMARK SMILES IDX 2 14 1 15 3 16 15 17 16 18 17 19 18 20 19 22 20 23 21 24
REMARK SMILES IDX 82 25 22 26 81 27 23 28 24 29 25 30 75 31 26 32 80 33 74 34
REMARK SMILES IDX 76 35 27 36 79 37 73 38 72 39 28 41 60 42 40 43 59 44 41 45
REMARK SMILES IDX 44 46 58 47 77 48 42 49 43 50 57 52 78 53 45 54 29 55 30 56
REMARK SMILES IDX 38 57 31 58 32 59 36 60 39 61 33 62 34 63 37 64 35 65 61 66
REMARK SMILES IDX 62 67 70 68 63 69 64 70 68 71 71 72 65 73 66 74 69 75 67 76
REMARK SMILES IDX 46 77 47 78 55 79 48 80 49 81 53 82 56 83 50 84 51 85 54 86
REMARK SMILES IDX 52 87
REMARK H PARENT 12 6 17 21 76 40 44 51
REMARK Flexibility Score: inf
ROOT
ATOM      1  C   UNL A   1      33.991  33.505  28.181  1.00  0.00     0.023 C 
ENDROOT
BRANCH   1   2
ATOM      2  C   UNL A   1      33.425  32.092  28.009  1.00  0.00     0.117 C 
BRANCH   2   3
ATOM      3  N   UNL A   1      34.449  31.069  28.093  1.00  0.00    -0.345 N 
ATOM      4  C   UNL A   1      34.469  29.857  27.457  1.00  0.00     0.296 C 
ATOM      5  O   UNL A   1      35.403  29.081  27.618  1.00  0.00    -0.260 OA
ATOM      6  H   UNL A   1      35.218  31.269  28.675  1.00  0.00     0.164 HD
BRANCH   4   7
ATOM      7  C   UNL A   1      33.395  29.499  26.565  1.00  0.00     0.002 C 
ATOM      8  C   UNL A   1      32.504  29.240  25.808  1.00  0.00    -0.034 C 
BRANCH   8   9
ATOM      9  C   UNL A   1      31.456  28.974  24.880  1.00  0.00     0.135 A 
ATOM     10  N   UNL A   1      29.827  29.379  23.604  1.00  0.00    -0.269 N 
ATOM     11  C   UNL A   1      30.038  28.031  23.492  1.00  0.00     0.110 A 
ATOM     12  N   UNL A   1      30.690  29.980  24.453  1.00  0.00    -0.164 NA
ATOM     13  C   UNL A   1      31.104  27.740  24.309  1.00  0.00     0.059 A 
BRANCH  10  14
ATOM     14  C   UNL A   1      28.785  30.168  22.951  1.00  0.00     0.101 C 
ATOM     15  C   UNL A   1      27.457  29.413  22.866  1.00  0.00     0.033 C 
ATOM     16  C   UNL A   1      28.609  31.518  23.643  1.00  0.00     0.033 C 
ENDBRANCH  10  14
ENDBRANCH   8   9
ENDBRANCH   4   7
ENDBRANCH   2   3
ENDBRANCH   1   2
BRANCH   1  17
ATOM     17  C   UNL A   1      33.002  34.582  28.654  1.00  0.00     0.023 C 
BRANCH  17  18
ATOM     18  C   UNL A   1      33.627  35.718  29.450  1.00  0.00     0.116 C 
BRANCH  18  19
ATOM     19  N   UNL A   1      33.041  35.898  30.780  1.00  0.00    -0.352 N 
ATOM     20  C   UNL A   1      33.210  35.093  31.897  1.00  0.00     0.251 C 
ATOM     21  H   UNL A   1      32.459  36.684  30.896  1.00  0.00     0.163 HD
ATOM     22  O   UNL A   1      32.397  35.098  32.812  1.00  0.00    -0.269 OA
BRANCH  20  23
ATOM     23  C   UNL A   1      34.410  34.238  31.976  1.00  0.00     0.039 A 
ATOM     24  C   UNL A   1      34.372  32.859  31.746  1.00  0.00     0.014 A 
ATOM     25  C   UNL A   1      35.614  34.869  32.276  1.00  0.00     0.014 A 
ATOM     26  C   UNL A   1      35.570  32.143  31.759  1.00  0.00     0.010 A 
ATOM     27  C   UNL A   1      36.796  34.215  32.079  1.00  0.00     0.010 A 
ATOM     28  C   UNL A   1      36.781  32.839  31.913  1.00  0.00    -0.014 A 
BRANCH  28  29
ATOM     29  C   UNL A   1      38.079  32.199  31.749  1.00  0.00     0.031 A 
ATOM     30  C   UNL A   1      38.774  31.967  33.038  1.00  0.00     0.074 A 
ATOM     31  C   UNL A   1      38.474  31.650  30.575  1.00  0.00     0.049 A 
ATOM     32  N   UNL A   1      39.858  32.538  33.441  1.00  0.00    -0.248 NA
ATOM     33  C   UNL A   1      38.110  31.158  34.075  1.00  0.00     0.031 C 
ATOM     34  C   UNL A   1      37.736  31.592  29.307  1.00  0.00     0.029 A 
ATOM     35  N   UNL A   1      39.596  30.930  30.288  1.00  0.00    -0.354 N 
ATOM     36  C   UNL A   1      40.142  31.979  34.683  1.00  0.00     0.074 A 
ATOM     37  C   UNL A   1      38.935  31.325  35.112  1.00  0.00     0.031 C 
ATOM     38  C   UNL A   1      38.315  30.696  28.477  1.00  0.00     0.029 A 
ATOM     39  C   UNL A   1      39.545  30.222  29.083  1.00  0.00     0.049 A 
ATOM     40  H   UNL A   1      40.380  30.910  30.881  1.00  0.00     0.167 HD
ATOM     41  C   UNL A   1      41.436  31.858  35.090  1.00  0.00     0.037 A 
ATOM     42  C   UNL A   1      40.443  29.298  28.642  1.00  0.00     0.037 A 
ATOM     43  C   UNL A   1      42.297  32.697  34.287  1.00  0.00     0.049 A 
ATOM     44  C   UNL A   1      41.705  29.539  29.388  1.00  0.00     0.074 A 
ATOM     45  C   UNL A   1      42.356  34.052  34.019  1.00  0.00     0.029 A 
ATOM     46  N   UNL A   1      43.016  32.087  33.288  1.00  0.00    -0.354 N 
ATOM     47  N   UNL A   1      42.435  30.608  29.227  1.00  0.00    -0.248 NA
ATOM     48  C   UNL A   1      41.873  28.847  30.656  1.00  0.00     0.031 C 
ATOM     49  C   UNL A   1      42.680  34.140  32.632  1.00  0.00     0.029 A 
ATOM     50  C   UNL A   1      42.907  32.849  32.156  1.00  0.00     0.049 A 
ATOM     51  H   UNL A   1      43.523  31.248  33.372  1.00  0.00     0.167 HD
ATOM     52  C   UNL A   1      42.777  30.984  30.516  1.00  0.00     0.074 A 
ATOM     53  C   UNL A   1      42.462  29.824  31.351  1.00  0.00     0.031 C 
ATOM     54  C   UNL A   1      42.978  32.299  30.824  1.00  0.00     0.037 A 
BRANCH  41  55
ATOM     55  C   UNL A   1      41.983  30.685  35.876  1.00  0.00     0.064 A 
ATOM     56  C   UNL A   1      42.915  30.946  36.903  1.00  0.00     0.173 A 
ATOM     57  C   UNL A   1      41.897  29.337  35.469  1.00  0.00     0.173 A 
ATOM     58  F   UNL A   1      43.086  32.192  37.371  1.00  0.00    -0.203 F 
ATOM     59  C   UNL A   1      43.771  29.959  37.393  1.00  0.00     0.198 A 
ATOM     60  C   UNL A   1      42.718  28.343  35.999  1.00  0.00     0.198 A 
ATOM     61  F   UNL A   1      41.106  28.932  34.471  1.00  0.00    -0.203 F 
ATOM     62  F   UNL A   1      44.739  30.290  38.259  1.00  0.00    -0.200 F 
ATOM     63  C   UNL A   1      43.680  28.659  36.932  1.00  0.00     0.200 A 
ATOM     64  F   UNL A   1      42.623  27.092  35.526  1.00  0.00    -0.200 F 
ATOM     65  F   UNL A   1      44.546  27.727  37.346  1.00  0.00    -0.200 F 
ENDBRANCH  41  55
BRANCH  42  66
ATOM     66  C   UNL A   1      40.214  28.041  27.877  1.00  0.00     0.064 A 
ATOM     67  C   UNL A   1      40.933  27.770  26.695  1.00  0.00     0.173 A 
ATOM     68  C   UNL A   1      39.524  26.951  28.439  1.00  0.00     0.173 A 
ATOM     69  F   UNL A   1      41.651  28.737  26.103  1.00  0.00    -0.203 F 
ATOM     70  C   UNL A   1      40.998  26.483  26.146  1.00  0.00     0.198 A 
ATOM     71  C   UNL A   1      39.585  25.668  27.889  1.00  0.00     0.198 A 
ATOM     72  F   UNL A   1      38.854  27.083  29.593  1.00  0.00    -0.203 F 
ATOM     73  F   UNL A   1      41.754  26.252  25.063  1.00  0.00    -0.200 F 
ATOM     74  C   UNL A   1      40.337  25.429  26.753  1.00  0.00     0.200 A 
ATOM     75  F   UNL A   1      38.967  24.652  28.506  1.00  0.00    -0.200 F 
ATOM     76  F   UNL A   1      40.457  24.183  26.274  1.00  0.00    -0.200 F 
ENDBRANCH  42  66
BRANCH  54  77
ATOM     77  C   UNL A   1      43.084  33.279  29.690  1.00  0.00     0.064 A 
ATOM     78  C   UNL A   1      42.033  34.104  29.246  1.00  0.00     0.173 A 
ATOM     79  C   UNL A   1      44.347  33.488  29.122  1.00  0.00     0.173 A 
ATOM     80  F   UNL A   1      40.820  34.040  29.805  1.00  0.00    -0.203 F 
ATOM     81  C   UNL A   1      42.235  35.058  28.248  1.00  0.00     0.198 A 
ATOM     82  C   UNL A   1      44.553  34.466  28.154  1.00  0.00     0.198 A 
ATOM     83  F   UNL A   1      45.398  32.770  29.545  1.00  0.00    -0.203 F 
ATOM     84  F   UNL A   1      41.213  35.822  27.833  1.00  0.00    -0.200 F 
ATOM     85  C   UNL A   1      43.496  35.241  27.709  1.00  0.00     0.200 A 
ATOM     86  F   UNL A   1      45.787  34.674  27.674  1.00  0.00    -0.200 F 
ATOM     87  F   UNL A   1      43.699  36.183  26.778  1.00  0.00    -0.200 F 
ENDBRANCH  54  77
ENDBRANCH  28  29
ENDBRANCH  20  23
ENDBRANCH  18  19
ENDBRANCH  17  18
ENDBRANCH   1  17
TORSDOF 13
ENDMDL
