MODEL 1
REMARK VINA RESULT:     -13.4      0.000      0.000
REMARK SMILES Cc1cc(Cl)c(C)c2c1O[C@H](C(F)(F)F)C(C(=O)NCCCCNC(=O)c1ccc(-c3c4nc(c(-c5c(F)c(F)c(F)c(F)c5F)c5ccc([nH]5)c(-c5c(F)c(F)c(F)c(F)c5F)c5nc(c(-c6c(F)c(F)c(F)c(F)c6F)c6ccc3[nH]6)C=C5)C=C4)cc1)=C2
REMARK SMILES IDX 22 1 21 2 20 3 19 4 17 5 18 6 16 8 1 9 2 10 3 11 9 12 4 13
REMARK SMILES IDX 8 14 10 15 5 16 6 17 90 18 11 19 7 20 12 21 13 22 14 23
REMARK SMILES IDX 15 24 23 25 24 26 25 27 26 29 27 30 28 31 89 32 29 33 88 34
REMARK SMILES IDX 30 35 31 36 32 37 82 38 33 39 87 40 81 41 83 42 34 43 86 44
REMARK SMILES IDX 80 45 79 46 35 48 67 49 47 50 66 51 48 52 51 53 65 54 84 55
REMARK SMILES IDX 49 56 50 57 64 59 85 60 52 61 36 62 37 63 45 64 38 65 39 66
REMARK SMILES IDX 43 67 46 68 40 69 41 70 44 71 42 72 68 73 69 74 77 75 70 76
REMARK SMILES IDX 71 77 75 78 78 79 72 80 73 81 76 82 74 83 53 84 54 85 62 86
REMARK SMILES IDX 55 87 56 88 60 89 63 90 57 91 58 92 61 93 59 94
REMARK H PARENT 19 7 24 28 83 47 51 58
REMARK Flexibility Score: inf
ROOT
ATOM      1  C   UNL A   1      31.538  32.025  26.813  1.00  0.00     0.023 C 
ENDROOT
BRANCH   1   2
ATOM      2  C   UNL A   1      31.762  30.512  26.755  1.00  0.00     0.023 C 
BRANCH   2   3
ATOM      3  C   UNL A   1      33.230  30.109  26.656  1.00  0.00     0.116 C 
BRANCH   3   4
ATOM      4  N   UNL A   1      33.594  29.724  25.305  1.00  0.00    -0.352 N 
ATOM      5  C   UNL A   1      33.546  28.600  24.551  1.00  0.00     0.251 C 
ATOM      6  O   UNL A   1      33.984  28.723  23.403  1.00  0.00    -0.270 OA
ATOM      7  H   UNL A   1      33.979  30.479  24.805  1.00  0.00     0.163 HD
BRANCH   5   8
ATOM      8  C   UNL A   1      33.016  27.280  25.003  1.00  0.00     0.067 C 
ATOM      9  C   UNL A   1      30.233  23.370  26.840  1.00  0.00     0.048 C 
ATOM     10  C   UNL A   1      31.686  23.592  26.526  1.00  0.00    -0.007 A 
ATOM     11  C   UNL A   1      32.585  22.530  26.647  1.00  0.00     0.028 A 
ATOM     12  C   UNL A   1      32.163  24.818  26.048  1.00  0.00     0.131 A 
ATOM     13  C   UNL A   1      33.936  22.694  26.324  1.00  0.00     0.045 A 
ATOM     14  C   UNL A   1      33.519  25.006  25.728  1.00  0.00     0.022 A 
ATOM     15  O   UNL A   1      31.246  25.828  25.964  1.00  0.00    -0.475 OA
ATOM     16  Cl  UNL A   1      34.948  21.306  26.537  1.00  0.00    -0.084 Cl
ATOM     17  C   UNL A   1      34.429  23.928  25.861  1.00  0.00    -0.021 A 
ATOM     18  C   UNL A   1      33.939  26.347  25.302  1.00  0.00     0.026 C 
ATOM     19  C   UNL A   1      31.560  26.946  25.102  1.00  0.00     0.314 C 
ATOM     20  C   UNL A   1      35.884  24.118  25.509  1.00  0.00     0.047 C 
BRANCH  19  21
ATOM     21  C   UNL A   1      30.898  26.737  23.728  1.00  0.00     0.429 C 
ATOM     22  F   UNL A   1      30.628  27.933  23.147  1.00  0.00    -0.167 F 
ATOM     23  F   UNL A   1      31.697  26.068  22.863  1.00  0.00    -0.167 F 
ATOM     24  F   UNL A   1      29.737  26.050  23.804  1.00  0.00    -0.167 F 
ENDBRANCH  19  21
ENDBRANCH   5   8
ENDBRANCH   3   4
ENDBRANCH   2   3
ENDBRANCH   1   2
BRANCH   1  25
ATOM     25  C   UNL A   1      32.747  32.844  27.261  1.00  0.00     0.116 C 
BRANCH  25  26
ATOM     26  N   UNL A   1      32.410  34.202  27.663  1.00  0.00    -0.352 N 
ATOM     27  C   UNL A   1      32.984  34.966  28.648  1.00  0.00     0.251 C 
ATOM     28  H   UNL A   1      31.677  34.628  27.162  1.00  0.00     0.163 HD
ATOM     29  O   UNL A   1      32.522  36.064  28.939  1.00  0.00    -0.269 OA
BRANCH  27  30
ATOM     30  C   UNL A   1      34.147  34.432  29.378  1.00  0.00     0.039 A 
ATOM     31  C   UNL A   1      33.935  33.717  30.558  1.00  0.00     0.014 A 
ATOM     32  C   UNL A   1      35.438  34.618  28.876  1.00  0.00     0.014 A 
ATOM     33  C   UNL A   1      35.020  33.135  31.213  1.00  0.00     0.010 A 
ATOM     34  C   UNL A   1      36.509  33.985  29.493  1.00  0.00     0.010 A 
ATOM     35  C   UNL A   1      36.310  33.246  30.670  1.00  0.00    -0.014 A 
BRANCH  35  36
ATOM     36  C   UNL A   1      37.485  32.649  31.343  1.00  0.00     0.031 A 
ATOM     37  C   UNL A   1      38.226  31.532  30.665  1.00  0.00     0.074 A 
ATOM     38  C   UNL A   1      37.841  33.059  32.573  1.00  0.00     0.049 A 
ATOM     39  N   UNL A   1      39.185  30.773  31.128  1.00  0.00    -0.248 NA
ATOM     40  C   UNL A   1      37.812  31.211  29.290  1.00  0.00     0.031 C 
ATOM     41  C   UNL A   1      37.188  34.126  33.332  1.00  0.00     0.029 A 
ATOM     42  N   UNL A   1      38.835  32.615  33.407  1.00  0.00    -0.354 N 
ATOM     43  C   UNL A   1      39.475  29.875  30.109  1.00  0.00     0.074 A 
ATOM     44  C   UNL A   1      38.560  30.152  29.023  1.00  0.00     0.031 C 
ATOM     45  C   UNL A   1      37.812  34.267  34.513  1.00  0.00     0.029 A 
ATOM     46  C   UNL A   1      38.878  33.274  34.611  1.00  0.00     0.049 A 
ATOM     47  H   UNL A   1      39.459  31.894  33.165  1.00  0.00     0.167 HD
ATOM     48  C   UNL A   1      40.435  28.923  30.075  1.00  0.00     0.037 A 
ATOM     49  C   UNL A   1      39.681  33.085  35.675  1.00  0.00     0.037 A 
ATOM     50  C   UNL A   1      41.358  28.669  31.148  1.00  0.00     0.049 A 
ATOM     51  C   UNL A   1      40.725  32.002  35.621  1.00  0.00     0.074 A 
ATOM     52  C   UNL A   1      42.383  27.743  31.206  1.00  0.00     0.029 A 
ATOM     53  N   UNL A   1      41.371  29.358  32.353  1.00  0.00    -0.354 N 
ATOM     54  N   UNL A   1      40.999  31.164  34.650  1.00  0.00    -0.248 NA
ATOM     55  C   UNL A   1      41.570  31.838  36.811  1.00  0.00     0.031 C 
ATOM     56  C   UNL A   1      42.996  27.848  32.458  1.00  0.00     0.029 A 
ATOM     57  C   UNL A   1      42.381  28.869  33.165  1.00  0.00     0.049 A 
ATOM     58  H   UNL A   1      40.753  30.085  32.596  1.00  0.00     0.167 HD
ATOM     59  C   UNL A   1      42.055  30.386  35.104  1.00  0.00     0.074 A 
ATOM     60  C   UNL A   1      42.388  30.868  36.429  1.00  0.00     0.031 C 
ATOM     61  C   UNL A   1      42.691  29.363  34.483  1.00  0.00     0.037 A 
BRANCH  48  62
ATOM     62  C   UNL A   1      40.538  28.090  28.832  1.00  0.00     0.064 A 
ATOM     63  C   UNL A   1      39.828  26.887  28.697  1.00  0.00     0.173 A 
ATOM     64  C   UNL A   1      41.327  28.512  27.752  1.00  0.00     0.173 A 
ATOM     65  F   UNL A   1      39.074  26.431  29.709  1.00  0.00    -0.203 F 
ATOM     66  C   UNL A   1      39.922  26.127  27.535  1.00  0.00     0.198 A 
ATOM     67  C   UNL A   1      41.396  27.763  26.580  1.00  0.00     0.198 A 
ATOM     68  F   UNL A   1      42.027  29.653  27.830  1.00  0.00    -0.203 F 
ATOM     69  F   UNL A   1      39.270  24.958  27.446  1.00  0.00    -0.200 F 
ATOM     70  C   UNL A   1      40.698  26.569  26.474  1.00  0.00     0.200 A 
ATOM     71  F   UNL A   1      42.139  28.196  25.552  1.00  0.00    -0.200 F 
ATOM     72  F   UNL A   1      40.780  25.840  25.353  1.00  0.00    -0.200 F 
ENDBRANCH  48  62
BRANCH  49  73
ATOM     73  C   UNL A   1      39.546  33.957  36.870  1.00  0.00     0.064 A 
ATOM     74  C   UNL A   1      38.767  33.554  37.963  1.00  0.00     0.173 A 
ATOM     75  C   UNL A   1      40.193  35.198  36.950  1.00  0.00     0.173 A 
ATOM     76  F   UNL A   1      38.113  32.384  37.923  1.00  0.00    -0.203 F 
ATOM     77  C   UNL A   1      38.630  34.366  39.087  1.00  0.00     0.198 A 
ATOM     78  C   UNL A   1      40.075  35.998  38.085  1.00  0.00     0.198 A 
ATOM     79  F   UNL A   1      40.951  35.628  35.930  1.00  0.00    -0.203 F 
ATOM     80  F   UNL A   1      37.850  33.973  40.103  1.00  0.00    -0.200 F 
ATOM     81  C   UNL A   1      39.289  35.584  39.150  1.00  0.00     0.200 A 
ATOM     82  F   UNL A   1      40.723  37.169  38.147  1.00  0.00    -0.200 F 
ATOM     83  F   UNL A   1      39.163  36.361  40.234  1.00  0.00    -0.200 F 
ENDBRANCH  49  73
BRANCH  61  84
ATOM     84  C   UNL A   1      43.819  28.706  35.223  1.00  0.00     0.064 A 
ATOM     85  C   UNL A   1      43.597  27.617  36.079  1.00  0.00     0.173 A 
ATOM     86  C   UNL A   1      45.139  29.143  35.042  1.00  0.00     0.173 A 
ATOM     87  F   UNL A   1      42.350  27.171  36.294  1.00  0.00    -0.203 F 
ATOM     88  C   UNL A   1      44.655  27.005  36.745  1.00  0.00     0.198 A 
ATOM     89  C   UNL A   1      46.198  28.510  35.688  1.00  0.00     0.198 A 
ATOM     90  F   UNL A   1      45.405  30.176  34.228  1.00  0.00    -0.203 F 
ATOM     91  F   UNL A   1      44.415  25.996  37.594  1.00  0.00    -0.200 F 
ATOM     92  C   UNL A   1      45.954  27.447  36.544  1.00  0.00     0.200 A 
ATOM     93  F   UNL A   1      47.454  28.930  35.482  1.00  0.00    -0.200 F 
ATOM     94  F   UNL A   1      46.971  26.852  37.182  1.00  0.00    -0.200 F 
ENDBRANCH  61  84
ENDBRANCH  35  36
ENDBRANCH  27  30
ENDBRANCH  25  26
ENDBRANCH   1  25
TORSDOF 12
ENDMDL
MODEL 2
REMARK VINA RESULT:     -13.3      0.166      1.635
REMARK SMILES Cc1cc(Cl)c(C)c2c1O[C@H](C(F)(F)F)C(C(=O)NCCCCNC(=O)c1ccc(-c3c4nc(c(-c5c(F)c(F)c(F)c(F)c5F)c5ccc([nH]5)c(-c5c(F)c(F)c(F)c(F)c5F)c5nc(c(-c6c(F)c(F)c(F)c(F)c6F)c6ccc3[nH]6)C=C5)C=C4)cc1)=C2
REMARK SMILES IDX 22 1 21 2 20 3 19 4 17 5 18 6 16 8 1 9 2 10 3 11 9 12 4 13
REMARK SMILES IDX 8 14 10 15 5 16 6 17 90 18 11 19 7 20 12 21 13 22 14 23
REMARK SMILES IDX 15 24 23 25 24 26 25 27 26 29 27 30 28 31 89 32 29 33 88 34
REMARK SMILES IDX 30 35 31 36 32 37 82 38 33 39 87 40 81 41 83 42 34 43 86 44
REMARK SMILES IDX 80 45 79 46 35 48 67 49 47 50 66 51 48 52 51 53 65 54 84 55
REMARK SMILES IDX 49 56 50 57 64 59 85 60 52 61 36 62 37 63 45 64 38 65 39 66
REMARK SMILES IDX 43 67 46 68 40 69 41 70 44 71 42 72 68 73 69 74 77 75 70 76
REMARK SMILES IDX 71 77 75 78 78 79 72 80 73 81 76 82 74 83 53 84 54 85 62 86
REMARK SMILES IDX 55 87 56 88 60 89 63 90 57 91 58 92 61 93 59 94
REMARK H PARENT 19 7 24 28 83 47 51 58
REMARK Flexibility Score: inf
ROOT
ATOM      1  C   UNL A   1      31.548  31.999  26.838  1.00  0.00     0.023 C 
ENDROOT
BRANCH   1   2
ATOM      2  C   UNL A   1      31.792  30.489  26.817  1.00  0.00     0.023 C 
BRANCH   2   3
ATOM      3  C   UNL A   1      33.224  30.100  26.467  1.00  0.00     0.116 C 
BRANCH   3   4
ATOM      4  N   UNL A   1      33.358  29.732  25.069  1.00  0.00    -0.352 N 
ATOM      5  C   UNL A   1      33.177  28.620  24.318  1.00  0.00     0.251 C 
ATOM      6  O   UNL A   1      33.422  28.756  23.115  1.00  0.00    -0.270 OA
ATOM      7  H   UNL A   1      33.661  30.492  24.522  1.00  0.00     0.163 HD
BRANCH   5   8
ATOM      8  C   UNL A   1      32.719  27.296  24.834  1.00  0.00     0.067 C 
ATOM      9  C   UNL A   1      30.152  23.337  26.869  1.00  0.00     0.048 C 
ATOM     10  C   UNL A   1      31.590  23.618  26.532  1.00  0.00    -0.007 A 
ATOM     11  C   UNL A   1      32.543  22.610  26.695  1.00  0.00     0.028 A 
ATOM     12  C   UNL A   1      32.000  24.844  25.996  1.00  0.00     0.131 A 
ATOM     13  C   UNL A   1      33.882  22.828  26.354  1.00  0.00     0.045 A 
ATOM     14  C   UNL A   1      33.343  25.086  25.657  1.00  0.00     0.022 A 
ATOM     15  O   UNL A   1      31.031  25.800  25.874  1.00  0.00    -0.475 OA
ATOM     16  Cl  UNL A   1      34.966  21.505  26.621  1.00  0.00    -0.084 Cl
ATOM     17  C   UNL A   1      34.308  24.064  25.831  1.00  0.00    -0.021 A 
ATOM     18  C   UNL A   1      33.690  26.426  25.168  1.00  0.00     0.026 C 
ATOM     19  C   UNL A   1      31.283  26.893  24.959  1.00  0.00     0.314 C 
ATOM     20  C   UNL A   1      35.749  24.312  25.460  1.00  0.00     0.047 C 
BRANCH  19  21
ATOM     21  C   UNL A   1      30.625  26.587  23.602  1.00  0.00     0.429 C 
ATOM     22  F   UNL A   1      31.538  26.074  22.740  1.00  0.00    -0.167 F 
ATOM     23  F   UNL A   1      29.637  25.665  23.699  1.00  0.00    -0.167 F 
ATOM     24  F   UNL A   1      30.087  27.681  23.021  1.00  0.00    -0.167 F 
ENDBRANCH  19  21
ENDBRANCH   5   8
ENDBRANCH   3   4
ENDBRANCH   2   3
ENDBRANCH   1   2
BRANCH   1  25
ATOM     25  C   UNL A   1      32.764  32.848  27.203  1.00  0.00     0.116 C 
BRANCH  25  26
ATOM     26  N   UNL A   1      32.423  34.201  27.619  1.00  0.00    -0.352 N 
ATOM     27  C   UNL A   1      32.993  34.957  28.612  1.00  0.00     0.251 C 
ATOM     28  H   UNL A   1      31.689  34.630  27.122  1.00  0.00     0.163 HD
ATOM     29  O   UNL A   1      32.529  36.051  28.913  1.00  0.00    -0.269 OA
BRANCH  27  30
ATOM     30  C   UNL A   1      34.158  34.420  29.337  1.00  0.00     0.039 A 
ATOM     31  C   UNL A   1      33.949  33.709  30.520  1.00  0.00     0.014 A 
ATOM     32  C   UNL A   1      35.447  34.598  28.827  1.00  0.00     0.014 A 
ATOM     33  C   UNL A   1      35.035  33.124  31.170  1.00  0.00     0.010 A 
ATOM     34  C   UNL A   1      36.519  33.962  29.440  1.00  0.00     0.010 A 
ATOM     35  C   UNL A   1      36.323  33.227  30.620  1.00  0.00    -0.014 A 
BRANCH  35  36
ATOM     36  C   UNL A   1      37.499  32.627  31.288  1.00  0.00     0.031 A 
ATOM     37  C   UNL A   1      38.235  31.509  30.607  1.00  0.00     0.074 A 
ATOM     38  C   UNL A   1      37.860  33.035  32.517  1.00  0.00     0.049 A 
ATOM     39  N   UNL A   1      39.194  30.747  31.065  1.00  0.00    -0.248 NA
ATOM     40  C   UNL A   1      37.816  31.191  29.232  1.00  0.00     0.031 C 
ATOM     41  C   UNL A   1      37.213  34.103  33.280  1.00  0.00     0.029 A 
ATOM     42  N   UNL A   1      38.857  32.588  33.347  1.00  0.00    -0.354 N 
ATOM     43  C   UNL A   1      39.478  29.850  30.044  1.00  0.00     0.074 A 
ATOM     44  C   UNL A   1      38.559  30.130  28.961  1.00  0.00     0.031 C 
ATOM     45  C   UNL A   1      37.841  34.241  34.459  1.00  0.00     0.029 A 
ATOM     46  C   UNL A   1      38.905  33.245  34.552  1.00  0.00     0.049 A 
ATOM     47  H   UNL A   1      39.478  31.865  33.103  1.00  0.00     0.167 HD
ATOM     48  C   UNL A   1      40.436  28.895  30.006  1.00  0.00     0.037 A 
ATOM     49  C   UNL A   1      39.711  33.053  35.613  1.00  0.00     0.037 A 
ATOM     50  C   UNL A   1      41.362  28.638  31.075  1.00  0.00     0.049 A 
ATOM     51  C   UNL A   1      40.752  31.967  35.553  1.00  0.00     0.074 A 
ATOM     52  C   UNL A   1      42.385  27.710  31.128  1.00  0.00     0.029 A 
ATOM     53  N   UNL A   1      41.380  29.325  32.281  1.00  0.00    -0.354 N 
ATOM     54  N   UNL A   1      41.021  31.130  34.581  1.00  0.00    -0.248 NA
ATOM     55  C   UNL A   1      41.602  31.801  36.741  1.00  0.00     0.031 C 
ATOM     56  C   UNL A   1      43.002  27.811  32.379  1.00  0.00     0.029 A 
ATOM     57  C   UNL A   1      42.392  28.833  33.089  1.00  0.00     0.049 A 
ATOM     58  H   UNL A   1      40.765  30.054  32.527  1.00  0.00     0.167 HD
ATOM     59  C   UNL A   1      42.077  30.349  35.030  1.00  0.00     0.074 A 
ATOM     60  C   UNL A   1      42.416  30.828  36.354  1.00  0.00     0.031 C 
ATOM     61  C   UNL A   1      42.708  29.325  34.406  1.00  0.00     0.037 A 
BRANCH  48  62
ATOM     62  C   UNL A   1      40.532  28.064  28.761  1.00  0.00     0.064 A 
ATOM     63  C   UNL A   1      41.333  28.458  27.678  1.00  0.00     0.173 A 
ATOM     64  C   UNL A   1      39.844  26.846  28.660  1.00  0.00     0.173 A 
ATOM     65  F   UNL A   1      41.997  29.624  27.719  1.00  0.00    -0.203 F 
ATOM     66  C   UNL A   1      41.424  27.674  26.531  1.00  0.00     0.198 A 
ATOM     67  C   UNL A   1      39.960  26.051  27.522  1.00  0.00     0.198 A 
ATOM     68  F   UNL A   1      39.064  26.424  29.665  1.00  0.00    -0.203 F 
ATOM     69  F   UNL A   1      42.160  28.094  25.492  1.00  0.00    -0.200 F 
ATOM     70  C   UNL A   1      40.745  26.468  26.457  1.00  0.00     0.200 A 
ATOM     71  F   UNL A   1      39.310  24.881  27.455  1.00  0.00    -0.200 F 
ATOM     72  F   UNL A   1      40.841  25.710  25.357  1.00  0.00    -0.200 F 
ENDBRANCH  48  62
BRANCH  49  73
ATOM     73  C   UNL A   1      39.583  33.924  36.809  1.00  0.00     0.064 A 
ATOM     74  C   UNL A   1      38.798  33.527  37.899  1.00  0.00     0.173 A 
ATOM     75  C   UNL A   1      40.242  35.158  36.893  1.00  0.00     0.173 A 
ATOM     76  F   UNL A   1      38.131  32.364  37.856  1.00  0.00    -0.203 F 
ATOM     77  C   UNL A   1      38.666  34.338  39.025  1.00  0.00     0.198 A 
ATOM     78  C   UNL A   1      40.130  35.957  38.029  1.00  0.00     0.198 A 
ATOM     79  F   UNL A   1      41.007  35.582  35.876  1.00  0.00    -0.203 F 
ATOM     80  F   UNL A   1      37.879  33.951  40.039  1.00  0.00    -0.200 F 
ATOM     81  C   UNL A   1      39.338  35.549  39.091  1.00  0.00     0.200 A 
ATOM     82  F   UNL A   1      40.790  37.121  38.095  1.00  0.00    -0.200 F 
ATOM     83  F   UNL A   1      39.217  36.326  40.177  1.00  0.00    -0.200 F 
ENDBRANCH  49  73
BRANCH  61  84
ATOM     84  C   UNL A   1      43.838  28.664  35.141  1.00  0.00     0.064 A 
ATOM     85  C   UNL A   1      45.156  29.133  35.031  1.00  0.00     0.173 A 
ATOM     86  C   UNL A   1      43.594  27.580  35.996  1.00  0.00     0.173 A 
ATOM     87  F   UNL A   1      45.441  30.159  34.214  1.00  0.00    -0.203 F 
ATOM     88  C   UNL A   1      46.191  28.523  35.732  1.00  0.00     0.198 A 
ATOM     89  C   UNL A   1      44.628  26.991  36.719  1.00  0.00     0.198 A 
ATOM     90  F   UNL A   1      42.349  27.100  36.142  1.00  0.00    -0.203 F 
ATOM     91  F   UNL A   1      47.450  28.957  35.576  1.00  0.00    -0.200 F 
ATOM     92  C   UNL A   1      45.926  27.458  36.580  1.00  0.00     0.200 A 
ATOM     93  F   UNL A   1      44.368  25.971  37.548  1.00  0.00    -0.200 F 
ATOM     94  F   UNL A   1      46.924  26.877  37.260  1.00  0.00    -0.200 F 
ENDBRANCH  61  84
ENDBRANCH  35  36
ENDBRANCH  27  30
ENDBRANCH  25  26
ENDBRANCH   1  25
TORSDOF 12
ENDMDL
MODEL 3
REMARK VINA RESULT:     -13.1      5.805     11.087
REMARK SMILES Cc1cc(Cl)c(C)c2c1O[C@H](C(F)(F)F)C(C(=O)NCCCCNC(=O)c1ccc(-c3c4nc(c(-c5c(F)c(F)c(F)c(F)c5F)c5ccc([nH]5)c(-c5c(F)c(F)c(F)c(F)c5F)c5nc(c(-c6c(F)c(F)c(F)c(F)c6F)c6ccc3[nH]6)C=C5)C=C4)cc1)=C2
REMARK SMILES IDX 22 1 21 2 20 3 19 4 17 5 18 6 16 8 1 9 2 10 3 11 9 12 4 13
REMARK SMILES IDX 8 14 10 15 5 16 6 17 90 18 11 19 7 20 12 21 13 22 14 23
REMARK SMILES IDX 15 24 23 25 24 26 25 27 26 29 27 30 28 31 89 32 29 33 88 34
REMARK SMILES IDX 30 35 31 36 32 37 82 38 33 39 87 40 81 41 83 42 34 43 86 44
REMARK SMILES IDX 80 45 79 46 35 48 67 49 47 50 66 51 48 52 51 53 65 54 84 55
REMARK SMILES IDX 49 56 50 57 64 59 85 60 52 61 36 62 37 63 45 64 38 65 39 66
REMARK SMILES IDX 43 67 46 68 40 69 41 70 44 71 42 72 68 73 69 74 77 75 70 76
REMARK SMILES IDX 71 77 75 78 78 79 72 80 73 81 76 82 74 83 53 84 54 85 62 86
REMARK SMILES IDX 55 87 56 88 60 89 63 90 57 91 58 92 61 93 59 94
REMARK H PARENT 19 7 24 28 83 47 51 58
REMARK Flexibility Score: inf
ROOT
ATOM      1  C   UNL A   1      38.017  19.764  25.003  1.00  0.00     0.023 C 
ENDROOT
BRANCH   1   2
ATOM      2  C   UNL A   1      37.092  20.909  24.585  1.00  0.00     0.023 C 
BRANCH   2   3
ATOM      3  C   UNL A   1      37.258  22.172  25.422  1.00  0.00     0.116 C 
BRANCH   3   4
ATOM      4  N   UNL A   1      36.203  22.308  26.410  1.00  0.00    -0.352 N 
ATOM      5  C   UNL A   1      34.984  22.893  26.481  1.00  0.00     0.251 C 
ATOM      6  O   UNL A   1      34.401  22.758  27.561  1.00  0.00    -0.270 OA
ATOM      7  H   UNL A   1      36.436  21.855  27.252  1.00  0.00     0.163 HD
BRANCH   5   8
ATOM      8  C   UNL A   1      34.328  23.656  25.377  1.00  0.00     0.067 C 
ATOM      9  C   UNL A   1      32.726  25.578  20.889  1.00  0.00     0.048 C 
ATOM     10  C   UNL A   1      32.677  26.028  22.322  1.00  0.00    -0.007 A 
ATOM     11  C   UNL A   1      31.988  27.198  22.652  1.00  0.00     0.028 A 
ATOM     12  C   UNL A   1      33.246  25.276  23.357  1.00  0.00     0.131 A 
ATOM     13  C   UNL A   1      31.891  27.623  23.981  1.00  0.00     0.045 A 
ATOM     14  C   UNL A   1      33.168  25.691  24.698  1.00  0.00     0.022 A 
ATOM     15  O   UNL A   1      33.922  24.149  22.978  1.00  0.00    -0.475 OA
ATOM     16  Cl  UNL A   1      31.027  29.098  24.252  1.00  0.00    -0.084 Cl
ATOM     17  C   UNL A   1      32.476  26.882  25.026  1.00  0.00    -0.021 A 
ATOM     18  C   UNL A   1      33.856  24.873  25.704  1.00  0.00     0.026 C 
ATOM     19  C   UNL A   1      34.148  23.136  23.985  1.00  0.00     0.314 C 
ATOM     20  C   UNL A   1      32.378  27.330  26.463  1.00  0.00     0.047 C 
BRANCH  19  21
ATOM     21  C   UNL A   1      33.054  22.059  23.884  1.00  0.00     0.429 C 
ATOM     22  F   UNL A   1      32.011  22.368  24.697  1.00  0.00    -0.167 F 
ATOM     23  F   UNL A   1      32.541  21.955  22.635  1.00  0.00    -0.167 F 
ATOM     24  F   UNL A   1      33.492  20.830  24.234  1.00  0.00    -0.167 F 
ENDBRANCH  19  21
ENDBRANCH   5   8
ENDBRANCH   3   4
ENDBRANCH   2   3
ENDBRANCH   1   2
BRANCH   1  25
ATOM     25  C   UNL A   1      39.279  20.188  25.751  1.00  0.00     0.116 C 
BRANCH  25  26
ATOM     26  N   UNL A   1      40.270  19.127  25.864  1.00  0.00    -0.352 N 
ATOM     27  C   UNL A   1      41.613  19.240  26.126  1.00  0.00     0.251 C 
ATOM     28  H   UNL A   1      39.933  18.211  25.738  1.00  0.00     0.163 HD
ATOM     29  O   UNL A   1      42.343  18.255  26.092  1.00  0.00    -0.269 OA
BRANCH  27  30
ATOM     30  C   UNL A   1      42.173  20.570  26.418  1.00  0.00     0.039 A 
ATOM     31  C   UNL A   1      42.569  21.385  25.356  1.00  0.00     0.014 A 
ATOM     32  C   UNL A   1      42.277  21.016  27.739  1.00  0.00     0.014 A 
ATOM     33  C   UNL A   1      43.022  22.678  25.615  1.00  0.00     0.010 A 
ATOM     34  C   UNL A   1      42.667  22.325  27.991  1.00  0.00     0.010 A 
ATOM     35  C   UNL A   1      43.050  23.163  26.932  1.00  0.00    -0.014 A 
BRANCH  35  36
ATOM     36  C   UNL A   1      43.534  24.527  27.244  1.00  0.00     0.031 A 
ATOM     37  C   UNL A   1      42.566  25.539  27.787  1.00  0.00     0.074 A 
ATOM     38  C   UNL A   1      44.807  24.870  26.981  1.00  0.00     0.049 A 
ATOM     39  N   UNL A   1      42.734  26.819  27.993  1.00  0.00    -0.248 NA
ATOM     40  C   UNL A   1      41.219  25.046  28.117  1.00  0.00     0.031 C 
ATOM     41  C   UNL A   1      45.832  23.974  26.443  1.00  0.00     0.029 A 
ATOM     42  N   UNL A   1      45.453  26.071  27.120  1.00  0.00    -0.354 N 
ATOM     43  C   UNL A   1      41.512  27.286  28.458  1.00  0.00     0.074 A 
ATOM     44  C   UNL A   1      40.599  26.164  28.458  1.00  0.00     0.031 C 
ATOM     45  C   UNL A   1      46.983  24.653  26.315  1.00  0.00     0.029 A 
ATOM     46  C   UNL A   1      46.767  26.040  26.722  1.00  0.00     0.049 A 
ATOM     47  H   UNL A   1      45.017  26.880  27.473  1.00  0.00     0.167 HD
ATOM     48  C   UNL A   1      41.191  28.534  28.871  1.00  0.00     0.037 A 
ATOM     49  C   UNL A   1      47.684  27.024  26.679  1.00  0.00     0.037 A 
ATOM     50  C   UNL A   1      42.110  29.639  28.891  1.00  0.00     0.049 A 
ATOM     51  C   UNL A   1      47.293  28.408  27.121  1.00  0.00     0.074 A 
ATOM     52  C   UNL A   1      41.891  30.937  29.312  1.00  0.00     0.029 A 
ATOM     53  N   UNL A   1      43.434  29.568  28.480  1.00  0.00    -0.354 N 
ATOM     54  N   UNL A   1      46.139  28.840  27.568  1.00  0.00    -0.248 NA
ATOM     55  C   UNL A   1      48.334  29.443  27.049  1.00  0.00     0.031 C 
ATOM     56  C   UNL A   1      43.072  31.662  29.125  1.00  0.00     0.029 A 
ATOM     57  C   UNL A   1      44.041  30.804  28.628  1.00  0.00     0.049 A 
ATOM     58  H   UNL A   1      43.876  28.759  28.133  1.00  0.00     0.167 HD
ATOM     59  C   UNL A   1      46.316  30.187  27.847  1.00  0.00     0.074 A 
ATOM     60  C   UNL A   1      47.697  30.498  27.539  1.00  0.00     0.031 C 
ATOM     61  C   UNL A   1      45.417  31.090  28.311  1.00  0.00     0.037 A 
BRANCH  48  62
ATOM     62  C   UNL A   1      39.785  28.764  29.340  1.00  0.00     0.064 A 
ATOM     63  C   UNL A   1      39.427  28.595  30.687  1.00  0.00     0.173 A 
ATOM     64  C   UNL A   1      38.793  29.189  28.445  1.00  0.00     0.173 A 
ATOM     65  F   UNL A   1      40.335  28.172  31.579  1.00  0.00    -0.203 F 
ATOM     66  C   UNL A   1      38.122  28.821  31.115  1.00  0.00     0.198 A 
ATOM     67  C   UNL A   1      37.495  29.442  28.882  1.00  0.00     0.198 A 
ATOM     68  F   UNL A   1      39.082  29.364  27.148  1.00  0.00    -0.203 F 
ATOM     69  F   UNL A   1      37.793  28.610  32.397  1.00  0.00    -0.200 F 
ATOM     70  C   UNL A   1      37.159  29.252  30.215  1.00  0.00     0.200 A 
ATOM     71  F   UNL A   1      36.567  29.867  28.013  1.00  0.00    -0.200 F 
ATOM     72  F   UNL A   1      35.906  29.479  30.630  1.00  0.00    -0.200 F 
ENDBRANCH  48  62
BRANCH  49  73
ATOM     73  C   UNL A   1      49.068  26.729  26.226  1.00  0.00     0.064 A 
ATOM     74  C   UNL A   1      49.437  26.924  24.888  1.00  0.00     0.173 A 
ATOM     75  C   UNL A   1      50.046  26.256  27.112  1.00  0.00     0.173 A 
ATOM     76  F   UNL A   1      48.529  27.354  24.000  1.00  0.00    -0.203 F 
ATOM     77  C   UNL A   1      50.730  26.646  24.451  1.00  0.00     0.198 A 
ATOM     78  C   UNL A   1      51.346  26.002  26.679  1.00  0.00     0.198 A 
ATOM     79  F   UNL A   1      49.742  26.054  28.403  1.00  0.00    -0.203 F 
ATOM     80  F   UNL A   1      51.047  26.807  23.158  1.00  0.00    -0.200 F 
ATOM     81  C   UNL A   1      51.685  26.192  25.348  1.00  0.00     0.200 A 
ATOM     82  F   UNL A   1      52.269  25.575  27.551  1.00  0.00    -0.200 F 
ATOM     83  F   UNL A   1      52.931  25.932  24.928  1.00  0.00    -0.200 F 
ENDBRANCH  49  73
BRANCH  61  84
ATOM     84  C   UNL A   1      45.903  32.493  28.529  1.00  0.00     0.064 A 
ATOM     85  C   UNL A   1      45.809  33.465  27.522  1.00  0.00     0.173 A 
ATOM     86  C   UNL A   1      46.430  32.879  29.770  1.00  0.00     0.173 A 
ATOM     87  F   UNL A   1      45.325  33.139  26.314  1.00  0.00    -0.203 F 
ATOM     88  C   UNL A   1      46.247  34.767  27.744  1.00  0.00     0.198 A 
ATOM     89  C   UNL A   1      46.840  34.190  29.997  1.00  0.00     0.198 A 
ATOM     90  F   UNL A   1      46.534  31.988  30.768  1.00  0.00    -0.203 F 
ATOM     91  F   UNL A   1      46.190  35.668  26.752  1.00  0.00    -0.200 F 
ATOM     92  C   UNL A   1      46.755  35.130  28.982  1.00  0.00     0.200 A 
ATOM     93  F   UNL A   1      47.318  34.543  31.198  1.00  0.00    -0.200 F 
ATOM     94  F   UNL A   1      47.170  36.387  29.194  1.00  0.00    -0.200 F 
ENDBRANCH  61  84
ENDBRANCH  35  36
ENDBRANCH  27  30
ENDBRANCH  25  26
ENDBRANCH   1  25
TORSDOF 12
ENDMDL
