MODEL 1
REMARK VINA RESULT:     -13.0      0.000      0.000
REMARK SMILES Cc1c(CC(=O)N[C@@H](CCO)C(=O)NCCCCNC(=O)c2ccc(-c3c4nc(c(-c5c(F)c(F)c(F)c(F)c5F)c5ccc([nH]5)c(-c5c(F)c(F)c(F)c(F)c5F)c5nc(c(-c6c(F)c(F)c(F)c(F)c6F)c6ccc3[nH]6)C=C5)C=C4)cc2)cc(-c2ccc(S(C)(=O)=O)cc2)n1-c1ccc(F)cc1
REMARK SMILES IDX 15 1 14 2 12 3 13 4 8 6 7 7 5 8 6 9 4 11 3 12 1 13 2 14
REMARK SMILES IDX 97 15 85 16 86 17 98 18 99 19 104 20 100 21 103 22 101 23
REMARK SMILES IDX 102 24 87 25 88 26 96 27 89 28 95 29 90 30 91 31 92 32 93 33
REMARK SMILES IDX 94 34 9 35 10 36 11 37 16 39 17 40 18 41 19 42 20 43 21 45
REMARK SMILES IDX 22 46 23 47 84 48 24 49 83 50 25 51 26 52 27 53 77 54 28 55
REMARK SMILES IDX 82 56 76 57 78 58 29 59 81 60 75 61 74 62 30 64 62 65 42 66
REMARK SMILES IDX 61 67 43 68 46 69 60 70 79 71 44 72 45 73 59 75 80 76 47 77
REMARK SMILES IDX 31 78 32 79 40 80 33 81 34 82 38 83 41 84 35 85 36 86 39 87
REMARK SMILES IDX 37 88 63 89 64 90 72 91 65 92 66 93 70 94 73 95 67 96 68 97
REMARK SMILES IDX 71 98 69 99 48 100 49 101 57 102 50 103 51 104 55 105 58 106
REMARK SMILES IDX 52 107 53 108 56 109 54 110
REMARK H PARENT 14 5 7 10 11 38 19 44 78 63 46 74
REMARK Flexibility Score: inf
ROOT
ATOM      1  C   UNL A   1      37.085  21.387  25.010  1.00  0.00     0.116 C 
ENDROOT
BRANCH   1   2
ATOM      2  N   UNL A   1      36.192  20.241  25.063  1.00  0.00    -0.354 N 
ATOM      3  C   UNL A   1      34.842  20.120  24.970  1.00  0.00     0.242 C 
ATOM      4  O   UNL A   1      34.423  19.002  24.652  1.00  0.00    -0.273 OA
ATOM      5  H   UNL A   1      36.657  19.384  25.192  1.00  0.00     0.163 HD
BRANCH   3   6
ATOM      6  C   UNL A   1      33.867  21.296  25.112  1.00  0.00     0.173 C 
BRANCH   6   7
ATOM      7  N   UNL A   1      32.846  21.292  24.066  1.00  0.00    -0.344 N 
ATOM      8  C   UNL A   1      32.799  22.061  22.935  1.00  0.00     0.225 C 
ATOM      9  O   UNL A   1      31.996  21.737  22.057  1.00  0.00    -0.275 OA
ATOM     10  H   UNL A   1      32.101  20.659  24.190  1.00  0.00     0.164 HD
BRANCH   8  11
ATOM     11  C   UNL A   1      33.715  23.271  22.772  1.00  0.00     0.137 C 
BRANCH  11  12
ATOM     12  C   UNL A   1      33.084  24.528  23.294  1.00  0.00    -0.017 A 
ATOM     13  C   UNL A   1      34.448  24.892  25.476  1.00  0.00     0.065 C 
ATOM     14  C   UNL A   1      33.460  25.256  24.414  1.00  0.00     0.024 A 
ATOM     15  N   UNL A   1      32.702  26.422  24.451  1.00  0.00    -0.314 N 
ATOM     16  C   UNL A   1      31.980  25.210  22.717  1.00  0.00     0.033 A 
ATOM     17  C   UNL A   1      31.773  26.390  23.412  1.00  0.00     0.053 A 
BRANCH  15  18
ATOM     18  C   UNL A   1      32.862  27.469  25.393  1.00  0.00     0.046 A 
ATOM     19  C   UNL A   1      32.029  27.521  26.516  1.00  0.00     0.029 A 
ATOM     20  C   UNL A   1      33.839  28.449  25.176  1.00  0.00     0.029 A 
ATOM     21  C   UNL A   1      32.200  28.549  27.443  1.00  0.00     0.041 A 
ATOM     22  C   UNL A   1      33.986  29.486  26.096  1.00  0.00     0.041 A 
ATOM     23  C   UNL A   1      33.172  29.520  27.223  1.00  0.00     0.123 A 
ATOM     24  F   UNL A   1      33.325  30.510  28.113  1.00  0.00    -0.207 F 
ENDBRANCH  15  18
BRANCH  17  25
ATOM     25  C   UNL A   1      30.842  27.472  23.066  1.00  0.00    -0.001 A 
ATOM     26  C   UNL A   1      31.280  28.613  22.377  1.00  0.00     0.011 A 
ATOM     27  C   UNL A   1      29.485  27.354  23.395  1.00  0.00     0.011 A 
ATOM     28  C   UNL A   1      30.389  29.643  22.065  1.00  0.00     0.021 A 
ATOM     29  C   UNL A   1      28.587  28.378  23.085  1.00  0.00     0.021 A 
ATOM     30  C   UNL A   1      29.048  29.527  22.439  1.00  0.00     0.067 A 
BRANCH  30  31
ATOM     31  S   UNL A   1      27.924  30.845  22.043  1.00  0.00     0.175 S 
ATOM     32  C   UNL A   1      28.911  32.311  22.203  1.00  0.00     0.163 C 
ATOM     33  O   UNL A   1      27.549  30.689  20.663  1.00  0.00    -0.224 OA
ATOM     34  O   UNL A   1      26.915  30.889  23.099  1.00  0.00    -0.224 OA
ENDBRANCH  30  31
ENDBRANCH  17  25
ENDBRANCH  11  12
ENDBRANCH   8  11
ENDBRANCH   6   7
BRANCH   6  35
ATOM     35  C   UNL A   1      33.334  21.568  26.529  1.00  0.00     0.063 C 
BRANCH  35  36
ATOM     36  C   UNL A   1      32.022  22.318  26.693  1.00  0.00     0.158 C 
BRANCH  36  37
ATOM     37  O   UNL A   1      30.938  21.693  26.027  1.00  0.00    -0.396 OA
ATOM     38  H   UNL A   1      31.242  20.869  25.615  1.00  0.00     0.210 HD
ENDBRANCH  36  37
ENDBRANCH  35  36
ENDBRANCH   6  35
ENDBRANCH   3   6
ENDBRANCH   1   2
BRANCH   1  39
ATOM     39  C   UNL A   1      38.535  21.038  25.324  1.00  0.00     0.023 C 
BRANCH  39  40
ATOM     40  C   UNL A   1      39.370  22.122  26.027  1.00  0.00     0.023 C 
BRANCH  40  41
ATOM     41  C   UNL A   1      40.598  21.696  26.843  1.00  0.00     0.116 C 
BRANCH  41  42
ATOM     42  N   UNL A   1      41.862  22.235  26.405  1.00  0.00    -0.352 N 
ATOM     43  C   UNL A   1      42.273  23.550  26.551  1.00  0.00     0.251 C 
ATOM     44  H   UNL A   1      42.487  21.615  25.964  1.00  0.00     0.163 HD
ATOM     45  O   UNL A   1      43.400  23.880  26.191  1.00  0.00    -0.269 OA
BRANCH  43  46
ATOM     46  C   UNL A   1      41.315  24.588  27.063  1.00  0.00     0.039 A 
ATOM     47  C   UNL A   1      40.893  25.572  26.186  1.00  0.00     0.014 A 
ATOM     48  C   UNL A   1      40.927  24.708  28.409  1.00  0.00     0.014 A 
ATOM     49  C   UNL A   1      40.072  26.625  26.650  1.00  0.00     0.010 A 
ATOM     50  C   UNL A   1      40.161  25.838  28.891  1.00  0.00     0.010 A 
ATOM     51  C   UNL A   1      39.728  26.858  28.028  1.00  0.00    -0.014 A 
BRANCH  51  52
ATOM     52  C   UNL A   1      39.408  28.362  28.411  1.00  0.00     0.031 A 
ATOM     53  C   UNL A   1      40.763  28.986  28.519  1.00  0.00     0.074 A 
ATOM     54  C   UNL A   1      38.360  29.210  28.738  1.00  0.00     0.049 A 
ATOM     55  N   UNL A   1      41.660  28.503  29.336  1.00  0.00    -0.248 NA
ATOM     56  C   UNL A   1      41.292  29.851  27.461  1.00  0.00     0.031 C 
ATOM     57  C   UNL A   1      36.936  28.882  28.892  1.00  0.00     0.029 A 
ATOM     58  N   UNL A   1      38.324  30.609  29.005  1.00  0.00    -0.354 N 
ATOM     59  C   UNL A   1      42.820  29.188  29.070  1.00  0.00     0.074 A 
ATOM     60  C   UNL A   1      42.589  29.819  27.778  1.00  0.00     0.031 C 
ATOM     61  C   UNL A   1      36.182  30.004  29.087  1.00  0.00     0.029 A 
ATOM     62  C   UNL A   1      37.024  31.198  29.151  1.00  0.00     0.049 A 
ATOM     63  H   UNL A   1      39.147  31.145  29.085  1.00  0.00     0.167 HD
ATOM     64  C   UNL A   1      43.476  29.708  30.145  1.00  0.00     0.037 A 
ATOM     65  C   UNL A   1      36.641  32.514  29.372  1.00  0.00     0.037 A 
ATOM     66  C   UNL A   1      43.222  31.115  30.294  1.00  0.00     0.049 A 
ATOM     67  C   UNL A   1      37.799  33.214  29.944  1.00  0.00     0.074 A 
ATOM     68  C   UNL A   1      43.200  32.167  29.400  1.00  0.00     0.029 A 
ATOM     69  N   UNL A   1      42.442  31.495  31.366  1.00  0.00    -0.354 N 
ATOM     70  N   UNL A   1      38.128  33.086  31.191  1.00  0.00    -0.248 NA
ATOM     71  C   UNL A   1      38.585  34.178  29.179  1.00  0.00     0.031 C 
ATOM     72  C   UNL A   1      41.986  32.834  29.687  1.00  0.00     0.029 A 
ATOM     73  C   UNL A   1      41.529  32.432  30.937  1.00  0.00     0.049 A 
ATOM     74  H   UNL A   1      42.526  31.155  32.286  1.00  0.00     0.167 HD
ATOM     75  C   UNL A   1      39.419  33.502  31.200  1.00  0.00     0.074 A 
ATOM     76  C   UNL A   1      39.541  34.414  30.081  1.00  0.00     0.031 C 
ATOM     77  C   UNL A   1      40.324  32.628  31.699  1.00  0.00     0.037 A 
BRANCH  64  78
ATOM     78  C   UNL A   1      43.640  28.770  31.301  1.00  0.00     0.064 A 
ATOM     79  C   UNL A   1      44.887  28.176  31.513  1.00  0.00     0.173 A 
ATOM     80  C   UNL A   1      42.584  28.389  32.154  1.00  0.00     0.173 A 
ATOM     81  F   UNL A   1      45.947  28.558  30.784  1.00  0.00    -0.203 F 
ATOM     82  C   UNL A   1      45.054  27.195  32.489  1.00  0.00     0.198 A 
ATOM     83  C   UNL A   1      42.738  27.365  33.080  1.00  0.00     0.198 A 
ATOM     84  F   UNL A   1      41.411  29.042  32.129  1.00  0.00    -0.203 F 
ATOM     85  F   UNL A   1      46.268  26.667  32.703  1.00  0.00    -0.200 F 
ATOM     86  C   UNL A   1      43.973  26.765  33.245  1.00  0.00     0.200 A 
ATOM     87  F   UNL A   1      41.693  26.979  33.826  1.00  0.00    -0.200 F 
ATOM     88  F   UNL A   1      44.130  25.797  34.159  1.00  0.00    -0.200 F 
ENDBRANCH  64  78
BRANCH  65  89
ATOM     89  C   UNL A   1      35.426  33.458  29.375  1.00  0.00     0.064 A 
ATOM     90  C   UNL A   1      34.716  33.742  30.593  1.00  0.00     0.173 A 
ATOM     91  C   UNL A   1      35.200  34.391  28.357  1.00  0.00     0.173 A 
ATOM     92  F   UNL A   1      34.792  32.926  31.653  1.00  0.00    -0.203 F 
ATOM     93  C   UNL A   1      33.970  34.910  30.807  1.00  0.00     0.198 A 
ATOM     94  C   UNL A   1      34.410  35.549  28.563  1.00  0.00     0.198 A 
ATOM     95  F   UNL A   1      35.816  34.253  27.177  1.00  0.00    -0.203 F 
ATOM     96  F   UNL A   1      33.454  35.168  32.021  1.00  0.00    -0.200 F 
ATOM     97  C   UNL A   1      33.831  35.825  29.793  1.00  0.00     0.200 A 
ATOM     98  F   UNL A   1      34.272  36.446  27.575  1.00  0.00    -0.200 F 
ATOM     99  F   UNL A   1      33.176  36.977  30.009  1.00  0.00    -0.200 F 
ENDBRANCH  65  89
BRANCH  77 100
ATOM    100  C   UNL A   1      39.887  31.824  32.913  1.00  0.00     0.064 A 
ATOM    101  C   UNL A   1      39.066  30.668  32.913  1.00  0.00     0.173 A 
ATOM    102  C   UNL A   1      40.236  32.323  34.175  1.00  0.00     0.173 A 
ATOM    103  F   UNL A   1      38.759  30.016  31.784  1.00  0.00    -0.203 F 
ATOM    104  C   UNL A   1      38.543  30.133  34.093  1.00  0.00     0.198 A 
ATOM    105  C   UNL A   1      39.760  31.752  35.355  1.00  0.00     0.198 A 
ATOM    106  F   UNL A   1      41.062  33.377  34.268  1.00  0.00    -0.203 F 
ATOM    107  F   UNL A   1      37.700  29.090  34.045  1.00  0.00    -0.200 F 
ATOM    108  C   UNL A   1      38.889  30.677  35.315  1.00  0.00     0.200 A 
ATOM    109  F   UNL A   1      40.146  32.254  36.535  1.00  0.00    -0.200 F 
ATOM    110  F   UNL A   1      38.399  30.161  36.450  1.00  0.00    -0.200 F 
ENDBRANCH  77 100
ENDBRANCH  51  52
ENDBRANCH  43  46
ENDBRANCH  41  42
ENDBRANCH  40  41
ENDBRANCH  39  40
ENDBRANCH   1  39
TORSDOF 20
ENDMDL
MODEL 2
REMARK VINA RESULT:     -12.8      1.503      2.151
REMARK SMILES Cc1c(CC(=O)N[C@@H](CCO)C(=O)NCCCCNC(=O)c2ccc(-c3c4nc(c(-c5c(F)c(F)c(F)c(F)c5F)c5ccc([nH]5)c(-c5c(F)c(F)c(F)c(F)c5F)c5nc(c(-c6c(F)c(F)c(F)c(F)c6F)c6ccc3[nH]6)C=C5)C=C4)cc2)cc(-c2ccc(S(C)(=O)=O)cc2)n1-c1ccc(F)cc1
REMARK SMILES IDX 15 1 14 2 12 3 13 4 8 6 7 7 5 8 6 9 4 11 3 12 1 13 2 14
REMARK SMILES IDX 97 15 85 16 86 17 98 18 99 19 104 20 100 21 103 22 101 23
REMARK SMILES IDX 102 24 87 25 88 26 96 27 89 28 95 29 90 30 91 31 92 32 93 33
REMARK SMILES IDX 94 34 9 35 10 36 11 37 16 39 17 40 18 41 19 42 20 43 21 45
REMARK SMILES IDX 22 46 23 47 84 48 24 49 83 50 25 51 26 52 27 53 77 54 28 55
REMARK SMILES IDX 82 56 76 57 78 58 29 59 81 60 75 61 74 62 30 64 62 65 42 66
REMARK SMILES IDX 61 67 43 68 46 69 60 70 79 71 44 72 45 73 59 75 80 76 47 77
REMARK SMILES IDX 31 78 32 79 40 80 33 81 34 82 38 83 41 84 35 85 36 86 39 87
REMARK SMILES IDX 37 88 63 89 64 90 72 91 65 92 66 93 70 94 73 95 67 96 68 97
REMARK SMILES IDX 71 98 69 99 48 100 49 101 57 102 50 103 51 104 55 105 58 106
REMARK SMILES IDX 52 107 53 108 56 109 54 110
REMARK H PARENT 14 5 7 10 11 38 19 44 78 63 46 74
REMARK Flexibility Score: inf
ROOT
ATOM      1  C   UNL A   1      36.320  21.306  24.906  1.00  0.00     0.116 C 
ENDROOT
BRANCH   1   2
ATOM      2  N   UNL A   1      35.374  20.300  25.362  1.00  0.00    -0.354 N 
ATOM      3  C   UNL A   1      34.017  20.252  25.377  1.00  0.00     0.242 C 
ATOM      4  O   UNL A   1      33.519  19.123  25.450  1.00  0.00    -0.273 OA
ATOM      5  H   UNL A   1      35.802  19.496  25.734  1.00  0.00     0.163 HD
BRANCH   3   6
ATOM      6  C   UNL A   1      33.116  21.478  25.187  1.00  0.00     0.173 C 
BRANCH   6   7
ATOM      7  N   UNL A   1      32.324  21.393  23.961  1.00  0.00    -0.344 N 
ATOM      8  C   UNL A   1      32.542  22.037  22.773  1.00  0.00     0.225 C 
ATOM      9  O   UNL A   1      31.915  21.644  21.787  1.00  0.00    -0.275 OA
ATOM     10  H   UNL A   1      31.537  20.800  23.994  1.00  0.00     0.164 HD
BRANCH   8  11
ATOM     11  C   UNL A   1      33.535  23.192  22.679  1.00  0.00     0.137 C 
BRANCH  11  12
ATOM     12  C   UNL A   1      32.968  24.466  23.234  1.00  0.00    -0.017 A 
ATOM     13  C   UNL A   1      34.442  24.780  25.350  1.00  0.00     0.065 C 
ATOM     14  C   UNL A   1      33.417  25.178  24.336  1.00  0.00     0.024 A 
ATOM     15  N   UNL A   1      32.698  26.366  24.411  1.00  0.00    -0.314 N 
ATOM     16  C   UNL A   1      31.860  25.184  22.711  1.00  0.00     0.033 A 
ATOM     17  C   UNL A   1      31.721  26.366  23.418  1.00  0.00     0.053 A 
BRANCH  15  18
ATOM     18  C   UNL A   1      32.933  27.404  25.348  1.00  0.00     0.046 A 
ATOM     19  C   UNL A   1      33.988  28.299  25.137  1.00  0.00     0.029 A 
ATOM     20  C   UNL A   1      32.118  27.507  26.483  1.00  0.00     0.029 A 
ATOM     21  C   UNL A   1      34.207  29.322  26.059  1.00  0.00     0.041 A 
ATOM     22  C   UNL A   1      32.360  28.519  27.410  1.00  0.00     0.041 A 
ATOM     23  C   UNL A   1      33.394  29.421  27.185  1.00  0.00     0.123 A 
ATOM     24  F   UNL A   1      33.615  30.401  28.071  1.00  0.00    -0.207 F 
ENDBRANCH  15  18
BRANCH  17  25
ATOM     25  C   UNL A   1      30.808  27.477  23.117  1.00  0.00    -0.001 A 
ATOM     26  C   UNL A   1      29.447  27.409  23.452  1.00  0.00     0.011 A 
ATOM     27  C   UNL A   1      31.304  28.642  22.516  1.00  0.00     0.011 A 
ATOM     28  C   UNL A   1      28.585  28.465  23.149  1.00  0.00     0.021 A 
ATOM     29  C   UNL A   1      30.449  29.703  22.210  1.00  0.00     0.021 A 
ATOM     30  C   UNL A   1      29.089  29.601  22.511  1.00  0.00     0.067 A 
BRANCH  30  31
ATOM     31  S   UNL A   1      27.982  30.936  22.124  1.00  0.00     0.175 S 
ATOM     32  C   UNL A   1      28.964  32.393  22.372  1.00  0.00     0.163 C 
ATOM     33  O   UNL A   1      27.657  30.831  20.727  1.00  0.00    -0.224 OA
ATOM     34  O   UNL A   1      26.935  30.945  23.144  1.00  0.00    -0.224 OA
ENDBRANCH  30  31
ENDBRANCH  17  25
ENDBRANCH  11  12
ENDBRANCH   8  11
ENDBRANCH   6   7
BRANCH   6  35
ATOM     35  C   UNL A   1      32.333  21.945  26.426  1.00  0.00     0.063 C 
BRANCH  35  36
ATOM     36  C   UNL A   1      31.199  22.942  26.251  1.00  0.00     0.158 C 
BRANCH  36  37
ATOM     37  O   UNL A   1      31.183  23.946  27.253  1.00  0.00    -0.396 OA
ATOM     38  H   UNL A   1      31.570  24.762  26.900  1.00  0.00     0.210 HD
ENDBRANCH  36  37
ENDBRANCH  35  36
ENDBRANCH   6  35
ENDBRANCH   3   6
ENDBRANCH   1   2
BRANCH   1  39
ATOM     39  C   UNL A   1      37.775  20.887  25.072  1.00  0.00     0.023 C 
BRANCH  39  40
ATOM     40  C   UNL A   1      38.711  21.895  25.760  1.00  0.00     0.023 C 
BRANCH  40  41
ATOM     41  C   UNL A   1      40.010  21.383  26.398  1.00  0.00     0.116 C 
BRANCH  41  42
ATOM     42  N   UNL A   1      41.233  21.816  25.767  1.00  0.00    -0.352 N 
ATOM     43  C   UNL A   1      41.842  23.048  25.946  1.00  0.00     0.251 C 
ATOM     44  H   UNL A   1      41.673  21.181  25.157  1.00  0.00     0.163 HD
ATOM     45  O   UNL A   1      42.917  23.281  25.401  1.00  0.00    -0.269 OA
BRANCH  43  46
ATOM     46  C   UNL A   1      41.148  24.126  26.730  1.00  0.00     0.039 A 
ATOM     47  C   UNL A   1      40.623  25.199  26.033  1.00  0.00     0.014 A 
ATOM     48  C   UNL A   1      41.118  24.186  28.134  1.00  0.00     0.014 A 
ATOM     49  C   UNL A   1      40.050  26.285  26.736  1.00  0.00     0.010 A 
ATOM     50  C   UNL A   1      40.611  25.341  28.845  1.00  0.00     0.010 A 
ATOM     51  C   UNL A   1      40.082  26.451  28.165  1.00  0.00    -0.014 A 
BRANCH  51  52
ATOM     52  C   UNL A   1      40.018  27.947  28.684  1.00  0.00     0.031 A 
ATOM     53  C   UNL A   1      41.363  28.494  28.324  1.00  0.00     0.074 A 
ATOM     54  C   UNL A   1      39.211  28.829  29.387  1.00  0.00     0.049 A 
ATOM     55  N   UNL A   1      42.456  27.924  28.755  1.00  0.00    -0.248 NA
ATOM     56  C   UNL A   1      41.542  29.386  27.176  1.00  0.00     0.031 C 
ATOM     57  C   UNL A   1      37.913  28.566  30.025  1.00  0.00     0.029 A 
ATOM     58  N   UNL A   1      39.364  30.212  29.694  1.00  0.00    -0.354 N 
ATOM     59  C   UNL A   1      43.491  28.562  28.117  1.00  0.00     0.074 A 
ATOM     60  C   UNL A   1      42.863  29.271  27.012  1.00  0.00     0.031 C 
ATOM     61  C   UNL A   1      37.353  29.714  30.510  1.00  0.00     0.029 A 
ATOM     62  C   UNL A   1      38.240  30.858  30.308  1.00  0.00     0.049 A 
ATOM     63  H   UNL A   1      40.196  30.700  29.494  1.00  0.00     0.167 HD
ATOM     64  C   UNL A   1      44.516  28.990  28.906  1.00  0.00     0.037 A 
ATOM     65  C   UNL A   1      38.048  32.178  30.693  1.00  0.00     0.037 A 
ATOM     66  C   UNL A   1      44.424  30.398  29.180  1.00  0.00     0.049 A 
ATOM     67  C   UNL A   1      39.377  32.787  30.839  1.00  0.00     0.074 A 
ATOM     68  C   UNL A   1      44.160  31.496  28.386  1.00  0.00     0.029 A 
ATOM     69  N   UNL A   1      44.099  30.760  30.470  1.00  0.00    -0.354 N 
ATOM     70  N   UNL A   1      40.114  32.576  31.885  1.00  0.00    -0.248 NA
ATOM     71  C   UNL A   1      39.906  33.749  29.876  1.00  0.00     0.031 C 
ATOM     72  C   UNL A   1      43.172  32.208  29.104  1.00  0.00     0.029 A 
ATOM     73  C   UNL A   1      43.158  31.764  30.421  1.00  0.00     0.049 A 
ATOM     74  H   UNL A   1      44.477  30.368  31.290  1.00  0.00     0.167 HD
ATOM     75  C   UNL A   1      41.350  32.925  31.448  1.00  0.00     0.074 A 
ATOM     76  C   UNL A   1      41.132  33.887  30.388  1.00  0.00     0.031 C 
ATOM     77  C   UNL A   1      42.313  31.981  31.567  1.00  0.00     0.037 A 
BRANCH  64  78
ATOM     78  C   UNL A   1      45.013  27.985  29.899  1.00  0.00     0.064 A 
ATOM     79  C   UNL A   1      46.286  27.436  29.721  1.00  0.00     0.173 A 
ATOM     80  C   UNL A   1      44.240  27.499  30.973  1.00  0.00     0.173 A 
ATOM     81  F   UNL A   1      47.097  27.914  28.764  1.00  0.00    -0.203 F 
ATOM     82  C   UNL A   1      46.738  26.400  30.537  1.00  0.00     0.198 A 
ATOM     83  C   UNL A   1      44.666  26.424  31.742  1.00  0.00     0.198 A 
ATOM     84  F   UNL A   1      43.087  28.097  31.316  1.00  0.00    -0.203 F 
ATOM     85  F   UNL A   1      47.978  25.916  30.373  1.00  0.00    -0.200 F 
ATOM     86  C   UNL A   1      45.915  25.871  31.520  1.00  0.00     0.200 A 
ATOM     87  F   UNL A   1      43.875  25.940  32.710  1.00  0.00    -0.200 F 
ATOM     88  F   UNL A   1      46.341  24.852  32.280  1.00  0.00    -0.200 F 
ENDBRANCH  64  78
BRANCH  65  89
ATOM     89  C   UNL A   1      36.977  33.182  31.156  1.00  0.00     0.064 A 
ATOM     90  C   UNL A   1      36.043  33.747  30.220  1.00  0.00     0.173 A 
ATOM     91  C   UNL A   1      36.572  33.282  32.491  1.00  0.00     0.173 A 
ATOM     92  F   UNL A   1      36.297  33.768  28.904  1.00  0.00    -0.203 F 
ATOM     93  C   UNL A   1      34.779  34.235  30.579  1.00  0.00     0.198 A 
ATOM     94  C   UNL A   1      35.311  33.815  32.855  1.00  0.00     0.198 A 
ATOM     95  F   UNL A   1      37.343  32.778  33.462  1.00  0.00    -0.203 F 
ATOM     96  F   UNL A   1      33.908  34.615  29.629  1.00  0.00    -0.200 F 
ATOM     97  C   UNL A   1      34.404  34.253  31.900  1.00  0.00     0.200 A 
ATOM     98  F   UNL A   1      34.942  33.835  34.144  1.00  0.00    -0.200 F 
ATOM     99  F   UNL A   1      33.172  34.655  32.247  1.00  0.00    -0.200 F 
ENDBRANCH  65  89
BRANCH  77 100
ATOM    100  C   UNL A   1      42.278  31.136  32.831  1.00  0.00     0.064 A 
ATOM    101  C   UNL A   1      41.494  29.977  33.054  1.00  0.00     0.173 A 
ATOM    102  C   UNL A   1      43.010  31.598  33.933  1.00  0.00     0.173 A 
ATOM    103  F   UNL A   1      40.843  29.359  32.060  1.00  0.00    -0.203 F 
ATOM    104  C   UNL A   1      41.368  29.402  34.322  1.00  0.00     0.198 A 
ATOM    105  C   UNL A   1      42.929  30.988  35.184  1.00  0.00     0.198 A 
ATOM    106  F   UNL A   1      43.828  32.653  33.794  1.00  0.00    -0.203 F 
ATOM    107  F   UNL A   1      40.548  28.357  34.510  1.00  0.00    -0.200 F 
ATOM    108  C   UNL A   1      42.085  29.910  35.388  1.00  0.00     0.200 A 
ATOM    109  F   UNL A   1      43.670  31.455  36.197  1.00  0.00    -0.200 F 
ATOM    110  F   UNL A   1      41.976  29.357  36.603  1.00  0.00    -0.200 F 
ENDBRANCH  77 100
ENDBRANCH  51  52
ENDBRANCH  43  46
ENDBRANCH  41  42
ENDBRANCH  40  41
ENDBRANCH  39  40
ENDBRANCH   1  39
TORSDOF 20
ENDMDL
MODEL 3
REMARK VINA RESULT:     -12.6      1.439      2.095
REMARK SMILES Cc1c(CC(=O)N[C@@H](CCO)C(=O)NCCCCNC(=O)c2ccc(-c3c4nc(c(-c5c(F)c(F)c(F)c(F)c5F)c5ccc([nH]5)c(-c5c(F)c(F)c(F)c(F)c5F)c5nc(c(-c6c(F)c(F)c(F)c(F)c6F)c6ccc3[nH]6)C=C5)C=C4)cc2)cc(-c2ccc(S(C)(=O)=O)cc2)n1-c1ccc(F)cc1
REMARK SMILES IDX 15 1 14 2 12 3 13 4 8 6 7 7 5 8 6 9 4 11 3 12 1 13 2 14
REMARK SMILES IDX 97 15 85 16 86 17 98 18 99 19 104 20 100 21 103 22 101 23
REMARK SMILES IDX 102 24 87 25 88 26 96 27 89 28 95 29 90 30 91 31 92 32 93 33
REMARK SMILES IDX 94 34 9 35 10 36 11 37 16 39 17 40 18 41 19 42 20 43 21 45
REMARK SMILES IDX 22 46 23 47 84 48 24 49 83 50 25 51 26 52 27 53 77 54 28 55
REMARK SMILES IDX 82 56 76 57 78 58 29 59 81 60 75 61 74 62 30 64 62 65 42 66
REMARK SMILES IDX 61 67 43 68 46 69 60 70 79 71 44 72 45 73 59 75 80 76 47 77
REMARK SMILES IDX 31 78 32 79 40 80 33 81 34 82 38 83 41 84 35 85 36 86 39 87
REMARK SMILES IDX 37 88 63 89 64 90 72 91 65 92 66 93 70 94 73 95 67 96 68 97
REMARK SMILES IDX 71 98 69 99 48 100 49 101 57 102 50 103 51 104 55 105 58 106
REMARK SMILES IDX 52 107 53 108 56 109 54 110
REMARK H PARENT 14 5 7 10 11 38 19 44 78 63 46 74
REMARK Flexibility Score: inf
ROOT
ATOM      1  C   UNL A   1      36.279  20.486  24.997  1.00  0.00     0.116 C 
ENDROOT
BRANCH   1   2
ATOM      2  N   UNL A   1      35.338  20.971  25.994  1.00  0.00    -0.354 N 
ATOM      3  C   UNL A   1      33.989  20.880  26.108  1.00  0.00     0.242 C 
ATOM      4  O   UNL A   1      33.533  21.037  27.246  1.00  0.00    -0.273 OA
ATOM      5  H   UNL A   1      35.765  21.464  26.732  1.00  0.00     0.163 HD
BRANCH   3   6
ATOM      6  C   UNL A   1      33.058  20.482  24.956  1.00  0.00     0.173 C 
BRANCH   6   7
ATOM      7  N   UNL A   1      33.388  21.185  23.716  1.00  0.00    -0.344 N 
ATOM      8  C   UNL A   1      32.706  22.217  23.129  1.00  0.00     0.225 C 
ATOM      9  O   UNL A   1      33.275  22.838  22.228  1.00  0.00    -0.275 OA
ATOM     10  H   UNL A   1      34.198  20.879  23.247  1.00  0.00     0.164 HD
BRANCH   8  11
ATOM     11  C   UNL A   1      31.296  22.584  23.583  1.00  0.00     0.137 C 
BRANCH  11  12
ATOM     12  C   UNL A   1      31.192  24.027  23.982  1.00  0.00    -0.017 A 
ATOM     13  C   UNL A   1      32.851  24.105  25.981  1.00  0.00     0.065 C 
ATOM     14  C   UNL A   1      31.922  24.684  24.962  1.00  0.00     0.024 A 
ATOM     15  N   UNL A   1      31.610  26.039  24.903  1.00  0.00    -0.314 N 
ATOM     16  C   UNL A   1      30.320  24.990  23.409  1.00  0.00     0.033 A 
ATOM     17  C   UNL A   1      30.606  26.230  23.955  1.00  0.00     0.053 A 
BRANCH  15  18
ATOM     18  C   UNL A   1      32.224  27.051  25.682  1.00  0.00     0.046 A 
ATOM     19  C   UNL A   1      31.546  27.581  26.784  1.00  0.00     0.029 A 
ATOM     20  C   UNL A   1      33.495  27.521  25.324  1.00  0.00     0.029 A 
ATOM     21  C   UNL A   1      32.161  28.571  27.551  1.00  0.00     0.041 A 
ATOM     22  C   UNL A   1      34.092  28.526  26.084  1.00  0.00     0.041 A 
ATOM     23  C   UNL A   1      33.424  29.034  27.192  1.00  0.00     0.123 A 
ATOM     24  F   UNL A   1      34.006  29.991  27.927  1.00  0.00    -0.207 F 
ENDBRANCH  15  18
BRANCH  17  25
ATOM     25  C   UNL A   1      30.058  27.528  23.543  1.00  0.00    -0.001 A 
ATOM     26  C   UNL A   1      30.901  28.598  23.206  1.00  0.00     0.011 A 
ATOM     27  C   UNL A   1      28.670  27.699  23.449  1.00  0.00     0.011 A 
ATOM     28  C   UNL A   1      30.369  29.834  22.828  1.00  0.00     0.021 A 
ATOM     29  C   UNL A   1      28.130  28.931  23.072  1.00  0.00     0.021 A 
ATOM     30  C   UNL A   1      28.982  29.998  22.782  1.00  0.00     0.067 A 
BRANCH  30  31
ATOM     31  S   UNL A   1      28.315  31.575  22.307  1.00  0.00     0.175 S 
ATOM     32  C   UNL A   1      27.919  31.374  20.590  1.00  0.00     0.163 C 
ATOM     33  O   UNL A   1      27.095  31.764  23.044  1.00  0.00    -0.224 OA
ATOM     34  O   UNL A   1      29.403  32.549  22.386  1.00  0.00    -0.224 OA
ENDBRANCH  30  31
ENDBRANCH  17  25
ENDBRANCH  11  12
ENDBRANCH   8  11
ENDBRANCH   6   7
BRANCH   6  35
ATOM     35  C   UNL A   1      32.790  18.977  24.788  1.00  0.00     0.063 C 
BRANCH  35  36
ATOM     36  C   UNL A   1      33.014  18.333  23.430  1.00  0.00     0.158 C 
BRANCH  36  37
ATOM     37  O   UNL A   1      31.806  18.002  22.765  1.00  0.00    -0.396 OA
ATOM     38  H   UNL A   1      31.730  18.526  21.952  1.00  0.00     0.210 HD
ENDBRANCH  36  37
ENDBRANCH  35  36
ENDBRANCH   6  35
ENDBRANCH   3   6
ENDBRANCH   1   2
BRANCH   1  39
ATOM     39  C   UNL A   1      37.002  21.602  24.254  1.00  0.00     0.023 C 
BRANCH  39  40
ATOM     40  C   UNL A   1      37.102  22.958  24.974  1.00  0.00     0.023 C 
BRANCH  40  41
ATOM     41  C   UNL A   1      38.190  23.152  26.040  1.00  0.00     0.116 C 
BRANCH  41  42
ATOM     42  N   UNL A   1      39.359  22.319  25.904  1.00  0.00    -0.352 N 
ATOM     43  C   UNL A   1      40.651  22.677  26.254  1.00  0.00     0.251 C 
ATOM     44  H   UNL A   1      39.228  21.417  25.529  1.00  0.00     0.163 HD
ATOM     45  O   UNL A   1      41.560  21.858  26.148  1.00  0.00    -0.269 OA
BRANCH  43  46
ATOM     46  C   UNL A   1      40.955  24.086  26.677  1.00  0.00     0.039 A 
ATOM     47  C   UNL A   1      40.791  24.413  28.012  1.00  0.00     0.014 A 
ATOM     48  C   UNL A   1      41.260  25.130  25.786  1.00  0.00     0.014 A 
ATOM     49  C   UNL A   1      40.968  25.749  28.438  1.00  0.00     0.010 A 
ATOM     50  C   UNL A   1      41.351  26.509  26.218  1.00  0.00     0.010 A 
ATOM     51  C   UNL A   1      41.178  26.873  27.563  1.00  0.00    -0.014 A 
BRANCH  51  52
ATOM     52  C   UNL A   1      40.692  28.275  28.118  1.00  0.00     0.031 A 
ATOM     53  C   UNL A   1      41.954  29.076  28.184  1.00  0.00     0.074 A 
ATOM     54  C   UNL A   1      39.572  28.931  28.608  1.00  0.00     0.049 A 
ATOM     55  N   UNL A   1      42.978  28.658  28.877  1.00  0.00    -0.248 NA
ATOM     56  C   UNL A   1      42.262  30.099  27.181  1.00  0.00     0.031 C 
ATOM     57  C   UNL A   1      38.225  28.389  28.837  1.00  0.00     0.029 A 
ATOM     58  N   UNL A   1      39.369  30.281  29.016  1.00  0.00    -0.354 N 
ATOM     59  C   UNL A   1      44.005  29.523  28.594  1.00  0.00     0.074 A 
ATOM     60  C   UNL A   1      43.574  30.226  27.393  1.00  0.00     0.031 C 
ATOM     61  C   UNL A   1      37.346  29.369  29.201  1.00  0.00     0.029 A 
ATOM     62  C   UNL A   1      38.020  30.661  29.319  1.00  0.00     0.049 A 
ATOM     63  H   UNL A   1      40.116  30.921  29.087  1.00  0.00     0.167 HD
ATOM     64  C   UNL A   1      44.678  30.035  29.662  1.00  0.00     0.037 A 
ATOM     65  C   UNL A   1      37.483  31.883  29.701  1.00  0.00     0.037 A 
ATOM     66  C   UNL A   1      44.249  31.371  29.970  1.00  0.00     0.049 A 
ATOM     67  C   UNL A   1      38.581  32.689  30.249  1.00  0.00     0.074 A 
ATOM     68  C   UNL A   1      44.003  32.485  29.191  1.00  0.00     0.029 A 
ATOM     69  N   UNL A   1      43.524  31.539  31.132  1.00  0.00    -0.354 N 
ATOM     70  N   UNL A   1      39.036  32.500  31.449  1.00  0.00    -0.248 NA
ATOM     71  C   UNL A   1      39.157  33.821  29.527  1.00  0.00     0.031 C 
ATOM     72  C   UNL A   1      42.741  32.942  29.635  1.00  0.00     0.029 A 
ATOM     73  C   UNL A   1      42.458  32.369  30.870  1.00  0.00     0.049 A 
ATOM     74  H   UNL A   1      43.736  31.134  32.004  1.00  0.00     0.167 HD
ATOM     75  C   UNL A   1      40.253  33.096  31.400  1.00  0.00     0.074 A 
ATOM     76  C   UNL A   1      40.149  34.112  30.372  1.00  0.00     0.031 C 
ATOM     77  C   UNL A   1      41.311  32.321  31.739  1.00  0.00     0.037 A 
BRANCH  64  78
ATOM     78  C   UNL A   1      45.072  29.032  30.702  1.00  0.00     0.064 A 
ATOM     79  C   UNL A   1      46.429  28.844  30.976  1.00  0.00     0.173 A 
ATOM     80  C   UNL A   1      44.151  28.204  31.376  1.00  0.00     0.173 A 
ATOM     81  F   UNL A   1      47.345  29.655  30.424  1.00  0.00    -0.203 F 
ATOM     82  C   UNL A   1      46.851  27.830  31.834  1.00  0.00     0.198 A 
ATOM     83  C   UNL A   1      44.578  27.153  32.178  1.00  0.00     0.198 A 
ATOM     84  F   UNL A   1      42.831  28.440  31.303  1.00  0.00    -0.203 F 
ATOM     85  F   UNL A   1      48.156  27.694  32.114  1.00  0.00    -0.200 F 
ATOM     86  C   UNL A   1      45.930  26.963  32.404  1.00  0.00     0.200 A 
ATOM     87  F   UNL A   1      43.677  26.340  32.748  1.00  0.00    -0.200 F 
ATOM     88  F   UNL A   1      46.343  25.967  33.200  1.00  0.00    -0.200 F 
ENDBRANCH  64  78
BRANCH  65  89
ATOM     89  C   UNL A   1      36.155  32.639  29.891  1.00  0.00     0.064 A 
ATOM     90  C   UNL A   1      35.767  33.131  31.185  1.00  0.00     0.173 A 
ATOM     91  C   UNL A   1      35.480  33.247  28.828  1.00  0.00     0.173 A 
ATOM     92  F   UNL A   1      36.290  32.627  32.311  1.00  0.00    -0.203 F 
ATOM     93  C   UNL A   1      34.896  34.213  31.379  1.00  0.00     0.198 A 
ATOM     94  C   UNL A   1      34.568  34.312  29.029  1.00  0.00     0.198 A 
ATOM     95  F   UNL A   1      35.762  32.892  27.568  1.00  0.00    -0.203 F 
ATOM     96  F   UNL A   1      34.695  34.704  32.613  1.00  0.00    -0.200 F 
ATOM     97  C   UNL A   1      34.308  34.817  30.295  1.00  0.00     0.200 A 
ATOM     98  F   UNL A   1      33.990  34.904  27.973  1.00  0.00    -0.200 F 
ATOM     99  F   UNL A   1      33.526  35.894  30.465  1.00  0.00    -0.200 F 
ENDBRANCH  65  89
BRANCH  77 100
ATOM    100  C   UNL A   1      41.098  31.357  32.895  1.00  0.00     0.064 A 
ATOM    101  C   UNL A   1      41.271  31.637  34.274  1.00  0.00     0.173 A 
ATOM    102  C   UNL A   1      40.802  30.026  32.575  1.00  0.00     0.173 A 
ATOM    103  F   UNL A   1      41.436  32.885  34.729  1.00  0.00    -0.203 F 
ATOM    104  C   UNL A   1      41.264  30.626  35.240  1.00  0.00     0.198 A 
ATOM    105  C   UNL A   1      40.737  29.028  33.548  1.00  0.00     0.198 A 
ATOM    106  F   UNL A   1      40.560  29.685  31.300  1.00  0.00    -0.203 F 
ATOM    107  F   UNL A   1      41.517  30.919  36.525  1.00  0.00    -0.200 F 
ATOM    108  C   UNL A   1      40.998  29.321  34.875  1.00  0.00     0.200 A 
ATOM    109  F   UNL A   1      40.425  27.775  33.190  1.00  0.00    -0.200 F 
ATOM    110  F   UNL A   1      40.979  28.349  35.798  1.00  0.00    -0.200 F 
ENDBRANCH  77 100
ENDBRANCH  51  52
ENDBRANCH  43  46
ENDBRANCH  41  42
ENDBRANCH  40  41
ENDBRANCH  39  40
ENDBRANCH   1  39
TORSDOF 20
ENDMDL
