MODEL 1
REMARK VINA RESULT:     -12.2      0.000      0.000
REMARK SMILES COc1ccc(NC(=O)C[C@@H](C[NH+]2CCOCC2)C(=O)NCCCCNC(=O)c2ccc(-c3c4nc(c(-c5c(F)c(F)c(F)c(F)c5F)c5ccc([nH]5)c(-c5c(F)c(F)c(F)c(F)c5F)c5nc(c(-c6c(F)c(F)c(F)c(F)c6F)c6ccc3[nH]6)C=C5)C=C4)cc2)cc1
REMARK SMILES IDX 22 1 21 2 19 3 20 4 11 6 10 7 8 8 7 9 9 11 6 12 3 13 4 14
REMARK SMILES IDX 93 15 5 16 92 17 2 18 1 19 12 20 13 21 14 22 18 23 15 25
REMARK SMILES IDX 17 26 16 27 23 28 24 29 25 30 26 31 27 32 28 34 29 35 30 36
REMARK SMILES IDX 91 37 31 38 90 39 32 40 33 41 34 42 84 43 35 44 89 45 83 46
REMARK SMILES IDX 85 47 36 48 88 49 82 50 81 51 37 53 69 54 49 55 68 56 50 57
REMARK SMILES IDX 53 58 67 59 86 60 51 61 52 62 66 64 87 65 54 66 38 67 39 68
REMARK SMILES IDX 47 69 40 70 41 71 45 72 48 73 42 74 43 75 46 76 44 77 70 78
REMARK SMILES IDX 71 79 79 80 72 81 73 82 77 83 80 84 74 85 75 86 78 87 76 88
REMARK SMILES IDX 55 89 56 90 64 91 57 92 58 93 62 94 65 95 59 96 60 97 63 98
REMARK SMILES IDX 61 99
REMARK H PARENT 21 5 7 10 13 24 26 33 85 52 53 63
REMARK Flexibility Score: inf
ROOT
ATOM      1  C   UNL A   1      33.715  29.742  26.772  1.00  0.00     0.116 C 
ENDROOT
BRANCH   1   2
ATOM      2  N   UNL A   1      33.891  29.264  25.409  1.00  0.00    -0.356 N 
ATOM      3  C   UNL A   1      33.680  28.147  24.684  1.00  0.00     0.229 C 
ATOM      4  O   UNL A   1      33.842  28.329  23.466  1.00  0.00    -0.275 OA
ATOM      5  H   UNL A   1      34.283  29.971  24.845  1.00  0.00     0.163 HD
BRANCH   3   6
ATOM      6  C   UNL A   1      33.172  26.770  25.159  1.00  0.00     0.142 C 
BRANCH   6   7
ATOM      7  C   UNL A   1      31.651  26.607  24.836  1.00  0.00     0.119 C 
BRANCH   7   8
ATOM      8  C   UNL A   1      31.055  26.378  23.456  1.00  0.00     0.225 C 
ATOM      9  N   UNL A   1      30.230  27.211  22.774  1.00  0.00    -0.326 N 
ATOM     10  H   UNL A   1      30.137  26.963  21.825  1.00  0.00     0.169 HD
ATOM     11  O   UNL A   1      31.371  25.345  22.841  1.00  0.00    -0.275 OA
BRANCH   9  12
ATOM     12  C   UNL A   1      29.481  28.341  23.115  1.00  0.00     0.041 A 
ATOM     13  C   UNL A   1      28.329  30.884  23.206  1.00  0.00     0.119 A 
ATOM     14  C   UNL A   1      27.532  29.756  23.002  1.00  0.00     0.048 A 
ATOM     15  C   UNL A   1      29.664  30.725  23.557  1.00  0.00     0.048 A 
ATOM     16  C   UNL A   1      28.109  28.476  22.960  1.00  0.00     0.030 A 
ATOM     17  C   UNL A   1      30.233  29.451  23.529  1.00  0.00     0.030 A 
BRANCH  13  18
ATOM     18  O   UNL A   1      27.734  32.102  23.023  1.00  0.00    -0.497 OA
ATOM     19  C   UNL A   1      28.653  33.198  23.025  1.00  0.00     0.278 C 
ENDBRANCH  13  18
ENDBRANCH   9  12
ENDBRANCH   7   8
ENDBRANCH   6   7
BRANCH   6  20
ATOM     20  C   UNL A   1      34.095  25.566  25.036  1.00  0.00     0.276 C 
BRANCH  20  21
ATOM     21  N   UNL A   1      33.528  24.234  24.900  1.00  0.00    -0.330 N 
ATOM     22  C   UNL A   1      34.124  23.347  23.900  1.00  0.00     0.291 C 
ATOM     23  C   UNL A   1      33.481  23.536  26.199  1.00  0.00     0.291 C 
ATOM     24  H   UNL A   1      32.593  24.435  24.545  1.00  0.00     0.348 HD
ATOM     25  C   UNL A   1      33.286  22.062  23.801  1.00  0.00     0.221 C 
ATOM     26  C   UNL A   1      32.710  22.216  26.080  1.00  0.00     0.221 C 
ATOM     27  O   UNL A   1      33.268  21.374  25.062  1.00  0.00    -0.370 OA
ENDBRANCH  20  21
ENDBRANCH   6  20
ENDBRANCH   3   6
ENDBRANCH   1   2
BRANCH   1  28
ATOM     28  C   UNL A   1      32.278  30.193  27.035  1.00  0.00     0.023 C 
BRANCH  28  29
ATOM     29  C   UNL A   1      32.052  31.684  26.810  1.00  0.00     0.023 C 
BRANCH  29  30
ATOM     30  C   UNL A   1      32.980  32.636  27.554  1.00  0.00     0.116 C 
BRANCH  30  31
ATOM     31  N   UNL A   1      32.461  33.981  27.751  1.00  0.00    -0.352 N 
ATOM     32  C   UNL A   1      32.981  34.972  28.568  1.00  0.00     0.251 C 
ATOM     33  H   UNL A   1      31.648  34.213  27.247  1.00  0.00     0.163 HD
ATOM     34  O   UNL A   1      32.460  36.069  28.659  1.00  0.00    -0.269 OA
BRANCH  32  35
ATOM     35  C   UNL A   1      34.169  34.639  29.388  1.00  0.00     0.039 A 
ATOM     36  C   UNL A   1      33.976  34.082  30.653  1.00  0.00     0.014 A 
ATOM     37  C   UNL A   1      35.446  34.706  28.826  1.00  0.00     0.014 A 
ATOM     38  C   UNL A   1      35.052  33.473  31.305  1.00  0.00     0.010 A 
ATOM     39  C   UNL A   1      36.490  34.018  29.434  1.00  0.00     0.010 A 
ATOM     40  C   UNL A   1      36.300  33.373  30.669  1.00  0.00    -0.014 A 
BRANCH  40  41
ATOM     41  C   UNL A   1      37.409  32.573  31.256  1.00  0.00     0.031 A 
ATOM     42  C   UNL A   1      37.932  32.906  32.626  1.00  0.00     0.074 A 
ATOM     43  C   UNL A   1      38.008  31.608  30.527  1.00  0.00     0.049 A 
ATOM     44  N   UNL A   1      38.955  32.401  33.269  1.00  0.00    -0.248 NA
ATOM     45  C   UNL A   1      37.234  33.977  33.355  1.00  0.00     0.031 C 
ATOM     46  C   UNL A   1      37.648  31.228  29.159  1.00  0.00     0.029 A 
ATOM     47  N   UNL A   1      39.058  30.774  30.832  1.00  0.00    -0.354 N 
ATOM     48  C   UNL A   1      39.036  33.109  34.460  1.00  0.00     0.074 A 
ATOM     49  C   UNL A   1      38.000  34.117  34.428  1.00  0.00     0.031 C 
ATOM     50  C   UNL A   1      38.439  30.221  28.756  1.00  0.00     0.029 A 
ATOM     51  C   UNL A   1      39.386  29.903  29.820  1.00  0.00     0.049 A 
ATOM     52  H   UNL A   1      39.529  30.797  31.696  1.00  0.00     0.167 HD
ATOM     53  C   UNL A   1      39.877  32.917  35.504  1.00  0.00     0.037 A 
ATOM     54  C   UNL A   1      40.345  28.957  29.758  1.00  0.00     0.037 A 
ATOM     55  C   UNL A   1      40.876  31.884  35.561  1.00  0.00     0.049 A 
ATOM     56  C   UNL A   1      41.245  28.744  30.944  1.00  0.00     0.074 A 
ATOM     57  C   UNL A   1      41.732  31.569  36.601  1.00  0.00     0.029 A 
ATOM     58  N   UNL A   1      41.145  30.991  34.535  1.00  0.00    -0.354 N 
ATOM     59  N   UNL A   1      41.266  29.376  32.092  1.00  0.00    -0.248 NA
ATOM     60  C   UNL A   1      42.253  27.679  30.830  1.00  0.00     0.031 C 
ATOM     61  C   UNL A   1      42.539  30.501  36.194  1.00  0.00     0.029 A 
ATOM     62  C   UNL A   1      42.159  30.128  34.915  1.00  0.00     0.049 A 
ATOM     63  H   UNL A   1      40.683  30.972  33.666  1.00  0.00     0.167 HD
ATOM     64  C   UNL A   1      42.261  28.768  32.845  1.00  0.00     0.074 A 
ATOM     65  C   UNL A   1      42.815  27.708  32.030  1.00  0.00     0.031 C 
ATOM     66  C   UNL A   1      42.682  29.064  34.098  1.00  0.00     0.037 A 
BRANCH  53  67
ATOM     67  C   UNL A   1      39.735  33.834  36.683  1.00  0.00     0.064 A 
ATOM     68  C   UNL A   1      40.390  35.075  36.727  1.00  0.00     0.173 A 
ATOM     69  C   UNL A   1      38.913  33.486  37.765  1.00  0.00     0.173 A 
ATOM     70  F   UNL A   1      41.198  35.447  35.724  1.00  0.00    -0.203 F 
ATOM     71  C   UNL A   1      40.252  35.918  37.825  1.00  0.00     0.198 A 
ATOM     72  C   UNL A   1      38.754  34.345  38.848  1.00  0.00     0.198 A 
ATOM     73  F   UNL A   1      38.262  32.313  37.770  1.00  0.00    -0.203 F 
ATOM     74  F   UNL A   1      40.929  37.074  37.868  1.00  0.00    -0.200 F 
ATOM     75  C   UNL A   1      39.429  35.556  38.881  1.00  0.00     0.200 A 
ATOM     76  F   UNL A   1      37.950  34.001  39.864  1.00  0.00    -0.200 F 
ATOM     77  F   UNL A   1      39.293  36.373  39.936  1.00  0.00    -0.200 F 
ENDBRANCH  53  67
BRANCH  54  78
ATOM     78  C   UNL A   1      40.487  28.111  28.542  1.00  0.00     0.064 A 
ATOM     79  C   UNL A   1      39.845  26.867  28.457  1.00  0.00     0.173 A 
ATOM     80  C   UNL A   1      41.284  28.509  27.461  1.00  0.00     0.173 A 
ATOM     81  F   UNL A   1      39.091  26.432  29.476  1.00  0.00    -0.203 F 
ATOM     82  C   UNL A   1      40.018  26.042  27.347  1.00  0.00     0.198 A 
ATOM     83  C   UNL A   1      41.434  27.694  26.339  1.00  0.00     0.198 A 
ATOM     84  F   UNL A   1      41.917  29.691  27.490  1.00  0.00    -0.203 F 
ATOM     85  F   UNL A   1      39.434  24.835  27.315  1.00  0.00    -0.200 F 
ATOM     86  C   UNL A   1      40.809  26.458  26.287  1.00  0.00     0.200 A 
ATOM     87  F   UNL A   1      42.191  28.104  25.312  1.00  0.00    -0.200 F 
ATOM     88  F   UNL A   1      40.977  25.663  25.222  1.00  0.00    -0.200 F 
ENDBRANCH  54  78
BRANCH  66  89
ATOM     89  C   UNL A   1      43.764  28.206  34.684  1.00  0.00     0.064 A 
ATOM     90  C   UNL A   1      43.470  27.019  35.369  1.00  0.00     0.173 A 
ATOM     91  C   UNL A   1      45.113  28.551  34.510  1.00  0.00     0.173 A 
ATOM     92  F   UNL A   1      42.195  26.655  35.573  1.00  0.00    -0.203 F 
ATOM     93  C   UNL A   1      44.488  26.218  35.879  1.00  0.00     0.198 A 
ATOM     94  C   UNL A   1      46.129  27.733  34.998  1.00  0.00     0.198 A 
ATOM     95  F   UNL A   1      45.445  29.673  33.855  1.00  0.00    -0.203 F 
ATOM     96  F   UNL A   1      44.184  25.108  36.566  1.00  0.00    -0.200 F 
ATOM     97  C   UNL A   1      45.815  26.571  35.686  1.00  0.00     0.200 A 
ATOM     98  F   UNL A   1      47.411  28.070  34.800  1.00  0.00    -0.200 F 
ATOM     99  F   UNL A   1      46.794  25.794  36.169  1.00  0.00    -0.200 F 
ENDBRANCH  66  89
ENDBRANCH  40  41
ENDBRANCH  32  35
ENDBRANCH  30  31
ENDBRANCH  29  30
ENDBRANCH  28  29
ENDBRANCH   1  28
TORSDOF 17
ENDMDL
MODEL 2
REMARK VINA RESULT:     -12.2      4.853     11.005
REMARK SMILES COc1ccc(NC(=O)C[C@@H](C[NH+]2CCOCC2)C(=O)NCCCCNC(=O)c2ccc(-c3c4nc(c(-c5c(F)c(F)c(F)c(F)c5F)c5ccc([nH]5)c(-c5c(F)c(F)c(F)c(F)c5F)c5nc(c(-c6c(F)c(F)c(F)c(F)c6F)c6ccc3[nH]6)C=C5)C=C4)cc2)cc1
REMARK SMILES IDX 22 1 21 2 19 3 20 4 11 6 10 7 8 8 7 9 9 11 6 12 3 13 4 14
REMARK SMILES IDX 93 15 5 16 92 17 2 18 1 19 12 20 13 21 14 22 18 23 15 25
REMARK SMILES IDX 17 26 16 27 23 28 24 29 25 30 26 31 27 32 28 34 29 35 30 36
REMARK SMILES IDX 91 37 31 38 90 39 32 40 33 41 34 42 84 43 35 44 89 45 83 46
REMARK SMILES IDX 85 47 36 48 88 49 82 50 81 51 37 53 69 54 49 55 68 56 50 57
REMARK SMILES IDX 53 58 67 59 86 60 51 61 52 62 66 64 87 65 54 66 38 67 39 68
REMARK SMILES IDX 47 69 40 70 41 71 45 72 48 73 42 74 43 75 46 76 44 77 70 78
REMARK SMILES IDX 71 79 79 80 72 81 73 82 77 83 80 84 74 85 75 86 78 87 76 88
REMARK SMILES IDX 55 89 56 90 64 91 57 92 58 93 62 94 65 95 59 96 60 97 63 98
REMARK SMILES IDX 61 99
REMARK H PARENT 21 5 7 10 13 24 26 33 85 52 53 63
REMARK Flexibility Score: inf
ROOT
ATOM      1  C   UNL A   1      35.766  22.244  26.416  1.00  0.00     0.116 C 
ENDROOT
BRANCH   1   2
ATOM      2  N   UNL A   1      34.656  22.316  27.354  1.00  0.00    -0.356 N 
ATOM      3  C   UNL A   1      33.336  22.593  27.353  1.00  0.00     0.229 C 
ATOM      4  O   UNL A   1      32.791  22.323  28.436  1.00  0.00    -0.275 OA
ATOM      5  H   UNL A   1      34.961  22.097  28.264  1.00  0.00     0.163 HD
BRANCH   3   6
ATOM      6  C   UNL A   1      32.451  23.072  26.184  1.00  0.00     0.142 C 
BRANCH   6   7
ATOM      7  C   UNL A   1      31.890  21.849  25.387  1.00  0.00     0.119 C 
BRANCH   7   8
ATOM      8  C   UNL A   1      32.104  21.580  23.905  1.00  0.00     0.225 C 
ATOM      9  N   UNL A   1      32.261  20.372  23.309  1.00  0.00    -0.326 N 
ATOM     10  H   UNL A   1      32.175  20.416  22.329  1.00  0.00     0.169 HD
ATOM     11  O   UNL A   1      32.098  22.546  23.123  1.00  0.00    -0.275 OA
BRANCH   9  12
ATOM     12  C   UNL A   1      32.519  19.079  23.774  1.00  0.00     0.041 A 
ATOM     13  C   UNL A   1      33.693  16.619  24.385  1.00  0.00     0.119 A 
ATOM     14  C   UNL A   1      33.300  17.486  25.406  1.00  0.00     0.048 A 
ATOM     15  C   UNL A   1      33.323  16.893  23.074  1.00  0.00     0.048 A 
ATOM     16  C   UNL A   1      32.706  18.721  25.101  1.00  0.00     0.030 A 
ATOM     17  C   UNL A   1      32.720  18.115  22.774  1.00  0.00     0.030 A 
BRANCH  13  18
ATOM     18  O   UNL A   1      34.451  15.540  24.749  1.00  0.00    -0.497 OA
ATOM     19  C   UNL A   1      35.629  15.885  25.485  1.00  0.00     0.278 C 
ENDBRANCH  13  18
ENDBRANCH   9  12
ENDBRANCH   7   8
ENDBRANCH   6   7
BRANCH   6  20
ATOM     20  C   UNL A   1      31.572  24.299  26.385  1.00  0.00     0.276 C 
BRANCH  20  21
ATOM     21  N   UNL A   1      31.014  24.982  25.230  1.00  0.00    -0.330 N 
ATOM     22  C   UNL A   1      29.846  25.835  25.452  1.00  0.00     0.291 C 
ATOM     23  C   UNL A   1      32.046  25.753  24.512  1.00  0.00     0.291 C 
ATOM     24  H   UNL A   1      30.664  24.204  24.670  1.00  0.00     0.348 HD
ATOM     25  C   UNL A   1      29.315  26.329  24.097  1.00  0.00     0.221 C 
ATOM     26  C   UNL A   1      31.491  26.310  23.194  1.00  0.00     0.221 C 
ATOM     27  O   UNL A   1      30.317  27.102  23.415  1.00  0.00    -0.370 OA
ENDBRANCH  20  21
ENDBRANCH   6  20
ENDBRANCH   3   6
ENDBRANCH   1   2
BRANCH   1  28
ATOM     28  C   UNL A   1      35.563  21.140  25.379  1.00  0.00     0.023 C 
BRANCH  28  29
ATOM     29  C   UNL A   1      36.850  20.422  24.988  1.00  0.00     0.023 C 
BRANCH  29  30
ATOM     30  C   UNL A   1      38.157  21.111  25.358  1.00  0.00     0.116 C 
BRANCH  30  31
ATOM     31  N   UNL A   1      39.256  20.218  25.694  1.00  0.00    -0.352 N 
ATOM     32  C   UNL A   1      40.349  20.495  26.499  1.00  0.00     0.251 C 
ATOM     33  H   UNL A   1      39.219  19.315  25.305  1.00  0.00     0.163 HD
ATOM     34  O   UNL A   1      41.217  19.668  26.712  1.00  0.00    -0.269 OA
BRANCH  32  35
ATOM     35  C   UNL A   1      40.470  21.864  27.053  1.00  0.00     0.039 A 
ATOM     36  C   UNL A   1      41.401  22.098  28.066  1.00  0.00     0.014 A 
ATOM     37  C   UNL A   1      39.800  22.926  26.440  1.00  0.00     0.014 A 
ATOM     38  C   UNL A   1      41.756  23.414  28.378  1.00  0.00     0.010 A 
ATOM     39  C   UNL A   1      40.225  24.227  26.687  1.00  0.00     0.010 A 
ATOM     40  C   UNL A   1      41.225  24.485  27.642  1.00  0.00    -0.014 A 
BRANCH  40  41
ATOM     41  C   UNL A   1      41.721  25.876  27.826  1.00  0.00     0.031 A 
ATOM     42  C   UNL A   1      43.077  26.264  27.304  1.00  0.00     0.074 A 
ATOM     43  C   UNL A   1      40.999  26.765  28.538  1.00  0.00     0.049 A 
ATOM     44  N   UNL A   1      43.733  27.387  27.453  1.00  0.00    -0.248 NA
ATOM     45  C   UNL A   1      43.811  25.237  26.546  1.00  0.00     0.031 C 
ATOM     46  C   UNL A   1      39.699  26.501  29.161  1.00  0.00     0.029 A 
ATOM     47  N   UNL A   1      41.259  28.073  28.870  1.00  0.00    -0.354 N 
ATOM     48  C   UNL A   1      44.959  27.192  26.832  1.00  0.00     0.074 A 
ATOM     49  C   UNL A   1      44.982  25.826  26.357  1.00  0.00     0.031 C 
ATOM     50  C   UNL A   1      39.264  27.616  29.770  1.00  0.00     0.029 A 
ATOM     51  C   UNL A   1      40.266  28.665  29.614  1.00  0.00     0.049 A 
ATOM     52  H   UNL A   1      42.081  28.543  28.599  1.00  0.00     0.167 HD
ATOM     53  C   UNL A   1      45.964  28.080  26.644  1.00  0.00     0.037 A 
ATOM     54  C   UNL A   1      40.175  29.914  30.114  1.00  0.00     0.037 A 
ATOM     55  C   UNL A   1      45.925  29.453  27.071  1.00  0.00     0.049 A 
ATOM     56  C   UNL A   1      41.293  30.890  29.863  1.00  0.00     0.074 A 
ATOM     57  C   UNL A   1      46.867  30.446  26.869  1.00  0.00     0.029 A 
ATOM     58  N   UNL A   1      44.880  30.027  27.778  1.00  0.00    -0.354 N 
ATOM     59  N   UNL A   1      42.418  30.711  29.215  1.00  0.00    -0.248 NA
ATOM     60  C   UNL A   1      41.126  32.245  30.408  1.00  0.00     0.031 C 
ATOM     61  C   UNL A   1      46.403  31.617  27.479  1.00  0.00     0.029 A 
ATOM     62  C   UNL A   1      45.157  31.361  28.027  1.00  0.00     0.049 A 
ATOM     63  H   UNL A   1      44.062  29.557  28.060  1.00  0.00     0.167 HD
ATOM     64  C   UNL A   1      43.076  31.933  29.246  1.00  0.00     0.074 A 
ATOM     65  C   UNL A   1      42.219  32.851  29.967  1.00  0.00     0.031 C 
ATOM     66  C   UNL A   1      44.283  32.265  28.727  1.00  0.00     0.037 A 
BRANCH  53  67
ATOM     67  C   UNL A   1      47.187  27.594  25.922  1.00  0.00     0.064 A 
ATOM     68  C   UNL A   1      47.293  27.677  24.525  1.00  0.00     0.173 A 
ATOM     69  C   UNL A   1      48.276  27.071  26.635  1.00  0.00     0.173 A 
ATOM     70  F   UNL A   1      46.272  28.156  23.799  1.00  0.00    -0.203 F 
ATOM     71  C   UNL A   1      48.431  27.223  23.865  1.00  0.00     0.198 A 
ATOM     72  C   UNL A   1      49.425  26.646  25.973  1.00  0.00     0.198 A 
ATOM     73  F   UNL A   1      48.227  26.974  27.971  1.00  0.00    -0.203 F 
ATOM     74  F   UNL A   1      48.487  27.264  22.527  1.00  0.00    -0.200 F 
ATOM     75  C   UNL A   1      49.499  26.715  24.590  1.00  0.00     0.200 A 
ATOM     76  F   UNL A   1      50.462  26.165  26.674  1.00  0.00    -0.200 F 
ATOM     77  F   UNL A   1      50.597  26.284  23.953  1.00  0.00    -0.200 F 
ENDBRANCH  53  67
BRANCH  54  78
ATOM     78  C   UNL A   1      38.968  30.332  30.875  1.00  0.00     0.064 A 
ATOM     79  C   UNL A   1      37.842  30.839  30.211  1.00  0.00     0.173 A 
ATOM     80  C   UNL A   1      38.923  30.264  32.275  1.00  0.00     0.173 A 
ATOM     81  F   UNL A   1      37.846  30.946  28.874  1.00  0.00    -0.203 F 
ATOM     82  C   UNL A   1      36.727  31.286  30.919  1.00  0.00     0.198 A 
ATOM     83  C   UNL A   1      37.796  30.686  32.980  1.00  0.00     0.198 A 
ATOM     84  F   UNL A   1      39.972  29.784  32.959  1.00  0.00    -0.203 F 
ATOM     85  F   UNL A   1      35.686  31.814  30.260  1.00  0.00    -0.200 F 
ATOM     86  C   UNL A   1      36.704  31.205  32.303  1.00  0.00     0.200 A 
ATOM     87  F   UNL A   1      37.774  30.597  34.317  1.00  0.00    -0.200 F 
ATOM     88  F   UNL A   1      35.634  31.639  32.983  1.00  0.00    -0.200 F 
ENDBRANCH  54  78
BRANCH  66  89
ATOM     89  C   UNL A   1      44.732  33.688  28.881  1.00  0.00     0.064 A 
ATOM     90  C   UNL A   1      45.514  34.098  29.969  1.00  0.00     0.173 A 
ATOM     91  C   UNL A   1      44.418  34.639  27.898  1.00  0.00     0.173 A 
ATOM     92  F   UNL A   1      45.827  33.228  30.941  1.00  0.00    -0.203 F 
ATOM     93  C   UNL A   1      45.949  35.416  30.079  1.00  0.00     0.198 A 
ATOM     94  C   UNL A   1      44.877  35.949  27.998  1.00  0.00     0.198 A 
ATOM     95  F   UNL A   1      43.678  34.293  26.834  1.00  0.00    -0.203 F 
ATOM     96  F   UNL A   1      46.662  35.797  31.148  1.00  0.00    -0.200 F 
ATOM     97  C   UNL A   1      45.637  36.337  29.091  1.00  0.00     0.200 A 
ATOM     98  F   UNL A   1      44.585  36.835  27.036  1.00  0.00    -0.200 F 
ATOM     99  F   UNL A   1      46.064  37.603  29.194  1.00  0.00    -0.200 F 
ENDBRANCH  66  89
ENDBRANCH  40  41
ENDBRANCH  32  35
ENDBRANCH  30  31
ENDBRANCH  29  30
ENDBRANCH  28  29
ENDBRANCH   1  28
TORSDOF 17
ENDMDL
MODEL 3
REMARK VINA RESULT:     -12.2      4.737     10.257
REMARK SMILES COc1ccc(NC(=O)C[C@@H](C[NH+]2CCOCC2)C(=O)NCCCCNC(=O)c2ccc(-c3c4nc(c(-c5c(F)c(F)c(F)c(F)c5F)c5ccc([nH]5)c(-c5c(F)c(F)c(F)c(F)c5F)c5nc(c(-c6c(F)c(F)c(F)c(F)c6F)c6ccc3[nH]6)C=C5)C=C4)cc2)cc1
REMARK SMILES IDX 22 1 21 2 19 3 20 4 11 6 10 7 8 8 7 9 9 11 6 12 3 13 4 14
REMARK SMILES IDX 93 15 5 16 92 17 2 18 1 19 12 20 13 21 14 22 18 23 15 25
REMARK SMILES IDX 17 26 16 27 23 28 24 29 25 30 26 31 27 32 28 34 29 35 30 36
REMARK SMILES IDX 91 37 31 38 90 39 32 40 33 41 34 42 84 43 35 44 89 45 83 46
REMARK SMILES IDX 85 47 36 48 88 49 82 50 81 51 37 53 69 54 49 55 68 56 50 57
REMARK SMILES IDX 53 58 67 59 86 60 51 61 52 62 66 64 87 65 54 66 38 67 39 68
REMARK SMILES IDX 47 69 40 70 41 71 45 72 48 73 42 74 43 75 46 76 44 77 70 78
REMARK SMILES IDX 71 79 79 80 72 81 73 82 77 83 80 84 74 85 75 86 78 87 76 88
REMARK SMILES IDX 55 89 56 90 64 91 57 92 58 93 62 94 65 95 59 96 60 97 63 98
REMARK SMILES IDX 61 99
REMARK H PARENT 21 5 7 10 13 24 26 33 85 52 53 63
REMARK Flexibility Score: inf
ROOT
ATOM      1  C   UNL A   1      35.887  22.098  26.168  1.00  0.00     0.116 C 
ENDROOT
BRANCH   1   2
ATOM      2  N   UNL A   1      34.707  22.204  27.012  1.00  0.00    -0.356 N 
ATOM      3  C   UNL A   1      33.400  22.522  26.905  1.00  0.00     0.229 C 
ATOM      4  O   UNL A   1      32.760  22.268  27.938  1.00  0.00    -0.275 OA
ATOM      5  H   UNL A   1      34.929  21.973  27.943  1.00  0.00     0.163 HD
BRANCH   3   6
ATOM      6  C   UNL A   1      32.629  23.030  25.669  1.00  0.00     0.142 C 
BRANCH   6   7
ATOM      7  C   UNL A   1      31.095  22.785  25.843  1.00  0.00     0.119 C 
BRANCH   7   8
ATOM      8  C   UNL A   1      30.157  23.602  26.718  1.00  0.00     0.225 C 
ATOM      9  N   UNL A   1      29.774  24.888  26.526  1.00  0.00    -0.326 N 
ATOM     10  H   UNL A   1      29.008  25.146  27.088  1.00  0.00     0.169 HD
ATOM     11  O   UNL A   1      29.634  23.047  27.700  1.00  0.00    -0.275 OA
BRANCH   9  12
ATOM     12  C   UNL A   1      30.224  25.931  25.710  1.00  0.00     0.041 A 
ATOM     13  C   UNL A   1      30.430  28.257  24.177  1.00  0.00     0.119 A 
ATOM     14  C   UNL A   1      31.216  28.094  25.319  1.00  0.00     0.048 A 
ATOM     15  C   UNL A   1      29.690  27.183  23.695  1.00  0.00     0.048 A 
ATOM     16  C   UNL A   1      31.117  26.924  26.089  1.00  0.00     0.030 A 
ATOM     17  C   UNL A   1      29.604  26.016  24.455  1.00  0.00     0.030 A 
BRANCH  13  18
ATOM     18  O   UNL A   1      30.424  29.499  23.604  1.00  0.00    -0.497 OA
ATOM     19  C   UNL A   1      30.309  29.475  22.178  1.00  0.00     0.278 C 
ENDBRANCH  13  18
ENDBRANCH   9  12
ENDBRANCH   7   8
ENDBRANCH   6   7
BRANCH   6  20
ATOM     20  C   UNL A   1      33.109  24.299  24.977  1.00  0.00     0.276 C 
BRANCH  20  21
ATOM     21  N   UNL A   1      32.846  24.490  23.560  1.00  0.00    -0.330 N 
ATOM     22  C   UNL A   1      33.089  25.822  23.004  1.00  0.00     0.291 C 
ATOM     23  C   UNL A   1      33.556  23.488  22.742  1.00  0.00     0.291 C 
ATOM     24  H   UNL A   1      31.834  24.369  23.513  1.00  0.00     0.348 HD
ATOM     25  C   UNL A   1      32.599  25.859  21.547  1.00  0.00     0.221 C 
ATOM     26  C   UNL A   1      33.122  23.578  21.274  1.00  0.00     0.221 C 
ATOM     27  O   UNL A   1      33.314  24.899  20.751  1.00  0.00    -0.370 OA
ENDBRANCH  20  21
ENDBRANCH   6  20
ENDBRANCH   3   6
ENDBRANCH   1   2
BRANCH   1  28
ATOM     28  C   UNL A   1      35.791  20.916  25.203  1.00  0.00     0.023 C 
BRANCH  28  29
ATOM     29  C   UNL A   1      37.111  20.180  25.001  1.00  0.00     0.023 C 
BRANCH  29  30
ATOM     30  C   UNL A   1      38.375  20.912  25.435  1.00  0.00     0.116 C 
BRANCH  30  31
ATOM     31  N   UNL A   1      39.491  20.055  25.810  1.00  0.00    -0.352 N 
ATOM     32  C   UNL A   1      40.567  20.382  26.618  1.00  0.00     0.251 C 
ATOM     33  H   UNL A   1      39.479  19.140  25.447  1.00  0.00     0.163 HD
ATOM     34  O   UNL A   1      41.452  19.582  26.865  1.00  0.00    -0.269 OA
BRANCH  32  35
ATOM     35  C   UNL A   1      40.649  21.769  27.132  1.00  0.00     0.039 A 
ATOM     36  C   UNL A   1      41.526  22.045  28.183  1.00  0.00     0.014 A 
ATOM     37  C   UNL A   1      40.006  22.804  26.451  1.00  0.00     0.014 A 
ATOM     38  C   UNL A   1      41.855  23.372  28.469  1.00  0.00     0.010 A 
ATOM     39  C   UNL A   1      40.408  24.117  26.676  1.00  0.00     0.010 A 
ATOM     40  C   UNL A   1      41.355  24.414  27.672  1.00  0.00    -0.014 A 
BRANCH  40  41
ATOM     41  C   UNL A   1      41.832  25.815  27.835  1.00  0.00     0.031 A 
ATOM     42  C   UNL A   1      43.176  26.218  27.293  1.00  0.00     0.074 A 
ATOM     43  C   UNL A   1      41.104  26.700  28.546  1.00  0.00     0.049 A 
ATOM     44  N   UNL A   1      43.816  27.353  27.422  1.00  0.00    -0.248 NA
ATOM     45  C   UNL A   1      43.916  25.195  26.538  1.00  0.00     0.031 C 
ATOM     46  C   UNL A   1      39.816  26.423  29.187  1.00  0.00     0.029 A 
ATOM     47  N   UNL A   1      41.348  28.016  28.861  1.00  0.00    -0.354 N 
ATOM     48  C   UNL A   1      45.037  27.170  26.789  1.00  0.00     0.074 A 
ATOM     49  C   UNL A   1      45.076  25.799  26.329  1.00  0.00     0.031 C 
ATOM     50  C   UNL A   1      39.371  27.538  29.788  1.00  0.00     0.029 A 
ATOM     51  C   UNL A   1      40.354  28.601  29.610  1.00  0.00     0.049 A 
ATOM     52  H   UNL A   1      42.159  28.495  28.575  1.00  0.00     0.167 HD
ATOM     53  C   UNL A   1      46.026  28.071  26.580  1.00  0.00     0.037 A 
ATOM     54  C   UNL A   1      40.250  29.853  30.097  1.00  0.00     0.037 A 
ATOM     55  C   UNL A   1      45.970  29.447  26.992  1.00  0.00     0.049 A 
ATOM     56  C   UNL A   1      41.349  30.844  29.822  1.00  0.00     0.074 A 
ATOM     57  C   UNL A   1      46.894  30.453  26.769  1.00  0.00     0.029 A 
ATOM     58  N   UNL A   1      44.925  30.014  27.705  1.00  0.00    -0.354 N 
ATOM     59  N   UNL A   1      42.469  30.675  29.163  1.00  0.00    -0.248 NA
ATOM     60  C   UNL A   1      41.168  32.202  30.355  1.00  0.00     0.031 C 
ATOM     61  C   UNL A   1      46.420  31.623  27.371  1.00  0.00     0.029 A 
ATOM     62  C   UNL A   1      45.183  31.354  27.936  1.00  0.00     0.049 A 
ATOM     63  H   UNL A   1      44.117  29.534  28.002  1.00  0.00     0.167 HD
ATOM     64  C   UNL A   1      43.108  31.907  29.173  1.00  0.00     0.074 A 
ATOM     65  C   UNL A   1      42.246  32.820  29.894  1.00  0.00     0.031 C 
ATOM     66  C   UNL A   1      44.303  32.252  28.637  1.00  0.00     0.037 A 
BRANCH  53  67
ATOM     67  C   UNL A   1      47.248  27.597  25.849  1.00  0.00     0.064 A 
ATOM     68  C   UNL A   1      47.344  27.683  24.452  1.00  0.00     0.173 A 
ATOM     69  C   UNL A   1      48.346  27.079  26.553  1.00  0.00     0.173 A 
ATOM     70  F   UNL A   1      46.316  28.157  23.733  1.00  0.00    -0.203 F 
ATOM     71  C   UNL A   1      48.482  27.240  23.783  1.00  0.00     0.198 A 
ATOM     72  C   UNL A   1      49.494  26.665  25.883  1.00  0.00     0.198 A 
ATOM     73  F   UNL A   1      48.306  26.979  27.890  1.00  0.00    -0.203 F 
ATOM     74  F   UNL A   1      48.529  27.285  22.445  1.00  0.00    -0.200 F 
ATOM     75  C   UNL A   1      49.558  26.738  24.500  1.00  0.00     0.200 A 
ATOM     76  F   UNL A   1      50.538  26.190  26.576  1.00  0.00    -0.200 F 
ATOM     77  F   UNL A   1      50.655  26.317  23.855  1.00  0.00    -0.200 F 
ENDBRANCH  53  67
BRANCH  54  78
ATOM     78  C   UNL A   1      39.045  30.261  30.868  1.00  0.00     0.064 A 
ATOM     79  C   UNL A   1      37.922  30.790  30.216  1.00  0.00     0.173 A 
ATOM     80  C   UNL A   1      38.999  30.159  32.266  1.00  0.00     0.173 A 
ATOM     81  F   UNL A   1      37.927  30.929  28.882  1.00  0.00    -0.203 F 
ATOM     82  C   UNL A   1      36.810  31.228  30.934  1.00  0.00     0.198 A 
ATOM     83  C   UNL A   1      37.875  30.572  32.981  1.00  0.00     0.198 A 
ATOM     84  F   UNL A   1      40.045  29.656  32.938  1.00  0.00    -0.203 F 
ATOM     85  F   UNL A   1      35.773  31.778  30.288  1.00  0.00    -0.200 F 
ATOM     86  C   UNL A   1      36.786  31.115  32.316  1.00  0.00     0.200 A 
ATOM     87  F   UNL A   1      37.851  30.451  34.314  1.00  0.00    -0.200 F 
ATOM     88  F   UNL A   1      35.719  31.539  33.006  1.00  0.00    -0.200 F 
ENDBRANCH  54  78
BRANCH  66  89
ATOM     89  C   UNL A   1      44.732  33.684  28.770  1.00  0.00     0.064 A 
ATOM     90  C   UNL A   1      45.525  34.116  29.843  1.00  0.00     0.173 A 
ATOM     91  C   UNL A   1      44.388  34.620  27.784  1.00  0.00     0.173 A 
ATOM     92  F   UNL A   1      45.867  33.262  30.817  1.00  0.00    -0.203 F 
ATOM     93  C   UNL A   1      45.940  35.442  29.933  1.00  0.00     0.198 A 
ATOM     94  C   UNL A   1      44.828  35.938  27.864  1.00  0.00     0.198 A 
ATOM     95  F   UNL A   1      43.637  34.251  26.734  1.00  0.00    -0.203 F 
ATOM     96  F   UNL A   1      46.663  35.845  30.987  1.00  0.00    -0.200 F 
ATOM     97  C   UNL A   1      45.598  36.349  28.941  1.00  0.00     0.200 A 
ATOM     98  F   UNL A   1      44.507  36.810  26.898  1.00  0.00    -0.200 F 
ATOM     99  F   UNL A   1      46.007  37.622  29.025  1.00  0.00    -0.200 F 
ENDBRANCH  66  89
ENDBRANCH  40  41
ENDBRANCH  32  35
ENDBRANCH  30  31
ENDBRANCH  29  30
ENDBRANCH  28  29
ENDBRANCH   1  28
TORSDOF 17
ENDMDL
