MODEL 1
REMARK VINA RESULT:     -12.5      0.000      0.000
REMARK SMILES Cc1cccc(C(=O)NCCCCNC(=O)c2ccc(-c3c4nc(c(-c5c(F)c(F)c(F)c(F)c5F)c5ccc([nH]5)c(-c5c(F)c(F)c(F)c(F)c5F)c5nc(c(-c6c(F)c(F)c(F)c(F)c6F)c6ccc3[nH]6)C=C5)C=C4)cc2)c1O[C@H](C)[C@H](C)O
REMARK SMILES IDX 10 1 9 2 7 3 8 4 6 6 1 7 2 8 3 9 80 10 4 11 5 12 81 13 82 14
REMARK SMILES IDX 83 15 84 16 85 17 86 18 11 20 12 21 13 22 14 23 15 24 16 26
REMARK SMILES IDX 17 27 18 28 79 29 19 30 78 31 20 32 21 33 22 34 72 35 23 36
REMARK SMILES IDX 77 37 71 38 73 39 24 40 76 41 70 42 69 43 25 45 57 46 37 47
REMARK SMILES IDX 56 48 38 49 41 50 55 51 74 52 39 53 40 54 54 56 75 57 42 58
REMARK SMILES IDX 26 59 27 60 35 61 28 62 29 63 33 64 36 65 30 66 31 67 34 68
REMARK SMILES IDX 32 69 58 70 59 71 67 72 60 73 61 74 65 75 68 76 62 77 63 78
REMARK SMILES IDX 66 79 64 80 43 81 44 82 52 83 45 84 46 85 50 86 53 87 47 88
REMARK SMILES IDX 48 89 51 90 49 91
REMARK H PARENT 9 5 86 19 14 25 73 44 41 55
REMARK Flexibility Score: inf
ROOT
ATOM      1  C   UNL A   1      31.486  28.504  27.625  1.00  0.00     0.116 C 
ENDROOT
BRANCH   1   2
ATOM      2  N   UNL A   1      31.198  27.081  27.249  1.00  0.00    -0.352 N 
ATOM      3  C   UNL A   1      31.511  25.994  26.432  1.00  0.00     0.255 C 
ATOM      4  O   UNL A   1      30.951  24.975  26.882  1.00  0.00    -0.269 OA
ATOM      5  H   UNL A   1      30.469  26.781  27.838  1.00  0.00     0.163 HD
BRANCH   3   6
ATOM      6  C   UNL A   1      32.323  25.739  25.164  1.00  0.00     0.082 A 
ATOM      7  C   UNL A   1      32.905  25.994  21.348  1.00  0.00     0.048 C 
ATOM      8  C   UNL A   1      33.044  25.535  22.786  1.00  0.00    -0.008 A 
ATOM      9  C   UNL A   1      34.038  24.621  23.106  1.00  0.00     0.007 A 
ATOM     10  C   UNL A   1      32.114  25.978  23.783  1.00  0.00     0.135 A 
ATOM     11  C   UNL A   1      34.179  24.230  24.423  1.00  0.00     0.001 A 
ATOM     12  C   UNL A   1      33.379  24.814  25.422  1.00  0.00     0.018 A 
BRANCH  10  13
ATOM     13  O   UNL A   1      31.029  26.447  23.097  1.00  0.00    -0.487 OA
BRANCH  13  14
ATOM     14  C   UNL A   1      30.138  27.382  23.671  1.00  0.00     0.198 C 
ATOM     15  C   UNL A   1      28.831  26.601  23.877  1.00  0.00     0.056 C 
BRANCH  14  16
ATOM     16  C   UNL A   1      30.558  28.748  23.017  1.00  0.00     0.151 C 
ATOM     17  C   UNL A   1      29.602  29.861  23.431  1.00  0.00     0.042 C 
BRANCH  16  18
ATOM     18  O   UNL A   1      30.642  28.895  21.625  1.00  0.00    -0.390 OA
ATOM     19  H   UNL A   1      30.730  29.836  21.404  1.00  0.00     0.211 HD
ENDBRANCH  16  18
ENDBRANCH  14  16
ENDBRANCH  13  14
ENDBRANCH  10  13
ENDBRANCH   3   6
ENDBRANCH   1   2
BRANCH   1  20
ATOM     20  C   UNL A   1      31.783  29.635  26.545  1.00  0.00     0.023 C 
BRANCH  20  21
ATOM     21  C   UNL A   1      33.239  29.945  26.088  1.00  0.00     0.023 C 
BRANCH  21  22
ATOM     22  C   UNL A   1      34.463  29.657  26.999  1.00  0.00     0.116 C 
BRANCH  22  23
ATOM     23  N   UNL A   1      35.353  30.771  27.314  1.00  0.00    -0.352 N 
ATOM     24  C   UNL A   1      36.463  30.835  28.132  1.00  0.00     0.251 C 
ATOM     25  H   UNL A   1      35.123  31.618  26.868  1.00  0.00     0.163 HD
ATOM     26  O   UNL A   1      36.782  31.926  28.613  1.00  0.00    -0.269 OA
BRANCH  24  27
ATOM     27  C   UNL A   1      37.359  29.668  28.346  1.00  0.00     0.039 A 
ATOM     28  C   UNL A   1      37.330  28.963  29.566  1.00  0.00     0.014 A 
ATOM     29  C   UNL A   1      38.368  29.383  27.440  1.00  0.00     0.014 A 
ATOM     30  C   UNL A   1      38.390  28.116  29.915  1.00  0.00     0.010 A 
ATOM     31  C   UNL A   1      39.401  28.559  27.761  1.00  0.00     0.010 A 
ATOM     32  C   UNL A   1      39.452  27.996  29.028  1.00  0.00    -0.014 A 
BRANCH  32  33
ATOM     33  C   UNL A   1      40.771  27.464  29.290  1.00  0.00     0.031 A 
ATOM     34  C   UNL A   1      41.140  26.134  28.792  1.00  0.00     0.074 A 
ATOM     35  C   UNL A   1      41.702  28.408  29.561  1.00  0.00     0.049 A 
ATOM     36  N   UNL A   1      42.251  25.556  29.080  1.00  0.00    -0.248 NA
ATOM     37  C   UNL A   1      40.278  25.330  27.930  1.00  0.00     0.031 C 
ATOM     38  C   UNL A   1      43.146  28.363  29.359  1.00  0.00     0.029 A 
ATOM     39  N   UNL A   1      41.485  29.648  30.186  1.00  0.00    -0.354 N 
ATOM     40  C   UNL A   1      42.397  24.498  28.216  1.00  0.00     0.074 A 
ATOM     41  C   UNL A   1      41.087  24.301  27.649  1.00  0.00     0.031 C 
ATOM     42  C   UNL A   1      43.712  29.329  30.103  1.00  0.00     0.029 A 
ATOM     43  C   UNL A   1      42.658  29.907  30.924  1.00  0.00     0.049 A 
ATOM     44  H   UNL A   1      40.683  30.216  30.122  1.00  0.00     0.167 HD
ATOM     45  C   UNL A   1      43.657  24.026  27.992  1.00  0.00     0.037 A 
ATOM     46  C   UNL A   1      42.599  29.821  32.288  1.00  0.00     0.037 A 
ATOM     47  C   UNL A   1      44.605  24.644  28.929  1.00  0.00     0.049 A 
ATOM     48  C   UNL A   1      43.396  28.663  32.847  1.00  0.00     0.074 A 
ATOM     49  C   UNL A   1      45.602  25.591  28.788  1.00  0.00     0.029 A 
ATOM     50  N   UNL A   1      44.378  24.513  30.299  1.00  0.00    -0.354 N 
ATOM     51  N   UNL A   1      43.836  27.662  32.133  1.00  0.00    -0.248 NA
ATOM     52  C   UNL A   1      43.755  28.539  34.255  1.00  0.00     0.031 C 
ATOM     53  C   UNL A   1      45.872  26.129  30.082  1.00  0.00     0.029 A 
ATOM     54  C   UNL A   1      45.082  25.468  31.010  1.00  0.00     0.049 A 
ATOM     55  H   UNL A   1      43.795  23.832  30.706  1.00  0.00     0.167 HD
ATOM     56  C   UNL A   1      44.467  26.757  32.939  1.00  0.00     0.074 A 
ATOM     57  C   UNL A   1      44.424  27.371  34.254  1.00  0.00     0.031 C 
ATOM     58  C   UNL A   1      44.940  25.567  32.461  1.00  0.00     0.037 A 
BRANCH  45  59
ATOM     59  C   UNL A   1      44.095  23.150  26.832  1.00  0.00     0.064 A 
ATOM     60  C   UNL A   1      43.577  21.841  26.704  1.00  0.00     0.173 A 
ATOM     61  C   UNL A   1      45.079  23.482  25.876  1.00  0.00     0.173 A 
ATOM     62  F   UNL A   1      42.649  21.377  27.553  1.00  0.00    -0.203 F 
ATOM     63  C   UNL A   1      44.005  20.952  25.710  1.00  0.00     0.198 A 
ATOM     64  C   UNL A   1      45.466  22.612  24.849  1.00  0.00     0.198 A 
ATOM     65  F   UNL A   1      45.760  24.630  25.921  1.00  0.00    -0.203 F 
ATOM     66  F   UNL A   1      43.515  19.705  25.674  1.00  0.00    -0.200 F 
ATOM     67  C   UNL A   1      44.939  21.343  24.772  1.00  0.00     0.200 A 
ATOM     68  F   UNL A   1      46.380  23.013  23.953  1.00  0.00    -0.200 F 
ATOM     69  F   UNL A   1      45.343  20.499  23.814  1.00  0.00    -0.200 F 
ENDBRANCH  45  59
BRANCH  46  70
ATOM     70  C   UNL A   1      41.294  30.325  32.814  1.00  0.00     0.064 A 
ATOM     71  C   UNL A   1      41.021  31.701  32.661  1.00  0.00     0.173 A 
ATOM     72  C   UNL A   1      40.197  29.472  33.008  1.00  0.00     0.173 A 
ATOM     73  F   UNL A   1      42.031  32.563  32.460  1.00  0.00    -0.203 F 
ATOM     74  C   UNL A   1      39.715  32.179  32.574  1.00  0.00     0.198 A 
ATOM     75  C   UNL A   1      38.888  29.959  32.932  1.00  0.00     0.198 A 
ATOM     76  F   UNL A   1      40.382  28.151  33.141  1.00  0.00    -0.203 F 
ATOM     77  F   UNL A   1      39.494  33.475  32.303  1.00  0.00    -0.200 F 
ATOM     78  C   UNL A   1      38.649  31.303  32.679  1.00  0.00     0.200 A 
ATOM     79  F   UNL A   1      37.853  29.110  33.019  1.00  0.00    -0.200 F 
ATOM     80  F   UNL A   1      37.395  31.746  32.505  1.00  0.00    -0.200 F 
ENDBRANCH  46  70
BRANCH  58  81
ATOM     81  C   UNL A   1      45.362  24.395  33.321  1.00  0.00     0.064 A 
ATOM     82  C   UNL A   1      44.540  23.289  33.601  1.00  0.00     0.173 A 
ATOM     83  C   UNL A   1      46.700  24.283  33.771  1.00  0.00     0.173 A 
ATOM     84  F   UNL A   1      43.294  23.199  33.116  1.00  0.00    -0.203 F 
ATOM     85  C   UNL A   1      44.996  22.195  34.341  1.00  0.00     0.198 A 
ATOM     86  C   UNL A   1      47.171  23.157  34.446  1.00  0.00     0.198 A 
ATOM     87  F   UNL A   1      47.600  25.252  33.543  1.00  0.00    -0.203 F 
ATOM     88  F   UNL A   1      44.153  21.193  34.627  1.00  0.00    -0.200 F 
ATOM     89  C   UNL A   1      46.314  22.123  34.750  1.00  0.00     0.200 A 
ATOM     90  F   UNL A   1      48.467  23.075  34.777  1.00  0.00    -0.200 F 
ATOM     91  F   UNL A   1      46.759  21.048  35.414  1.00  0.00    -0.200 F 
ENDBRANCH  58  81
ENDBRANCH  32  33
ENDBRANCH  24  27
ENDBRANCH  22  23
ENDBRANCH  21  22
ENDBRANCH  20  21
ENDBRANCH   1  20
TORSDOF 15
ENDMDL
MODEL 2
REMARK VINA RESULT:     -12.5      1.501      2.619
REMARK SMILES Cc1cccc(C(=O)NCCCCNC(=O)c2ccc(-c3c4nc(c(-c5c(F)c(F)c(F)c(F)c5F)c5ccc([nH]5)c(-c5c(F)c(F)c(F)c(F)c5F)c5nc(c(-c6c(F)c(F)c(F)c(F)c6F)c6ccc3[nH]6)C=C5)C=C4)cc2)c1O[C@H](C)[C@H](C)O
REMARK SMILES IDX 10 1 9 2 7 3 8 4 6 6 1 7 2 8 3 9 80 10 4 11 5 12 81 13 82 14
REMARK SMILES IDX 83 15 84 16 85 17 86 18 11 20 12 21 13 22 14 23 15 24 16 26
REMARK SMILES IDX 17 27 18 28 79 29 19 30 78 31 20 32 21 33 22 34 72 35 23 36
REMARK SMILES IDX 77 37 71 38 73 39 24 40 76 41 70 42 69 43 25 45 57 46 37 47
REMARK SMILES IDX 56 48 38 49 41 50 55 51 74 52 39 53 40 54 54 56 75 57 42 58
REMARK SMILES IDX 26 59 27 60 35 61 28 62 29 63 33 64 36 65 30 66 31 67 34 68
REMARK SMILES IDX 32 69 58 70 59 71 67 72 60 73 61 74 65 75 68 76 62 77 63 78
REMARK SMILES IDX 66 79 64 80 43 81 44 82 52 83 45 84 46 85 50 86 53 87 47 88
REMARK SMILES IDX 48 89 51 90 49 91
REMARK H PARENT 9 5 86 19 14 25 73 44 41 55
REMARK Flexibility Score: inf
ROOT
ATOM      1  C   UNL A   1      31.357  28.056  27.144  1.00  0.00     0.116 C 
ENDROOT
BRANCH   1   2
ATOM      2  N   UNL A   1      30.915  26.636  26.948  1.00  0.00    -0.352 N 
ATOM      3  C   UNL A   1      30.977  25.482  26.167  1.00  0.00     0.255 C 
ATOM      4  O   UNL A   1      30.476  24.534  26.803  1.00  0.00    -0.269 OA
ATOM      5  H   UNL A   1      30.319  26.425  27.703  1.00  0.00     0.163 HD
BRANCH   3   6
ATOM      6  C   UNL A   1      31.471  25.093  24.775  1.00  0.00     0.082 A 
ATOM      7  C   UNL A   1      33.512  22.872  22.353  1.00  0.00     0.048 C 
ATOM      8  C   UNL A   1      32.720  24.048  22.886  1.00  0.00    -0.008 A 
ATOM      9  C   UNL A   1      32.398  25.088  22.024  1.00  0.00     0.007 A 
ATOM     10  C   UNL A   1      32.376  24.123  24.276  1.00  0.00     0.135 A 
ATOM     11  C   UNL A   1      31.650  26.142  22.508  1.00  0.00     0.001 A 
ATOM     12  C   UNL A   1      31.161  26.113  23.828  1.00  0.00     0.018 A 
BRANCH  10  13
ATOM     13  O   UNL A   1      33.210  23.247  24.912  1.00  0.00    -0.487 OA
BRANCH  13  14
ATOM     14  C   UNL A   1      33.901  23.606  26.091  1.00  0.00     0.198 C 
ATOM     15  C   UNL A   1      35.210  24.242  25.599  1.00  0.00     0.056 C 
BRANCH  14  16
ATOM     16  C   UNL A   1      33.494  22.488  27.118  1.00  0.00     0.151 C 
ATOM     17  C   UNL A   1      33.520  21.113  26.459  1.00  0.00     0.042 C 
BRANCH  16  18
ATOM     18  O   UNL A   1      32.253  22.510  27.769  1.00  0.00    -0.390 OA
ATOM     19  H   UNL A   1      31.762  21.701  27.558  1.00  0.00     0.211 HD
ENDBRANCH  16  18
ENDBRANCH  14  16
ENDBRANCH  13  14
ENDBRANCH  10  13
ENDBRANCH   3   6
ENDBRANCH   1   2
BRANCH   1  20
ATOM     20  C   UNL A   1      31.833  28.982  25.940  1.00  0.00     0.023 C 
BRANCH  20  21
ATOM     21  C   UNL A   1      33.123  29.846  26.054  1.00  0.00     0.023 C 
BRANCH  21  22
ATOM     22  C   UNL A   1      33.664  30.334  27.425  1.00  0.00     0.116 C 
BRANCH  22  23
ATOM     23  N   UNL A   1      34.609  31.448  27.425  1.00  0.00    -0.352 N 
ATOM     24  C   UNL A   1      35.846  31.581  28.024  1.00  0.00     0.251 C 
ATOM     25  H   UNL A   1      34.315  32.235  26.911  1.00  0.00     0.163 HD
ATOM     26  O   UNL A   1      36.257  32.715  28.287  1.00  0.00    -0.269 OA
BRANCH  24  27
ATOM     27  C   UNL A   1      36.750  30.421  28.242  1.00  0.00     0.039 A 
ATOM     28  C   UNL A   1      36.748  29.739  29.475  1.00  0.00     0.014 A 
ATOM     29  C   UNL A   1      37.743  30.124  27.321  1.00  0.00     0.014 A 
ATOM     30  C   UNL A   1      37.818  28.903  29.819  1.00  0.00     0.010 A 
ATOM     31  C   UNL A   1      38.786  29.310  27.638  1.00  0.00     0.010 A 
ATOM     32  C   UNL A   1      38.864  28.772  28.913  1.00  0.00    -0.014 A 
BRANCH  32  33
ATOM     33  C   UNL A   1      40.190  28.249  29.159  1.00  0.00     0.031 A 
ATOM     34  C   UNL A   1      40.523  26.874  28.771  1.00  0.00     0.074 A 
ATOM     35  C   UNL A   1      41.141  29.203  29.294  1.00  0.00     0.049 A 
ATOM     36  N   UNL A   1      41.642  26.312  29.057  1.00  0.00    -0.248 NA
ATOM     37  C   UNL A   1      39.612  26.004  28.031  1.00  0.00     0.031 C 
ATOM     38  C   UNL A   1      42.572  29.121  29.027  1.00  0.00     0.029 A 
ATOM     39  N   UNL A   1      40.965  30.498  29.809  1.00  0.00    -0.354 N 
ATOM     40  C   UNL A   1      41.737  25.175  28.290  1.00  0.00     0.074 A 
ATOM     41  C   UNL A   1      40.399  24.943  27.809  1.00  0.00     0.031 C 
ATOM     42  C   UNL A   1      43.183  30.146  29.648  1.00  0.00     0.029 A 
ATOM     43  C   UNL A   1      42.176  30.811  30.461  1.00  0.00     0.049 A 
ATOM     44  H   UNL A   1      40.165  31.068  29.732  1.00  0.00     0.167 HD
ATOM     45  C   UNL A   1      42.980  24.669  28.050  1.00  0.00     0.037 A 
ATOM     46  C   UNL A   1      42.184  30.853  31.828  1.00  0.00     0.037 A 
ATOM     47  C   UNL A   1      43.979  25.360  28.877  1.00  0.00     0.049 A 
ATOM     48  C   UNL A   1      42.999  29.743  32.455  1.00  0.00     0.074 A 
ATOM     49  C   UNL A   1      44.975  26.277  28.599  1.00  0.00     0.029 A 
ATOM     50  N   UNL A   1      43.820  25.361  30.263  1.00  0.00    -0.354 N 
ATOM     51  N   UNL A   1      43.395  28.674  31.817  1.00  0.00    -0.248 NA
ATOM     52  C   UNL A   1      43.428  29.746  33.849  1.00  0.00     0.031 C 
ATOM     53  C   UNL A   1      45.313  26.930  29.821  1.00  0.00     0.029 A 
ATOM     54  C   UNL A   1      44.566  26.369  30.846  1.00  0.00     0.049 A 
ATOM     55  H   UNL A   1      43.253  24.728  30.760  1.00  0.00     0.167 HD
ATOM     56  C   UNL A   1      44.059  27.841  32.673  1.00  0.00     0.074 A 
ATOM     57  C   UNL A   1      44.086  28.575  33.925  1.00  0.00     0.031 C 
ATOM     58  C   UNL A   1      44.498  26.605  32.286  1.00  0.00     0.037 A 
BRANCH  45  59
ATOM     59  C   UNL A   1      43.352  23.683  26.958  1.00  0.00     0.064 A 
ATOM     60  C   UNL A   1      42.975  22.326  27.076  1.00  0.00     0.173 A 
ATOM     61  C   UNL A   1      44.152  23.968  25.830  1.00  0.00     0.173 A 
ATOM     62  F   UNL A   1      42.230  21.901  28.107  1.00  0.00    -0.203 F 
ATOM     63  C   UNL A   1      43.362  21.349  26.149  1.00  0.00     0.198 A 
ATOM     64  C   UNL A   1      44.491  23.002  24.875  1.00  0.00     0.198 A 
ATOM     65  F   UNL A   1      44.697  25.169  25.625  1.00  0.00    -0.203 F 
ATOM     66  F   UNL A   1      43.017  20.069  26.345  1.00  0.00    -0.200 F 
ATOM     67  C   UNL A   1      44.107  21.691  25.039  1.00  0.00     0.200 A 
ATOM     68  F   UNL A   1      45.223  23.356  23.808  1.00  0.00    -0.200 F 
ATOM     69  F   UNL A   1      44.471  20.761  24.145  1.00  0.00    -0.200 F 
ENDBRANCH  45  59
BRANCH  46  70
ATOM     70  C   UNL A   1      40.911  31.421  32.368  1.00  0.00     0.064 A 
ATOM     71  C   UNL A   1      40.680  32.798  32.171  1.00  0.00     0.173 A 
ATOM     72  C   UNL A   1      39.792  30.614  32.622  1.00  0.00     0.173 A 
ATOM     73  F   UNL A   1      41.713  33.618  31.912  1.00  0.00    -0.203 F 
ATOM     74  C   UNL A   1      39.389  33.318  32.099  1.00  0.00     0.198 A 
ATOM     75  C   UNL A   1      38.499  31.142  32.561  1.00  0.00     0.198 A 
ATOM     76  F   UNL A   1      39.937  29.293  32.800  1.00  0.00    -0.203 F 
ATOM     77  F   UNL A   1      39.205  34.610  31.785  1.00  0.00    -0.200 F 
ATOM     78  C   UNL A   1      38.297  32.484  32.264  1.00  0.00     0.200 A 
ATOM     79  F   UNL A   1      37.439  30.333  32.707  1.00  0.00    -0.200 F 
ATOM     80  F   UNL A   1      37.055  32.962  32.105  1.00  0.00    -0.200 F 
ENDBRANCH  46  70
BRANCH  58  81
ATOM     81  C   UNL A   1      44.953  25.513  33.230  1.00  0.00     0.064 A 
ATOM     82  C   UNL A   1      46.266  25.012  33.279  1.00  0.00     0.173 A 
ATOM     83  C   UNL A   1      44.086  25.038  34.244  1.00  0.00     0.173 A 
ATOM     84  F   UNL A   1      47.225  25.478  32.469  1.00  0.00    -0.203 F 
ATOM     85  C   UNL A   1      46.659  24.054  34.217  1.00  0.00     0.198 A 
ATOM     86  C   UNL A   1      44.502  24.136  35.223  1.00  0.00     0.198 A 
ATOM     87  F   UNL A   1      42.815  25.458  34.334  1.00  0.00    -0.203 F 
ATOM     88  F   UNL A   1      47.908  23.569  34.182  1.00  0.00    -0.200 F 
ATOM     89  C   UNL A   1      45.783  23.627  35.195  1.00  0.00     0.200 A 
ATOM     90  F   UNL A   1      43.660  23.783  36.203  1.00  0.00    -0.200 F 
ATOM     91  F   UNL A   1      46.181  22.746  36.124  1.00  0.00    -0.200 F 
ENDBRANCH  58  81
ENDBRANCH  32  33
ENDBRANCH  24  27
ENDBRANCH  22  23
ENDBRANCH  21  22
ENDBRANCH  20  21
ENDBRANCH   1  20
TORSDOF 15
ENDMDL
MODEL 3
REMARK VINA RESULT:     -12.4      3.346      9.527
REMARK SMILES Cc1cccc(C(=O)NCCCCNC(=O)c2ccc(-c3c4nc(c(-c5c(F)c(F)c(F)c(F)c5F)c5ccc([nH]5)c(-c5c(F)c(F)c(F)c(F)c5F)c5nc(c(-c6c(F)c(F)c(F)c(F)c6F)c6ccc3[nH]6)C=C5)C=C4)cc2)c1O[C@H](C)[C@H](C)O
REMARK SMILES IDX 10 1 9 2 7 3 8 4 6 6 1 7 2 8 3 9 80 10 4 11 5 12 81 13 82 14
REMARK SMILES IDX 83 15 84 16 85 17 86 18 11 20 12 21 13 22 14 23 15 24 16 26
REMARK SMILES IDX 17 27 18 28 79 29 19 30 78 31 20 32 21 33 22 34 72 35 23 36
REMARK SMILES IDX 77 37 71 38 73 39 24 40 76 41 70 42 69 43 25 45 57 46 37 47
REMARK SMILES IDX 56 48 38 49 41 50 55 51 74 52 39 53 40 54 54 56 75 57 42 58
REMARK SMILES IDX 26 59 27 60 35 61 28 62 29 63 33 64 36 65 30 66 31 67 34 68
REMARK SMILES IDX 32 69 58 70 59 71 67 72 60 73 61 74 65 75 68 76 62 77 63 78
REMARK SMILES IDX 66 79 64 80 43 81 44 82 52 83 45 84 46 85 50 86 53 87 47 88
REMARK SMILES IDX 48 89 51 90 49 91
REMARK H PARENT 9 5 86 19 14 25 73 44 41 55
REMARK Flexibility Score: inf
ROOT
ATOM      1  C   UNL A   1      34.733  24.351  24.597  1.00  0.00     0.116 C 
ENDROOT
BRANCH   1   2
ATOM      2  N   UNL A   1      33.317  24.775  24.852  1.00  0.00    -0.352 N 
ATOM      3  C   UNL A   1      32.439  25.808  25.178  1.00  0.00     0.255 C 
ATOM      4  O   UNL A   1      31.270  25.426  24.976  1.00  0.00    -0.269 OA
ATOM      5  H   UNL A   1      32.762  23.968  24.741  1.00  0.00     0.163 HD
BRANCH   3   6
ATOM      6  C   UNL A   1      32.534  27.237  25.711  1.00  0.00     0.082 A 
ATOM      7  C   UNL A   1      31.368  30.921  25.886  1.00  0.00     0.048 C 
ATOM      8  C   UNL A   1      32.238  29.691  26.042  1.00  0.00    -0.008 A 
ATOM      9  C   UNL A   1      33.441  29.800  26.726  1.00  0.00     0.007 A 
ATOM     10  C   UNL A   1      31.862  28.452  25.425  1.00  0.00     0.135 A 
ATOM     11  C   UNL A   1      34.215  28.669  26.892  1.00  0.00     0.001 A 
ATOM     12  C   UNL A   1      33.745  27.421  26.442  1.00  0.00     0.018 A 
BRANCH  10  13
ATOM     13  O   UNL A   1      30.939  28.776  24.472  1.00  0.00    -0.487 OA
BRANCH  13  14
ATOM     14  C   UNL A   1      31.107  28.399  23.120  1.00  0.00     0.198 C 
ATOM     15  C   UNL A   1      32.514  28.891  22.747  1.00  0.00     0.056 C 
BRANCH  14  16
ATOM     16  C   UNL A   1      29.661  28.522  22.516  1.00  0.00     0.151 C 
ATOM     17  C   UNL A   1      29.326  29.977  22.207  1.00  0.00     0.042 C 
BRANCH  16  18
ATOM     18  O   UNL A   1      28.535  28.074  23.220  1.00  0.00    -0.390 OA
ATOM     19  H   UNL A   1      28.730  28.063  24.170  1.00  0.00     0.211 HD
ENDBRANCH  16  18
ENDBRANCH  14  16
ENDBRANCH  13  14
ENDBRANCH  10  13
ENDBRANCH   3   6
ENDBRANCH   1   2
BRANCH   1  20
ATOM     20  C   UNL A   1      35.736  23.955  25.768  1.00  0.00     0.023 C 
BRANCH  20  21
ATOM     21  C   UNL A   1      36.443  22.568  25.785  1.00  0.00     0.023 C 
BRANCH  21  22
ATOM     22  C   UNL A   1      37.908  22.389  25.302  1.00  0.00     0.116 C 
BRANCH  22  23
ATOM     23  N   UNL A   1      38.920  22.074  26.306  1.00  0.00    -0.352 N 
ATOM     24  C   UNL A   1      39.891  22.864  26.887  1.00  0.00     0.251 C 
ATOM     25  H   UNL A   1      38.908  21.140  26.621  1.00  0.00     0.163 HD
ATOM     26  O   UNL A   1      40.903  22.322  27.340  1.00  0.00    -0.269 OA
BRANCH  24  27
ATOM     27  C   UNL A   1      39.702  24.323  27.102  1.00  0.00     0.039 A 
ATOM     28  C   UNL A   1      40.340  25.256  26.261  1.00  0.00     0.014 A 
ATOM     29  C   UNL A   1      39.067  24.786  28.244  1.00  0.00     0.014 A 
ATOM     30  C   UNL A   1      40.465  26.593  26.660  1.00  0.00     0.010 A 
ATOM     31  C   UNL A   1      39.174  26.083  28.642  1.00  0.00     0.010 A 
ATOM     32  C   UNL A   1      39.944  26.960  27.894  1.00  0.00    -0.014 A 
BRANCH  32  33
ATOM     33  C   UNL A   1      40.223  28.159  28.654  1.00  0.00     0.031 A 
ATOM     34  C   UNL A   1      39.263  29.268  28.658  1.00  0.00     0.074 A 
ATOM     35  C   UNL A   1      41.110  27.978  29.660  1.00  0.00     0.049 A 
ATOM     36  N   UNL A   1      39.495  30.400  29.220  1.00  0.00    -0.248 NA
ATOM     37  C   UNL A   1      37.952  29.200  28.017  1.00  0.00     0.031 C 
ATOM     38  C   UNL A   1      41.250  28.719  30.909  1.00  0.00     0.029 A 
ATOM     39  N   UNL A   1      42.173  27.059  29.690  1.00  0.00    -0.354 N 
ATOM     40  C   UNL A   1      38.297  31.067  29.306  1.00  0.00     0.074 A 
ATOM     41  C   UNL A   1      37.419  30.366  28.405  1.00  0.00     0.031 C 
ATOM     42  C   UNL A   1      42.467  28.466  31.422  1.00  0.00     0.029 A 
ATOM     43  C   UNL A   1      43.194  27.688  30.429  1.00  0.00     0.049 A 
ATOM     44  H   UNL A   1      42.198  26.163  29.280  1.00  0.00     0.167 HD
ATOM     45  C   UNL A   1      38.177  32.044  30.249  1.00  0.00     0.037 A 
ATOM     46  C   UNL A   1      44.305  28.125  29.760  1.00  0.00     0.037 A 
ATOM     47  C   UNL A   1      39.484  32.327  30.858  1.00  0.00     0.049 A 
ATOM     48  C   UNL A   1      44.426  29.633  29.726  1.00  0.00     0.074 A 
ATOM     49  C   UNL A   1      40.036  32.058  32.097  1.00  0.00     0.029 A 
ATOM     50  N   UNL A   1      40.541  32.712  30.033  1.00  0.00    -0.354 N 
ATOM     51  N   UNL A   1      43.451  30.454  30.009  1.00  0.00    -0.248 NA
ATOM     52  C   UNL A   1      45.653  30.333  29.365  1.00  0.00     0.031 C 
ATOM     53  C   UNL A   1      41.453  32.151  31.966  1.00  0.00     0.029 A 
ATOM     54  C   UNL A   1      41.756  32.532  30.668  1.00  0.00     0.049 A 
ATOM     55  H   UNL A   1      40.436  33.066  29.120  1.00  0.00     0.167 HD
ATOM     56  C   UNL A   1      43.863  31.744  29.830  1.00  0.00     0.074 A 
ATOM     57  C   UNL A   1      45.262  31.617  29.463  1.00  0.00     0.031 C 
ATOM     58  C   UNL A   1      43.008  32.803  29.965  1.00  0.00     0.037 A 
BRANCH  45  59
ATOM     59  C   UNL A   1      36.879  32.634  30.770  1.00  0.00     0.064 A 
ATOM     60  C   UNL A   1      36.159  33.560  29.981  1.00  0.00     0.173 A 
ATOM     61  C   UNL A   1      36.335  32.420  32.056  1.00  0.00     0.173 A 
ATOM     62  F   UNL A   1      36.567  33.879  28.744  1.00  0.00    -0.203 F 
ATOM     63  C   UNL A   1      35.004  34.207  30.437  1.00  0.00     0.198 A 
ATOM     64  C   UNL A   1      35.149  33.025  32.490  1.00  0.00     0.198 A 
ATOM     65  F   UNL A   1      36.948  31.672  32.976  1.00  0.00    -0.203 F 
ATOM     66  F   UNL A   1      34.397  35.116  29.662  1.00  0.00    -0.200 F 
ATOM     67  C   UNL A   1      34.490  33.927  31.687  1.00  0.00     0.200 A 
ATOM     68  F   UNL A   1      34.673  32.743  33.712  1.00  0.00    -0.200 F 
ATOM     69  F   UNL A   1      33.379  34.537  32.123  1.00  0.00    -0.200 F 
ENDBRANCH  45  59
BRANCH  46  70
ATOM     70  C   UNL A   1      44.688  27.187  28.662  1.00  0.00     0.064 A 
ATOM     71  C   UNL A   1      45.201  25.926  29.034  1.00  0.00     0.173 A 
ATOM     72  C   UNL A   1      44.152  27.304  27.370  1.00  0.00     0.173 A 
ATOM     73  F   UNL A   1      45.716  25.752  30.263  1.00  0.00    -0.203 F 
ATOM     74  C   UNL A   1      45.064  24.811  28.209  1.00  0.00     0.198 A 
ATOM     75  C   UNL A   1      44.029  26.185  26.541  1.00  0.00     0.198 A 
ATOM     76  F   UNL A   1      43.630  28.468  26.958  1.00  0.00    -0.203 F 
ATOM     77  F   UNL A   1      45.451  23.603  28.649  1.00  0.00    -0.200 F 
ATOM     78  C   UNL A   1      44.450  24.935  26.975  1.00  0.00     0.200 A 
ATOM     79  F   UNL A   1      43.421  26.299  25.351  1.00  0.00    -0.200 F 
ATOM     80  F   UNL A   1      44.236  23.849  26.219  1.00  0.00    -0.200 F 
ENDBRANCH  46  70
BRANCH  58  81
ATOM     81  C   UNL A   1      43.292  34.211  29.489  1.00  0.00     0.064 A 
ATOM     82  C   UNL A   1      43.393  35.324  30.343  1.00  0.00     0.173 A 
ATOM     83  C   UNL A   1      43.630  34.454  28.136  1.00  0.00     0.173 A 
ATOM     84  F   UNL A   1      43.237  35.209  31.668  1.00  0.00    -0.203 F 
ATOM     85  C   UNL A   1      43.728  36.595  29.867  1.00  0.00     0.198 A 
ATOM     86  C   UNL A   1      44.035  35.708  27.678  1.00  0.00     0.198 A 
ATOM     87  F   UNL A   1      43.607  33.474  27.220  1.00  0.00    -0.203 F 
ATOM     88  F   UNL A   1      43.755  37.632  30.715  1.00  0.00    -0.200 F 
ATOM     89  C   UNL A   1      44.062  36.783  28.540  1.00  0.00     0.200 A 
ATOM     90  F   UNL A   1      44.418  35.859  26.404  1.00  0.00    -0.200 F 
ATOM     91  F   UNL A   1      44.432  37.993  28.100  1.00  0.00    -0.200 F 
ENDBRANCH  58  81
ENDBRANCH  32  33
ENDBRANCH  24  27
ENDBRANCH  22  23
ENDBRANCH  21  22
ENDBRANCH  20  21
ENDBRANCH   1  20
TORSDOF 15
ENDMDL
