MODEL 1
REMARK VINA RESULT:     -12.6      0.000      0.000
REMARK SMILES Cc1cc(C(=O)Nc2c(Cl)cc(Cl)cc2C(=O)NCCCCNC(=O)c2ccc(-c3c4nc(c(-c5c(F)c(F)c(F)c(F)c5F)c5ccc([nH]5)c(-c5c(F)c(F)c(F)c(F)c5F)c5nc(c(-c6c(F)c(F)c(F)c(F)c6F)c6ccc3[nH]6)C=C5)C=C4)cc2)c(C)s1
REMARK SMILES IDX 20 1 19 2 18 3 16 4 17 5 15 7 8 8 9 9 10 10 11 11 14 12
REMARK SMILES IDX 12 13 13 14 7 15 5 16 6 17 4 19 1 20 2 21 3 22 91 23 89 24
REMARK SMILES IDX 90 25 21 26 22 27 23 28 24 29 25 31 26 32 27 33 88 34 28 35
REMARK SMILES IDX 87 36 29 37 30 38 31 39 81 40 32 41 86 42 80 43 82 44 33 45
REMARK SMILES IDX 85 46 79 47 78 48 34 50 66 51 46 52 65 53 47 54 50 55 64 56
REMARK SMILES IDX 83 57 48 58 49 59 63 61 84 62 51 63 35 64 36 65 44 66 37 67
REMARK SMILES IDX 38 68 42 69 45 70 39 71 40 72 43 73 41 74 67 75 68 76 76 77
REMARK SMILES IDX 69 78 70 79 74 80 77 81 71 82 72 83 75 84 73 85 52 86 53 87
REMARK SMILES IDX 61 88 54 89 55 90 59 91 62 92 56 93 57 94 60 95 58 96
REMARK H PARENT 18 6 7 18 23 30 82 49 50 60
REMARK Flexibility Score: inf
ROOT
ATOM      1  C   UNL A   1      34.536  31.011  27.645  1.00  0.00     0.023 C 
ENDROOT
BRANCH   1   2
ATOM      2  C   UNL A   1      34.379  29.548  27.262  1.00  0.00     0.116 C 
BRANCH   2   3
ATOM      3  N   UNL A   1      33.198  28.859  27.712  1.00  0.00    -0.352 N 
ATOM      4  C   UNL A   1      32.238  28.175  27.003  1.00  0.00     0.253 C 
ATOM      5  O   UNL A   1      31.362  27.614  27.665  1.00  0.00    -0.269 OA
ATOM      6  H   UNL A   1      33.053  28.883  28.685  1.00  0.00     0.163 HD
BRANCH   4   7
ATOM      7  C   UNL A   1      32.118  28.098  25.507  1.00  0.00     0.066 A 
ATOM      8  C   UNL A   1      32.852  27.309  24.592  1.00  0.00     0.073 A 
ATOM      9  C   UNL A   1      32.444  27.260  23.233  1.00  0.00     0.066 A 
ATOM     10  Cl  UNL A   1      33.175  26.176  22.093  1.00  0.00    -0.082 Cl
ATOM     11  C   UNL A   1      31.423  28.079  22.753  1.00  0.00     0.043 A 
ATOM     12  C   UNL A   1      31.083  28.912  24.991  1.00  0.00     0.036 A 
ATOM     13  C   UNL A   1      30.765  28.921  23.633  1.00  0.00     0.043 A 
ATOM     14  Cl  UNL A   1      29.540  29.975  23.045  1.00  0.00    -0.084 Cl
BRANCH   8  15
ATOM     15  N   UNL A   1      33.965  26.557  24.989  1.00  0.00    -0.320 N 
ATOM     16  C   UNL A   1      34.019  25.247  25.463  1.00  0.00     0.256 C 
ATOM     17  O   UNL A   1      35.148  24.837  25.748  1.00  0.00    -0.269 OA
ATOM     18  H   UNL A   1      34.832  27.019  24.923  1.00  0.00     0.170 HD
BRANCH  16  19
ATOM     19  C   UNL A   1      32.836  24.347  25.490  1.00  0.00     0.054 A 
ATOM     20  C   UNL A   1      29.787  22.954  27.251  1.00  0.00     0.056 C 
ATOM     21  C   UNL A   1      30.891  23.295  26.312  1.00  0.00     0.003 A 
ATOM     22  C   UNL A   1      31.623  24.458  26.259  1.00  0.00     0.029 A 
ATOM     23  S   UNL A   1      31.404  22.212  25.115  1.00  0.00    -0.145 S 
ATOM     24  C   UNL A   1      32.687  23.254  24.632  1.00  0.00     0.014 A 
ATOM     25  C   UNL A   1      33.473  22.849  23.424  1.00  0.00     0.057 C 
ENDBRANCH  16  19
ENDBRANCH   8  15
ENDBRANCH   4   7
ENDBRANCH   2   3
ENDBRANCH   1   2
BRANCH   1  26
ATOM     26  C   UNL A   1      33.259  31.796  27.930  1.00  0.00     0.023 C 
BRANCH  26  27
ATOM     27  C   UNL A   1      32.903  32.935  26.978  1.00  0.00     0.116 C 
BRANCH  27  28
ATOM     28  N   UNL A   1      32.509  34.178  27.626  1.00  0.00    -0.352 N 
ATOM     29  C   UNL A   1      33.066  34.862  28.684  1.00  0.00     0.251 C 
ATOM     30  H   UNL A   1      31.706  34.601  27.243  1.00  0.00     0.163 HD
ATOM     31  O   UNL A   1      32.525  35.885  29.098  1.00  0.00    -0.269 OA
BRANCH  29  32
ATOM     32  C   UNL A   1      34.278  34.361  29.377  1.00  0.00     0.039 A 
ATOM     33  C   UNL A   1      34.119  33.723  30.611  1.00  0.00     0.014 A 
ATOM     34  C   UNL A   1      35.557  34.507  28.839  1.00  0.00     0.014 A 
ATOM     35  C   UNL A   1      35.221  33.137  31.243  1.00  0.00     0.010 A 
ATOM     36  C   UNL A   1      36.637  33.838  29.417  1.00  0.00     0.010 A 
ATOM     37  C   UNL A   1      36.479  33.133  30.620  1.00  0.00    -0.014 A 
BRANCH  37  38
ATOM     38  C   UNL A   1      37.619  32.372  31.204  1.00  0.00     0.031 A 
ATOM     39  C   UNL A   1      38.134  32.688  32.582  1.00  0.00     0.074 A 
ATOM     40  C   UNL A   1      38.226  31.419  30.465  1.00  0.00     0.049 A 
ATOM     41  N   UNL A   1      39.134  32.149  33.236  1.00  0.00    -0.248 NA
ATOM     42  C   UNL A   1      37.457  33.769  33.315  1.00  0.00     0.031 C 
ATOM     43  C   UNL A   1      37.874  31.062  29.090  1.00  0.00     0.029 A 
ATOM     44  N   UNL A   1      39.273  30.580  30.764  1.00  0.00    -0.354 N 
ATOM     45  C   UNL A   1      39.201  32.820  34.450  1.00  0.00     0.074 A 
ATOM     46  C   UNL A   1      38.189  33.853  34.415  1.00  0.00     0.031 C 
ATOM     47  C   UNL A   1      38.665  30.059  28.675  1.00  0.00     0.029 A 
ATOM     48  C   UNL A   1      39.606  29.726  29.740  1.00  0.00     0.049 A 
ATOM     49  H   UNL A   1      39.739  30.588  31.631  1.00  0.00     0.167 HD
ATOM     50  C   UNL A   1      40.008  32.577  35.511  1.00  0.00     0.037 A 
ATOM     51  C   UNL A   1      40.564  28.782  29.664  1.00  0.00     0.037 A 
ATOM     52  C   UNL A   1      41.006  31.540  35.553  1.00  0.00     0.049 A 
ATOM     53  C   UNL A   1      41.446  28.534  30.858  1.00  0.00     0.074 A 
ATOM     54  C   UNL A   1      41.850  31.196  36.595  1.00  0.00     0.029 A 
ATOM     55  N   UNL A   1      41.295  30.677  34.506  1.00  0.00    -0.354 N 
ATOM     56  N   UNL A   1      41.448  29.132  32.025  1.00  0.00    -0.248 NA
ATOM     57  C   UNL A   1      42.449  27.467  30.731  1.00  0.00     0.031 C 
ATOM     58  C   UNL A   1      42.674  30.151  36.166  1.00  0.00     0.029 A 
ATOM     59  C   UNL A   1      42.311  29.809  34.875  1.00  0.00     0.049 A 
ATOM     60  H   UNL A   1      40.844  30.681  33.631  1.00  0.00     0.167 HD
ATOM     61  C   UNL A   1      42.431  28.501  32.774  1.00  0.00     0.074 A 
ATOM     62  C   UNL A   1      42.984  27.453  31.942  1.00  0.00     0.031 C 
ATOM     63  C   UNL A   1      42.846  28.768  34.037  1.00  0.00     0.037 A 
BRANCH  50  64
ATOM     64  C   UNL A   1      39.828  33.433  36.732  1.00  0.00     0.064 A 
ATOM     65  C   UNL A   1      40.541  34.631  36.893  1.00  0.00     0.173 A 
ATOM     66  C   UNL A   1      38.895  33.087  37.720  1.00  0.00     0.173 A 
ATOM     67  F   UNL A   1      41.454  35.001  35.983  1.00  0.00    -0.203 F 
ATOM     68  C   UNL A   1      40.341  35.441  38.008  1.00  0.00     0.198 A 
ATOM     69  C   UNL A   1      38.675  33.915  38.819  1.00  0.00     0.198 A 
ATOM     70  F   UNL A   1      38.181  31.956  37.612  1.00  0.00    -0.203 F 
ATOM     71  F   UNL A   1      41.063  36.560  38.160  1.00  0.00    -0.200 F 
ATOM     72  C   UNL A   1      39.402  35.087  38.965  1.00  0.00     0.200 A 
ATOM     73  F   UNL A   1      37.757  33.580  39.735  1.00  0.00    -0.200 F 
ATOM     74  F   UNL A   1      39.199  35.875  40.030  1.00  0.00    -0.200 F 
ENDBRANCH  50  64
BRANCH  51  75
ATOM     75  C   UNL A   1      40.737  27.986  28.418  1.00  0.00     0.064 A 
ATOM     76  C   UNL A   1      40.110  26.742  28.260  1.00  0.00     0.173 A 
ATOM     77  C   UNL A   1      41.564  28.434  27.377  1.00  0.00     0.173 A 
ATOM     78  F   UNL A   1      39.327  26.259  29.236  1.00  0.00    -0.203 F 
ATOM     79  C   UNL A   1      40.332  25.960  27.128  1.00  0.00     0.198 A 
ATOM     80  C   UNL A   1      41.757  27.667  26.230  1.00  0.00     0.198 A 
ATOM     81  F   UNL A   1      42.183  29.619  27.473  1.00  0.00    -0.203 F 
ATOM     82  F   UNL A   1      39.772  24.747  27.035  1.00  0.00    -0.200 F 
ATOM     83  C   UNL A   1      41.152  26.426  26.112  1.00  0.00     0.200 A 
ATOM     84  F   UNL A   1      42.539  28.128  25.242  1.00  0.00    -0.200 F 
ATOM     85  F   UNL A   1      41.370  25.672  25.025  1.00  0.00    -0.200 F 
ENDBRANCH  51  75
BRANCH  63  86
ATOM     86  C   UNL A   1      43.928  27.893  34.602  1.00  0.00     0.064 A 
ATOM     87  C   UNL A   1      45.283  28.248  34.517  1.00  0.00     0.173 A 
ATOM     88  C   UNL A   1      43.604  26.690  35.249  1.00  0.00     0.173 A 
ATOM     89  F   UNL A   1      45.645  29.381  33.896  1.00  0.00    -0.203 F 
ATOM     90  C   UNL A   1      46.274  27.414  35.025  1.00  0.00     0.198 A 
ATOM     91  C   UNL A   1      44.597  25.875  35.785  1.00  0.00     0.198 A 
ATOM     92  F   UNL A   1      42.324  26.308  35.365  1.00  0.00    -0.203 F 
ATOM     93  F   UNL A   1      47.565  27.744  34.877  1.00  0.00    -0.200 F 
ATOM     94  C   UNL A   1      45.931  26.231  35.663  1.00  0.00     0.200 A 
ATOM     95  F   UNL A   1      44.263  24.740  36.415  1.00  0.00    -0.200 F 
ATOM     96  F   UNL A   1      46.888  25.430  36.151  1.00  0.00    -0.200 F 
ENDBRANCH  63  86
ENDBRANCH  37  38
ENDBRANCH  29  32
ENDBRANCH  27  28
ENDBRANCH  26  27
ENDBRANCH   1  26
TORSDOF 13
ENDMDL
MODEL 2
REMARK VINA RESULT:     -12.5      5.398     10.460
REMARK SMILES Cc1cc(C(=O)Nc2c(Cl)cc(Cl)cc2C(=O)NCCCCNC(=O)c2ccc(-c3c4nc(c(-c5c(F)c(F)c(F)c(F)c5F)c5ccc([nH]5)c(-c5c(F)c(F)c(F)c(F)c5F)c5nc(c(-c6c(F)c(F)c(F)c(F)c6F)c6ccc3[nH]6)C=C5)C=C4)cc2)c(C)s1
REMARK SMILES IDX 20 1 19 2 18 3 16 4 17 5 15 7 8 8 9 9 10 10 11 11 14 12
REMARK SMILES IDX 12 13 13 14 7 15 5 16 6 17 4 19 1 20 2 21 3 22 91 23 89 24
REMARK SMILES IDX 90 25 21 26 22 27 23 28 24 29 25 31 26 32 27 33 88 34 28 35
REMARK SMILES IDX 87 36 29 37 30 38 31 39 81 40 32 41 86 42 80 43 82 44 33 45
REMARK SMILES IDX 85 46 79 47 78 48 34 50 66 51 46 52 65 53 47 54 50 55 64 56
REMARK SMILES IDX 83 57 48 58 49 59 63 61 84 62 51 63 35 64 36 65 44 66 37 67
REMARK SMILES IDX 38 68 42 69 45 70 39 71 40 72 43 73 41 74 67 75 68 76 76 77
REMARK SMILES IDX 69 78 70 79 74 80 77 81 71 82 72 83 75 84 73 85 52 86 53 87
REMARK SMILES IDX 61 88 54 89 55 90 59 91 62 92 56 93 57 94 60 95 58 96
REMARK H PARENT 18 6 7 18 23 30 82 49 50 60
REMARK Flexibility Score: inf
ROOT
ATOM      1  C   UNL A   1      38.799  22.709  26.412  1.00  0.00     0.023 C 
ENDROOT
BRANCH   1   2
ATOM      2  C   UNL A   1      37.683  23.503  25.752  1.00  0.00     0.116 C 
BRANCH   2   3
ATOM      3  N   UNL A   1      37.427  23.268  24.355  1.00  0.00    -0.352 N 
ATOM      4  C   UNL A   1      36.240  23.193  23.664  1.00  0.00     0.253 C 
ATOM      5  O   UNL A   1      36.325  23.052  22.442  1.00  0.00    -0.269 OA
ATOM      6  H   UNL A   1      38.234  23.140  23.805  1.00  0.00     0.163 HD
BRANCH   4   7
ATOM      7  C   UNL A   1      34.860  23.204  24.256  1.00  0.00     0.066 A 
ATOM      8  C   UNL A   1      33.648  23.658  23.689  1.00  0.00     0.073 A 
ATOM      9  C   UNL A   1      32.425  23.402  24.363  1.00  0.00     0.066 A 
ATOM     10  Cl  UNL A   1      30.887  23.762  23.645  1.00  0.00    -0.082 Cl
ATOM     11  C   UNL A   1      32.404  22.836  25.637  1.00  0.00     0.043 A 
ATOM     12  C   UNL A   1      34.806  22.627  25.546  1.00  0.00     0.036 A 
ATOM     13  C   UNL A   1      33.601  22.475  26.232  1.00  0.00     0.043 A 
ATOM     14  Cl  UNL A   1      33.594  21.826  27.825  1.00  0.00    -0.084 Cl
BRANCH   8  15
ATOM     15  N   UNL A   1      33.613  24.343  22.467  1.00  0.00    -0.320 N 
ATOM     16  C   UNL A   1      33.284  25.674  22.213  1.00  0.00     0.256 C 
ATOM     17  O   UNL A   1      33.331  26.009  21.026  1.00  0.00    -0.269 OA
ATOM     18  H   UNL A   1      33.855  23.809  21.677  1.00  0.00     0.170 HD
BRANCH  16  19
ATOM     19  C   UNL A   1      33.037  26.667  23.291  1.00  0.00     0.054 A 
ATOM     20  C   UNL A   1      33.945  28.213  26.627  1.00  0.00     0.056 C 
ATOM     21  C   UNL A   1      33.343  27.834  25.319  1.00  0.00     0.003 A 
ATOM     22  C   UNL A   1      33.957  27.212  24.257  1.00  0.00     0.029 A 
ATOM     23  S   UNL A   1      31.717  28.151  24.967  1.00  0.00    -0.145 S 
ATOM     24  C   UNL A   1      31.819  27.332  23.455  1.00  0.00     0.014 A 
ATOM     25  C   UNL A   1      30.619  27.401  22.562  1.00  0.00     0.057 C 
ENDBRANCH  16  19
ENDBRANCH   8  15
ENDBRANCH   4   7
ENDBRANCH   2   3
ENDBRANCH   1   2
BRANCH   1  26
ATOM     26  C   UNL A   1      39.375  21.534  25.628  1.00  0.00     0.023 C 
BRANCH  26  27
ATOM     27  C   UNL A   1      39.243  20.143  26.243  1.00  0.00     0.116 C 
BRANCH  27  28
ATOM     28  N   UNL A   1      40.336  19.230  25.939  1.00  0.00    -0.352 N 
ATOM     29  C   UNL A   1      41.701  19.394  26.025  1.00  0.00     0.251 C 
ATOM     30  H   UNL A   1      40.050  18.344  25.616  1.00  0.00     0.163 HD
ATOM     31  O   UNL A   1      42.445  18.485  25.663  1.00  0.00    -0.269 OA
BRANCH  29  32
ATOM     32  C   UNL A   1      42.299  20.668  26.491  1.00  0.00     0.039 A 
ATOM     33  C   UNL A   1      42.875  21.518  25.541  1.00  0.00     0.014 A 
ATOM     34  C   UNL A   1      42.304  21.040  27.836  1.00  0.00     0.014 A 
ATOM     35  C   UNL A   1      43.347  22.777  25.923  1.00  0.00     0.010 A 
ATOM     36  C   UNL A   1      42.683  22.332  28.201  1.00  0.00     0.010 A 
ATOM     37  C   UNL A   1      43.198  23.222  27.246  1.00  0.00    -0.014 A 
BRANCH  37  38
ATOM     38  C   UNL A   1      43.547  24.619  27.627  1.00  0.00     0.031 A 
ATOM     39  C   UNL A   1      44.983  25.057  27.728  1.00  0.00     0.074 A 
ATOM     40  C   UNL A   1      42.560  25.489  27.929  1.00  0.00     0.049 A 
ATOM     41  N   UNL A   1      45.470  26.223  28.074  1.00  0.00    -0.248 NA
ATOM     42  C   UNL A   1      46.010  24.047  27.430  1.00  0.00     0.031 C 
ATOM     43  C   UNL A   1      41.129  25.176  27.940  1.00  0.00     0.029 A 
ATOM     44  N   UNL A   1      42.608  26.813  28.294  1.00  0.00    -0.354 N 
ATOM     45  C   UNL A   1      46.852  26.086  28.031  1.00  0.00     0.074 A 
ATOM     46  C   UNL A   1      47.127  24.706  27.696  1.00  0.00     0.031 C 
ATOM     47  C   UNL A   1      40.436  26.280  28.260  1.00  0.00     0.029 A 
ATOM     48  C   UNL A   1      41.371  27.370  28.515  1.00  0.00     0.049 A 
ATOM     49  H   UNL A   1      43.449  27.316  28.386  1.00  0.00     0.167 HD
ATOM     50  C   UNL A   1      47.805  27.031  28.220  1.00  0.00     0.037 A 
ATOM     51  C   UNL A   1      41.027  28.620  28.886  1.00  0.00     0.037 A 
ATOM     52  C   UNL A   1      47.533  28.408  28.539  1.00  0.00     0.049 A 
ATOM     53  C   UNL A   1      42.108  29.648  29.087  1.00  0.00     0.074 A 
ATOM     54  C   UNL A   1      48.431  29.447  28.717  1.00  0.00     0.029 A 
ATOM     55  N   UNL A   1      46.266  28.941  28.727  1.00  0.00    -0.354 N 
ATOM     56  N   UNL A   1      43.407  29.518  28.973  1.00  0.00    -0.248 NA
ATOM     57  C   UNL A   1      41.672  31.003  29.454  1.00  0.00     0.031 C 
ATOM     58  C   UNL A   1      47.710  30.599  29.049  1.00  0.00     0.029 A 
ATOM     59  C   UNL A   1      46.361  30.291  29.030  1.00  0.00     0.049 A 
ATOM     60  H   UNL A   1      45.425  28.435  28.656  1.00  0.00     0.167 HD
ATOM     61  C   UNL A   1      43.939  30.774  29.230  1.00  0.00     0.074 A 
ATOM     62  C   UNL A   1      42.821  31.661  29.476  1.00  0.00     0.031 C 
ATOM     63  C   UNL A   1      45.238  31.161  29.267  1.00  0.00     0.037 A 
BRANCH  50  64
ATOM     64  C   UNL A   1      49.239  26.615  28.057  1.00  0.00     0.064 A 
ATOM     65  C   UNL A   1      49.824  26.500  26.787  1.00  0.00     0.173 A 
ATOM     66  C   UNL A   1      50.052  26.387  29.176  1.00  0.00     0.173 A 
ATOM     67  F   UNL A   1      49.086  26.697  25.684  1.00  0.00    -0.203 F 
ATOM     68  C   UNL A   1      51.164  26.153  26.642  1.00  0.00     0.198 A 
ATOM     69  C   UNL A   1      51.400  26.069  29.029  1.00  0.00     0.198 A 
ATOM     70  F   UNL A   1      49.546  26.489  30.415  1.00  0.00    -0.203 F 
ATOM     71  F   UNL A   1      51.690  26.010  25.417  1.00  0.00    -0.200 F 
ATOM     72  C   UNL A   1      51.954  25.947  27.764  1.00  0.00     0.200 A 
ATOM     73  F   UNL A   1      52.166  25.884  30.113  1.00  0.00    -0.200 F 
ATOM     74  F   UNL A   1      53.248  25.627  27.624  1.00  0.00    -0.200 F 
ENDBRANCH  50  64
BRANCH  51  75
ATOM     75  C   UNL A   1      39.596  28.979  29.078  1.00  0.00     0.064 A 
ATOM     76  C   UNL A   1      38.984  28.871  30.335  1.00  0.00     0.173 A 
ATOM     77  C   UNL A   1      38.800  29.399  28.001  1.00  0.00     0.173 A 
ATOM     78  F   UNL A   1      39.697  28.453  31.392  1.00  0.00    -0.203 F 
ATOM     79  C   UNL A   1      37.626  29.133  30.501  1.00  0.00     0.198 A 
ATOM     80  C   UNL A   1      37.449  29.694  28.177  1.00  0.00     0.198 A 
ATOM     81  F   UNL A   1      39.335  29.525  26.779  1.00  0.00    -0.203 F 
ATOM     82  F   UNL A   1      37.055  28.957  31.701  1.00  0.00    -0.200 F 
ATOM     83  C   UNL A   1      36.860  29.548  29.423  1.00  0.00     0.200 A 
ATOM     84  F   UNL A   1      36.716  30.111  27.134  1.00  0.00    -0.200 F 
ATOM     85  F   UNL A   1      35.553  29.795  29.582  1.00  0.00    -0.200 F 
ENDBRANCH  51  75
BRANCH  63  86
ATOM     86  C   UNL A   1      45.514  32.609  29.553  1.00  0.00     0.064 A 
ATOM     87  C   UNL A   1      45.712  33.077  30.861  1.00  0.00     0.173 A 
ATOM     88  C   UNL A   1      45.597  33.538  28.504  1.00  0.00     0.173 A 
ATOM     89  F   UNL A   1      45.629  32.231  31.899  1.00  0.00    -0.203 F 
ATOM     90  C   UNL A   1      45.943  34.426  31.111  1.00  0.00     0.198 A 
ATOM     91  C   UNL A   1      45.861  34.881  28.756  1.00  0.00     0.198 A 
ATOM     92  F   UNL A   1      45.424  33.142  27.234  1.00  0.00    -0.203 F 
ATOM     93  F   UNL A   1      46.066  34.860  32.374  1.00  0.00    -0.200 F 
ATOM     94  C   UNL A   1      46.023  35.326  30.059  1.00  0.00     0.200 A 
ATOM     95  F   UNL A   1      45.953  35.747  27.737  1.00  0.00    -0.200 F 
ATOM     96  F   UNL A   1      46.246  36.625  30.303  1.00  0.00    -0.200 F 
ENDBRANCH  63  86
ENDBRANCH  37  38
ENDBRANCH  29  32
ENDBRANCH  27  28
ENDBRANCH  26  27
ENDBRANCH   1  26
TORSDOF 13
ENDMDL
MODEL 3
REMARK VINA RESULT:     -12.5      0.211      1.940
REMARK SMILES Cc1cc(C(=O)Nc2c(Cl)cc(Cl)cc2C(=O)NCCCCNC(=O)c2ccc(-c3c4nc(c(-c5c(F)c(F)c(F)c(F)c5F)c5ccc([nH]5)c(-c5c(F)c(F)c(F)c(F)c5F)c5nc(c(-c6c(F)c(F)c(F)c(F)c6F)c6ccc3[nH]6)C=C5)C=C4)cc2)c(C)s1
REMARK SMILES IDX 20 1 19 2 18 3 16 4 17 5 15 7 8 8 9 9 10 10 11 11 14 12
REMARK SMILES IDX 12 13 13 14 7 15 5 16 6 17 4 19 1 20 2 21 3 22 91 23 89 24
REMARK SMILES IDX 90 25 21 26 22 27 23 28 24 29 25 31 26 32 27 33 88 34 28 35
REMARK SMILES IDX 87 36 29 37 30 38 31 39 81 40 32 41 86 42 80 43 82 44 33 45
REMARK SMILES IDX 85 46 79 47 78 48 34 50 66 51 46 52 65 53 47 54 50 55 64 56
REMARK SMILES IDX 83 57 48 58 49 59 63 61 84 62 51 63 35 64 36 65 44 66 37 67
REMARK SMILES IDX 38 68 42 69 45 70 39 71 40 72 43 73 41 74 67 75 68 76 76 77
REMARK SMILES IDX 69 78 70 79 74 80 77 81 71 82 72 83 75 84 73 85 52 86 53 87
REMARK SMILES IDX 61 88 54 89 55 90 59 91 62 92 56 93 57 94 60 95 58 96
REMARK H PARENT 18 6 7 18 23 30 82 49 50 60
REMARK Flexibility Score: inf
ROOT
ATOM      1  C   UNL A   1      34.511  31.005  27.723  1.00  0.00     0.023 C 
ENDROOT
BRANCH   1   2
ATOM      2  C   UNL A   1      34.332  29.572  27.250  1.00  0.00     0.116 C 
BRANCH   2   3
ATOM      3  N   UNL A   1      33.165  28.858  27.698  1.00  0.00    -0.352 N 
ATOM      4  C   UNL A   1      32.222  28.152  26.988  1.00  0.00     0.253 C 
ATOM      5  O   UNL A   1      31.357  27.573  27.649  1.00  0.00    -0.269 OA
ATOM      6  H   UNL A   1      33.018  28.879  28.671  1.00  0.00     0.163 HD
BRANCH   4   7
ATOM      7  C   UNL A   1      32.106  28.071  25.492  1.00  0.00     0.066 A 
ATOM      8  C   UNL A   1      32.844  27.282  24.581  1.00  0.00     0.073 A 
ATOM      9  C   UNL A   1      32.439  27.228  23.220  1.00  0.00     0.066 A 
ATOM     10  Cl  UNL A   1      33.176  26.142  22.085  1.00  0.00    -0.082 Cl
ATOM     11  C   UNL A   1      31.419  28.044  22.736  1.00  0.00     0.043 A 
ATOM     12  C   UNL A   1      31.072  28.883  24.971  1.00  0.00     0.036 A 
ATOM     13  C   UNL A   1      30.757  28.887  23.612  1.00  0.00     0.043 A 
ATOM     14  Cl  UNL A   1      29.532  29.938  23.018  1.00  0.00    -0.084 Cl
BRANCH   8  15
ATOM     15  N   UNL A   1      33.957  26.532  24.982  1.00  0.00    -0.320 N 
ATOM     16  C   UNL A   1      34.012  25.225  25.463  1.00  0.00     0.256 C 
ATOM     17  O   UNL A   1      35.140  24.817  25.751  1.00  0.00    -0.269 OA
ATOM     18  H   UNL A   1      34.823  26.994  24.915  1.00  0.00     0.170 HD
BRANCH  16  19
ATOM     19  C   UNL A   1      32.829  24.324  25.494  1.00  0.00     0.054 A 
ATOM     20  C   UNL A   1      29.767  22.953  27.250  1.00  0.00     0.056 C 
ATOM     21  C   UNL A   1      30.878  23.282  26.315  1.00  0.00     0.003 A 
ATOM     22  C   UNL A   1      31.610  24.445  26.251  1.00  0.00     0.029 A 
ATOM     23  S   UNL A   1      31.401  22.182  25.138  1.00  0.00    -0.145 S 
ATOM     24  C   UNL A   1      32.687  23.219  24.650  1.00  0.00     0.014 A 
ATOM     25  C   UNL A   1      33.484  22.797  23.455  1.00  0.00     0.057 C 
ENDBRANCH  16  19
ENDBRANCH   8  15
ENDBRANCH   4   7
ENDBRANCH   2   3
ENDBRANCH   1   2
BRANCH   1  26
ATOM     26  C   UNL A   1      33.246  31.818  27.977  1.00  0.00     0.023 C 
BRANCH  26  27
ATOM     27  C   UNL A   1      32.927  32.950  27.003  1.00  0.00     0.116 C 
BRANCH  27  28
ATOM     28  N   UNL A   1      32.526  34.203  27.627  1.00  0.00    -0.352 N 
ATOM     29  C   UNL A   1      33.076  34.907  28.675  1.00  0.00     0.251 C 
ATOM     30  H   UNL A   1      31.724  34.618  27.232  1.00  0.00     0.163 HD
ATOM     31  O   UNL A   1      32.529  35.936  29.068  1.00  0.00    -0.269 OA
BRANCH  29  32
ATOM     32  C   UNL A   1      34.284  34.421  29.384  1.00  0.00     0.039 A 
ATOM     33  C   UNL A   1      34.122  33.826  30.640  1.00  0.00     0.014 A 
ATOM     34  C   UNL A   1      35.564  34.540  28.841  1.00  0.00     0.014 A 
ATOM     35  C   UNL A   1      35.220  33.254  31.290  1.00  0.00     0.010 A 
ATOM     36  C   UNL A   1      36.639  33.883  29.441  1.00  0.00     0.010 A 
ATOM     37  C   UNL A   1      36.478  33.221  30.667  1.00  0.00    -0.014 A 
BRANCH  37  38
ATOM     38  C   UNL A   1      37.613  32.472  31.275  1.00  0.00     0.031 A 
ATOM     39  C   UNL A   1      38.128  32.827  32.643  1.00  0.00     0.074 A 
ATOM     40  C   UNL A   1      38.215  31.494  30.567  1.00  0.00     0.049 A 
ATOM     41  N   UNL A   1      39.124  32.304  33.315  1.00  0.00    -0.248 NA
ATOM     42  C   UNL A   1      37.457  33.935  33.342  1.00  0.00     0.031 C 
ATOM     43  C   UNL A   1      37.862  31.095  29.203  1.00  0.00     0.029 A 
ATOM     44  N   UNL A   1      39.257  30.658  30.893  1.00  0.00    -0.354 N 
ATOM     45  C   UNL A   1      39.195  33.012  34.507  1.00  0.00     0.074 A 
ATOM     46  C   UNL A   1      38.188  34.049  34.440  1.00  0.00     0.031 C 
ATOM     47  C   UNL A   1      38.648  30.076  28.821  1.00  0.00     0.029 A 
ATOM     48  C   UNL A   1      39.586  29.771  29.896  1.00  0.00     0.049 A 
ATOM     49  H   UNL A   1      39.722  30.691  31.760  1.00  0.00     0.167 HD
ATOM     50  C   UNL A   1      40.000  32.798  35.576  1.00  0.00     0.037 A 
ATOM     51  C   UNL A   1      40.539  28.819  29.851  1.00  0.00     0.037 A 
ATOM     52  C   UNL A   1      40.992  31.757  35.652  1.00  0.00     0.049 A 
ATOM     53  C   UNL A   1      41.418  28.603  31.053  1.00  0.00     0.074 A 
ATOM     54  C   UNL A   1      41.833  31.441  36.705  1.00  0.00     0.029 A 
ATOM     55  N   UNL A   1      41.276  30.860  34.633  1.00  0.00    -0.354 N 
ATOM     56  N   UNL A   1      41.423  29.238  32.201  1.00  0.00    -0.248 NA
ATOM     57  C   UNL A   1      42.416  27.528  30.960  1.00  0.00     0.031 C 
ATOM     58  C   UNL A   1      42.651  30.378  36.310  1.00  0.00     0.029 A 
ATOM     59  C   UNL A   1      42.287  29.999  35.029  1.00  0.00     0.049 A 
ATOM     60  H   UNL A   1      40.826  30.839  33.757  1.00  0.00     0.167 HD
ATOM     61  C   UNL A   1      42.402  28.625  32.971  1.00  0.00     0.074 A 
ATOM     62  C   UNL A   1      42.950  27.549  32.172  1.00  0.00     0.031 C 
ATOM     63  C   UNL A   1      42.817  28.929  34.225  1.00  0.00     0.037 A 
BRANCH  50  64
ATOM     64  C   UNL A   1      39.823  33.692  36.770  1.00  0.00     0.064 A 
ATOM     65  C   UNL A   1      38.946  33.351  37.811  1.00  0.00     0.173 A 
ATOM     66  C   UNL A   1      40.577  34.866  36.907  1.00  0.00     0.173 A 
ATOM     67  F   UNL A   1      38.193  32.244  37.724  1.00  0.00    -0.203 F 
ATOM     68  C   UNL A   1      38.815  34.162  38.935  1.00  0.00     0.198 A 
ATOM     69  C   UNL A   1      40.466  35.660  38.046  1.00  0.00     0.198 A 
ATOM     70  F   UNL A   1      41.436  35.236  35.945  1.00  0.00    -0.203 F 
ATOM     71  F   UNL A   1      37.941  33.837  39.898  1.00  0.00    -0.200 F 
ATOM     72  C   UNL A   1      39.582  35.312  39.055  1.00  0.00     0.200 A 
ATOM     73  F   UNL A   1      41.219  36.763  38.168  1.00  0.00    -0.200 F 
ATOM     74  F   UNL A   1      39.467  36.084  40.144  1.00  0.00    -0.200 F 
ENDBRANCH  50  64
BRANCH  51  75
ATOM     75  C   UNL A   1      40.709  27.984  28.630  1.00  0.00     0.064 A 
ATOM     76  C   UNL A   1      41.507  28.416  27.561  1.00  0.00     0.173 A 
ATOM     77  C   UNL A   1      40.046  26.755  28.492  1.00  0.00     0.173 A 
ATOM     78  F   UNL A   1      42.144  29.595  27.636  1.00  0.00    -0.203 F 
ATOM     79  C   UNL A   1      41.605  27.672  26.387  1.00  0.00     0.198 A 
ATOM     80  C   UNL A   1      40.174  25.995  27.331  1.00  0.00     0.198 A 
ATOM     81  F   UNL A   1      39.276  26.291  29.486  1.00  0.00    -0.203 F 
ATOM     82  F   UNL A   1      42.321  28.143  25.357  1.00  0.00    -0.200 F 
ATOM     83  C   UNL A   1      40.942  26.460  26.275  1.00  0.00     0.200 A 
ATOM     84  F   UNL A   1      39.543  24.816  27.232  1.00  0.00    -0.200 F 
ATOM     85  F   UNL A   1      41.032  25.747  25.144  1.00  0.00    -0.200 F 
ENDBRANCH  51  75
BRANCH  63  86
ATOM     86  C   UNL A   1      43.894  28.065  34.817  1.00  0.00     0.064 A 
ATOM     87  C   UNL A   1      43.591  26.895  35.530  1.00  0.00     0.173 A 
ATOM     88  C   UNL A   1      45.246  28.405  34.658  1.00  0.00     0.173 A 
ATOM     89  F   UNL A   1      42.313  26.535  35.723  1.00  0.00    -0.203 F 
ATOM     90  C   UNL A   1      44.599  26.119  36.093  1.00  0.00     0.198 A 
ATOM     91  C   UNL A   1      46.253  27.607  35.194  1.00  0.00     0.198 A 
ATOM     92  F   UNL A   1      45.591  29.508  33.977  1.00  0.00    -0.203 F 
ATOM     93  F   UNL A   1      44.283  25.040  36.823  1.00  0.00    -0.200 F 
ATOM     94  C   UNL A   1      45.929  26.472  35.920  1.00  0.00     0.200 A 
ATOM     95  F   UNL A   1      47.539  27.942  35.013  1.00  0.00    -0.200 F 
ATOM     96  F   UNL A   1      46.898  25.723  36.464  1.00  0.00    -0.200 F 
ENDBRANCH  63  86
ENDBRANCH  37  38
ENDBRANCH  29  32
ENDBRANCH  27  28
ENDBRANCH  26  27
ENDBRANCH   1  26
TORSDOF 13
ENDMDL
