MODEL 1
REMARK VINA RESULT:     -12.8      0.000      0.000
REMARK SMILES C[C@@H](C(=O)NCCCCNC(=O)c1ccc(-c2c3nc(c(-c4c(F)c(F)c(F)c(F)c4F)c4ccc([nH]4)c(-c4c(F)c(F)c(F)c(F)c4F)c4nc(c(-c5c(F)c(F)c(F)c(F)c5F)c5ccc2[nH]5)C=C4)C=C3)cc1)c1ccc(C[C@H]2CCC[C@@H]2O)cc1Br
REMARK SMILES IDX 6 1 5 2 3 3 4 4 2 6 1 7 76 8 77 9 88 10 78 11 87 12 89 13
REMARK SMILES IDX 79 14 80 15 81 16 82 17 85 18 83 19 84 20 86 21 7 23 8 24
REMARK SMILES IDX 9 25 10 26 11 27 12 29 13 30 14 31 75 32 15 33 74 34 16 35
REMARK SMILES IDX 17 36 18 37 68 38 19 39 73 40 67 41 69 42 20 43 72 44 66 45
REMARK SMILES IDX 65 46 21 48 53 49 33 50 52 51 34 52 37 53 51 54 70 55 35 56
REMARK SMILES IDX 36 57 50 59 71 60 38 61 22 62 23 63 31 64 24 65 25 66 29 67
REMARK SMILES IDX 32 68 26 69 27 70 30 71 28 72 54 73 55 74 63 75 56 76 57 77
REMARK SMILES IDX 61 78 64 79 58 80 59 81 62 82 60 83 39 84 40 85 48 86 41 87
REMARK SMILES IDX 42 88 46 89 49 90 43 91 44 92 47 93 45 94
REMARK H PARENT 5 5 86 22 10 28 69 47 37 58
REMARK Flexibility Score: inf
ROOT
ATOM      1  C   UNL A   1      33.441  29.552  25.966  1.00  0.00     0.116 C 
ENDROOT
BRANCH   1   2
ATOM      2  N   UNL A   1      33.800  28.158  26.141  1.00  0.00    -0.356 N 
ATOM      3  C   UNL A   1      33.626  27.097  25.296  1.00  0.00     0.227 C 
ATOM      4  O   UNL A   1      33.766  25.975  25.787  1.00  0.00    -0.274 OA
ATOM      5  H   UNL A   1      34.234  27.943  26.998  1.00  0.00     0.163 HD
BRANCH   3   6
ATOM      6  C   UNL A   1      33.345  27.333  23.794  1.00  0.00     0.106 C 
ATOM      7  C   UNL A   1      34.356  28.311  23.206  1.00  0.00     0.023 C 
BRANCH   6   8
ATOM      8  C   UNL A   1      31.850  27.587  23.532  1.00  0.00    -0.022 A 
ATOM      9  C   UNL A   1      31.536  28.909  23.127  1.00  0.00     0.006 A 
ATOM     10  C   UNL A   1      30.765  26.699  23.663  1.00  0.00     0.022 A 
ATOM     11  C   UNL A   1      30.226  29.333  22.895  1.00  0.00     0.004 A 
ATOM     12  C   UNL A   1      29.445  27.155  23.490  1.00  0.00     0.019 A 
ATOM     13  Br  UNL A   1      30.866  24.836  24.034  1.00  0.00    -0.051 Br
ATOM     14  C   UNL A   1      29.159  28.476  23.130  1.00  0.00    -0.047 A 
BRANCH  14  15
ATOM     15  C   UNL A   1      27.729  28.939  23.010  1.00  0.00     0.041 C 
BRANCH  15  16
ATOM     16  C   UNL A   1      27.527  30.421  22.652  1.00  0.00     0.022 C 
ATOM     17  C   UNL A   1      27.967  31.451  23.706  1.00  0.00     0.007 C 
ATOM     18  C   UNL A   1      28.211  30.885  21.364  1.00  0.00     0.117 C 
ATOM     19  C   UNL A   1      28.493  32.659  22.922  1.00  0.00     0.003 C 
ATOM     20  C   UNL A   1      28.124  32.398  21.469  1.00  0.00     0.032 C 
BRANCH  18  21
ATOM     21  O   UNL A   1      27.535  30.394  20.223  1.00  0.00    -0.393 OA
ATOM     22  H   UNL A   1      28.134  29.827  19.712  1.00  0.00     0.210 HD
ENDBRANCH  18  21
ENDBRANCH  15  16
ENDBRANCH  14  15
ENDBRANCH   6   8
ENDBRANCH   3   6
ENDBRANCH   1   2
BRANCH   1  23
ATOM     23  C   UNL A   1      32.155  29.872  26.736  1.00  0.00     0.023 C 
BRANCH  23  24
ATOM     24  C   UNL A   1      31.802  31.359  26.788  1.00  0.00     0.023 C 
BRANCH  24  25
ATOM     25  C   UNL A   1      32.918  32.260  27.292  1.00  0.00     0.116 C 
BRANCH  25  26
ATOM     26  N   UNL A   1      32.488  33.634  27.503  1.00  0.00    -0.352 N 
ATOM     27  C   UNL A   1      33.002  34.559  28.380  1.00  0.00     0.251 C 
ATOM     28  H   UNL A   1      31.735  33.941  26.947  1.00  0.00     0.163 HD
ATOM     29  O   UNL A   1      32.468  35.653  28.531  1.00  0.00    -0.269 OA
BRANCH  27  30
ATOM     30  C   UNL A   1      34.192  34.196  29.170  1.00  0.00     0.039 A 
ATOM     31  C   UNL A   1      34.034  33.407  30.312  1.00  0.00     0.014 A 
ATOM     32  C   UNL A   1      35.464  34.575  28.734  1.00  0.00     0.014 A 
ATOM     33  C   UNL A   1      35.164  32.928  30.978  1.00  0.00     0.010 A 
ATOM     34  C   UNL A   1      36.585  34.047  29.359  1.00  0.00     0.010 A 
ATOM     35  C   UNL A   1      36.444  33.212  30.480  1.00  0.00    -0.014 A 
BRANCH  35  36
ATOM     36  C   UNL A   1      37.669  32.650  31.098  1.00  0.00     0.031 A 
ATOM     37  C   UNL A   1      38.392  31.526  30.417  1.00  0.00     0.074 A 
ATOM     38  C   UNL A   1      38.046  33.058  32.324  1.00  0.00     0.049 A 
ATOM     39  N   UNL A   1      39.353  30.764  30.869  1.00  0.00    -0.248 NA
ATOM     40  C   UNL A   1      37.938  31.188  29.059  1.00  0.00     0.031 C 
ATOM     41  C   UNL A   1      37.389  34.105  33.108  1.00  0.00     0.029 A 
ATOM     42  N   UNL A   1      39.053  32.611  33.142  1.00  0.00    -0.354 N 
ATOM     43  C   UNL A   1      39.591  29.831  29.869  1.00  0.00     0.074 A 
ATOM     44  C   UNL A   1      38.653  30.103  28.802  1.00  0.00     0.031 C 
ATOM     45  C   UNL A   1      38.004  34.215  34.296  1.00  0.00     0.029 A 
ATOM     46  C   UNL A   1      39.072  33.222  34.372  1.00  0.00     0.049 A 
ATOM     47  H   UNL A   1      39.700  31.919  32.873  1.00  0.00     0.167 HD
ATOM     48  C   UNL A   1      40.516  28.843  29.845  1.00  0.00     0.037 A 
ATOM     49  C   UNL A   1      39.848  32.989  35.447  1.00  0.00     0.037 A 
ATOM     50  C   UNL A   1      41.476  28.609  30.889  1.00  0.00     0.049 A 
ATOM     51  C   UNL A   1      40.901  31.919  35.379  1.00  0.00     0.074 A 
ATOM     52  C   UNL A   1      42.516  27.698  30.919  1.00  0.00     0.029 A 
ATOM     53  N   UNL A   1      41.512  29.299  32.092  1.00  0.00    -0.354 N 
ATOM     54  N   UNL A   1      41.164  31.084  34.404  1.00  0.00    -0.248 NA
ATOM     55  C   UNL A   1      41.765  31.760  36.556  1.00  0.00     0.031 C 
ATOM     56  C   UNL A   1      43.161  27.812  32.155  1.00  0.00     0.029 A 
ATOM     57  C   UNL A   1      42.547  28.821  32.880  1.00  0.00     0.049 A 
ATOM     58  H   UNL A   1      40.893  30.021  32.349  1.00  0.00     0.167 HD
ATOM     59  C   UNL A   1      42.235  30.316  34.838  1.00  0.00     0.074 A 
ATOM     60  C   UNL A   1      42.578  30.788  36.164  1.00  0.00     0.031 C 
ATOM     61  C   UNL A   1      42.877  29.311  34.193  1.00  0.00     0.037 A 
BRANCH  48  62
ATOM     62  C   UNL A   1      40.524  27.939  28.648  1.00  0.00     0.064 A 
ATOM     63  C   UNL A   1      39.808  26.732  28.629  1.00  0.00     0.173 A 
ATOM     64  C   UNL A   1      41.255  28.287  27.503  1.00  0.00     0.173 A 
ATOM     65  F   UNL A   1      39.105  26.347  29.706  1.00  0.00    -0.203 F 
ATOM     66  C   UNL A   1      39.855  25.889  27.522  1.00  0.00     0.198 A 
ATOM     67  C   UNL A   1      41.277  27.454  26.386  1.00  0.00     0.198 A 
ATOM     68  F   UNL A   1      41.954  29.431  27.469  1.00  0.00    -0.203 F 
ATOM     69  F   UNL A   1      39.212  24.714  27.551  1.00  0.00    -0.200 F 
ATOM     70  C   UNL A   1      40.585  26.252  26.401  1.00  0.00     0.200 A 
ATOM     71  F   UNL A   1      41.977  27.811  25.300  1.00  0.00    -0.200 F 
ATOM     72  F   UNL A   1      40.633  25.438  25.337  1.00  0.00    -0.200 F 
ENDBRANCH  48  62
BRANCH  49  73
ATOM     73  C   UNL A   1      39.657  33.804  36.673  1.00  0.00     0.064 A 
ATOM     74  C   UNL A   1      40.260  35.062  36.800  1.00  0.00     0.173 A 
ATOM     75  C   UNL A   1      38.839  33.359  37.723  1.00  0.00     0.173 A 
ATOM     76  F   UNL A   1      41.064  35.519  35.829  1.00  0.00    -0.203 F 
ATOM     77  C   UNL A   1      40.056  35.844  37.934  1.00  0.00     0.198 A 
ATOM     78  C   UNL A   1      38.620  34.152  38.847  1.00  0.00     0.198 A 
ATOM     79  F   UNL A   1      38.235  32.164  37.643  1.00  0.00    -0.203 F 
ATOM     80  F   UNL A   1      40.664  37.035  38.042  1.00  0.00    -0.200 F 
ATOM     81  C   UNL A   1      39.231  35.392  38.954  1.00  0.00     0.200 A 
ATOM     82  F   UNL A   1      37.812  33.717  39.824  1.00  0.00    -0.200 F 
ATOM     83  F   UNL A   1      39.026  36.151  40.039  1.00  0.00    -0.200 F 
ENDBRANCH  49  73
BRANCH  61  84
ATOM     84  C   UNL A   1      44.036  28.671  34.897  1.00  0.00     0.064 A 
ATOM     85  C   UNL A   1      43.868  27.532  35.696  1.00  0.00     0.173 A 
ATOM     86  C   UNL A   1      45.336  29.163  34.711  1.00  0.00     0.173 A 
ATOM     87  F   UNL A   1      42.641  27.034  35.914  1.00  0.00    -0.203 F 
ATOM     88  C   UNL A   1      44.963  26.914  36.294  1.00  0.00     0.198 A 
ATOM     89  C   UNL A   1      46.430  28.530  35.292  1.00  0.00     0.198 A 
ATOM     90  F   UNL A   1      45.545  30.248  33.949  1.00  0.00    -0.203 F 
ATOM     91  F   UNL A   1      44.779  25.842  37.077  1.00  0.00    -0.200 F 
ATOM     92  C   UNL A   1      46.243  27.407  36.085  1.00  0.00     0.200 A 
ATOM     93  F   UNL A   1      47.666  29.002  35.080  1.00  0.00    -0.200 F 
ATOM     94  F   UNL A   1      47.296  26.803  36.650  1.00  0.00    -0.200 F 
ENDBRANCH  61  84
ENDBRANCH  35  36
ENDBRANCH  27  30
ENDBRANCH  25  26
ENDBRANCH  24  25
ENDBRANCH  23  24
ENDBRANCH   1  23
TORSDOF 15
ENDMDL
MODEL 2
REMARK VINA RESULT:     -12.6      4.599     11.295
REMARK SMILES C[C@@H](C(=O)NCCCCNC(=O)c1ccc(-c2c3nc(c(-c4c(F)c(F)c(F)c(F)c4F)c4ccc([nH]4)c(-c4c(F)c(F)c(F)c(F)c4F)c4nc(c(-c5c(F)c(F)c(F)c(F)c5F)c5ccc2[nH]5)C=C4)C=C3)cc1)c1ccc(C[C@H]2CCC[C@@H]2O)cc1Br
REMARK SMILES IDX 6 1 5 2 3 3 4 4 2 6 1 7 76 8 77 9 88 10 78 11 87 12 89 13
REMARK SMILES IDX 79 14 80 15 81 16 82 17 85 18 83 19 84 20 86 21 7 23 8 24
REMARK SMILES IDX 9 25 10 26 11 27 12 29 13 30 14 31 75 32 15 33 74 34 16 35
REMARK SMILES IDX 17 36 18 37 68 38 19 39 73 40 67 41 69 42 20 43 72 44 66 45
REMARK SMILES IDX 65 46 21 48 53 49 33 50 52 51 34 52 37 53 51 54 70 55 35 56
REMARK SMILES IDX 36 57 50 59 71 60 38 61 22 62 23 63 31 64 24 65 25 66 29 67
REMARK SMILES IDX 32 68 26 69 27 70 30 71 28 72 54 73 55 74 63 75 56 76 57 77
REMARK SMILES IDX 61 78 64 79 58 80 59 81 62 82 60 83 39 84 40 85 48 86 41 87
REMARK SMILES IDX 42 88 46 89 49 90 43 91 44 92 47 93 45 94
REMARK H PARENT 5 5 86 22 10 28 69 47 37 58
REMARK Flexibility Score: inf
ROOT
ATOM      1  C   UNL A   1      36.462  32.986  31.236  1.00  0.00     0.116 C 
ENDROOT
BRANCH   1   2
ATOM      2  N   UNL A   1      37.328  33.916  31.934  1.00  0.00    -0.356 N 
ATOM      3  C   UNL A   1      37.637  33.995  33.264  1.00  0.00     0.227 C 
ATOM      4  O   UNL A   1      38.175  35.038  33.641  1.00  0.00    -0.274 OA
ATOM      5  H   UNL A   1      37.757  34.595  31.364  1.00  0.00     0.163 HD
BRANCH   3   6
ATOM      6  C   UNL A   1      37.380  32.790  34.197  1.00  0.00     0.106 C 
ATOM      7  C   UNL A   1      37.047  33.264  35.607  1.00  0.00     0.023 C 
BRANCH   6   8
ATOM      8  C   UNL A   1      38.460  31.706  34.031  1.00  0.00    -0.022 A 
ATOM      9  C   UNL A   1      38.018  30.527  33.380  1.00  0.00     0.006 A 
ATOM     10  C   UNL A   1      39.802  31.721  34.455  1.00  0.00     0.022 A 
ATOM     11  C   UNL A   1      38.846  29.419  33.187  1.00  0.00     0.004 A 
ATOM     12  C   UNL A   1      40.608  30.575  34.314  1.00  0.00     0.019 A 
ATOM     13  Br  UNL A   1      40.734  33.196  35.211  1.00  0.00    -0.051 Br
ATOM     14  C   UNL A   1      40.135  29.409  33.704  1.00  0.00    -0.047 A 
BRANCH  14  15
ATOM     15  C   UNL A   1      41.012  28.184  33.624  1.00  0.00     0.041 C 
BRANCH  15  16
ATOM     16  C   UNL A   1      42.529  28.439  33.636  1.00  0.00     0.022 C 
ATOM     17  C   UNL A   1      43.190  28.605  35.015  1.00  0.00     0.007 C 
ATOM     18  C   UNL A   1      43.380  27.378  32.936  1.00  0.00     0.117 C 
ATOM     19  C   UNL A   1      44.590  27.993  34.888  1.00  0.00     0.003 C 
ATOM     20  C   UNL A   1      44.785  27.716  33.405  1.00  0.00     0.032 C 
BRANCH  18  21
ATOM     21  O   UNL A   1      43.255  27.470  31.530  1.00  0.00    -0.393 OA
ATOM     22  H   UNL A   1      42.992  26.608  31.171  1.00  0.00     0.210 HD
ENDBRANCH  18  21
ENDBRANCH  15  16
ENDBRANCH  14  15
ENDBRANCH   6   8
ENDBRANCH   3   6
ENDBRANCH   1   2
BRANCH   1  23
ATOM     23  C   UNL A   1      35.564  33.733  30.245  1.00  0.00     0.023 C 
BRANCH  23  24
ATOM     24  C   UNL A   1      34.429  32.891  29.659  1.00  0.00     0.023 C 
BRANCH  24  25
ATOM     25  C   UNL A   1      34.642  32.453  28.218  1.00  0.00     0.116 C 
BRANCH  25  26
ATOM     26  N   UNL A   1      34.021  31.171  27.917  1.00  0.00    -0.352 N 
ATOM     27  C   UNL A   1      34.607  29.928  27.900  1.00  0.00     0.251 C 
ATOM     28  H   UNL A   1      33.061  31.197  27.700  1.00  0.00     0.163 HD
ATOM     29  O   UNL A   1      33.985  28.941  27.520  1.00  0.00    -0.269 OA
BRANCH  27  30
ATOM     30  C   UNL A   1      36.017  29.807  28.312  1.00  0.00     0.039 A 
ATOM     31  C   UNL A   1      36.311  29.408  29.618  1.00  0.00     0.014 A 
ATOM     32  C   UNL A   1      37.038  30.017  27.382  1.00  0.00     0.014 A 
ATOM     33  C   UNL A   1      37.634  29.139  29.973  1.00  0.00     0.010 A 
ATOM     34  C   UNL A   1      38.344  29.688  27.718  1.00  0.00     0.010 A 
ATOM     35  C   UNL A   1      38.651  29.238  29.012  1.00  0.00    -0.014 A 
BRANCH  35  36
ATOM     36  C   UNL A   1      40.056  28.874  29.317  1.00  0.00     0.031 A 
ATOM     37  C   UNL A   1      40.954  29.880  29.975  1.00  0.00     0.074 A 
ATOM     38  C   UNL A   1      40.552  27.701  28.882  1.00  0.00     0.049 A 
ATOM     39  N   UNL A   1      42.248  29.846  30.150  1.00  0.00    -0.248 NA
ATOM     40  C   UNL A   1      40.308  31.109  30.461  1.00  0.00     0.031 C 
ATOM     41  C   UNL A   1      39.790  26.667  28.182  1.00  0.00     0.029 A 
ATOM     42  N   UNL A   1      41.828  27.199  28.932  1.00  0.00    -0.354 N 
ATOM     43  C   UNL A   1      42.579  31.064  30.728  1.00  0.00     0.074 A 
ATOM     44  C   UNL A   1      41.354  31.825  30.845  1.00  0.00     0.031 C 
ATOM     45  C   UNL A   1      40.613  25.656  27.860  1.00  0.00     0.029 A 
ATOM     46  C   UNL A   1      41.966  25.989  28.297  1.00  0.00     0.049 A 
ATOM     47  H   UNL A   1      42.573  27.661  29.380  1.00  0.00     0.167 HD
ATOM     48  C   UNL A   1      43.795  31.500  31.132  1.00  0.00     0.037 A 
ATOM     49  C   UNL A   1      43.065  25.245  28.071  1.00  0.00     0.037 A 
ATOM     50  C   UNL A   1      44.999  30.718  31.057  1.00  0.00     0.049 A 
ATOM     51  C   UNL A   1      44.397  25.727  28.572  1.00  0.00     0.074 A 
ATOM     52  C   UNL A   1      46.263  31.029  31.526  1.00  0.00     0.029 A 
ATOM     53  N   UNL A   1      45.087  29.463  30.472  1.00  0.00    -0.354 N 
ATOM     54  N   UNL A   1      44.691  26.851  29.178  1.00  0.00    -0.248 NA
ATOM     55  C   UNL A   1      45.549  24.839  28.361  1.00  0.00     0.031 C 
ATOM     56  C   UNL A   1      47.123  29.977  31.195  1.00  0.00     0.029 A 
ATOM     57  C   UNL A   1      46.387  28.993  30.553  1.00  0.00     0.049 A 
ATOM     58  H   UNL A   1      44.335  28.978  30.060  1.00  0.00     0.167 HD
ATOM     59  C   UNL A   1      46.053  26.799  29.441  1.00  0.00     0.074 A 
ATOM     60  C   UNL A   1      46.527  25.527  28.934  1.00  0.00     0.031 C 
ATOM     61  C   UNL A   1      46.837  27.721  30.050  1.00  0.00     0.037 A 
BRANCH  48  62
ATOM     62  C   UNL A   1      43.877  32.891  31.686  1.00  0.00     0.064 A 
ATOM     63  C   UNL A   1      43.877  33.138  33.067  1.00  0.00     0.173 A 
ATOM     64  C   UNL A   1      43.958  33.992  30.822  1.00  0.00     0.173 A 
ATOM     65  F   UNL A   1      43.787  32.118  33.935  1.00  0.00    -0.203 F 
ATOM     66  C   UNL A   1      43.918  34.439  33.563  1.00  0.00     0.198 A 
ATOM     67  C   UNL A   1      44.028  35.291  31.322  1.00  0.00     0.198 A 
ATOM     68  F   UNL A   1      43.964  33.811  29.493  1.00  0.00    -0.203 F 
ATOM     69  F   UNL A   1      43.857  34.652  34.883  1.00  0.00    -0.200 F 
ATOM     70  C   UNL A   1      43.998  35.513  32.690  1.00  0.00     0.200 A 
ATOM     71  F   UNL A   1      44.113  36.329  30.476  1.00  0.00    -0.200 F 
ATOM     72  F   UNL A   1      44.033  36.765  33.168  1.00  0.00    -0.200 F 
ENDBRANCH  48  62
BRANCH  49  73
ATOM     73  C   UNL A   1      42.936  23.956  27.345  1.00  0.00     0.064 A 
ATOM     74  C   UNL A   1      43.223  23.872  25.977  1.00  0.00     0.173 A 
ATOM     75  C   UNL A   1      42.563  22.780  28.011  1.00  0.00     0.173 A 
ATOM     76  F   UNL A   1      43.566  24.975  25.297  1.00  0.00    -0.203 F 
ATOM     77  C   UNL A   1      43.136  22.659  25.299  1.00  0.00     0.198 A 
ATOM     78  C   UNL A   1      42.497  21.562  27.336  1.00  0.00     0.198 A 
ATOM     79  F   UNL A   1      42.286  22.810  29.323  1.00  0.00    -0.203 F 
ATOM     80  F   UNL A   1      43.393  22.609  23.984  1.00  0.00    -0.200 F 
ATOM     81  C   UNL A   1      42.781  21.504  25.980  1.00  0.00     0.200 A 
ATOM     82  F   UNL A   1      42.166  20.447  28.000  1.00  0.00    -0.200 F 
ATOM     83  F   UNL A   1      42.710  20.334  25.329  1.00  0.00    -0.200 F 
ENDBRANCH  49  73
BRANCH  61  84
ATOM     84  C   UNL A   1      48.286  27.381  30.230  1.00  0.00     0.064 A 
ATOM     85  C   UNL A   1      48.742  26.696  31.365  1.00  0.00     0.173 A 
ATOM     86  C   UNL A   1      49.214  27.684  29.223  1.00  0.00     0.173 A 
ATOM     87  F   UNL A   1      47.893  26.398  32.360  1.00  0.00    -0.203 F 
ATOM     88  C   UNL A   1      50.081  26.336  31.489  1.00  0.00     0.198 A 
ATOM     89  C   UNL A   1      50.547  27.302  29.341  1.00  0.00     0.198 A 
ATOM     90  F   UNL A   1      48.823  28.334  28.116  1.00  0.00    -0.203 F 
ATOM     91  F   UNL A   1      50.503  25.705  32.594  1.00  0.00    -0.200 F 
ATOM     92  C   UNL A   1      50.980  26.630  30.474  1.00  0.00     0.200 A 
ATOM     93  F   UNL A   1      51.411  27.579  28.355  1.00  0.00    -0.200 F 
ATOM     94  F   UNL A   1      52.265  26.270  30.589  1.00  0.00    -0.200 F 
ENDBRANCH  61  84
ENDBRANCH  35  36
ENDBRANCH  27  30
ENDBRANCH  25  26
ENDBRANCH  24  25
ENDBRANCH  23  24
ENDBRANCH   1  23
TORSDOF 15
ENDMDL
MODEL 3
REMARK VINA RESULT:     -12.6      2.080      4.066
REMARK SMILES C[C@@H](C(=O)NCCCCNC(=O)c1ccc(-c2c3nc(c(-c4c(F)c(F)c(F)c(F)c4F)c4ccc([nH]4)c(-c4c(F)c(F)c(F)c(F)c4F)c4nc(c(-c5c(F)c(F)c(F)c(F)c5F)c5ccc2[nH]5)C=C4)C=C3)cc1)c1ccc(C[C@H]2CCC[C@@H]2O)cc1Br
REMARK SMILES IDX 6 1 5 2 3 3 4 4 2 6 1 7 76 8 77 9 88 10 78 11 87 12 89 13
REMARK SMILES IDX 79 14 80 15 81 16 82 17 85 18 83 19 84 20 86 21 7 23 8 24
REMARK SMILES IDX 9 25 10 26 11 27 12 29 13 30 14 31 75 32 15 33 74 34 16 35
REMARK SMILES IDX 17 36 18 37 68 38 19 39 73 40 67 41 69 42 20 43 72 44 66 45
REMARK SMILES IDX 65 46 21 48 53 49 33 50 52 51 34 52 37 53 51 54 70 55 35 56
REMARK SMILES IDX 36 57 50 59 71 60 38 61 22 62 23 63 31 64 24 65 25 66 29 67
REMARK SMILES IDX 32 68 26 69 27 70 30 71 28 72 54 73 55 74 63 75 56 76 57 77
REMARK SMILES IDX 61 78 64 79 58 80 59 81 62 82 60 83 39 84 40 85 48 86 41 87
REMARK SMILES IDX 42 88 46 89 49 90 43 91 44 92 47 93 45 94
REMARK H PARENT 5 5 86 22 10 28 69 47 37 58
REMARK Flexibility Score: inf
ROOT
ATOM      1  C   UNL A   1      31.814  29.020  26.344  1.00  0.00     0.116 C 
ENDROOT
BRANCH   1   2
ATOM      2  N   UNL A   1      31.184  28.387  25.202  1.00  0.00    -0.356 N 
ATOM      3  C   UNL A   1      31.727  27.991  24.011  1.00  0.00     0.227 C 
ATOM      4  O   UNL A   1      30.932  27.732  23.105  1.00  0.00    -0.274 OA
ATOM      5  H   UNL A   1      30.219  28.216  25.299  1.00  0.00     0.163 HD
BRANCH   3   6
ATOM      6  C   UNL A   1      33.256  27.818  23.869  1.00  0.00     0.106 C 
ATOM      7  C   UNL A   1      33.778  28.605  22.673  1.00  0.00     0.023 C 
BRANCH   6   8
ATOM      8  C   UNL A   1      33.673  26.342  24.007  1.00  0.00    -0.022 A 
ATOM      9  C   UNL A   1      34.194  25.991  25.278  1.00  0.00     0.006 A 
ATOM     10  C   UNL A   1      33.628  25.317  23.045  1.00  0.00     0.022 A 
ATOM     11  C   UNL A   1      34.669  24.711  25.568  1.00  0.00     0.004 A 
ATOM     12  C   UNL A   1      34.170  24.049  23.327  1.00  0.00     0.019 A 
ATOM     13  Br  UNL A   1      32.851  25.424  21.312  1.00  0.00    -0.051 Br
ATOM     14  C   UNL A   1      34.715  23.739  24.577  1.00  0.00    -0.047 A 
BRANCH  14  15
ATOM     15  C   UNL A   1      35.337  22.386  24.821  1.00  0.00     0.041 C 
BRANCH  15  16
ATOM     16  C   UNL A   1      34.391  21.296  25.352  1.00  0.00     0.022 C 
ATOM     17  C   UNL A   1      32.888  21.623  25.342  1.00  0.00     0.007 C 
ATOM     18  C   UNL A   1      34.487  19.942  24.645  1.00  0.00     0.117 C 
ATOM     19  C   UNL A   1      32.170  20.300  25.049  1.00  0.00     0.003 C 
ATOM     20  C   UNL A   1      33.241  19.223  25.137  1.00  0.00     0.032 C 
BRANCH  18  21
ATOM     21  O   UNL A   1      35.670  19.260  25.009  1.00  0.00    -0.393 OA
ATOM     22  H   UNL A   1      35.519  18.768  25.832  1.00  0.00     0.210 HD
ENDBRANCH  18  21
ENDBRANCH  15  16
ENDBRANCH  14  15
ENDBRANCH   6   8
ENDBRANCH   3   6
ENDBRANCH   1   2
BRANCH   1  23
ATOM     23  C   UNL A   1      32.307  30.423  25.972  1.00  0.00     0.023 C 
BRANCH  23  24
ATOM     24  C   UNL A   1      31.856  31.527  26.930  1.00  0.00     0.023 C 
BRANCH  24  25
ATOM     25  C   UNL A   1      32.975  32.423  27.438  1.00  0.00     0.116 C 
BRANCH  25  26
ATOM     26  N   UNL A   1      32.547  33.797  27.658  1.00  0.00    -0.352 N 
ATOM     27  C   UNL A   1      33.064  34.714  28.540  1.00  0.00     0.251 C 
ATOM     28  H   UNL A   1      31.794  34.108  27.105  1.00  0.00     0.163 HD
ATOM     29  O   UNL A   1      32.531  35.809  28.699  1.00  0.00    -0.269 OA
BRANCH  27  30
ATOM     30  C   UNL A   1      34.254  34.344  29.327  1.00  0.00     0.039 A 
ATOM     31  C   UNL A   1      34.083  33.691  30.550  1.00  0.00     0.014 A 
ATOM     32  C   UNL A   1      35.532  34.579  28.814  1.00  0.00     0.014 A 
ATOM     33  C   UNL A   1      35.200  33.198  31.227  1.00  0.00     0.010 A 
ATOM     34  C   UNL A   1      36.635  34.033  29.457  1.00  0.00     0.010 A 
ATOM     35  C   UNL A   1      36.477  33.330  30.663  1.00  0.00    -0.014 A 
BRANCH  35  36
ATOM     36  C   UNL A   1      37.681  32.743  31.298  1.00  0.00     0.031 A 
ATOM     37  C   UNL A   1      38.376  31.589  30.639  1.00  0.00     0.074 A 
ATOM     38  C   UNL A   1      38.061  33.158  32.521  1.00  0.00     0.049 A 
ATOM     39  N   UNL A   1      39.312  30.806  31.109  1.00  0.00    -0.248 NA
ATOM     40  C   UNL A   1      37.923  31.244  29.283  1.00  0.00     0.031 C 
ATOM     41  C   UNL A   1      37.429  34.235  33.284  1.00  0.00     0.029 A 
ATOM     42  N   UNL A   1      39.049  32.695  33.353  1.00  0.00    -0.354 N 
ATOM     43  C   UNL A   1      39.529  29.852  30.125  1.00  0.00     0.074 A 
ATOM     44  C   UNL A   1      38.608  30.135  29.047  1.00  0.00     0.031 C 
ATOM     45  C   UNL A   1      38.038  34.345  34.475  1.00  0.00     0.029 A 
ATOM     46  C   UNL A   1      39.077  33.323  34.574  1.00  0.00     0.049 A 
ATOM     47  H   UNL A   1      39.678  31.980  33.099  1.00  0.00     0.167 HD
ATOM     48  C   UNL A   1      40.426  28.838  30.122  1.00  0.00     0.037 A 
ATOM     49  C   UNL A   1      39.838  33.084  35.658  1.00  0.00     0.037 A 
ATOM     50  C   UNL A   1      41.371  28.592  31.176  1.00  0.00     0.049 A 
ATOM     51  C   UNL A   1      40.860  31.983  35.614  1.00  0.00     0.074 A 
ATOM     52  C   UNL A   1      42.385  27.652  31.227  1.00  0.00     0.029 A 
ATOM     53  N   UNL A   1      41.419  29.298  32.370  1.00  0.00    -0.354 N 
ATOM     54  N   UNL A   1      41.106  31.127  34.653  1.00  0.00    -0.248 NA
ATOM     55  C   UNL A   1      41.711  31.817  36.799  1.00  0.00     0.031 C 
ATOM     56  C   UNL A   1      43.024  27.766  32.466  1.00  0.00     0.029 A 
ATOM     57  C   UNL A   1      42.434  28.803  33.172  1.00  0.00     0.049 A 
ATOM     58  H   UNL A   1      40.820  30.041  32.612  1.00  0.00     0.167 HD
ATOM     59  C   UNL A   1      42.152  30.334  35.106  1.00  0.00     0.074 A 
ATOM     60  C   UNL A   1      42.499  30.817  36.427  1.00  0.00     0.031 C 
ATOM     61  C   UNL A   1      42.769  29.302  34.481  1.00  0.00     0.037 A 
BRANCH  48  62
ATOM     62  C   UNL A   1      40.416  27.916  28.939  1.00  0.00     0.064 A 
ATOM     63  C   UNL A   1      41.160  28.192  27.781  1.00  0.00     0.173 A 
ATOM     64  C   UNL A   1      39.654  26.740  28.965  1.00  0.00     0.173 A 
ATOM     65  F   UNL A   1      41.894  29.312  27.702  1.00  0.00    -0.203 F 
ATOM     66  C   UNL A   1      41.111  27.342  26.679  1.00  0.00     0.198 A 
ATOM     67  C   UNL A   1      39.629  25.877  27.871  1.00  0.00     0.198 A 
ATOM     68  F   UNL A   1      38.927  26.428  30.049  1.00  0.00    -0.203 F 
ATOM     69  F   UNL A   1      41.782  27.657  25.564  1.00  0.00    -0.200 F 
ATOM     70  C   UNL A   1      40.349  26.184  26.727  1.00  0.00     0.200 A 
ATOM     71  F   UNL A   1      38.899  24.754  27.922  1.00  0.00    -0.200 F 
ATOM     72  F   UNL A   1      40.300  25.369  25.664  1.00  0.00    -0.200 F 
ENDBRANCH  48  62
BRANCH  49  73
ATOM     73  C   UNL A   1      39.662  33.922  36.871  1.00  0.00     0.064 A 
ATOM     74  C   UNL A   1      40.270  35.180  36.968  1.00  0.00     0.173 A 
ATOM     75  C   UNL A   1      38.853  33.500  37.936  1.00  0.00     0.173 A 
ATOM     76  F   UNL A   1      41.066  35.616  35.982  1.00  0.00    -0.203 F 
ATOM     77  C   UNL A   1      40.081  35.984  38.090  1.00  0.00     0.198 A 
ATOM     78  C   UNL A   1      38.647  34.314  39.048  1.00  0.00     0.198 A 
ATOM     79  F   UNL A   1      38.244  32.306  37.884  1.00  0.00    -0.203 F 
ATOM     80  F   UNL A   1      40.693  37.174  38.170  1.00  0.00    -0.200 F 
ATOM     81  C   UNL A   1      39.264  35.554  39.125  1.00  0.00     0.200 A 
ATOM     82  F   UNL A   1      37.847  33.900  40.040  1.00  0.00    -0.200 F 
ATOM     83  F   UNL A   1      39.072  36.333  40.198  1.00  0.00    -0.200 F 
ENDBRANCH  49  73
BRANCH  61  84
ATOM     84  C   UNL A   1      43.903  28.640  35.203  1.00  0.00     0.064 A 
ATOM     85  C   UNL A   1      43.695  27.528  36.030  1.00  0.00     0.173 A 
ATOM     86  C   UNL A   1      45.220  29.081  35.006  1.00  0.00     0.173 A 
ATOM     87  F   UNL A   1      42.451  27.080  36.259  1.00  0.00    -0.203 F 
ATOM     88  C   UNL A   1      44.767  26.887  36.645  1.00  0.00     0.198 A 
ATOM     89  C   UNL A   1      46.291  28.424  35.605  1.00  0.00     0.198 A 
ATOM     90  F   UNL A   1      45.469  30.138  34.217  1.00  0.00    -0.203 F 
ATOM     91  F   UNL A   1      44.545  25.843  37.455  1.00  0.00    -0.200 F 
ATOM     92  C   UNL A   1      46.064  27.329  36.426  1.00  0.00     0.200 A 
ATOM     93  F   UNL A   1      47.543  28.847  35.383  1.00  0.00    -0.200 F 
ATOM     94  F   UNL A   1      47.095  26.702  37.008  1.00  0.00    -0.200 F 
ENDBRANCH  61  84
ENDBRANCH  35  36
ENDBRANCH  27  30
ENDBRANCH  25  26
ENDBRANCH  24  25
ENDBRANCH  23  24
ENDBRANCH   1  23
TORSDOF 15
ENDMDL
