MODEL 1
REMARK VINA RESULT:     -13.8      0.000      0.000
REMARK SMILES O=C(NCCCCNC(=O)[C@H]1CC=CC[C@@H]1C(=O)Nc1nn(Cc2ccccc2F)cc1Br)c1ccc(-c2c3nc(c(-c4c(F)c(F)c(F)c(F)c4F)c4ccc([nH]4)c(-c4c(F)c(F)c(F)c(F)c4F)c4nc(c(-c5c(F)c(F)c(F)c(F)c5F)c5ccc2[nH]5)C=C4)C=C3)cc1
REMARK SMILES IDX 6 1 5 2 4 3 3 4 1 5 2 6 34 8 35 9 96 10 36 11 95 12 37 13
REMARK SMILES IDX 38 14 39 15 89 16 40 17 94 18 88 19 90 20 41 21 93 22 87 23
REMARK SMILES IDX 86 24 42 26 74 27 54 28 73 29 55 30 58 31 72 32 91 33 56 34
REMARK SMILES IDX 57 35 71 37 92 38 59 39 43 40 44 41 52 42 45 43 46 44 50 45
REMARK SMILES IDX 53 46 47 47 48 48 51 49 49 50 75 51 76 52 84 53 77 54 78 55
REMARK SMILES IDX 82 56 85 57 79 58 80 59 83 60 81 61 60 62 61 63 69 64 62 65
REMARK SMILES IDX 63 66 67 67 70 68 64 69 65 70 68 71 66 72 7 73 8 74 9 75
REMARK SMILES IDX 10 77 11 78 12 79 16 80 13 81 15 82 14 83 17 84 18 85 19 86
REMARK SMILES IDX 20 88 21 89 32 90 22 91 31 92 33 93 23 94 24 95 25 96 29 97
REMARK SMILES IDX 26 98 28 99 30 100 27 101
REMARK H PARENT 3 7 90 25 58 36 8 76 19 87
REMARK Flexibility Score: inf
ROOT
ATOM      1  C   UNL A   1      34.547  29.370  27.400  1.00  0.00     0.023 C 
ENDROOT
BRANCH   1   2
ATOM      2  C   UNL A   1      33.706  30.654  27.422  1.00  0.00     0.023 C 
BRANCH   2   3
ATOM      3  C   UNL A   1      34.405  31.880  28.009  1.00  0.00     0.116 C 
BRANCH   3   4
ATOM      4  N   UNL A   1      34.277  32.035  29.443  1.00  0.00    -0.352 N 
ATOM      5  O   UNL A   1      34.945  32.729  31.446  1.00  0.00    -0.269 OA
ATOM      6  C   UNL A   1      35.218  32.072  30.436  1.00  0.00     0.251 C 
ATOM      7  H   UNL A   1      33.349  32.130  29.759  1.00  0.00     0.163 HD
BRANCH   6   8
ATOM      8  C   UNL A   1      36.475  31.276  30.401  1.00  0.00     0.039 A 
ATOM      9  C   UNL A   1      37.745  31.800  30.168  1.00  0.00     0.014 A 
ATOM     10  C   UNL A   1      36.335  29.879  30.530  1.00  0.00     0.014 A 
ATOM     11  C   UNL A   1      38.833  30.959  30.002  1.00  0.00     0.010 A 
ATOM     12  C   UNL A   1      37.426  29.028  30.364  1.00  0.00     0.010 A 
ATOM     13  C   UNL A   1      38.669  29.575  30.078  1.00  0.00    -0.014 A 
BRANCH  13  14
ATOM     14  C   UNL A   1      39.892  28.784  30.026  1.00  0.00     0.031 A 
ATOM     15  C   UNL A   1      40.544  28.608  31.353  1.00  0.00     0.074 A 
ATOM     16  C   UNL A   1      40.400  28.213  28.919  1.00  0.00     0.049 A 
ATOM     17  N   UNL A   1      41.696  29.054  31.736  1.00  0.00    -0.248 NA
ATOM     18  C   UNL A   1      39.764  27.964  32.419  1.00  0.00     0.031 C 
ATOM     19  C   UNL A   1      39.769  28.048  27.612  1.00  0.00     0.029 A 
ATOM     20  N   UNL A   1      41.597  27.574  28.771  1.00  0.00    -0.354 N 
ATOM     21  C   UNL A   1      41.863  28.613  33.046  1.00  0.00     0.074 A 
ATOM     22  C   UNL A   1      40.598  28.061  33.455  1.00  0.00     0.031 C 
ATOM     23  C   UNL A   1      40.495  27.172  26.878  1.00  0.00     0.029 A 
ATOM     24  C   UNL A   1      41.706  26.829  27.607  1.00  0.00     0.049 A 
ATOM     25  H   UNL A   1      42.321  27.638  29.436  1.00  0.00     0.167 HD
ATOM     26  C   UNL A   1      43.095  28.555  33.621  1.00  0.00     0.037 A 
ATOM     27  C   UNL A   1      42.694  25.950  27.307  1.00  0.00     0.037 A 
ATOM     28  C   UNL A   1      44.033  29.401  32.934  1.00  0.00     0.049 A 
ATOM     29  C   UNL A   1      43.866  26.281  28.153  1.00  0.00     0.074 A 
ATOM     30  C   UNL A   1      44.127  30.757  32.690  1.00  0.00     0.029 A 
ATOM     31  N   UNL A   1      44.926  28.808  32.079  1.00  0.00    -0.354 N 
ATOM     32  N   UNL A   1      44.600  27.346  28.009  1.00  0.00    -0.248 NA
ATOM     33  C   UNL A   1      44.004  25.593  29.428  1.00  0.00     0.031 C 
ATOM     34  C   UNL A   1      44.704  30.861  31.390  1.00  0.00     0.029 A 
ATOM     35  C   UNL A   1      44.975  29.568  30.943  1.00  0.00     0.049 A 
ATOM     36  H   UNL A   1      45.438  27.985  32.252  1.00  0.00     0.167 HD
ATOM     37  C   UNL A   1      44.941  27.709  29.300  1.00  0.00     0.074 A 
ATOM     38  C   UNL A   1      44.651  26.535  30.116  1.00  0.00     0.031 C 
ATOM     39  C   UNL A   1      45.160  29.016  29.623  1.00  0.00     0.037 A 
BRANCH  26  40
ATOM     40  C   UNL A   1      43.539  27.460  34.562  1.00  0.00     0.064 A 
ATOM     41  C   UNL A   1      43.567  27.599  35.966  1.00  0.00     0.173 A 
ATOM     42  C   UNL A   1      43.632  26.136  34.083  1.00  0.00     0.173 A 
ATOM     43  F   UNL A   1      43.399  28.781  36.570  1.00  0.00    -0.203 F 
ATOM     44  C   UNL A   1      43.651  26.503  36.823  1.00  0.00     0.198 A 
ATOM     45  C   UNL A   1      43.661  25.038  34.946  1.00  0.00     0.198 A 
ATOM     46  F   UNL A   1      43.594  25.881  32.767  1.00  0.00    -0.203 F 
ATOM     47  F   UNL A   1      43.632  26.703  38.149  1.00  0.00    -0.200 F 
ATOM     48  C   UNL A   1      43.664  25.222  36.316  1.00  0.00     0.200 A 
ATOM     49  F   UNL A   1      43.610  23.796  34.445  1.00  0.00    -0.200 F 
ATOM     50  F   UNL A   1      43.626  24.171  37.145  1.00  0.00    -0.200 F 
ENDBRANCH  26  40
BRANCH  27  51
ATOM     51  C   UNL A   1      42.612  24.658  26.581  1.00  0.00     0.064 A 
ATOM     52  C   UNL A   1      42.037  23.521  27.174  1.00  0.00     0.173 A 
ATOM     53  C   UNL A   1      43.386  24.438  25.427  1.00  0.00     0.173 A 
ATOM     54  F   UNL A   1      41.336  23.617  28.312  1.00  0.00    -0.203 F 
ATOM     55  C   UNL A   1      42.258  22.237  26.671  1.00  0.00     0.198 A 
ATOM     56  C   UNL A   1      43.615  23.152  24.930  1.00  0.00     0.198 A 
ATOM     57  F   UNL A   1      44.000  25.464  24.818  1.00  0.00    -0.203 F 
ATOM     58  F   UNL A   1      41.748  21.177  27.312  1.00  0.00    -0.200 F 
ATOM     59  C   UNL A   1      43.064  22.051  25.563  1.00  0.00     0.200 A 
ATOM     60  F   UNL A   1      44.428  22.975  23.879  1.00  0.00    -0.200 F 
ATOM     61  F   UNL A   1      43.345  20.812  25.135  1.00  0.00    -0.200 F 
ENDBRANCH  27  51
BRANCH  39  62
ATOM     62  C   UNL A   1      45.373  29.995  28.504  1.00  0.00     0.064 A 
ATOM     63  C   UNL A   1      46.686  30.418  28.250  1.00  0.00     0.173 A 
ATOM     64  C   UNL A   1      44.340  30.622  27.785  1.00  0.00     0.173 A 
ATOM     65  F   UNL A   1      47.708  29.888  28.943  1.00  0.00    -0.203 F 
ATOM     66  C   UNL A   1      46.958  31.422  27.328  1.00  0.00     0.198 A 
ATOM     67  C   UNL A   1      44.620  31.598  26.829  1.00  0.00     0.198 A 
ATOM     68  F   UNL A   1      43.053  30.347  28.037  1.00  0.00    -0.203 F 
ATOM     69  F   UNL A   1      48.218  31.845  27.158  1.00  0.00    -0.200 F 
ATOM     70  C   UNL A   1      45.927  32.004  26.610  1.00  0.00     0.200 A 
ATOM     71  F   UNL A   1      43.622  32.176  26.145  1.00  0.00    -0.200 F 
ATOM     72  F   UNL A   1      46.191  32.978  25.728  1.00  0.00    -0.200 F 
ENDBRANCH  39  62
ENDBRANCH  13  14
ENDBRANCH   6   8
ENDBRANCH   3   4
ENDBRANCH   2   3
ENDBRANCH   1   2
BRANCH   1  73
ATOM     73  C   UNL A   1      34.185  28.381  26.293  1.00  0.00     0.116 C 
BRANCH  73  74
ATOM     74  N   UNL A   1      32.873  27.790  26.399  1.00  0.00    -0.356 N 
ATOM     75  C   UNL A   1      32.472  26.504  26.210  1.00  0.00     0.224 C 
ATOM     76  H   UNL A   1      32.155  28.416  26.645  1.00  0.00     0.163 HD
ATOM     77  O   UNL A   1      31.486  26.156  26.874  1.00  0.00    -0.275 OA
BRANCH  75  78
ATOM     78  C   UNL A   1      33.027  25.558  25.129  1.00  0.00     0.095 C 
ATOM     79  C   UNL A   1      34.088  24.665  25.784  1.00  0.00     0.041 C 
ATOM     80  C   UNL A   1      32.027  24.807  24.234  1.00  0.00     0.095 C 
ATOM     81  C   UNL A   1      33.543  23.388  26.338  1.00  0.00    -0.030 C 
ATOM     82  C   UNL A   1      31.694  23.351  24.680  1.00  0.00     0.041 C 
ATOM     83  C   UNL A   1      32.448  22.806  25.845  1.00  0.00    -0.030 C 
BRANCH  80  84
ATOM     84  C   UNL A   1      32.462  24.700  22.756  1.00  0.00     0.229 C 
ATOM     85  O   UNL A   1      33.031  23.705  22.305  1.00  0.00    -0.274 OA
ATOM     86  N   UNL A   1      31.996  25.673  21.893  1.00  0.00    -0.308 N 
ATOM     87  H   UNL A   1      31.984  25.464  20.931  1.00  0.00     0.171 HD
BRANCH  86  88
ATOM     88  C   UNL A   1      31.546  26.915  22.286  1.00  0.00     0.168 A 
ATOM     89  N   UNL A   1      30.248  27.189  22.369  1.00  0.00    -0.153 NA
ATOM     90  C   UNL A   1      32.305  28.058  22.598  1.00  0.00     0.080 A 
ATOM     91  N   UNL A   1      30.166  28.478  22.731  1.00  0.00    -0.265 N 
ATOM     92  C   UNL A   1      31.399  29.069  22.818  1.00  0.00     0.127 A 
ATOM     93  Br  UNL A   1      34.166  28.202  22.509  1.00  0.00    -0.045 Br
BRANCH  91  94
ATOM     94  C   UNL A   1      28.877  29.056  23.126  1.00  0.00     0.182 C 
BRANCH  94  95
ATOM     95  C   UNL A   1      28.553  30.412  22.539  1.00  0.00     0.009 A 
ATOM     96  C   UNL A   1      28.131  30.521  21.203  1.00  0.00     0.008 A 
ATOM     97  C   UNL A   1      28.757  31.602  23.251  1.00  0.00     0.128 A 
ATOM     98  C   UNL A   1      27.900  31.777  20.627  1.00  0.00     0.001 A 
ATOM     99  C   UNL A   1      28.458  32.849  22.705  1.00  0.00     0.039 A 
ATOM    100  F   UNL A   1      29.296  31.582  24.476  1.00  0.00    -0.207 F 
ATOM    101  C   UNL A   1      28.028  32.939  21.386  1.00  0.00     0.003 A 
ENDBRANCH  94  95
ENDBRANCH  91  94
ENDBRANCH  86  88
ENDBRANCH  80  84
ENDBRANCH  75  78
ENDBRANCH  73  74
ENDBRANCH   1  73
TORSDOF 15
ENDMDL
MODEL 2
REMARK VINA RESULT:     -13.6      3.618      8.575
REMARK SMILES O=C(NCCCCNC(=O)[C@H]1CC=CC[C@@H]1C(=O)Nc1nn(Cc2ccccc2F)cc1Br)c1ccc(-c2c3nc(c(-c4c(F)c(F)c(F)c(F)c4F)c4ccc([nH]4)c(-c4c(F)c(F)c(F)c(F)c4F)c4nc(c(-c5c(F)c(F)c(F)c(F)c5F)c5ccc2[nH]5)C=C4)C=C3)cc1
REMARK SMILES IDX 6 1 5 2 4 3 3 4 1 5 2 6 34 8 35 9 96 10 36 11 95 12 37 13
REMARK SMILES IDX 38 14 39 15 89 16 40 17 94 18 88 19 90 20 41 21 93 22 87 23
REMARK SMILES IDX 86 24 42 26 74 27 54 28 73 29 55 30 58 31 72 32 91 33 56 34
REMARK SMILES IDX 57 35 71 37 92 38 59 39 43 40 44 41 52 42 45 43 46 44 50 45
REMARK SMILES IDX 53 46 47 47 48 48 51 49 49 50 75 51 76 52 84 53 77 54 78 55
REMARK SMILES IDX 82 56 85 57 79 58 80 59 83 60 81 61 60 62 61 63 69 64 62 65
REMARK SMILES IDX 63 66 67 67 70 68 64 69 65 70 68 71 66 72 7 73 8 74 9 75
REMARK SMILES IDX 10 77 11 78 12 79 16 80 13 81 15 82 14 83 17 84 18 85 19 86
REMARK SMILES IDX 20 88 21 89 32 90 22 91 31 92 33 93 23 94 24 95 25 96 29 97
REMARK SMILES IDX 26 98 28 99 30 100 27 101
REMARK H PARENT 3 7 90 25 58 36 8 76 19 87
REMARK Flexibility Score: inf
ROOT
ATOM      1  C   UNL A   1      37.906  23.689  26.262  1.00  0.00     0.023 C 
ENDROOT
BRANCH   1   2
ATOM      2  C   UNL A   1      38.434  22.313  25.831  1.00  0.00     0.023 C 
BRANCH   2   3
ATOM      3  C   UNL A   1      39.709  21.856  26.539  1.00  0.00     0.116 C 
BRANCH   3   4
ATOM      4  N   UNL A   1      40.937  22.084  25.806  1.00  0.00    -0.352 N 
ATOM      5  O   UNL A   1      43.097  22.576  25.629  1.00  0.00    -0.269 OA
ATOM      6  C   UNL A   1      41.989  22.928  26.044  1.00  0.00     0.251 C 
ATOM      7  H   UNL A   1      41.032  21.536  24.993  1.00  0.00     0.163 HD
BRANCH   6   8
ATOM      8  C   UNL A   1      41.833  24.273  26.659  1.00  0.00     0.039 A 
ATOM      9  C   UNL A   1      42.165  24.592  27.974  1.00  0.00     0.014 A 
ATOM     10  C   UNL A   1      41.222  25.261  25.860  1.00  0.00     0.014 A 
ATOM     11  C   UNL A   1      41.842  25.832  28.501  1.00  0.00     0.010 A 
ATOM     12  C   UNL A   1      40.894  26.510  26.384  1.00  0.00     0.010 A 
ATOM     13  C   UNL A   1      41.187  26.781  27.714  1.00  0.00    -0.014 A 
BRANCH  13  14
ATOM     14  C   UNL A   1      41.013  28.097  28.313  1.00  0.00     0.031 A 
ATOM     15  C   UNL A   1      42.104  29.053  27.978  1.00  0.00     0.074 A 
ATOM     16  C   UNL A   1      39.966  28.472  29.070  1.00  0.00     0.049 A 
ATOM     17  N   UNL A   1      42.965  29.588  28.782  1.00  0.00    -0.248 NA
ATOM     18  C   UNL A   1      42.340  29.352  26.559  1.00  0.00     0.031 C 
ATOM     19  C   UNL A   1      38.697  27.777  29.272  1.00  0.00     0.029 A 
ATOM     20  N   UNL A   1      39.799  29.634  29.765  1.00  0.00    -0.354 N 
ATOM     21  C   UNL A   1      43.759  30.419  27.996  1.00  0.00     0.074 A 
ATOM     22  C   UNL A   1      43.415  30.138  26.627  1.00  0.00     0.031 C 
ATOM     23  C   UNL A   1      37.817  28.623  29.857  1.00  0.00     0.029 A 
ATOM     24  C   UNL A   1      38.500  29.863  30.193  1.00  0.00     0.049 A 
ATOM     25  H   UNL A   1      40.540  30.258  29.947  1.00  0.00     0.167 HD
ATOM     26  C   UNL A   1      44.495  31.421  28.548  1.00  0.00     0.037 A 
ATOM     27  C   UNL A   1      38.021  31.015  30.725  1.00  0.00     0.037 A 
ATOM     28  C   UNL A   1      44.711  31.200  29.953  1.00  0.00     0.049 A 
ATOM     29  C   UNL A   1      39.177  31.789  31.240  1.00  0.00     0.074 A 
ATOM     30  C   UNL A   1      45.337  30.224  30.702  1.00  0.00     0.029 A 
ATOM     31  N   UNL A   1      43.946  31.915  30.840  1.00  0.00    -0.354 N 
ATOM     32  N   UNL A   1      39.881  31.456  32.282  1.00  0.00    -0.248 NA
ATOM     33  C   UNL A   1      39.792  32.766  30.353  1.00  0.00     0.031 C 
ATOM     34  C   UNL A   1      44.553  30.104  31.887  1.00  0.00     0.029 A 
ATOM     35  C   UNL A   1      43.529  31.049  31.813  1.00  0.00     0.049 A 
ATOM     36  H   UNL A   1      43.736  32.875  30.785  1.00  0.00     0.167 HD
ATOM     37  C   UNL A   1      41.176  31.822  31.956  1.00  0.00     0.074 A 
ATOM     38  C   UNL A   1      41.042  32.726  30.819  1.00  0.00     0.031 C 
ATOM     39  C   UNL A   1      42.243  31.139  32.461  1.00  0.00     0.037 A 
BRANCH  26  40
ATOM     40  C   UNL A   1      44.699  32.773  27.907  1.00  0.00     0.064 A 
ATOM     41  C   UNL A   1      43.839  33.874  28.109  1.00  0.00     0.173 A 
ATOM     42  C   UNL A   1      45.952  33.082  27.336  1.00  0.00     0.173 A 
ATOM     43  F   UNL A   1      42.657  33.752  28.722  1.00  0.00    -0.203 F 
ATOM     44  C   UNL A   1      44.211  35.180  27.795  1.00  0.00     0.198 A 
ATOM     45  C   UNL A   1      46.341  34.398  27.073  1.00  0.00     0.198 A 
ATOM     46  F   UNL A   1      46.860  32.119  27.117  1.00  0.00    -0.203 F 
ATOM     47  F   UNL A   1      43.361  36.184  28.050  1.00  0.00    -0.200 F 
ATOM     48  C   UNL A   1      45.472  35.447  27.309  1.00  0.00     0.200 A 
ATOM     49  F   UNL A   1      47.590  34.652  26.660  1.00  0.00    -0.200 F 
ATOM     50  F   UNL A   1      45.865  36.713  27.119  1.00  0.00    -0.200 F 
ENDBRANCH  26  40
BRANCH  27  51
ATOM     51  C   UNL A   1      36.690  31.646  30.551  1.00  0.00     0.064 A 
ATOM     52  C   UNL A   1      36.329  32.270  29.344  1.00  0.00     0.173 A 
ATOM     53  C   UNL A   1      35.884  31.931  31.668  1.00  0.00     0.173 A 
ATOM     54  F   UNL A   1      37.071  32.114  28.239  1.00  0.00    -0.203 F 
ATOM     55  C   UNL A   1      35.255  33.159  29.267  1.00  0.00     0.198 A 
ATOM     56  C   UNL A   1      34.814  32.828  31.593  1.00  0.00     0.198 A 
ATOM     57  F   UNL A   1      36.178  31.406  32.867  1.00  0.00    -0.203 F 
ATOM     58  F   UNL A   1      34.992  33.784  28.112  1.00  0.00    -0.200 F 
ATOM     59  C   UNL A   1      34.512  33.454  30.396  1.00  0.00     0.200 A 
ATOM     60  F   UNL A   1      34.123  33.140  32.698  1.00  0.00    -0.200 F 
ATOM     61  F   UNL A   1      33.537  34.373  30.339  1.00  0.00    -0.200 F 
ENDBRANCH  27  51
BRANCH  39  62
ATOM     62  C   UNL A   1      42.010  30.228  33.633  1.00  0.00     0.064 A 
ATOM     63  C   UNL A   1      42.326  30.716  34.909  1.00  0.00     0.173 A 
ATOM     64  C   UNL A   1      41.629  28.879  33.530  1.00  0.00     0.173 A 
ATOM     65  F   UNL A   1      42.742  31.985  35.059  1.00  0.00    -0.203 F 
ATOM     66  C   UNL A   1      42.272  29.897  36.031  1.00  0.00     0.198 A 
ATOM     67  C   UNL A   1      41.534  28.071  34.663  1.00  0.00     0.198 A 
ATOM     68  F   UNL A   1      41.406  28.309  32.338  1.00  0.00    -0.203 F 
ATOM     69  F   UNL A   1      42.642  30.379  37.225  1.00  0.00    -0.200 F 
ATOM     70  C   UNL A   1      41.865  28.579  35.910  1.00  0.00     0.200 A 
ATOM     71  F   UNL A   1      41.157  26.790  34.547  1.00  0.00    -0.200 F 
ATOM     72  F   UNL A   1      41.822  27.788  36.992  1.00  0.00    -0.200 F 
ENDBRANCH  39  62
ENDBRANCH  13  14
ENDBRANCH   6   8
ENDBRANCH   3   4
ENDBRANCH   2   3
ENDBRANCH   1   2
BRANCH   1  73
ATOM     73  C   UNL A   1      36.453  23.971  25.881  1.00  0.00     0.116 C 
BRANCH  73  74
ATOM     74  N   UNL A   1      35.464  23.265  26.659  1.00  0.00    -0.356 N 
ATOM     75  C   UNL A   1      34.792  22.114  26.387  1.00  0.00     0.224 C 
ATOM     76  H   UNL A   1      35.239  23.683  27.521  1.00  0.00     0.163 HD
ATOM     77  O   UNL A   1      34.458  21.452  27.379  1.00  0.00    -0.275 OA
BRANCH  75  78
ATOM     78  C   UNL A   1      34.278  21.702  24.996  1.00  0.00     0.095 C 
ATOM     79  C   UNL A   1      35.231  20.639  24.438  1.00  0.00     0.041 C 
ATOM     80  C   UNL A   1      32.786  21.363  24.839  1.00  0.00     0.095 C 
ATOM     81  C   UNL A   1      34.839  19.237  24.778  1.00  0.00    -0.030 C 
ATOM     82  C   UNL A   1      32.434  19.846  24.909  1.00  0.00     0.041 C 
ATOM     83  C   UNL A   1      33.571  18.887  25.008  1.00  0.00    -0.030 C 
BRANCH  80  84
ATOM     84  C   UNL A   1      32.158  21.876  23.526  1.00  0.00     0.229 C 
ATOM     85  O   UNL A   1      31.932  21.135  22.568  1.00  0.00    -0.274 OA
ATOM     86  N   UNL A   1      31.651  23.161  23.532  1.00  0.00    -0.308 N 
ATOM     87  H   UNL A   1      30.983  23.393  22.847  1.00  0.00     0.171 HD
BRANCH  86  88
ATOM     88  C   UNL A   1      32.014  24.140  24.432  1.00  0.00     0.168 A 
ATOM     89  N   UNL A   1      32.961  25.028  24.148  1.00  0.00    -0.153 NA
ATOM     90  C   UNL A   1      31.532  24.344  25.739  1.00  0.00     0.080 A 
ATOM     91  N   UNL A   1      33.089  25.793  25.242  1.00  0.00    -0.265 N 
ATOM     92  C   UNL A   1      32.282  25.370  26.265  1.00  0.00     0.127 A 
ATOM     93  Br  UNL A   1      30.281  23.280  26.630  1.00  0.00    -0.045 Br
BRANCH  91  94
ATOM     94  C   UNL A   1      33.898  27.016  25.201  1.00  0.00     0.182 C 
BRANCH  94  95
ATOM     95  C   UNL A   1      33.229  28.269  25.720  1.00  0.00     0.009 A 
ATOM     96  C   UNL A   1      32.119  28.808  25.049  1.00  0.00     0.008 A 
ATOM     97  C   UNL A   1      33.741  28.992  26.807  1.00  0.00     0.128 A 
ATOM     98  C   UNL A   1      31.539  30.009  25.478  1.00  0.00     0.001 A 
ATOM     99  C   UNL A   1      33.123  30.147  27.281  1.00  0.00     0.039 A 
ATOM    100  F   UNL A   1      34.881  28.617  27.402  1.00  0.00    -0.207 F 
ATOM    101  C   UNL A   1      32.016  30.661  26.614  1.00  0.00     0.003 A 
ENDBRANCH  94  95
ENDBRANCH  91  94
ENDBRANCH  86  88
ENDBRANCH  80  84
ENDBRANCH  75  78
ENDBRANCH  73  74
ENDBRANCH   1  73
TORSDOF 15
ENDMDL
MODEL 3
REMARK VINA RESULT:     -13.5      2.427      4.893
REMARK SMILES O=C(NCCCCNC(=O)[C@H]1CC=CC[C@@H]1C(=O)Nc1nn(Cc2ccccc2F)cc1Br)c1ccc(-c2c3nc(c(-c4c(F)c(F)c(F)c(F)c4F)c4ccc([nH]4)c(-c4c(F)c(F)c(F)c(F)c4F)c4nc(c(-c5c(F)c(F)c(F)c(F)c5F)c5ccc2[nH]5)C=C4)C=C3)cc1
REMARK SMILES IDX 6 1 5 2 4 3 3 4 1 5 2 6 34 8 35 9 96 10 36 11 95 12 37 13
REMARK SMILES IDX 38 14 39 15 89 16 40 17 94 18 88 19 90 20 41 21 93 22 87 23
REMARK SMILES IDX 86 24 42 26 74 27 54 28 73 29 55 30 58 31 72 32 91 33 56 34
REMARK SMILES IDX 57 35 71 37 92 38 59 39 43 40 44 41 52 42 45 43 46 44 50 45
REMARK SMILES IDX 53 46 47 47 48 48 51 49 49 50 75 51 76 52 84 53 77 54 78 55
REMARK SMILES IDX 82 56 85 57 79 58 80 59 83 60 81 61 60 62 61 63 69 64 62 65
REMARK SMILES IDX 63 66 67 67 70 68 64 69 65 70 68 71 66 72 7 73 8 74 9 75
REMARK SMILES IDX 10 77 11 78 12 79 16 80 13 81 15 82 14 83 17 84 18 85 19 86
REMARK SMILES IDX 20 88 21 89 32 90 22 91 31 92 33 93 23 94 24 95 25 96 29 97
REMARK SMILES IDX 26 98 28 99 30 100 27 101
REMARK H PARENT 3 7 90 25 58 36 8 76 19 87
REMARK Flexibility Score: inf
ROOT
ATOM      1  C   UNL A   1      31.513  28.177  27.609  1.00  0.00     0.023 C 
ENDROOT
BRANCH   1   2
ATOM      2  C   UNL A   1      31.897  29.561  27.067  1.00  0.00     0.023 C 
BRANCH   2   3
ATOM      3  C   UNL A   1      33.388  29.891  27.125  1.00  0.00     0.116 C 
BRANCH   3   4
ATOM      4  N   UNL A   1      33.722  31.115  27.821  1.00  0.00    -0.352 N 
ATOM      5  O   UNL A   1      34.894  32.976  28.142  1.00  0.00    -0.269 OA
ATOM      6  C   UNL A   1      34.920  31.749  28.014  1.00  0.00     0.251 C 
ATOM      7  H   UNL A   1      32.951  31.574  28.228  1.00  0.00     0.163 HD
BRANCH   6   8
ATOM      8  C   UNL A   1      36.208  31.024  28.191  1.00  0.00     0.039 A 
ATOM      9  C   UNL A   1      36.410  29.676  27.904  1.00  0.00     0.014 A 
ATOM     10  C   UNL A   1      37.262  31.754  28.776  1.00  0.00     0.014 A 
ATOM     11  C   UNL A   1      37.600  29.054  28.246  1.00  0.00     0.010 A 
ATOM     12  C   UNL A   1      38.461  31.134  29.124  1.00  0.00     0.010 A 
ATOM     13  C   UNL A   1      38.614  29.776  28.876  1.00  0.00    -0.014 A 
BRANCH  13  14
ATOM     14  C   UNL A   1      39.874  29.071  29.072  1.00  0.00     0.031 A 
ATOM     15  C   UNL A   1      40.211  28.840  30.504  1.00  0.00     0.074 A 
ATOM     16  C   UNL A   1      40.670  28.617  28.087  1.00  0.00     0.049 A 
ATOM     17  N   UNL A   1      41.203  29.329  31.174  1.00  0.00    -0.248 NA
ATOM     18  C   UNL A   1      39.258  28.071  31.316  1.00  0.00     0.031 C 
ATOM     19  C   UNL A   1      40.376  28.509  26.660  1.00  0.00     0.029 A 
ATOM     20  N   UNL A   1      41.915  28.069  28.192  1.00  0.00    -0.354 N 
ATOM     21  C   UNL A   1      41.094  28.805  32.459  1.00  0.00     0.074 A 
ATOM     22  C   UNL A   1      39.816  28.144  32.524  1.00  0.00     0.031 C 
ATOM     23  C   UNL A   1      41.321  27.738  26.072  1.00  0.00     0.029 A 
ATOM     24  C   UNL A   1      42.352  27.420  27.047  1.00  0.00     0.049 A 
ATOM     25  H   UNL A   1      42.457  28.129  29.013  1.00  0.00     0.167 HD
ATOM     26  C   UNL A   1      42.159  28.783  33.306  1.00  0.00     0.037 A 
ATOM     27  C   UNL A   1      43.449  26.630  26.942  1.00  0.00     0.037 A 
ATOM     28  C   UNL A   1      43.161  29.736  32.912  1.00  0.00     0.049 A 
ATOM     29  C   UNL A   1      44.362  26.972  28.059  1.00  0.00     0.074 A 
ATOM     30  C   UNL A   1      43.201  31.110  32.773  1.00  0.00     0.029 A 
ATOM     31  N   UNL A   1      44.273  29.266  32.261  1.00  0.00    -0.354 N 
ATOM     32  N   UNL A   1      45.022  28.090  28.154  1.00  0.00    -0.248 NA
ATOM     33  C   UNL A   1      44.253  26.203  29.290  1.00  0.00     0.031 C 
ATOM     34  C   UNL A   1      44.055  31.346  31.657  1.00  0.00     0.029 A 
ATOM     35  C   UNL A   1      44.525  30.109  31.214  1.00  0.00     0.049 A 
ATOM     36  H   UNL A   1      44.794  28.466  32.504  1.00  0.00     0.167 HD
ATOM     37  C   UNL A   1      45.022  28.378  29.508  1.00  0.00     0.074 A 
ATOM     38  C   UNL A   1      44.644  27.131  30.164  1.00  0.00     0.031 C 
ATOM     39  C   UNL A   1      45.055  29.669  29.947  1.00  0.00     0.037 A 
BRANCH  26  40
ATOM     40  C   UNL A   1      42.456  27.653  34.263  1.00  0.00     0.064 A 
ATOM     41  C   UNL A   1      41.921  27.569  35.566  1.00  0.00     0.173 A 
ATOM     42  C   UNL A   1      43.028  26.463  33.765  1.00  0.00     0.173 A 
ATOM     43  F   UNL A   1      41.268  28.587  36.136  1.00  0.00    -0.203 F 
ATOM     44  C   UNL A   1      41.928  26.384  36.301  1.00  0.00     0.198 A 
ATOM     45  C   UNL A   1      42.984  25.265  34.483  1.00  0.00     0.198 A 
ATOM     46  F   UNL A   1      43.549  26.418  32.530  1.00  0.00    -0.203 F 
ATOM     47  F   UNL A   1      41.365  26.363  37.517  1.00  0.00    -0.200 F 
ATOM     48  C   UNL A   1      42.428  25.225  35.748  1.00  0.00     0.200 A 
ATOM     49  F   UNL A   1      43.415  24.132  33.913  1.00  0.00    -0.200 F 
ATOM     50  F   UNL A   1      42.325  24.067  36.412  1.00  0.00    -0.200 F 
ENDBRANCH  26  40
BRANCH  27  51
ATOM     51  C   UNL A   1      43.642  25.393  26.145  1.00  0.00     0.064 A 
ATOM     52  C   UNL A   1      42.853  24.250  26.366  1.00  0.00     0.173 A 
ATOM     53  C   UNL A   1      44.811  25.208  25.386  1.00  0.00     0.173 A 
ATOM     54  F   UNL A   1      41.754  24.309  27.131  1.00  0.00    -0.203 F 
ATOM     55  C   UNL A   1      43.233  22.991  25.897  1.00  0.00     0.198 A 
ATOM     56  C   UNL A   1      45.195  23.945  24.924  1.00  0.00     0.198 A 
ATOM     57  F   UNL A   1      45.639  26.238  25.157  1.00  0.00    -0.203 F 
ATOM     58  F   UNL A   1      42.485  21.919  26.193  1.00  0.00    -0.200 F 
ATOM     59  C   UNL A   1      44.414  22.836  25.194  1.00  0.00     0.200 A 
ATOM     60  F   UNL A   1      46.361  23.795  24.278  1.00  0.00    -0.200 F 
ATOM     61  F   UNL A   1      44.818  21.614  24.820  1.00  0.00    -0.200 F 
ENDBRANCH  27  51
BRANCH  39  62
ATOM     62  C   UNL A   1      45.445  30.739  28.968  1.00  0.00     0.064 A 
ATOM     63  C   UNL A   1      44.439  31.264  28.143  1.00  0.00     0.173 A 
ATOM     64  C   UNL A   1      46.766  31.153  28.722  1.00  0.00     0.173 A 
ATOM     65  F   UNL A   1      43.166  30.867  28.302  1.00  0.00    -0.203 F 
ATOM     66  C   UNL A   1      44.735  32.155  27.118  1.00  0.00     0.198 A 
ATOM     67  C   UNL A   1      47.054  32.080  27.721  1.00  0.00     0.198 A 
ATOM     68  F   UNL A   1      47.796  30.626  29.399  1.00  0.00    -0.203 F 
ATOM     69  F   UNL A   1      43.758  32.588  26.310  1.00  0.00    -0.200 F 
ATOM     70  C   UNL A   1      46.040  32.572  26.914  1.00  0.00     0.200 A 
ATOM     71  F   UNL A   1      48.319  32.472  27.511  1.00  0.00    -0.200 F 
ATOM     72  F   UNL A   1      46.324  33.425  25.920  1.00  0.00    -0.200 F 
ENDBRANCH  39  62
ENDBRANCH  13  14
ENDBRANCH   6   8
ENDBRANCH   3   4
ENDBRANCH   2   3
ENDBRANCH   1   2
BRANCH   1  73
ATOM     73  C   UNL A   1      32.079  26.995  26.823  1.00  0.00     0.116 C 
BRANCH  73  74
ATOM     74  N   UNL A   1      31.147  25.927  26.559  1.00  0.00    -0.356 N 
ATOM     75  C   UNL A   1      31.123  25.011  25.553  1.00  0.00     0.224 C 
ATOM     76  H   UNL A   1      30.412  25.848  27.209  1.00  0.00     0.163 HD
ATOM     77  O   UNL A   1      30.605  23.923  25.842  1.00  0.00    -0.275 OA
BRANCH  75  78
ATOM     78  C   UNL A   1      31.510  25.299  24.091  1.00  0.00     0.095 C 
ATOM     79  C   UNL A   1      30.421  26.191  23.482  1.00  0.00     0.041 C 
ATOM     80  C   UNL A   1      32.948  25.757  23.794  1.00  0.00     0.095 C 
ATOM     81  C   UNL A   1      30.686  27.654  23.631  1.00  0.00    -0.030 C 
ATOM     82  C   UNL A   1      33.144  27.298  23.664  1.00  0.00     0.041 C 
ATOM     83  C   UNL A   1      31.922  28.150  23.730  1.00  0.00    -0.030 C 
BRANCH  80  84
ATOM     84  C   UNL A   1      33.549  25.152  22.507  1.00  0.00     0.229 C 
ATOM     85  O   UNL A   1      33.651  25.793  21.460  1.00  0.00    -0.274 OA
ATOM     86  N   UNL A   1      34.174  23.926  22.624  1.00  0.00    -0.308 N 
ATOM     87  H   UNL A   1      34.823  23.674  21.927  1.00  0.00     0.171 HD
BRANCH  86  88
ATOM     88  C   UNL A   1      33.955  23.031  23.649  1.00  0.00     0.168 A 
ATOM     89  N   UNL A   1      32.920  22.197  23.634  1.00  0.00    -0.153 NA
ATOM     90  C   UNL A   1      34.690  22.871  24.838  1.00  0.00     0.080 A 
ATOM     91  N   UNL A   1      32.983  21.509  24.783  1.00  0.00    -0.265 N 
ATOM     92  C   UNL A   1      34.012  21.935  25.583  1.00  0.00     0.127 A 
ATOM     93  Br  UNL A   1      36.161  23.895  25.370  1.00  0.00    -0.045 Br
BRANCH  91  94
ATOM     94  C   UNL A   1      32.115  20.348  25.001  1.00  0.00     0.182 C 
BRANCH  94  95
ATOM     95  C   UNL A   1      32.656  19.019  24.522  1.00  0.00     0.009 A 
ATOM     96  C   UNL A   1      33.306  18.155  25.420  1.00  0.00     0.008 A 
ATOM     97  C   UNL A   1      32.629  18.645  23.171  1.00  0.00     0.128 A 
ATOM     98  C   UNL A   1      33.876  16.956  24.972  1.00  0.00     0.001 A 
ATOM     99  C   UNL A   1      33.130  17.421  22.734  1.00  0.00     0.039 A 
ATOM    100  F   UNL A   1      32.158  19.484  22.239  1.00  0.00    -0.207 F 
ATOM    101  C   UNL A   1      33.758  16.571  23.638  1.00  0.00     0.003 A 
ENDBRANCH  94  95
ENDBRANCH  91  94
ENDBRANCH  86  88
ENDBRANCH  80  84
ENDBRANCH  75  78
ENDBRANCH  73  74
ENDBRANCH   1  73
TORSDOF 15
ENDMDL
