MODEL 1
REMARK VINA RESULT:     -11.9      0.000      0.000
REMARK SMILES CC[NH2+][C@@]1(C(=O)NCCCCNC(=O)c2ccc(-c3c4nc(c(-c5c(F)c(F)c(F)c(F)c5F)c5ccc([nH]5)c(-c5c(F)c(F)c(F)c(F)c5F)c5nc(c(-c6c(F)c(F)c(F)c(F)c6F)c6ccc3[nH]6)C=C5)C=C4)cc2)CCC[C@@H]1CC[NH+]1CCS(=O)(=O)CC1
REMARK SMILES IDX 9 1 8 2 7 3 5 4 6 5 4 7 78 8 81 9 79 10 80 11 3 12 2 15 1 16
REMARK SMILES IDX 82 17 83 18 84 19 85 20 91 21 86 23 90 24 87 25 88 26 89 27
REMARK SMILES IDX 10 28 11 29 12 30 13 31 14 33 15 34 16 35 77 36 17 37 76 38
REMARK SMILES IDX 18 39 19 40 20 41 70 42 21 43 75 44 69 45 71 46 22 47 74 48
REMARK SMILES IDX 68 49 67 50 23 52 55 53 35 54 54 55 36 56 39 57 53 58 72 59
REMARK SMILES IDX 37 60 38 61 52 63 73 64 40 65 24 66 25 67 33 68 26 69 27 70
REMARK SMILES IDX 31 71 34 72 28 73 29 74 32 75 30 76 56 77 57 78 65 79 58 80
REMARK SMILES IDX 59 81 63 82 66 83 60 84 61 85 64 86 62 87 41 88 42 89 50 90
REMARK SMILES IDX 43 91 44 92 48 93 51 94 45 95 46 96 49 97 47 98
REMARK H PARENT 7 6 3 13 3 14 84 22 12 32 71 51 39 62
REMARK Flexibility Score: inf
ROOT
ATOM      1  C   UNL A   1      31.478  30.457  25.783  1.00  0.00     0.023 C 
ENDROOT
BRANCH   1   2
ATOM      2  C   UNL A   1      32.768  29.650  25.974  1.00  0.00     0.116 C 
BRANCH   2   3
ATOM      3  N   UNL A   1      33.543  29.345  24.781  1.00  0.00    -0.351 N 
ATOM      4  C   UNL A   1      33.493  28.508  23.714  1.00  0.00     0.281 C 
ATOM      5  O   UNL A   1      34.144  28.983  22.762  1.00  0.00    -0.268 OA
ATOM      6  H   UNL A   1      34.344  29.916  24.734  1.00  0.00     0.163 HD
BRANCH   4   7
ATOM      7  C   UNL A   1      32.757  27.088  23.521  1.00  0.00     0.178 C 
ATOM      8  C   UNL A   1      31.337  27.417  23.005  1.00  0.00     0.079 C 
ATOM      9  C   UNL A   1      32.474  26.156  24.724  1.00  0.00     0.066 C 
ATOM     10  C   UNL A   1      30.421  27.393  24.225  1.00  0.00     0.008 C 
ATOM     11  C   UNL A   1      31.209  26.744  25.367  1.00  0.00     0.011 C 
BRANCH   7  12
ATOM     12  N   UNL A   1      33.535  26.349  22.468  1.00  0.00    -0.334 N 
ATOM     13  H   UNL A   1      33.993  27.052  21.888  1.00  0.00     0.347 HD
ATOM     14  H   UNL A   1      34.141  25.730  23.008  1.00  0.00     0.347 HD
BRANCH  12  15
ATOM     15  C   UNL A   1      32.837  25.438  21.562  1.00  0.00     0.257 C 
ATOM     16  C   UNL A   1      33.035  23.980  21.959  1.00  0.00     0.071 C 
ENDBRANCH  12  15
ENDBRANCH   7  12
BRANCH   9  17
ATOM     17  C   UNL A   1      33.521  25.582  25.727  1.00  0.00     0.072 C 
BRANCH  17  18
ATOM     18  C   UNL A   1      34.193  24.177  25.582  1.00  0.00     0.262 C 
BRANCH  18  19
ATOM     19  N   UNL A   1      33.776  22.949  26.276  1.00  0.00    -0.333 N 
ATOM     20  C   UNL A   1      34.546  21.724  26.061  1.00  0.00     0.278 C 
ATOM     21  C   UNL A   1      32.380  22.635  26.455  1.00  0.00     0.278 C 
ATOM     22  H   UNL A   1      34.063  23.347  27.170  1.00  0.00     0.348 HD
ATOM     23  C   UNL A   1      34.242  20.995  24.768  1.00  0.00     0.198 C 
ATOM     24  C   UNL A   1      31.720  22.181  25.187  1.00  0.00     0.198 C 
ATOM     25  S   UNL A   1      32.504  20.761  24.493  1.00  0.00     0.161 S 
ATOM     26  O   UNL A   1      32.291  20.805  23.058  1.00  0.00    -0.228 OA
ATOM     27  O   UNL A   1      32.056  19.611  25.259  1.00  0.00    -0.228 OA
ENDBRANCH  18  19
ENDBRANCH  17  18
ENDBRANCH   9  17
ENDBRANCH   4   7
ENDBRANCH   2   3
ENDBRANCH   1   2
BRANCH   1  28
ATOM     28  C   UNL A   1      31.328  31.770  26.546  1.00  0.00     0.023 C 
BRANCH  28  29
ATOM     29  C   UNL A   1      32.599  32.452  26.996  1.00  0.00     0.116 C 
BRANCH  29  30
ATOM     30  N   UNL A   1      32.386  33.814  27.447  1.00  0.00    -0.352 N 
ATOM     31  C   UNL A   1      33.027  34.493  28.454  1.00  0.00     0.251 C 
ATOM     32  H   UNL A   1      31.689  34.318  26.969  1.00  0.00     0.163 HD
ATOM     33  O   UNL A   1      32.609  35.587  28.821  1.00  0.00    -0.269 OA
BRANCH  31  34
ATOM     34  C   UNL A   1      34.216  33.898  29.101  1.00  0.00     0.039 A 
ATOM     35  C   UNL A   1      35.481  34.411  28.806  1.00  0.00     0.014 A 
ATOM     36  C   UNL A   1      34.086  32.824  29.985  1.00  0.00     0.014 A 
ATOM     37  C   UNL A   1      36.609  33.855  29.412  1.00  0.00     0.010 A 
ATOM     38  C   UNL A   1      35.191  32.357  30.680  1.00  0.00     0.010 A 
ATOM     39  C   UNL A   1      36.471  32.828  30.359  1.00  0.00    -0.014 A 
BRANCH  39  40
ATOM     40  C   UNL A   1      37.654  32.153  30.946  1.00  0.00     0.031 A 
ATOM     41  C   UNL A   1      38.106  32.533  32.332  1.00  0.00     0.074 A 
ATOM     42  C   UNL A   1      38.335  31.240  30.229  1.00  0.00     0.049 A 
ATOM     43  N   UNL A   1      39.131  32.101  33.022  1.00  0.00    -0.248 NA
ATOM     44  C   UNL A   1      37.324  33.573  33.024  1.00  0.00     0.031 C 
ATOM     45  C   UNL A   1      38.027  30.843  28.854  1.00  0.00     0.029 A 
ATOM     46  N   UNL A   1      39.427  30.481  30.559  1.00  0.00    -0.354 N 
ATOM     47  C   UNL A   1      39.126  32.833  34.203  1.00  0.00     0.074 A 
ATOM     48  C   UNL A   1      38.051  33.793  34.107  1.00  0.00     0.031 C 
ATOM     49  C   UNL A   1      38.886  29.884  28.472  1.00  0.00     0.029 A 
ATOM     50  C   UNL A   1      39.821  29.622  29.562  1.00  0.00     0.049 A 
ATOM     51  H   UNL A   1      39.886  30.545  31.427  1.00  0.00     0.167 HD
ATOM     52  C   UNL A   1      39.919  32.691  35.291  1.00  0.00     0.037 A 
ATOM     53  C   UNL A   1      40.821  28.721  29.542  1.00  0.00     0.037 A 
ATOM     54  C   UNL A   1      40.958  31.702  35.392  1.00  0.00     0.049 A 
ATOM     55  C   UNL A   1      41.667  28.556  30.777  1.00  0.00     0.074 A 
ATOM     56  C   UNL A   1      41.788  31.424  36.462  1.00  0.00     0.029 A 
ATOM     57  N   UNL A   1      41.300  30.819  34.376  1.00  0.00    -0.354 N 
ATOM     58  N   UNL A   1      41.609  29.202  31.917  1.00  0.00    -0.248 NA
ATOM     59  C   UNL A   1      42.707  27.519  30.729  1.00  0.00     0.031 C 
ATOM     60  C   UNL A   1      42.664  30.403  36.078  1.00  0.00     0.029 A 
ATOM     61  C   UNL A   1      42.339  30.002  34.792  1.00  0.00     0.049 A 
ATOM     62  H   UNL A   1      40.869  30.780  33.492  1.00  0.00     0.167 HD
ATOM     63  C   UNL A   1      42.575  28.628  32.733  1.00  0.00     0.074 A 
ATOM     64  C   UNL A   1      43.192  27.569  31.960  1.00  0.00     0.031 C 
ATOM     65  C   UNL A   1      42.924  28.947  34.005  1.00  0.00     0.037 A 
BRANCH  52  66
ATOM     66  C   UNL A   1      39.681  33.616  36.452  1.00  0.00     0.064 A 
ATOM     67  C   UNL A   1      40.270  34.889  36.518  1.00  0.00     0.173 A 
ATOM     68  C   UNL A   1      38.846  33.229  37.511  1.00  0.00     0.173 A 
ATOM     69  F   UNL A   1      41.090  35.305  35.540  1.00  0.00    -0.203 F 
ATOM     70  C   UNL A   1      40.067  35.721  37.616  1.00  0.00     0.198 A 
ATOM     71  C   UNL A   1      38.615  34.080  38.591  1.00  0.00     0.198 A 
ATOM     72  F   UNL A   1      38.253  32.026  37.503  1.00  0.00    -0.203 F 
ATOM     73  F   UNL A   1      40.696  36.902  37.685  1.00  0.00    -0.200 F 
ATOM     74  C   UNL A   1      39.234  35.318  38.648  1.00  0.00     0.200 A 
ATOM     75  F   UNL A   1      37.798  33.695  39.581  1.00  0.00    -0.200 F 
ATOM     76  F   UNL A   1      39.035  36.121  39.703  1.00  0.00    -0.200 F 
ENDBRANCH  52  66
BRANCH  53  77
ATOM     77  C   UNL A   1      41.039  27.873  28.341  1.00  0.00     0.064 A 
ATOM     78  C   UNL A   1      40.425  26.616  28.225  1.00  0.00     0.173 A 
ATOM     79  C   UNL A   1      41.861  28.293  27.286  1.00  0.00     0.173 A 
ATOM     80  F   UNL A   1      39.641  26.161  29.213  1.00  0.00    -0.203 F 
ATOM     81  C   UNL A   1      40.651  25.802  27.118  1.00  0.00     0.198 A 
ATOM     82  C   UNL A   1      42.061  27.492  26.164  1.00  0.00     0.198 A 
ATOM     83  F   UNL A   1      42.465  29.490  27.341  1.00  0.00    -0.203 F 
ATOM     84  F   UNL A   1      40.095  24.584  27.060  1.00  0.00    -0.200 F 
ATOM     85  C   UNL A   1      41.464  26.243  26.085  1.00  0.00     0.200 A 
ATOM     86  F   UNL A   1      42.835  27.928  25.160  1.00  0.00    -0.200 F 
ATOM     87  F   UNL A   1      41.680  25.461  25.018  1.00  0.00    -0.200 F 
ENDBRANCH  53  77
BRANCH  65  88
ATOM     88  C   UNL A   1      43.981  28.101  34.654  1.00  0.00     0.064 A 
ATOM     89  C   UNL A   1      43.667  26.926  35.352  1.00  0.00     0.173 A 
ATOM     90  C   UNL A   1      45.333  28.466  34.556  1.00  0.00     0.173 A 
ATOM     91  F   UNL A   1      42.388  26.539  35.483  1.00  0.00    -0.203 F 
ATOM     92  C   UNL A   1      44.662  26.171  35.967  1.00  0.00     0.198 A 
ATOM     93  C   UNL A   1      46.329  27.688  35.139  1.00  0.00     0.198 A 
ATOM     94  F   UNL A   1      45.689  29.574  33.889  1.00  0.00    -0.203 F 
ATOM     95  F   UNL A   1      44.331  25.089  36.685  1.00  0.00    -0.200 F 
ATOM     96  C   UNL A   1      45.992  26.549  35.854  1.00  0.00     0.200 A 
ATOM     97  F   UNL A   1      47.615  28.044  35.013  1.00  0.00    -0.200 F 
ATOM     98  F   UNL A   1      46.948  25.821  36.445  1.00  0.00    -0.200 F 
ENDBRANCH  65  88
ENDBRANCH  39  40
ENDBRANCH  31  34
ENDBRANCH  29  30
ENDBRANCH  28  29
ENDBRANCH   1  28
TORSDOF 16
ENDMDL
MODEL 2
REMARK VINA RESULT:     -11.7      5.004     10.809
REMARK SMILES CC[NH2+][C@@]1(C(=O)NCCCCNC(=O)c2ccc(-c3c4nc(c(-c5c(F)c(F)c(F)c(F)c5F)c5ccc([nH]5)c(-c5c(F)c(F)c(F)c(F)c5F)c5nc(c(-c6c(F)c(F)c(F)c(F)c6F)c6ccc3[nH]6)C=C5)C=C4)cc2)CCC[C@@H]1CC[NH+]1CCS(=O)(=O)CC1
REMARK SMILES IDX 9 1 8 2 7 3 5 4 6 5 4 7 78 8 81 9 79 10 80 11 3 12 2 15 1 16
REMARK SMILES IDX 82 17 83 18 84 19 85 20 91 21 86 23 90 24 87 25 88 26 89 27
REMARK SMILES IDX 10 28 11 29 12 30 13 31 14 33 15 34 16 35 77 36 17 37 76 38
REMARK SMILES IDX 18 39 19 40 20 41 70 42 21 43 75 44 69 45 71 46 22 47 74 48
REMARK SMILES IDX 68 49 67 50 23 52 55 53 35 54 54 55 36 56 39 57 53 58 72 59
REMARK SMILES IDX 37 60 38 61 52 63 73 64 40 65 24 66 25 67 33 68 26 69 27 70
REMARK SMILES IDX 31 71 34 72 28 73 29 74 32 75 30 76 56 77 57 78 65 79 58 80
REMARK SMILES IDX 59 81 63 82 66 83 60 84 61 85 64 86 62 87 41 88 42 89 50 90
REMARK SMILES IDX 43 91 44 92 48 93 51 94 45 95 46 96 49 97 47 98
REMARK H PARENT 7 6 3 13 3 14 84 22 12 32 71 51 39 62
REMARK Flexibility Score: inf
ROOT
ATOM      1  C   UNL A   1      36.731  20.646  24.625  1.00  0.00     0.023 C 
ENDROOT
BRANCH   1   2
ATOM      2  C   UNL A   1      36.601  21.937  25.442  1.00  0.00     0.116 C 
BRANCH   2   3
ATOM      3  N   UNL A   1      35.682  21.918  26.571  1.00  0.00    -0.351 N 
ATOM      4  C   UNL A   1      34.346  21.962  26.805  1.00  0.00     0.281 C 
ATOM      5  O   UNL A   1      34.085  21.441  27.908  1.00  0.00    -0.268 OA
ATOM      6  H   UNL A   1      36.179  21.856  27.418  1.00  0.00     0.163 HD
BRANCH   4   7
ATOM      7  C   UNL A   1      33.139  22.548  25.916  1.00  0.00     0.178 C 
ATOM      8  C   UNL A   1      32.436  21.318  25.297  1.00  0.00     0.079 C 
ATOM      9  C   UNL A   1      33.407  23.443  24.681  1.00  0.00     0.066 C 
ATOM     10  C   UNL A   1      33.004  21.161  23.889  1.00  0.00     0.008 C 
ATOM     11  C   UNL A   1      33.767  22.450  23.567  1.00  0.00     0.011 C 
BRANCH   7  12
ATOM     12  N   UNL A   1      32.214  23.251  26.870  1.00  0.00    -0.334 N 
ATOM     13  H   UNL A   1      32.027  22.602  27.635  1.00  0.00     0.347 HD
ATOM     14  H   UNL A   1      32.716  24.108  27.104  1.00  0.00     0.347 HD
BRANCH  12  15
ATOM     15  C   UNL A   1      30.918  23.733  26.396  1.00  0.00     0.257 C 
ATOM     16  C   UNL A   1      29.760  22.985  27.049  1.00  0.00     0.071 C 
ENDBRANCH  12  15
ENDBRANCH   7  12
BRANCH   9  17
ATOM     17  C   UNL A   1      34.201  24.785  24.655  1.00  0.00     0.072 C 
BRANCH  17  18
ATOM     18  C   UNL A   1      33.680  26.096  23.979  1.00  0.00     0.262 C 
BRANCH  18  19
ATOM     19  N   UNL A   1      33.113  27.257  24.680  1.00  0.00    -0.333 N 
ATOM     20  C   UNL A   1      31.790  27.132  25.292  1.00  0.00     0.278 C 
ATOM     21  C   UNL A   1      33.303  28.595  24.175  1.00  0.00     0.278 C 
ATOM     22  H   UNL A   1      33.810  27.164  25.418  1.00  0.00     0.348 HD
ATOM     23  C   UNL A   1      30.625  27.249  24.330  1.00  0.00     0.198 C 
ATOM     24  C   UNL A   1      32.471  28.881  22.960  1.00  0.00     0.198 C 
ATOM     25  S   UNL A   1      30.746  28.661  23.261  1.00  0.00     0.161 S 
ATOM     26  O   UNL A   1      30.129  28.293  22.000  1.00  0.00    -0.228 OA
ATOM     27  O   UNL A   1      30.286  29.837  23.978  1.00  0.00    -0.228 OA
ENDBRANCH  18  19
ENDBRANCH  17  18
ENDBRANCH   9  17
ENDBRANCH   4   7
ENDBRANCH   2   3
ENDBRANCH   1   2
BRANCH   1  28
ATOM     28  C   UNL A   1      37.816  19.648  25.021  1.00  0.00     0.023 C 
BRANCH  28  29
ATOM     29  C   UNL A   1      39.028  20.199  25.737  1.00  0.00     0.116 C 
BRANCH  29  30
ATOM     30  N   UNL A   1      40.105  19.236  25.857  1.00  0.00    -0.352 N 
ATOM     31  C   UNL A   1      41.439  19.467  26.084  1.00  0.00     0.251 C 
ATOM     32  H   UNL A   1      39.845  18.291  25.763  1.00  0.00     0.163 HD
ATOM     33  O   UNL A   1      42.248  18.548  25.989  1.00  0.00    -0.269 OA
BRANCH  31  34
ATOM     34  C   UNL A   1      41.901  20.828  26.434  1.00  0.00     0.039 A 
ATOM     35  C   UNL A   1      42.194  21.128  27.766  1.00  0.00     0.014 A 
ATOM     36  C   UNL A   1      42.029  21.813  25.451  1.00  0.00     0.014 A 
ATOM     37  C   UNL A   1      42.629  22.410  28.105  1.00  0.00     0.010 A 
ATOM     38  C   UNL A   1      42.580  23.045  25.768  1.00  0.00     0.010 A 
ATOM     39  C   UNL A   1      42.832  23.376  27.106  1.00  0.00    -0.014 A 
BRANCH  39  40
ATOM     40  C   UNL A   1      43.200  24.772  27.444  1.00  0.00     0.031 A 
ATOM     41  C   UNL A   1      44.605  25.248  27.179  1.00  0.00     0.074 A 
ATOM     42  C   UNL A   1      42.296  25.588  28.018  1.00  0.00     0.049 A 
ATOM     43  N   UNL A   1      45.152  26.410  27.430  1.00  0.00    -0.248 NA
ATOM     44  C   UNL A   1      45.536  24.271  26.588  1.00  0.00     0.031 C 
ATOM     45  C   UNL A   1      40.928  25.214  28.381  1.00  0.00     0.029 A 
ATOM     46  N   UNL A   1      42.394  26.902  28.395  1.00  0.00    -0.354 N 
ATOM     47  C   UNL A   1      46.484  26.289  27.054  1.00  0.00     0.074 A 
ATOM     48  C   UNL A   1      46.688  24.921  26.637  1.00  0.00     0.031 C 
ATOM     49  C   UNL A   1      40.302  26.286  28.892  1.00  0.00     0.029 A 
ATOM     50  C   UNL A   1      41.232  27.411  28.921  1.00  0.00     0.049 A 
ATOM     51  H   UNL A   1      43.219  27.431  28.299  1.00  0.00     0.167 HD
ATOM     52  C   UNL A   1      47.445  27.242  27.020  1.00  0.00     0.037 A 
ATOM     53  C   UNL A   1      40.954  28.652  29.365  1.00  0.00     0.037 A 
ATOM     54  C   UNL A   1      47.219  28.611  27.396  1.00  0.00     0.049 A 
ATOM     55  C   UNL A   1      42.028  29.704  29.283  1.00  0.00     0.074 A 
ATOM     56  C   UNL A   1      48.096  29.678  27.350  1.00  0.00     0.029 A 
ATOM     57  N   UNL A   1      46.014  29.100  27.884  1.00  0.00    -0.354 N 
ATOM     58  N   UNL A   1      43.265  29.598  28.859  1.00  0.00    -0.248 NA
ATOM     59  C   UNL A   1      41.660  31.056  29.724  1.00  0.00     0.031 C 
ATOM     60  C   UNL A   1      47.437  30.804  27.853  1.00  0.00     0.029 A 
ATOM     61  C   UNL A   1      46.130  30.454  28.154  1.00  0.00     0.049 A 
ATOM     62  H   UNL A   1      45.200  28.564  28.019  1.00  0.00     0.167 HD
ATOM     63  C   UNL A   1      43.810  30.872  28.945  1.00  0.00     0.074 A 
ATOM     64  C   UNL A   1      42.761  31.737  29.447  1.00  0.00     0.031 C 
ATOM     65  C   UNL A   1      45.064  31.292  28.640  1.00  0.00     0.037 A 
BRANCH  52  66
ATOM     66  C   UNL A   1      48.813  26.834  26.548  1.00  0.00     0.064 A 
ATOM     67  C   UNL A   1      49.774  26.306  27.427  1.00  0.00     0.173 A 
ATOM     68  C   UNL A   1      49.170  26.965  25.197  1.00  0.00     0.173 A 
ATOM     69  F   UNL A   1      49.493  26.173  28.732  1.00  0.00    -0.203 F 
ATOM     70  C   UNL A   1      51.047  25.965  26.981  1.00  0.00     0.198 A 
ATOM     71  C   UNL A   1      50.433  26.588  24.747  1.00  0.00     0.198 A 
ATOM     72  F   UNL A   1      48.294  27.461  24.310  1.00  0.00    -0.203 F 
ATOM     73  F   UNL A   1      51.966  25.529  27.854  1.00  0.00    -0.200 F 
ATOM     74  C   UNL A   1      51.374  26.100  25.641  1.00  0.00     0.200 A 
ATOM     75  F   UNL A   1      50.743  26.705  23.449  1.00  0.00    -0.200 F 
ATOM     76  F   UNL A   1      52.600  25.767  25.211  1.00  0.00    -0.200 F 
ENDBRANCH  52  66
BRANCH  53  77
ATOM     77  C   UNL A   1      39.595  28.977  29.870  1.00  0.00     0.064 A 
ATOM     78  C   UNL A   1      38.621  29.522  29.020  1.00  0.00     0.173 A 
ATOM     79  C   UNL A   1      39.237  28.754  31.208  1.00  0.00     0.173 A 
ATOM     80  F   UNL A   1      38.917  29.769  27.736  1.00  0.00    -0.203 F 
ATOM     81  C   UNL A   1      37.356  29.860  29.495  1.00  0.00     0.198 A 
ATOM     82  C   UNL A   1      37.961  29.062  31.674  1.00  0.00     0.198 A 
ATOM     83  F   UNL A   1      40.127  28.226  32.062  1.00  0.00    -0.203 F 
ATOM     84  F   UNL A   1      36.464  30.430  28.673  1.00  0.00    -0.200 F 
ATOM     85  C   UNL A   1      37.024  29.624  30.820  1.00  0.00     0.200 A 
ATOM     86  F   UNL A   1      37.639  28.818  32.953  1.00  0.00    -0.200 F 
ATOM     87  F   UNL A   1      35.806  29.948  31.277  1.00  0.00    -0.200 F 
ENDBRANCH  53  77
BRANCH  65  88
ATOM     88  C   UNL A   1      45.347  32.759  28.787  1.00  0.00     0.064 A 
ATOM     89  C   UNL A   1      45.901  33.294  29.959  1.00  0.00     0.173 A 
ATOM     90  C   UNL A   1      45.075  33.639  27.727  1.00  0.00     0.173 A 
ATOM     91  F   UNL A   1      46.169  32.497  31.005  1.00  0.00    -0.203 F 
ATOM     92  C   UNL A   1      46.131  34.662  30.081  1.00  0.00     0.198 A 
ATOM     93  C   UNL A   1      45.342  34.999  27.839  1.00  0.00     0.198 A 
ATOM     94  F   UNL A   1      44.556  33.176  26.580  1.00  0.00    -0.203 F 
ATOM     95  F   UNL A   1      46.598  35.159  31.235  1.00  0.00    -0.200 F 
ATOM     96  C   UNL A   1      45.858  35.511  29.020  1.00  0.00     0.200 A 
ATOM     97  F   UNL A   1      45.096  35.816  26.806  1.00  0.00    -0.200 F 
ATOM     98  F   UNL A   1      46.081  36.827  29.139  1.00  0.00    -0.200 F 
ENDBRANCH  65  88
ENDBRANCH  39  40
ENDBRANCH  31  34
ENDBRANCH  29  30
ENDBRANCH  28  29
ENDBRANCH   1  28
TORSDOF 16
ENDMDL
MODEL 3
REMARK VINA RESULT:     -11.7      0.547      1.692
REMARK SMILES CC[NH2+][C@@]1(C(=O)NCCCCNC(=O)c2ccc(-c3c4nc(c(-c5c(F)c(F)c(F)c(F)c5F)c5ccc([nH]5)c(-c5c(F)c(F)c(F)c(F)c5F)c5nc(c(-c6c(F)c(F)c(F)c(F)c6F)c6ccc3[nH]6)C=C5)C=C4)cc2)CCC[C@@H]1CC[NH+]1CCS(=O)(=O)CC1
REMARK SMILES IDX 9 1 8 2 7 3 5 4 6 5 4 7 78 8 81 9 79 10 80 11 3 12 2 15 1 16
REMARK SMILES IDX 82 17 83 18 84 19 85 20 91 21 86 23 90 24 87 25 88 26 89 27
REMARK SMILES IDX 10 28 11 29 12 30 13 31 14 33 15 34 16 35 77 36 17 37 76 38
REMARK SMILES IDX 18 39 19 40 20 41 70 42 21 43 75 44 69 45 71 46 22 47 74 48
REMARK SMILES IDX 68 49 67 50 23 52 55 53 35 54 54 55 36 56 39 57 53 58 72 59
REMARK SMILES IDX 37 60 38 61 52 63 73 64 40 65 24 66 25 67 33 68 26 69 27 70
REMARK SMILES IDX 31 71 34 72 28 73 29 74 32 75 30 76 56 77 57 78 65 79 58 80
REMARK SMILES IDX 59 81 63 82 66 83 60 84 61 85 64 86 62 87 41 88 42 89 50 90
REMARK SMILES IDX 43 91 44 92 48 93 51 94 45 95 46 96 49 97 47 98
REMARK H PARENT 7 6 3 13 3 14 84 22 12 32 71 51 39 62
REMARK Flexibility Score: inf
ROOT
ATOM      1  C   UNL A   1      31.507  30.540  25.695  1.00  0.00     0.023 C 
ENDROOT
BRANCH   1   2
ATOM      2  C   UNL A   1      32.717  29.624  25.919  1.00  0.00     0.116 C 
BRANCH   2   3
ATOM      3  N   UNL A   1      33.503  29.263  24.748  1.00  0.00    -0.351 N 
ATOM      4  C   UNL A   1      33.411  28.451  23.665  1.00  0.00     0.281 C 
ATOM      5  O   UNL A   1      34.140  28.876  22.746  1.00  0.00    -0.268 OA
ATOM      6  H   UNL A   1      34.356  29.754  24.741  1.00  0.00     0.163 HD
BRANCH   4   7
ATOM      7  C   UNL A   1      32.549  27.113  23.419  1.00  0.00     0.178 C 
ATOM      8  C   UNL A   1      31.381  27.529  22.496  1.00  0.00     0.079 C 
ATOM      9  C   UNL A   1      31.824  26.396  24.583  1.00  0.00     0.066 C 
ATOM     10  C   UNL A   1      30.182  27.780  23.407  1.00  0.00     0.008 C 
ATOM     11  C   UNL A   1      30.537  27.208  24.784  1.00  0.00     0.011 C 
BRANCH   7  12
ATOM     12  N   UNL A   1      33.458  26.151  22.707  1.00  0.00    -0.334 N 
ATOM     13  H   UNL A   1      34.205  26.703  22.285  1.00  0.00     0.347 HD
ATOM     14  H   UNL A   1      33.727  25.490  23.437  1.00  0.00     0.347 HD
BRANCH  12  15
ATOM     15  C   UNL A   1      32.917  25.294  21.653  1.00  0.00     0.257 C 
ATOM     16  C   UNL A   1      33.172  23.817  21.935  1.00  0.00     0.071 C 
ENDBRANCH  12  15
ENDBRANCH   7  12
BRANCH   9  17
ATOM     17  C   UNL A   1      32.472  25.849  25.892  1.00  0.00     0.072 C 
BRANCH  17  18
ATOM     18  C   UNL A   1      33.113  24.428  26.023  1.00  0.00     0.262 C 
BRANCH  18  19
ATOM     19  N   UNL A   1      32.424  23.214  26.486  1.00  0.00    -0.333 N 
ATOM     20  C   UNL A   1      33.062  22.392  27.515  1.00  0.00     0.278 C 
ATOM     21  C   UNL A   1      31.691  22.379  25.566  1.00  0.00     0.278 C 
ATOM     22  H   UNL A   1      31.708  23.782  26.938  1.00  0.00     0.348 HD
ATOM     23  C   UNL A   1      34.160  21.476  27.013  1.00  0.00     0.198 C 
ATOM     24  C   UNL A   1      32.587  21.571  24.676  1.00  0.00     0.198 C 
ATOM     25  S   UNL A   1      33.680  20.530  25.590  1.00  0.00     0.161 S 
ATOM     26  O   UNL A   1      34.872  20.338  24.786  1.00  0.00    -0.228 OA
ATOM     27  O   UNL A   1      32.906  19.381  26.027  1.00  0.00    -0.228 OA
ENDBRANCH  18  19
ENDBRANCH  17  18
ENDBRANCH   9  17
ENDBRANCH   4   7
ENDBRANCH   2   3
ENDBRANCH   1   2
BRANCH   1  28
ATOM     28  C   UNL A   1      31.372  31.784  26.569  1.00  0.00     0.023 C 
BRANCH  28  29
ATOM     29  C   UNL A   1      32.649  32.498  26.949  1.00  0.00     0.116 C 
BRANCH  29  30
ATOM     30  N   UNL A   1      32.424  33.847  27.433  1.00  0.00    -0.352 N 
ATOM     31  C   UNL A   1      33.051  34.503  28.462  1.00  0.00     0.251 C 
ATOM     32  H   UNL A   1      31.729  34.360  26.960  1.00  0.00     0.163 HD
ATOM     33  O   UNL A   1      32.624  35.586  28.853  1.00  0.00    -0.269 OA
BRANCH  31  34
ATOM     34  C   UNL A   1      34.237  33.898  29.106  1.00  0.00     0.039 A 
ATOM     35  C   UNL A   1      35.506  34.402  28.810  1.00  0.00     0.014 A 
ATOM     36  C   UNL A   1      34.100  32.824  29.989  1.00  0.00     0.014 A 
ATOM     37  C   UNL A   1      36.630  33.836  29.413  1.00  0.00     0.010 A 
ATOM     38  C   UNL A   1      35.203  32.346  30.681  1.00  0.00     0.010 A 
ATOM     39  C   UNL A   1      36.486  32.808  30.358  1.00  0.00    -0.014 A 
BRANCH  39  40
ATOM     40  C   UNL A   1      37.664  32.123  30.941  1.00  0.00     0.031 A 
ATOM     41  C   UNL A   1      38.115  32.488  32.332  1.00  0.00     0.074 A 
ATOM     42  C   UNL A   1      38.343  31.214  30.217  1.00  0.00     0.049 A 
ATOM     43  N   UNL A   1      39.137  32.046  33.020  1.00  0.00    -0.248 NA
ATOM     44  C   UNL A   1      37.335  33.525  33.032  1.00  0.00     0.031 C 
ATOM     45  C   UNL A   1      38.037  30.830  28.838  1.00  0.00     0.029 A 
ATOM     46  N   UNL A   1      39.432  30.447  30.543  1.00  0.00    -0.354 N 
ATOM     47  C   UNL A   1      39.132  32.766  34.208  1.00  0.00     0.074 A 
ATOM     48  C   UNL A   1      38.061  33.731  34.118  1.00  0.00     0.031 C 
ATOM     49  C   UNL A   1      38.893  29.871  28.450  1.00  0.00     0.029 A 
ATOM     50  C   UNL A   1      39.824  29.596  29.539  1.00  0.00     0.049 A 
ATOM     51  H   UNL A   1      39.889  30.501  31.413  1.00  0.00     0.167 HD
ATOM     52  C   UNL A   1      39.922  32.611  35.296  1.00  0.00     0.037 A 
ATOM     53  C   UNL A   1      40.821  28.691  29.513  1.00  0.00     0.037 A 
ATOM     54  C   UNL A   1      40.956  31.616  35.391  1.00  0.00     0.049 A 
ATOM     55  C   UNL A   1      41.663  28.511  30.748  1.00  0.00     0.074 A 
ATOM     56  C   UNL A   1      41.783  31.325  36.460  1.00  0.00     0.029 A 
ATOM     57  N   UNL A   1      41.298  30.742  34.367  1.00  0.00    -0.354 N 
ATOM     58  N   UNL A   1      41.605  29.147  31.894  1.00  0.00    -0.248 NA
ATOM     59  C   UNL A   1      42.699  27.470  30.693  1.00  0.00     0.031 C 
ATOM     60  C   UNL A   1      42.656  30.305  36.069  1.00  0.00     0.029 A 
ATOM     61  C   UNL A   1      42.332  29.917  34.778  1.00  0.00     0.049 A 
ATOM     62  H   UNL A   1      40.869  30.713  33.482  1.00  0.00     0.167 HD
ATOM     63  C   UNL A   1      42.567  28.561  32.707  1.00  0.00     0.074 A 
ATOM     64  C   UNL A   1      43.181  27.507  31.926  1.00  0.00     0.031 C 
ATOM     65  C   UNL A   1      42.914  28.866  33.983  1.00  0.00     0.037 A 
BRANCH  52  66
ATOM     66  C   UNL A   1      39.684  33.526  36.465  1.00  0.00     0.064 A 
ATOM     67  C   UNL A   1      38.848  33.161  37.534  1.00  0.00     0.173 A 
ATOM     68  C   UNL A   1      40.305  34.783  36.525  1.00  0.00     0.173 A 
ATOM     69  F   UNL A   1      38.216  31.977  37.523  1.00  0.00    -0.203 F 
ATOM     70  C   UNL A   1      38.610  34.034  38.592  1.00  0.00     0.198 A 
ATOM     71  C   UNL A   1      40.095  35.638  37.604  1.00  0.00     0.198 A 
ATOM     72  F   UNL A   1      41.117  35.185  35.535  1.00  0.00    -0.203 F 
ATOM     73  F   UNL A   1      37.754  33.688  39.563  1.00  0.00    -0.200 F 
ATOM     74  C   UNL A   1      39.239  35.268  38.630  1.00  0.00     0.200 A 
ATOM     75  F   UNL A   1      40.715  36.825  37.646  1.00  0.00    -0.200 F 
ATOM     76  F   UNL A   1      39.014  36.106  39.652  1.00  0.00    -0.200 F 
ENDBRANCH  52  66
BRANCH  53  77
ATOM     77  C   UNL A   1      41.038  27.853  28.305  1.00  0.00     0.064 A 
ATOM     78  C   UNL A   1      40.447  26.585  28.190  1.00  0.00     0.173 A 
ATOM     79  C   UNL A   1      41.838  28.294  27.241  1.00  0.00     0.173 A 
ATOM     80  F   UNL A   1      39.684  26.111  29.186  1.00  0.00    -0.203 F 
ATOM     81  C   UNL A   1      40.672  25.782  27.076  1.00  0.00     0.198 A 
ATOM     82  C   UNL A   1      42.037  27.502  26.112  1.00  0.00     0.198 A 
ATOM     83  F   UNL A   1      42.420  29.502  27.294  1.00  0.00    -0.203 F 
ATOM     84  F   UNL A   1      40.139  24.554  27.019  1.00  0.00    -0.200 F 
ATOM     85  C   UNL A   1      41.463  26.243  26.034  1.00  0.00     0.200 A 
ATOM     86  F   UNL A   1      42.789  27.958  25.099  1.00  0.00    -0.200 F 
ATOM     87  F   UNL A   1      41.678  25.470  24.960  1.00  0.00    -0.200 F 
ENDBRANCH  53  77
BRANCH  65  88
ATOM     88  C   UNL A   1      43.967  28.010  34.626  1.00  0.00     0.064 A 
ATOM     89  C   UNL A   1      45.321  28.369  34.620  1.00  0.00     0.173 A 
ATOM     90  C   UNL A   1      43.605  26.820  35.277  1.00  0.00     0.173 A 
ATOM     91  F   UNL A   1      45.720  29.492  34.002  1.00  0.00    -0.203 F 
ATOM     92  C   UNL A   1      46.282  27.547  35.202  1.00  0.00     0.198 A 
ATOM     93  C   UNL A   1      44.563  26.020  35.892  1.00  0.00     0.198 A 
ATOM     94  F   UNL A   1      42.320  26.437  35.324  1.00  0.00    -0.203 F 
ATOM     95  F   UNL A   1      47.579  27.877  35.124  1.00  0.00    -0.200 F 
ATOM     96  C   UNL A   1      45.901  26.377  35.843  1.00  0.00     0.200 A 
ATOM     97  F   UNL A   1      44.191  24.900  36.527  1.00  0.00    -0.200 F 
ATOM     98  F   UNL A   1      46.827  25.587  36.403  1.00  0.00    -0.200 F 
ENDBRANCH  65  88
ENDBRANCH  39  40
ENDBRANCH  31  34
ENDBRANCH  29  30
ENDBRANCH  28  29
ENDBRANCH   1  28
TORSDOF 16
ENDMDL
