MODEL 1
REMARK VINA RESULT:     -11.9      0.000      0.000
REMARK SMILES O=C(CN(CC(=O)NCc1ccccc1)c1ccccc1)NCCCCNC(=O)c1ccc(-c2c3nc(c(-c4c(F)c(F)c(F)c(F)c4F)c4ccc([nH]4)c(-c4c(F)c(F)c(F)c(F)c4F)c4nc(c(-c5c(F)c(F)c(F)c(F)c5F)c5ccc2[nH]5)C=C4)C=C3)cc1
REMARK SMILES IDX 23 1 22 2 1 3 2 4 3 6 4 7 5 8 6 9 7 10 8 11 9 13 10 14 11 15
REMARK SMILES IDX 15 16 12 17 14 18 13 19 16 20 17 21 21 22 18 23 20 24 19 25
REMARK SMILES IDX 24 26 25 27 26 28 27 29 28 30 29 32 30 33 31 34 92 35 32 36
REMARK SMILES IDX 91 37 33 38 34 39 35 40 85 41 36 42 90 43 84 44 86 45 37 46
REMARK SMILES IDX 89 47 83 48 82 49 38 51 70 52 50 53 69 54 51 55 54 56 68 57
REMARK SMILES IDX 87 58 52 59 53 60 67 62 88 63 55 64 39 65 40 66 48 67 41 68
REMARK SMILES IDX 42 69 46 70 49 71 43 72 44 73 47 74 45 75 71 76 72 77 80 78
REMARK SMILES IDX 73 79 74 80 78 81 81 82 75 83 76 84 79 85 77 86 56 87 57 88
REMARK SMILES IDX 65 89 58 90 59 91 63 92 66 93 60 94 61 95 64 96 62 97
REMARK H PARENT 22 5 8 12 27 31 86 50 54 61
REMARK Flexibility Score: inf
ROOT
ATOM      1  C   UNL A   1      33.092  30.177  26.400  1.00  0.00     0.116 C 
ENDROOT
BRANCH   1   2
ATOM      2  N   UNL A   1      33.549  29.348  25.301  1.00  0.00    -0.355 N 
ATOM      3  O   UNL A   1      33.002  27.370  26.316  1.00  0.00    -0.273 OA
ATOM      4  C   UNL A   1      33.370  27.982  25.313  1.00  0.00     0.239 C 
ATOM      5  H   UNL A   1      33.993  29.771  24.531  1.00  0.00     0.163 HD
BRANCH   4   6
ATOM      6  C   UNL A   1      33.703  27.247  24.011  1.00  0.00     0.217 C 
BRANCH   6   7
ATOM      7  N   UNL A   1      33.336  25.806  23.936  1.00  0.00    -0.353 N 
BRANCH   7   8
ATOM      8  C   UNL A   1      31.988  25.488  23.397  1.00  0.00     0.217 C 
BRANCH   8   9
ATOM      9  C   UNL A   1      30.823  25.369  24.393  1.00  0.00     0.239 C 
ATOM     10  O   UNL A   1      30.144  26.363  24.681  1.00  0.00    -0.273 OA
ATOM     11  N   UNL A   1      30.453  24.194  24.968  1.00  0.00    -0.350 N 
ATOM     12  H   UNL A   1      29.763  24.273  25.666  1.00  0.00     0.163 HD
BRANCH  11  13
ATOM     13  C   UNL A   1      30.908  22.848  24.718  1.00  0.00     0.151 C 
BRANCH  13  14
ATOM     14  C   UNL A   1      32.002  22.364  25.636  1.00  0.00    -0.029 A 
ATOM     15  C   UNL A   1      32.779  21.227  25.378  1.00  0.00     0.005 A 
ATOM     16  C   UNL A   1      32.230  23.064  26.833  1.00  0.00     0.005 A 
ATOM     17  C   UNL A   1      33.747  20.796  26.290  1.00  0.00     0.000 A 
ATOM     18  C   UNL A   1      33.202  22.638  27.741  1.00  0.00     0.000 A 
ATOM     19  C   UNL A   1      33.958  21.501  27.470  1.00  0.00     0.000 A 
ENDBRANCH  13  14
ENDBRANCH  11  13
ENDBRANCH   8   9
ENDBRANCH   7   8
BRANCH   7  20
ATOM     20  C   UNL A   1      34.311  24.827  24.142  1.00  0.00     0.038 A 
ATOM     21  C   UNL A   1      35.126  24.781  25.285  1.00  0.00     0.026 A 
ATOM     22  C   UNL A   1      34.544  23.797  23.212  1.00  0.00     0.026 A 
ATOM     23  C   UNL A   1      36.064  23.762  25.514  1.00  0.00     0.002 A 
ATOM     24  C   UNL A   1      35.509  22.797  23.406  1.00  0.00     0.002 A 
ATOM     25  C   UNL A   1      36.261  22.769  24.568  1.00  0.00     0.000 A 
ENDBRANCH   7  20
ENDBRANCH   6   7
ENDBRANCH   4   6
ENDBRANCH   1   2
BRANCH   1  26
ATOM     26  C   UNL A   1      31.655  30.666  26.242  1.00  0.00     0.023 C 
BRANCH  26  27
ATOM     27  C   UNL A   1      31.429  32.131  26.613  1.00  0.00     0.023 C 
BRANCH  27  28
ATOM     28  C   UNL A   1      32.618  32.836  27.256  1.00  0.00     0.116 C 
BRANCH  28  29
ATOM     29  N   UNL A   1      32.340  34.215  27.627  1.00  0.00    -0.352 N 
ATOM     30  C   UNL A   1      32.943  35.004  28.575  1.00  0.00     0.251 C 
ATOM     31  H   UNL A   1      31.611  34.646  27.123  1.00  0.00     0.163 HD
ATOM     32  O   UNL A   1      32.485  36.115  28.835  1.00  0.00    -0.269 OA
BRANCH  30  33
ATOM     33  C   UNL A   1      34.125  34.510  29.317  1.00  0.00     0.039 A 
ATOM     34  C   UNL A   1      33.935  33.917  30.568  1.00  0.00     0.014 A 
ATOM     35  C   UNL A   1      35.414  34.623  28.788  1.00  0.00     0.014 A 
ATOM     36  C   UNL A   1      35.025  33.369  31.251  1.00  0.00     0.010 A 
ATOM     37  C   UNL A   1      36.485  34.007  29.431  1.00  0.00     0.010 A 
ATOM     38  C   UNL A   1      36.302  33.371  30.668  1.00  0.00    -0.014 A 
BRANCH  38  39
ATOM     39  C   UNL A   1      37.452  32.701  31.331  1.00  0.00     0.031 A 
ATOM     40  C   UNL A   1      38.146  31.545  30.665  1.00  0.00     0.074 A 
ATOM     41  C   UNL A   1      37.834  33.093  32.563  1.00  0.00     0.049 A 
ATOM     42  N   UNL A   1      39.120  30.792  31.115  1.00  0.00    -0.248 NA
ATOM     43  C   UNL A   1      37.666  31.168  29.328  1.00  0.00     0.031 C 
ATOM     44  C   UNL A   1      37.216  34.171  33.336  1.00  0.00     0.029 A 
ATOM     45  N   UNL A   1      38.827  32.622  33.387  1.00  0.00    -0.354 N 
ATOM     46  C   UNL A   1      39.360  29.852  30.121  1.00  0.00     0.074 A 
ATOM     47  C   UNL A   1      38.393  30.090  29.072  1.00  0.00     0.031 C 
ATOM     48  C   UNL A   1      37.855  34.294  34.510  1.00  0.00     0.029 A 
ATOM     49  C   UNL A   1      38.899  33.277  34.593  1.00  0.00     0.049 A 
ATOM     50  H   UNL A   1      39.430  31.886  33.138  1.00  0.00     0.167 HD
ATOM     51  C   UNL A   1      40.317  28.893  30.076  1.00  0.00     0.037 A 
ATOM     52  C   UNL A   1      39.706  33.073  35.652  1.00  0.00     0.037 A 
ATOM     53  C   UNL A   1      41.287  28.665  31.116  1.00  0.00     0.049 A 
ATOM     54  C   UNL A   1      40.744  31.984  35.587  1.00  0.00     0.074 A 
ATOM     55  C   UNL A   1      42.325  27.751  31.142  1.00  0.00     0.029 A 
ATOM     56  N   UNL A   1      41.333  29.355  32.319  1.00  0.00    -0.354 N 
ATOM     57  N   UNL A   1      41.005  31.145  34.615  1.00  0.00    -0.248 NA
ATOM     58  C   UNL A   1      41.605  31.819  36.768  1.00  0.00     0.031 C 
ATOM     59  C   UNL A   1      42.965  27.849  32.382  1.00  0.00     0.029 A 
ATOM     60  C   UNL A   1      42.366  28.868  33.104  1.00  0.00     0.049 A 
ATOM     61  H   UNL A   1      40.722  30.083  32.577  1.00  0.00     0.167 HD
ATOM     62  C   UNL A   1      42.076  30.376  35.051  1.00  0.00     0.074 A 
ATOM     63  C   UNL A   1      42.427  30.860  36.369  1.00  0.00     0.031 C 
ATOM     64  C   UNL A   1      42.711  29.362  34.414  1.00  0.00     0.037 A 
BRANCH  51  65
ATOM     65  C   UNL A   1      40.363  28.015  28.857  1.00  0.00     0.064 A 
ATOM     66  C   UNL A   1      41.117  28.365  27.725  1.00  0.00     0.173 A 
ATOM     67  C   UNL A   1      39.678  26.791  28.833  1.00  0.00     0.173 A 
ATOM     68  F   UNL A   1      41.785  29.528  27.692  1.00  0.00    -0.203 F 
ATOM     69  C   UNL A   1      41.156  27.539  26.605  1.00  0.00     0.198 A 
ATOM     70  C   UNL A   1      39.747  25.951  27.724  1.00  0.00     0.198 A 
ATOM     71  F   UNL A   1      38.948  26.402  29.890  1.00  0.00    -0.203 F 
ATOM     72  F   UNL A   1      41.839  27.920  25.517  1.00  0.00    -0.200 F 
ATOM     73  C   UNL A   1      40.478  26.330  26.608  1.00  0.00     0.200 A 
ATOM     74  F   UNL A   1      39.104  24.775  27.736  1.00  0.00    -0.200 F 
ATOM     75  F   UNL A   1      40.523  25.531  25.533  1.00  0.00    -0.200 F 
ENDBRANCH  51  65
BRANCH  52  76
ATOM     76  C   UNL A   1      39.575  33.927  36.862  1.00  0.00     0.064 A 
ATOM     77  C   UNL A   1      38.791  33.521  37.952  1.00  0.00     0.173 A 
ATOM     78  C   UNL A   1      40.222  35.169  36.954  1.00  0.00     0.173 A 
ATOM     79  F   UNL A   1      38.135  32.353  37.905  1.00  0.00    -0.203 F 
ATOM     80  C   UNL A   1      38.640  34.334  39.074  1.00  0.00     0.198 A 
ATOM     81  C   UNL A   1      40.096  35.966  38.089  1.00  0.00     0.198 A 
ATOM     82  F   UNL A   1      40.988  35.603  35.942  1.00  0.00    -0.203 F 
ATOM     83  F   UNL A   1      37.842  33.943  40.078  1.00  0.00    -0.200 F 
ATOM     84  C   UNL A   1      39.297  35.553  39.144  1.00  0.00     0.200 A 
ATOM     85  F   UNL A   1      40.746  37.135  38.159  1.00  0.00    -0.200 F 
ATOM     86  F   UNL A   1      39.154  36.332  40.224  1.00  0.00    -0.200 F 
ENDBRANCH  52  76
BRANCH  64  87
ATOM     87  C   UNL A   1      43.879  28.729  35.116  1.00  0.00     0.064 A 
ATOM     88  C   UNL A   1      43.725  27.611  35.949  1.00  0.00     0.173 A 
ATOM     89  C   UNL A   1      45.177  29.226  34.921  1.00  0.00     0.173 A 
ATOM     90  F   UNL A   1      42.505  27.105  36.181  1.00  0.00    -0.203 F 
ATOM     91  C   UNL A   1      44.823  27.033  36.582  1.00  0.00     0.198 A 
ATOM     92  C   UNL A   1      46.276  28.624  35.527  1.00  0.00     0.198 A 
ATOM     93  F   UNL A   1      45.382  30.289  34.128  1.00  0.00    -0.203 F 
ATOM     94  F   UNL A   1      44.645  25.997  37.415  1.00  0.00    -0.200 F 
ATOM     95  C   UNL A   1      46.097  27.534  36.364  1.00  0.00     0.200 A 
ATOM     96  F   UNL A   1      47.509  29.100  35.302  1.00  0.00    -0.200 F 
ATOM     97  F   UNL A   1      47.153  26.970  36.967  1.00  0.00    -0.200 F 
ENDBRANCH  64  87
ENDBRANCH  38  39
ENDBRANCH  30  33
ENDBRANCH  28  29
ENDBRANCH  27  28
ENDBRANCH  26  27
ENDBRANCH   1  26
TORSDOF 17
ENDMDL
MODEL 2
REMARK VINA RESULT:     -11.8      5.637     11.086
REMARK SMILES O=C(CN(CC(=O)NCc1ccccc1)c1ccccc1)NCCCCNC(=O)c1ccc(-c2c3nc(c(-c4c(F)c(F)c(F)c(F)c4F)c4ccc([nH]4)c(-c4c(F)c(F)c(F)c(F)c4F)c4nc(c(-c5c(F)c(F)c(F)c(F)c5F)c5ccc2[nH]5)C=C4)C=C3)cc1
REMARK SMILES IDX 23 1 22 2 1 3 2 4 3 6 4 7 5 8 6 9 7 10 8 11 9 13 10 14 11 15
REMARK SMILES IDX 15 16 12 17 14 18 13 19 16 20 17 21 21 22 18 23 20 24 19 25
REMARK SMILES IDX 24 26 25 27 26 28 27 29 28 30 29 32 30 33 31 34 92 35 32 36
REMARK SMILES IDX 91 37 33 38 34 39 35 40 85 41 36 42 90 43 84 44 86 45 37 46
REMARK SMILES IDX 89 47 83 48 82 49 38 51 70 52 50 53 69 54 51 55 54 56 68 57
REMARK SMILES IDX 87 58 52 59 53 60 67 62 88 63 55 64 39 65 40 66 48 67 41 68
REMARK SMILES IDX 42 69 46 70 49 71 43 72 44 73 47 74 45 75 71 76 72 77 80 78
REMARK SMILES IDX 73 79 74 80 78 81 81 82 75 83 76 84 79 85 77 86 56 87 57 88
REMARK SMILES IDX 65 89 58 90 59 91 63 92 66 93 60 94 61 95 64 96 62 97
REMARK H PARENT 22 5 8 12 27 31 86 50 54 61
REMARK Flexibility Score: inf
ROOT
ATOM      1  C   UNL A   1      37.566  22.005  25.350  1.00  0.00     0.116 C 
ENDROOT
BRANCH   1   2
ATOM      2  N   UNL A   1      36.449  22.483  26.142  1.00  0.00    -0.355 N 
ATOM      3  O   UNL A   1      35.703  23.952  24.553  1.00  0.00    -0.273 OA
ATOM      4  C   UNL A   1      35.530  23.370  25.624  1.00  0.00     0.239 C 
ATOM      5  H   UNL A   1      36.345  22.165  27.068  1.00  0.00     0.163 HD
BRANCH   4   6
ATOM      6  C   UNL A   1      34.289  23.633  26.482  1.00  0.00     0.217 C 
BRANCH   6   7
ATOM      7  N   UNL A   1      33.140  24.307  25.818  1.00  0.00    -0.353 N 
BRANCH   7   8
ATOM      8  C   UNL A   1      32.156  23.430  25.133  1.00  0.00     0.217 C 
BRANCH   8   9
ATOM      9  C   UNL A   1      32.371  23.134  23.639  1.00  0.00     0.239 C 
ATOM     10  O   UNL A   1      32.955  22.101  23.286  1.00  0.00    -0.273 OA
ATOM     11  N   UNL A   1      31.912  23.941  22.647  1.00  0.00    -0.350 N 
ATOM     12  H   UNL A   1      32.209  23.695  21.741  1.00  0.00     0.163 HD
BRANCH  11  13
ATOM     13  C   UNL A   1      31.057  25.102  22.708  1.00  0.00     0.151 C 
BRANCH  13  14
ATOM     14  C   UNL A   1      31.777  26.426  22.657  1.00  0.00    -0.029 A 
ATOM     15  C   UNL A   1      33.138  26.554  22.346  1.00  0.00     0.005 A 
ATOM     16  C   UNL A   1      31.058  27.591  22.975  1.00  0.00     0.005 A 
ATOM     17  C   UNL A   1      33.763  27.804  22.363  1.00  0.00     0.000 A 
ATOM     18  C   UNL A   1      31.681  28.841  22.984  1.00  0.00     0.000 A 
ATOM     19  C   UNL A   1      33.036  28.946  22.681  1.00  0.00     0.000 A 
ENDBRANCH  13  14
ENDBRANCH  11  13
ENDBRANCH   8   9
ENDBRANCH   7   8
BRANCH   7  20
ATOM     20  C   UNL A   1      32.902  25.665  26.049  1.00  0.00     0.038 A 
ATOM     21  C   UNL A   1      31.650  26.172  26.432  1.00  0.00     0.026 A 
ATOM     22  C   UNL A   1      33.915  26.633  25.922  1.00  0.00     0.026 A 
ATOM     23  C   UNL A   1      31.431  27.528  26.719  1.00  0.00     0.002 A 
ATOM     24  C   UNL A   1      33.700  27.999  26.162  1.00  0.00     0.002 A 
ATOM     25  C   UNL A   1      32.458  28.447  26.578  1.00  0.00     0.000 A 
ENDBRANCH   7  20
ENDBRANCH   6   7
ENDBRANCH   4   6
ENDBRANCH   1   2
BRANCH   1  26
ATOM     26  C   UNL A   1      37.287  20.689  24.630  1.00  0.00     0.023 C 
BRANCH  26  27
ATOM     27  C   UNL A   1      38.221  19.539  25.007  1.00  0.00     0.023 C 
BRANCH  27  28
ATOM     28  C   UNL A   1      39.433  19.927  25.847  1.00  0.00     0.116 C 
BRANCH  28  29
ATOM     29  N   UNL A   1      40.463  18.899  25.883  1.00  0.00    -0.352 N 
ATOM     30  C   UNL A   1      41.816  19.025  26.077  1.00  0.00     0.251 C 
ATOM     31  H   UNL A   1      40.141  17.978  25.747  1.00  0.00     0.163 HD
ATOM     32  O   UNL A   1      42.550  18.047  25.949  1.00  0.00    -0.269 OA
BRANCH  30  33
ATOM     33  C   UNL A   1      42.405  20.342  26.406  1.00  0.00     0.039 A 
ATOM     34  C   UNL A   1      43.094  21.040  25.409  1.00  0.00     0.014 A 
ATOM     35  C   UNL A   1      42.280  20.896  27.683  1.00  0.00     0.014 A 
ATOM     36  C   UNL A   1      43.588  22.321  25.671  1.00  0.00     0.010 A 
ATOM     37  C   UNL A   1      42.701  22.202  27.919  1.00  0.00     0.010 A 
ATOM     38  C   UNL A   1      43.358  22.931  26.915  1.00  0.00    -0.014 A 
BRANCH  38  39
ATOM     39  C   UNL A   1      43.783  24.331  27.177  1.00  0.00     0.031 A 
ATOM     40  C   UNL A   1      42.789  25.350  27.662  1.00  0.00     0.074 A 
ATOM     41  C   UNL A   1      45.053  24.703  26.917  1.00  0.00     0.049 A 
ATOM     42  N   UNL A   1      42.955  26.631  27.880  1.00  0.00    -0.248 NA
ATOM     43  C   UNL A   1      41.421  24.872  27.911  1.00  0.00     0.031 C 
ATOM     44  C   UNL A   1      46.102  23.823  26.403  1.00  0.00     0.029 A 
ATOM     45  N   UNL A   1      45.674  25.922  27.041  1.00  0.00    -0.354 N 
ATOM     46  C   UNL A   1      41.714  27.109  28.282  1.00  0.00     0.074 A 
ATOM     47  C   UNL A   1      40.793  25.996  28.220  1.00  0.00     0.031 C 
ATOM     48  C   UNL A   1      47.241  24.523  26.275  1.00  0.00     0.029 A 
ATOM     49  C   UNL A   1      46.993  25.910  26.656  1.00  0.00     0.049 A 
ATOM     50  H   UNL A   1      45.218  26.728  27.375  1.00  0.00     0.167 HD
ATOM     51  C   UNL A   1      41.379  28.358  28.689  1.00  0.00     0.037 A 
ATOM     52  C   UNL A   1      47.897  26.907  26.604  1.00  0.00     0.037 A 
ATOM     53  C   UNL A   1      42.301  29.462  28.761  1.00  0.00     0.049 A 
ATOM     54  C   UNL A   1      47.494  28.291  27.039  1.00  0.00     0.074 A 
ATOM     55  C   UNL A   1      42.070  30.752  29.207  1.00  0.00     0.029 A 
ATOM     56  N   UNL A   1      43.632  29.408  28.371  1.00  0.00    -0.354 N 
ATOM     57  N   UNL A   1      46.335  28.715  27.479  1.00  0.00    -0.248 NA
ATOM     58  C   UNL A   1      48.528  29.333  26.973  1.00  0.00     0.031 C 
ATOM     59  C   UNL A   1      43.243  31.493  29.034  1.00  0.00     0.029 A 
ATOM     60  C   UNL A   1      44.225  30.649  28.542  1.00  0.00     0.049 A 
ATOM     61  H   UNL A   1      44.087  28.607  28.024  1.00  0.00     0.167 HD
ATOM     62  C   UNL A   1      46.508  30.062  27.773  1.00  0.00     0.074 A 
ATOM     63  C   UNL A   1      47.888  30.379  27.476  1.00  0.00     0.031 C 
ATOM     64  C   UNL A   1      45.603  30.953  28.248  1.00  0.00     0.037 A 
BRANCH  51  65
ATOM     65  C   UNL A   1      39.951  28.597  29.092  1.00  0.00     0.064 A 
ATOM     66  C   UNL A   1      39.509  28.376  30.406  1.00  0.00     0.173 A 
ATOM     67  C   UNL A   1      39.021  29.090  28.164  1.00  0.00     0.173 A 
ATOM     68  F   UNL A   1      40.355  27.898  31.331  1.00  0.00    -0.203 F 
ATOM     69  C   UNL A   1      38.184  28.608  30.767  1.00  0.00     0.198 A 
ATOM     70  C   UNL A   1      37.706  29.354  28.536  1.00  0.00     0.198 A 
ATOM     71  F   UNL A   1      39.390  29.328  26.896  1.00  0.00    -0.203 F 
ATOM     72  F   UNL A   1      37.775  28.338  32.013  1.00  0.00    -0.200 F 
ATOM     73  C   UNL A   1      37.286  29.104  29.835  1.00  0.00     0.200 A 
ATOM     74  F   UNL A   1      36.843  29.849  27.638  1.00  0.00    -0.200 F 
ATOM     75  F   UNL A   1      36.014  29.335  30.184  1.00  0.00    -0.200 F 
ENDBRANCH  51  65
BRANCH  52  76
ATOM     76  C   UNL A   1      49.281  26.631  26.135  1.00  0.00     0.064 A 
ATOM     77  C   UNL A   1      50.255  26.131  27.011  1.00  0.00     0.173 A 
ATOM     78  C   UNL A   1      49.663  26.866  24.805  1.00  0.00     0.173 A 
ATOM     79  F   UNL A   1      49.947  25.909  28.297  1.00  0.00    -0.203 F 
ATOM     80  C   UNL A   1      51.561  25.901  26.583  1.00  0.00     0.198 A 
ATOM     81  C   UNL A   1      50.961  26.606  24.370  1.00  0.00     0.198 A 
ATOM     82  F   UNL A   1      48.769  27.339  23.924  1.00  0.00    -0.203 F 
ATOM     83  F   UNL A   1      52.484  25.473  27.456  1.00  0.00    -0.200 F 
ATOM     84  C   UNL A   1      51.911  26.133  25.262  1.00  0.00     0.200 A 
ATOM     85  F   UNL A   1      51.289  26.816  23.089  1.00  0.00    -0.200 F 
ATOM     86  F   UNL A   1      53.166  25.909  24.850  1.00  0.00    -0.200 F 
ENDBRANCH  52  76
BRANCH  64  87
ATOM     87  C   UNL A   1      46.085  32.351  28.514  1.00  0.00     0.064 A 
ATOM     88  C   UNL A   1      46.643  32.720  29.747  1.00  0.00     0.173 A 
ATOM     89  C   UNL A   1      46.023  33.326  27.506  1.00  0.00     0.173 A 
ATOM     90  F   UNL A   1      46.713  31.831  30.749  1.00  0.00    -0.203 F 
ATOM     91  C   UNL A   1      47.094  34.019  29.970  1.00  0.00     0.198 A 
ATOM     92  C   UNL A   1      46.506  34.614  27.721  1.00  0.00     0.198 A 
ATOM     93  F   UNL A   1      45.504  33.025  26.305  1.00  0.00    -0.203 F 
ATOM     94  F   UNL A   1      47.575  34.361  31.173  1.00  0.00    -0.200 F 
ATOM     95  C   UNL A   1      47.033  34.961  28.955  1.00  0.00     0.200 A 
ATOM     96  F   UNL A   1      46.461  35.519  26.732  1.00  0.00    -0.200 F 
ATOM     97  F   UNL A   1      47.476  36.208  29.168  1.00  0.00    -0.200 F 
ENDBRANCH  64  87
ENDBRANCH  38  39
ENDBRANCH  30  33
ENDBRANCH  28  29
ENDBRANCH  27  28
ENDBRANCH  26  27
ENDBRANCH   1  26
TORSDOF 17
ENDMDL
MODEL 3
REMARK VINA RESULT:     -11.7      5.413     10.511
REMARK SMILES O=C(CN(CC(=O)NCc1ccccc1)c1ccccc1)NCCCCNC(=O)c1ccc(-c2c3nc(c(-c4c(F)c(F)c(F)c(F)c4F)c4ccc([nH]4)c(-c4c(F)c(F)c(F)c(F)c4F)c4nc(c(-c5c(F)c(F)c(F)c(F)c5F)c5ccc2[nH]5)C=C4)C=C3)cc1
REMARK SMILES IDX 23 1 22 2 1 3 2 4 3 6 4 7 5 8 6 9 7 10 8 11 9 13 10 14 11 15
REMARK SMILES IDX 15 16 12 17 14 18 13 19 16 20 17 21 21 22 18 23 20 24 19 25
REMARK SMILES IDX 24 26 25 27 26 28 27 29 28 30 29 32 30 33 31 34 92 35 32 36
REMARK SMILES IDX 91 37 33 38 34 39 35 40 85 41 36 42 90 43 84 44 86 45 37 46
REMARK SMILES IDX 89 47 83 48 82 49 38 51 70 52 50 53 69 54 51 55 54 56 68 57
REMARK SMILES IDX 87 58 52 59 53 60 67 62 88 63 55 64 39 65 40 66 48 67 41 68
REMARK SMILES IDX 42 69 46 70 49 71 43 72 44 73 47 74 45 75 71 76 72 77 80 78
REMARK SMILES IDX 73 79 74 80 78 81 81 82 75 83 76 84 79 85 77 86 56 87 57 88
REMARK SMILES IDX 65 89 58 90 59 91 63 92 66 93 60 94 61 95 64 96 62 97
REMARK H PARENT 22 5 8 12 27 31 86 50 54 61
REMARK Flexibility Score: inf
ROOT
ATOM      1  C   UNL A   1      37.103  22.485  25.664  1.00  0.00     0.116 C 
ENDROOT
BRANCH   1   2
ATOM      2  N   UNL A   1      35.875  22.169  26.367  1.00  0.00    -0.355 N 
ATOM      3  O   UNL A   1      34.527  23.328  24.925  1.00  0.00    -0.273 OA
ATOM      4  C   UNL A   1      34.647  22.548  25.869  1.00  0.00     0.239 C 
ATOM      5  H   UNL A   1      35.920  21.674  27.217  1.00  0.00     0.163 HD
BRANCH   4   6
ATOM      6  C   UNL A   1      33.422  21.976  26.590  1.00  0.00     0.217 C 
BRANCH   6   7
ATOM      7  N   UNL A   1      32.317  21.460  25.737  1.00  0.00    -0.353 N 
BRANCH   7   8
ATOM      8  C   UNL A   1      31.169  22.375  25.506  1.00  0.00     0.217 C 
BRANCH   8   9
ATOM      9  C   UNL A   1      30.788  23.351  26.632  1.00  0.00     0.239 C 
ATOM     10  O   UNL A   1      30.181  22.944  27.631  1.00  0.00    -0.273 OA
ATOM     11  N   UNL A   1      31.121  24.669  26.619  1.00  0.00    -0.350 N 
ATOM     12  H   UNL A   1      30.726  25.204  27.345  1.00  0.00     0.163 HD
BRANCH  11  13
ATOM     13  C   UNL A   1      31.962  25.410  25.711  1.00  0.00     0.151 C 
BRANCH  13  14
ATOM     14  C   UNL A   1      32.392  26.769  26.206  1.00  0.00    -0.029 A 
ATOM     15  C   UNL A   1      33.689  27.275  26.041  1.00  0.00     0.005 A 
ATOM     16  C   UNL A   1      31.459  27.554  26.904  1.00  0.00     0.005 A 
ATOM     17  C   UNL A   1      34.046  28.521  26.564  1.00  0.00     0.000 A 
ATOM     18  C   UNL A   1      31.813  28.802  27.420  1.00  0.00     0.000 A 
ATOM     19  C   UNL A   1      33.108  29.284  27.253  1.00  0.00     0.000 A 
ENDBRANCH  13  14
ENDBRANCH  11  13
ENDBRANCH   8   9
ENDBRANCH   7   8
BRANCH   7  20
ATOM     20  C   UNL A   1      32.489  20.277  25.015  1.00  0.00     0.038 A 
ATOM     21  C   UNL A   1      32.286  20.184  23.629  1.00  0.00     0.026 A 
ATOM     22  C   UNL A   1      32.893  19.078  25.631  1.00  0.00     0.026 A 
ATOM     23  C   UNL A   1      32.517  19.007  22.900  1.00  0.00     0.002 A 
ATOM     24  C   UNL A   1      33.084  17.882  24.923  1.00  0.00     0.002 A 
ATOM     25  C   UNL A   1      32.911  17.849  23.550  1.00  0.00     0.000 A 
ENDBRANCH   7  20
ENDBRANCH   6   7
ENDBRANCH   4   6
ENDBRANCH   1   2
BRANCH   1  26
ATOM     26  C   UNL A   1      37.431  21.511  24.536  1.00  0.00     0.023 C 
BRANCH  26  27
ATOM     27  C   UNL A   1      38.026  20.178  24.989  1.00  0.00     0.023 C 
BRANCH  27  28
ATOM     28  C   UNL A   1      39.111  20.273  26.056  1.00  0.00     0.116 C 
BRANCH  28  29
ATOM     29  N   UNL A   1      40.135  19.246  25.930  1.00  0.00    -0.352 N 
ATOM     30  C   UNL A   1      41.498  19.352  26.052  1.00  0.00     0.251 C 
ATOM     31  H   UNL A   1      39.799  18.342  25.728  1.00  0.00     0.163 HD
ATOM     32  O   UNL A   1      42.217  18.390  25.786  1.00  0.00    -0.269 OA
BRANCH  30  33
ATOM     33  C   UNL A   1      42.115  20.632  26.466  1.00  0.00     0.039 A 
ATOM     34  C   UNL A   1      42.555  21.519  25.479  1.00  0.00     0.014 A 
ATOM     35  C   UNL A   1      42.257  20.965  27.816  1.00  0.00     0.014 A 
ATOM     36  C   UNL A   1      43.065  22.768  25.844  1.00  0.00     0.010 A 
ATOM     37  C   UNL A   1      42.691  22.240  28.175  1.00  0.00     0.010 A 
ATOM     38  C   UNL A   1      43.097  23.156  27.193  1.00  0.00    -0.014 A 
BRANCH  38  39
ATOM     39  C   UNL A   1      43.538  24.519  27.592  1.00  0.00     0.031 A 
ATOM     40  C   UNL A   1      42.524  25.578  27.930  1.00  0.00     0.074 A 
ATOM     41  C   UNL A   1      44.851  24.824  27.590  1.00  0.00     0.049 A 
ATOM     42  N   UNL A   1      42.712  26.838  28.232  1.00  0.00    -0.248 NA
ATOM     43  C   UNL A   1      41.111  25.173  27.899  1.00  0.00     0.031 C 
ATOM     44  C   UNL A   1      45.932  23.902  27.239  1.00  0.00     0.029 A 
ATOM     45  N   UNL A   1      45.500  25.999  27.881  1.00  0.00    -0.354 N 
ATOM     46  C   UNL A   1      41.445  27.375  28.418  1.00  0.00     0.074 A 
ATOM     47  C   UNL A   1      40.495  26.322  28.137  1.00  0.00     0.031 C 
ATOM     48  C   UNL A   1      47.109  24.537  27.356  1.00  0.00     0.029 A 
ATOM     49  C   UNL A   1      46.865  25.922  27.747  1.00  0.00     0.049 A 
ATOM     50  H   UNL A   1      45.032  26.818  28.161  1.00  0.00     0.167 HD
ATOM     51  C   UNL A   1      41.104  28.627  28.813  1.00  0.00     0.037 A 
ATOM     52  C   UNL A   1      47.814  26.865  27.909  1.00  0.00     0.037 A 
ATOM     53  C   UNL A   1      42.053  29.671  29.104  1.00  0.00     0.049 A 
ATOM     54  C   UNL A   1      47.408  28.255  28.323  1.00  0.00     0.074 A 
ATOM     55  C   UNL A   1      41.809  30.956  29.557  1.00  0.00     0.029 A 
ATOM     56  N   UNL A   1      43.428  29.552  28.965  1.00  0.00    -0.354 N 
ATOM     57  N   UNL A   1      46.211  28.731  28.560  1.00  0.00    -0.248 NA
ATOM     58  C   UNL A   1      48.490  29.235  28.497  1.00  0.00     0.031 C 
ATOM     59  C   UNL A   1      43.030  31.632  29.638  1.00  0.00     0.029 A 
ATOM     60  C   UNL A   1      44.042  30.749  29.299  1.00  0.00     0.049 A 
ATOM     61  H   UNL A   1      43.899  28.738  28.673  1.00  0.00     0.167 HD
ATOM     62  C   UNL A   1      46.395  30.054  28.941  1.00  0.00     0.074 A 
ATOM     63  C   UNL A   1      47.821  30.299  28.919  1.00  0.00     0.031 C 
ATOM     64  C   UNL A   1      45.465  30.981  29.279  1.00  0.00     0.037 A 
BRANCH  51  65
ATOM     65  C   UNL A   1      39.641  28.937  28.954  1.00  0.00     0.064 A 
ATOM     66  C   UNL A   1      38.869  29.361  27.860  1.00  0.00     0.173 A 
ATOM     67  C   UNL A   1      38.992  28.771  30.187  1.00  0.00     0.173 A 
ATOM     68  F   UNL A   1      39.441  29.543  26.660  1.00  0.00    -0.203 F 
ATOM     69  C   UNL A   1      37.512  29.638  28.004  1.00  0.00     0.198 A 
ATOM     70  C   UNL A   1      37.628  29.016  30.319  1.00  0.00     0.198 A 
ATOM     71  F   UNL A   1      39.679  28.360  31.264  1.00  0.00    -0.203 F 
ATOM     72  F   UNL A   1      36.809  30.093  26.958  1.00  0.00    -0.200 F 
ATOM     73  C   UNL A   1      36.891  29.458  29.230  1.00  0.00     0.200 A 
ATOM     74  F   UNL A   1      37.026  28.826  31.501  1.00  0.00    -0.200 F 
ATOM     75  F   UNL A   1      35.583  29.717  29.365  1.00  0.00    -0.200 F 
ENDBRANCH  51  65
BRANCH  52  76
ATOM     76  C   UNL A   1      49.245  26.523  27.692  1.00  0.00     0.064 A 
ATOM     77  C   UNL A   1      50.108  26.305  28.776  1.00  0.00     0.173 A 
ATOM     78  C   UNL A   1      49.783  26.415  26.401  1.00  0.00     0.173 A 
ATOM     79  F   UNL A   1      49.648  26.418  30.031  1.00  0.00    -0.203 F 
ATOM     80  C   UNL A   1      51.457  26.017  28.578  1.00  0.00     0.198 A 
ATOM     81  C   UNL A   1      51.125  26.095  26.203  1.00  0.00     0.198 A 
ATOM     82  F   UNL A   1      49.001  26.609  25.329  1.00  0.00    -0.203 F 
ATOM     83  F   UNL A   1      52.269  25.866  29.633  1.00  0.00    -0.200 F 
ATOM     84  C   UNL A   1      51.963  25.906  27.291  1.00  0.00     0.200 A 
ATOM     85  F   UNL A   1      51.605  25.973  24.959  1.00  0.00    -0.200 F 
ATOM     86  F   UNL A   1      53.258  25.625  27.101  1.00  0.00    -0.200 F 
ENDBRANCH  52  76
BRANCH  64  87
ATOM     87  C   UNL A   1      45.960  32.338  29.693  1.00  0.00     0.064 A 
ATOM     88  C   UNL A   1      46.305  32.627  31.022  1.00  0.00     0.173 A 
ATOM     89  C   UNL A   1      46.128  33.352  28.738  1.00  0.00     0.173 A 
ATOM     90  F   UNL A   1      46.150  31.697  31.977  1.00  0.00    -0.203 F 
ATOM     91  C   UNL A   1      46.773  33.888  31.382  1.00  0.00     0.198 A 
ATOM     92  C   UNL A   1      46.629  34.601  29.096  1.00  0.00     0.198 A 
ATOM     93  F   UNL A   1      45.820  33.127  27.451  1.00  0.00    -0.203 F 
ATOM     94  F   UNL A   1      47.046  34.156  32.667  1.00  0.00    -0.200 F 
ATOM     95  C   UNL A   1      46.942  34.870  30.419  1.00  0.00     0.200 A 
ATOM     96  F   UNL A   1      46.807  35.544  28.160  1.00  0.00    -0.200 F 
ATOM     97  F   UNL A   1      47.401  36.081  30.766  1.00  0.00    -0.200 F 
ENDBRANCH  64  87
ENDBRANCH  38  39
ENDBRANCH  30  33
ENDBRANCH  28  29
ENDBRANCH  27  28
ENDBRANCH  26  27
ENDBRANCH   1  26
TORSDOF 17
ENDMDL
