MODEL 1
REMARK VINA RESULT:     -13.0      0.000      0.000
REMARK SMILES COc1ccc2c(c1)c(CC(=O)NCCCCNC(=O)c1ccc(-c3c4nc(c(-c5c(F)c(F)c(F)c(F)c5F)c5ccc([nH]5)c(-c5c(F)c(F)c(F)c(F)c5F)c5nc(c(-c6c(F)c(F)c(F)c(F)c6F)c6ccc3[nH]6)C=C5)C=C4)cc1)c(C)n2Cc1ccc(Br)cc1
REMARK SMILES IDX 15 1 14 2 13 3 11 4 12 5 10 7 9 8 3 9 4 10 8 11 5 12 7 13
REMARK SMILES IDX 6 14 86 15 84 16 85 17 2 18 1 19 87 20 88 21 89 22 94 23
REMARK SMILES IDX 90 24 93 25 91 26 92 27 16 28 17 29 18 30 19 31 20 33 21 34
REMARK SMILES IDX 22 35 83 36 23 37 82 38 24 39 25 40 26 41 76 42 27 43 81 44
REMARK SMILES IDX 75 45 77 46 28 47 80 48 74 49 73 50 29 52 61 53 41 54 60 55
REMARK SMILES IDX 42 56 45 57 59 58 78 59 43 60 44 61 58 63 79 64 46 65 30 66
REMARK SMILES IDX 31 67 39 68 32 69 33 70 37 71 40 72 34 73 35 74 38 75 36 76
REMARK SMILES IDX 62 77 63 78 71 79 64 80 65 81 69 82 72 83 66 84 67 85 70 86
REMARK SMILES IDX 68 87 47 88 48 89 56 90 49 91 50 92 54 93 57 94 51 95 52 96
REMARK SMILES IDX 55 97 53 98
REMARK H PARENT 13 6 18 32 77 51 45 62
REMARK Flexibility Score: inf
ROOT
ATOM      1  C   UNL A   1      41.183  21.226  27.340  1.00  0.00     0.023 C 
ENDROOT
BRANCH   1   2
ATOM      2  C   UNL A   1      40.048  21.199  26.316  1.00  0.00     0.116 C 
BRANCH   2   3
ATOM      3  N   UNL A   1      39.089  22.265  26.533  1.00  0.00    -0.356 N 
ATOM      4  C   UNL A   1      37.829  22.407  26.027  1.00  0.00     0.224 C 
ATOM      5  O   UNL A   1      37.178  23.399  26.365  1.00  0.00    -0.275 OA
ATOM      6  H   UNL A   1      39.390  22.990  27.129  1.00  0.00     0.163 HD
BRANCH   4   7
ATOM      7  C   UNL A   1      37.221  21.328  25.140  1.00  0.00     0.138 C 
BRANCH   7   8
ATOM      8  C   UNL A   1      35.929  21.746  24.504  1.00  0.00    -0.010 A 
ATOM      9  C   UNL A   1      32.912  19.561  25.306  1.00  0.00     0.119 A 
ATOM     10  C   UNL A   1      31.978  20.338  24.628  1.00  0.00     0.048 A 
ATOM     11  C   UNL A   1      34.244  19.968  25.372  1.00  0.00     0.057 A 
ATOM     12  C   UNL A   1      32.357  21.529  23.987  1.00  0.00     0.031 A 
ATOM     13  C   UNL A   1      34.660  21.129  24.688  1.00  0.00     0.007 A 
ATOM     14  C   UNL A   1      33.712  21.906  24.015  1.00  0.00     0.049 A 
ATOM     15  N   UNL A   1      34.391  23.001  23.486  1.00  0.00    -0.340 N 
ATOM     16  C   UNL A   1      35.754  22.766  23.577  1.00  0.00     0.020 A 
ATOM     17  C   UNL A   1      36.812  23.529  22.856  1.00  0.00     0.065 C 
BRANCH   9  18
ATOM     18  O   UNL A   1      32.605  18.418  25.996  1.00  0.00    -0.497 OA
ATOM     19  C   UNL A   1      32.739  17.223  25.232  1.00  0.00     0.278 C 
ENDBRANCH   9  18
BRANCH  15  20
ATOM     20  C   UNL A   1      33.754  24.145  22.825  1.00  0.00     0.157 C 
BRANCH  20  21
ATOM     21  C   UNL A   1      33.649  25.393  23.688  1.00  0.00    -0.028 A 
ATOM     22  C   UNL A   1      33.668  25.334  25.093  1.00  0.00     0.007 A 
ATOM     23  C   UNL A   1      33.622  26.666  23.092  1.00  0.00     0.007 A 
ATOM     24  C   UNL A   1      33.647  26.494  25.876  1.00  0.00     0.016 A 
ATOM     25  C   UNL A   1      33.619  27.830  23.873  1.00  0.00     0.016 A 
ATOM     26  C   UNL A   1      33.629  27.739  25.261  1.00  0.00     0.017 A 
ATOM     27  Br  UNL A   1      33.647  29.309  26.313  1.00  0.00    -0.051 Br
ENDBRANCH  20  21
ENDBRANCH  15  20
ENDBRANCH   7   8
ENDBRANCH   4   7
ENDBRANCH   2   3
ENDBRANCH   1   2
BRANCH   1  28
ATOM     28  C   UNL A   1      42.288  20.188  27.102  1.00  0.00     0.023 C 
BRANCH  28  29
ATOM     29  C   UNL A   1      42.179  19.435  25.773  1.00  0.00     0.116 C 
BRANCH  29  30
ATOM     30  N   UNL A   1      43.402  19.469  24.992  1.00  0.00    -0.352 N 
ATOM     31  C   UNL A   1      44.413  20.370  24.825  1.00  0.00     0.251 C 
ATOM     32  H   UNL A   1      43.531  18.651  24.459  1.00  0.00     0.163 HD
ATOM     33  O   UNL A   1      45.390  19.973  24.181  1.00  0.00    -0.269 OA
BRANCH  31  34
ATOM     34  C   UNL A   1      44.401  21.776  25.313  1.00  0.00     0.039 A 
ATOM     35  C   UNL A   1      45.194  22.278  26.344  1.00  0.00     0.014 A 
ATOM     36  C   UNL A   1      43.444  22.630  24.732  1.00  0.00     0.014 A 
ATOM     37  C   UNL A   1      44.980  23.556  26.845  1.00  0.00     0.010 A 
ATOM     38  C   UNL A   1      43.231  23.915  25.222  1.00  0.00     0.010 A 
ATOM     39  C   UNL A   1      43.962  24.354  26.323  1.00  0.00    -0.014 A 
BRANCH  39  40
ATOM     40  C   UNL A   1      43.683  25.605  27.023  1.00  0.00     0.031 A 
ATOM     41  C   UNL A   1      44.630  26.740  26.807  1.00  0.00     0.074 A 
ATOM     42  C   UNL A   1      42.611  25.764  27.823  1.00  0.00     0.049 A 
ATOM     43  N   UNL A   1      45.336  27.385  27.685  1.00  0.00    -0.248 NA
ATOM     44  C   UNL A   1      44.838  27.190  25.424  1.00  0.00     0.031 C 
ATOM     45  C   UNL A   1      41.439  24.898  27.974  1.00  0.00     0.029 A 
ATOM     46  N   UNL A   1      42.320  26.823  28.627  1.00  0.00    -0.354 N 
ATOM     47  C   UNL A   1      45.991  28.401  26.989  1.00  0.00     0.074 A 
ATOM     48  C   UNL A   1      45.697  28.196  25.593  1.00  0.00     0.031 C 
ATOM     49  C   UNL A   1      40.473  25.572  28.634  1.00  0.00     0.029 A 
ATOM     50  C   UNL A   1      41.012  26.848  29.074  1.00  0.00     0.049 A 
ATOM     51  H   UNL A   1      42.982  27.512  28.868  1.00  0.00     0.167 HD
ATOM     52  C   UNL A   1      46.636  29.432  27.605  1.00  0.00     0.037 A 
ATOM     53  C   UNL A   1      40.398  27.889  29.682  1.00  0.00     0.037 A 
ATOM     54  C   UNL A   1      46.937  29.158  28.979  1.00  0.00     0.049 A 
ATOM     55  C   UNL A   1      41.447  28.768  30.253  1.00  0.00     0.074 A 
ATOM     56  C   UNL A   1      47.743  28.247  29.636  1.00  0.00     0.029 A 
ATOM     57  N   UNL A   1      46.154  29.712  29.958  1.00  0.00    -0.354 N 
ATOM     58  N   UNL A   1      42.206  28.449  31.263  1.00  0.00    -0.248 NA
ATOM     59  C   UNL A   1      41.921  29.878  29.439  1.00  0.00     0.031 C 
ATOM     60  C   UNL A   1      47.053  27.947  30.848  1.00  0.00     0.029 A 
ATOM     61  C   UNL A   1      45.884  28.707  30.850  1.00  0.00     0.049 A 
ATOM     62  H   UNL A   1      45.847  30.646  30.010  1.00  0.00     0.167 HD
ATOM     63  C   UNL A   1      43.431  29.034  30.983  1.00  0.00     0.074 A 
ATOM     64  C   UNL A   1      43.167  29.979  29.905  1.00  0.00     0.031 C 
ATOM     65  C   UNL A   1      44.595  28.506  31.463  1.00  0.00     0.037 A 
BRANCH  52  66
ATOM     66  C   UNL A   1      46.795  30.803  27.012  1.00  0.00     0.064 A 
ATOM     67  C   UNL A   1      48.060  31.419  26.959  1.00  0.00     0.173 A 
ATOM     68  C   UNL A   1      45.691  31.638  26.741  1.00  0.00     0.173 A 
ATOM     69  F   UNL A   1      49.171  30.722  27.241  1.00  0.00    -0.203 F 
ATOM     70  C   UNL A   1      48.203  32.782  26.686  1.00  0.00     0.198 A 
ATOM     71  C   UNL A   1      45.840  32.986  26.423  1.00  0.00     0.198 A 
ATOM     72  F   UNL A   1      44.433  31.196  26.876  1.00  0.00    -0.203 F 
ATOM     73  F   UNL A   1      49.417  33.349  26.739  1.00  0.00    -0.200 F 
ATOM     74  C   UNL A   1      47.094  33.564  26.417  1.00  0.00     0.200 A 
ATOM     75  F   UNL A   1      44.753  33.734  26.189  1.00  0.00    -0.200 F 
ATOM     76  F   UNL A   1      47.225  34.880  26.201  1.00  0.00    -0.200 F 
ENDBRANCH  52  66
BRANCH  53  77
ATOM     77  C   UNL A   1      39.009  28.347  29.457  1.00  0.00     0.064 A 
ATOM     78  C   UNL A   1      38.137  28.555  30.534  1.00  0.00     0.173 A 
ATOM     79  C   UNL A   1      38.602  28.856  28.206  1.00  0.00     0.173 A 
ATOM     80  F   UNL A   1      38.475  28.143  31.764  1.00  0.00    -0.203 F 
ATOM     81  C   UNL A   1      36.938  29.257  30.375  1.00  0.00     0.198 A 
ATOM     82  C   UNL A   1      37.401  29.545  28.048  1.00  0.00     0.198 A 
ATOM     83  F   UNL A   1      39.405  28.783  27.136  1.00  0.00    -0.203 F 
ATOM     84  F   UNL A   1      36.159  29.497  31.440  1.00  0.00    -0.200 F 
ATOM     85  C   UNL A   1      36.576  29.759  29.136  1.00  0.00     0.200 A 
ATOM     86  F   UNL A   1      37.082  30.056  26.851  1.00  0.00    -0.200 F 
ATOM     87  F   UNL A   1      35.458  30.484  28.997  1.00  0.00    -0.200 F 
ENDBRANCH  53  77
BRANCH  65  88
ATOM     88  C   UNL A   1      44.494  27.422  32.496  1.00  0.00     0.064 A 
ATOM     89  C   UNL A   1      44.357  27.681  33.871  1.00  0.00     0.173 A 
ATOM     90  C   UNL A   1      44.385  26.090  32.076  1.00  0.00     0.173 A 
ATOM     91  F   UNL A   1      44.338  28.936  34.336  1.00  0.00    -0.203 F 
ATOM     92  C   UNL A   1      44.175  26.646  34.787  1.00  0.00     0.198 A 
ATOM     93  C   UNL A   1      44.168  25.062  32.989  1.00  0.00     0.198 A 
ATOM     94  F   UNL A   1      44.441  25.791  30.768  1.00  0.00    -0.203 F 
ATOM     95  F   UNL A   1      44.062  26.919  36.096  1.00  0.00    -0.200 F 
ATOM     96  C   UNL A   1      44.075  25.338  34.344  1.00  0.00     0.200 A 
ATOM     97  F   UNL A   1      44.019  23.803  32.553  1.00  0.00    -0.200 F 
ATOM     98  F   UNL A   1      43.860  24.347  35.220  1.00  0.00    -0.200 F 
ENDBRANCH  65  88
ENDBRANCH  39  40
ENDBRANCH  31  34
ENDBRANCH  29  30
ENDBRANCH  28  29
ENDBRANCH   1  28
TORSDOF 15
ENDMDL
MODEL 2
REMARK VINA RESULT:     -12.8      2.673      3.970
REMARK SMILES COc1ccc2c(c1)c(CC(=O)NCCCCNC(=O)c1ccc(-c3c4nc(c(-c5c(F)c(F)c(F)c(F)c5F)c5ccc([nH]5)c(-c5c(F)c(F)c(F)c(F)c5F)c5nc(c(-c6c(F)c(F)c(F)c(F)c6F)c6ccc3[nH]6)C=C5)C=C4)cc1)c(C)n2Cc1ccc(Br)cc1
REMARK SMILES IDX 15 1 14 2 13 3 11 4 12 5 10 7 9 8 3 9 4 10 8 11 5 12 7 13
REMARK SMILES IDX 6 14 86 15 84 16 85 17 2 18 1 19 87 20 88 21 89 22 94 23
REMARK SMILES IDX 90 24 93 25 91 26 92 27 16 28 17 29 18 30 19 31 20 33 21 34
REMARK SMILES IDX 22 35 83 36 23 37 82 38 24 39 25 40 26 41 76 42 27 43 81 44
REMARK SMILES IDX 75 45 77 46 28 47 80 48 74 49 73 50 29 52 61 53 41 54 60 55
REMARK SMILES IDX 42 56 45 57 59 58 78 59 43 60 44 61 58 63 79 64 46 65 30 66
REMARK SMILES IDX 31 67 39 68 32 69 33 70 37 71 40 72 34 73 35 74 38 75 36 76
REMARK SMILES IDX 62 77 63 78 71 79 64 80 65 81 69 82 72 83 66 84 67 85 70 86
REMARK SMILES IDX 68 87 47 88 48 89 56 90 49 91 50 92 54 93 57 94 51 95 52 96
REMARK SMILES IDX 55 97 53 98
REMARK H PARENT 13 6 18 32 77 51 45 62
REMARK Flexibility Score: inf
ROOT
ATOM      1  C   UNL A   1      38.149  20.750  25.376  1.00  0.00     0.023 C 
ENDROOT
BRANCH   1   2
ATOM      2  C   UNL A   1      36.673  21.130  25.255  1.00  0.00     0.116 C 
BRANCH   2   3
ATOM      3  N   UNL A   1      36.408  21.922  24.070  1.00  0.00    -0.356 N 
ATOM      4  C   UNL A   1      35.946  23.205  23.977  1.00  0.00     0.224 C 
ATOM      5  O   UNL A   1      35.810  23.689  22.850  1.00  0.00    -0.275 OA
ATOM      6  H   UNL A   1      36.585  21.473  23.212  1.00  0.00     0.163 HD
BRANCH   4   7
ATOM      7  C   UNL A   1      35.688  24.032  25.230  1.00  0.00     0.138 C 
BRANCH   7   8
ATOM      8  C   UNL A   1      34.243  24.389  25.413  1.00  0.00    -0.010 A 
ATOM      9  C   UNL A   1      31.813  21.454  25.475  1.00  0.00     0.119 A 
ATOM     10  C   UNL A   1      30.676  22.205  25.753  1.00  0.00     0.048 A 
ATOM     11  C   UNL A   1      33.059  22.075  25.395  1.00  0.00     0.057 A 
ATOM     12  C   UNL A   1      30.755  23.595  25.939  1.00  0.00     0.031 A 
ATOM     13  C   UNL A   1      33.156  23.477  25.521  1.00  0.00     0.007 A 
ATOM     14  C   UNL A   1      32.008  24.221  25.806  1.00  0.00     0.049 A 
ATOM     15  N   UNL A   1      32.409  25.549  25.924  1.00  0.00    -0.340 N 
ATOM     16  C   UNL A   1      33.704  25.669  25.447  1.00  0.00     0.020 A 
ATOM     17  C   UNL A   1      34.385  26.950  25.107  1.00  0.00     0.065 C 
BRANCH   9  18
ATOM     18  O   UNL A   1      31.819  20.092  25.333  1.00  0.00    -0.497 OA
ATOM     19  C   UNL A   1      32.529  19.628  24.189  1.00  0.00     0.278 C 
ENDBRANCH   9  18
BRANCH  15  20
ATOM     20  C   UNL A   1      31.544  26.652  26.361  1.00  0.00     0.157 C 
BRANCH  20  21
ATOM     21  C   UNL A   1      31.003  27.514  25.230  1.00  0.00    -0.028 A 
ATOM     22  C   UNL A   1      30.135  27.002  24.249  1.00  0.00     0.007 A 
ATOM     23  C   UNL A   1      31.289  28.889  25.189  1.00  0.00     0.007 A 
ATOM     24  C   UNL A   1      29.583  27.821  23.257  1.00  0.00     0.016 A 
ATOM     25  C   UNL A   1      30.724  29.716  24.208  1.00  0.00     0.016 A 
ATOM     26  C   UNL A   1      29.876  29.178  23.246  1.00  0.00     0.017 A 
ATOM     27  Br  UNL A   1      29.098  30.298  21.936  1.00  0.00    -0.051 Br
ENDBRANCH  20  21
ENDBRANCH  15  20
ENDBRANCH   7   8
ENDBRANCH   4   7
ENDBRANCH   2   3
ENDBRANCH   1   2
BRANCH   1  28
ATOM     28  C   UNL A   1      39.046  21.842  25.975  1.00  0.00     0.023 C 
BRANCH  28  29
ATOM     29  C   UNL A   1      40.402  21.345  26.483  1.00  0.00     0.116 C 
BRANCH  29  30
ATOM     30  N   UNL A   1      41.527  21.894  25.749  1.00  0.00    -0.352 N 
ATOM     31  C   UNL A   1      42.189  23.088  25.753  1.00  0.00     0.251 C 
ATOM     32  H   UNL A   1      41.900  21.257  25.098  1.00  0.00     0.163 HD
ATOM     33  O   UNL A   1      43.224  23.134  25.080  1.00  0.00    -0.269 OA
BRANCH  31  34
ATOM     34  C   UNL A   1      41.735  24.319  26.455  1.00  0.00     0.039 A 
ATOM     35  C   UNL A   1      41.022  25.364  25.869  1.00  0.00     0.014 A 
ATOM     36  C   UNL A   1      42.142  24.459  27.796  1.00  0.00     0.014 A 
ATOM     37  C   UNL A   1      40.802  26.548  26.562  1.00  0.00     0.010 A 
ATOM     38  C   UNL A   1      41.916  25.639  28.500  1.00  0.00     0.010 A 
ATOM     39  C   UNL A   1      41.298  26.707  27.856  1.00  0.00    -0.014 A 
BRANCH  39  40
ATOM     40  C   UNL A   1      41.185  28.040  28.444  1.00  0.00     0.031 A 
ATOM     41  C   UNL A   1      42.285  29.011  28.163  1.00  0.00     0.074 A 
ATOM     42  C   UNL A   1      40.133  28.411  29.200  1.00  0.00     0.049 A 
ATOM     43  N   UNL A   1      43.060  29.624  29.004  1.00  0.00    -0.248 NA
ATOM     44  C   UNL A   1      42.575  29.310  26.754  1.00  0.00     0.031 C 
ATOM     45  C   UNL A   1      38.851  27.730  29.389  1.00  0.00     0.029 A 
ATOM     46  N   UNL A   1      39.981  29.565  29.906  1.00  0.00    -0.354 N 
ATOM     47  C   UNL A   1      43.860  30.478  28.246  1.00  0.00     0.074 A 
ATOM     48  C   UNL A   1      43.563  30.199  26.863  1.00  0.00     0.031 C 
ATOM     49  C   UNL A   1      37.977  28.585  29.966  1.00  0.00     0.029 A 
ATOM     50  C   UNL A   1      38.682  29.806  30.314  1.00  0.00     0.049 A 
ATOM     51  H   UNL A   1      40.728  30.174  30.108  1.00  0.00     0.167 HD
ATOM     52  C   UNL A   1      44.633  31.459  28.793  1.00  0.00     0.037 A 
ATOM     53  C   UNL A   1      38.210  30.970  30.819  1.00  0.00     0.037 A 
ATOM     54  C   UNL A   1      44.872  31.263  30.193  1.00  0.00     0.049 A 
ATOM     55  C   UNL A   1      39.362  31.742  31.345  1.00  0.00     0.074 A 
ATOM     56  C   UNL A   1      45.532  30.309  30.943  1.00  0.00     0.029 A 
ATOM     57  N   UNL A   1      44.159  32.001  31.101  1.00  0.00    -0.354 N 
ATOM     58  N   UNL A   1      40.054  31.407  32.397  1.00  0.00    -0.248 NA
ATOM     59  C   UNL A   1      39.998  32.703  30.456  1.00  0.00     0.031 C 
ATOM     60  C   UNL A   1      44.789  30.210  32.156  1.00  0.00     0.029 A 
ATOM     61  C   UNL A   1      43.737  31.121  32.065  1.00  0.00     0.049 A 
ATOM     62  H   UNL A   1      43.984  32.969  31.069  1.00  0.00     0.167 HD
ATOM     63  C   UNL A   1      41.352  31.792  32.104  1.00  0.00     0.074 A 
ATOM     64  C   UNL A   1      41.239  32.671  30.945  1.00  0.00     0.031 C 
ATOM     65  C   UNL A   1      42.424  31.151  32.657  1.00  0.00     0.037 A 
BRANCH  52  66
ATOM     66  C   UNL A   1      44.991  32.740  28.095  1.00  0.00     0.064 A 
ATOM     67  C   UNL A   1      44.022  33.744  27.897  1.00  0.00     0.173 A 
ATOM     68  C   UNL A   1      46.193  32.894  27.373  1.00  0.00     0.173 A 
ATOM     69  F   UNL A   1      42.829  33.669  28.506  1.00  0.00    -0.203 F 
ATOM     70  C   UNL A   1      44.234  34.807  27.016  1.00  0.00     0.198 A 
ATOM     71  C   UNL A   1      46.419  33.980  26.531  1.00  0.00     0.198 A 
ATOM     72  F   UNL A   1      47.140  31.945  27.386  1.00  0.00    -0.203 F 
ATOM     73  F   UNL A   1      43.251  35.688  26.786  1.00  0.00    -0.200 F 
ATOM     74  C   UNL A   1      45.432  34.925  26.333  1.00  0.00     0.200 A 
ATOM     75  F   UNL A   1      47.576  34.066  25.859  1.00  0.00    -0.200 F 
ATOM     76  F   UNL A   1      45.619  35.917  25.453  1.00  0.00    -0.200 F 
ENDBRANCH  52  66
BRANCH  53  77
ATOM     77  C   UNL A   1      36.902  31.594  30.519  1.00  0.00     0.064 A 
ATOM     78  C   UNL A   1      35.974  31.844  31.540  1.00  0.00     0.173 A 
ATOM     79  C   UNL A   1      36.655  32.210  29.275  1.00  0.00     0.173 A 
ATOM     80  F   UNL A   1      36.165  31.332  32.764  1.00  0.00    -0.203 F 
ATOM     81  C   UNL A   1      34.875  32.685  31.335  1.00  0.00     0.198 A 
ATOM     82  C   UNL A   1      35.553  33.039  29.071  1.00  0.00     0.198 A 
ATOM     83  F   UNL A   1      37.529  32.103  28.265  1.00  0.00    -0.203 F 
ATOM     84  F   UNL A   1      34.044  32.955  32.352  1.00  0.00    -0.200 F 
ATOM     85  C   UNL A   1      34.671  33.288  30.105  1.00  0.00     0.200 A 
ATOM     86  F   UNL A   1      35.390  33.645  27.886  1.00  0.00    -0.200 F 
ATOM     87  F   UNL A   1      33.654  34.142  29.928  1.00  0.00    -0.200 F 
ENDBRANCH  53  77
BRANCH  65  88
ATOM     88  C   UNL A   1      42.156  30.183  33.772  1.00  0.00     0.064 A 
ATOM     89  C   UNL A   1      41.739  28.858  33.555  1.00  0.00     0.173 A 
ATOM     90  C   UNL A   1      42.469  30.555  35.085  1.00  0.00     0.173 A 
ATOM     91  F   UNL A   1      41.530  28.397  32.316  1.00  0.00    -0.203 F 
ATOM     92  C   UNL A   1      41.589  27.965  34.614  1.00  0.00     0.198 A 
ATOM     93  C   UNL A   1      42.352  29.650  36.137  1.00  0.00     0.198 A 
ATOM     94  F   UNL A   1      42.936  31.787  35.342  1.00  0.00    -0.203 F 
ATOM     95  F   UNL A   1      41.175  26.710  34.383  1.00  0.00    -0.200 F 
ATOM     96  C   UNL A   1      41.901  28.361  35.904  1.00  0.00     0.200 A 
ATOM     97  F   UNL A   1      42.705  30.020  37.377  1.00  0.00    -0.200 F 
ATOM     98  F   UNL A   1      41.796  27.491  36.918  1.00  0.00    -0.200 F 
ENDBRANCH  65  88
ENDBRANCH  39  40
ENDBRANCH  31  34
ENDBRANCH  29  30
ENDBRANCH  28  29
ENDBRANCH   1  28
TORSDOF 15
ENDMDL
MODEL 3
REMARK VINA RESULT:     -12.7      3.168      8.795
REMARK SMILES COc1ccc2c(c1)c(CC(=O)NCCCCNC(=O)c1ccc(-c3c4nc(c(-c5c(F)c(F)c(F)c(F)c5F)c5ccc([nH]5)c(-c5c(F)c(F)c(F)c(F)c5F)c5nc(c(-c6c(F)c(F)c(F)c(F)c6F)c6ccc3[nH]6)C=C5)C=C4)cc1)c(C)n2Cc1ccc(Br)cc1
REMARK SMILES IDX 15 1 14 2 13 3 11 4 12 5 10 7 9 8 3 9 4 10 8 11 5 12 7 13
REMARK SMILES IDX 6 14 86 15 84 16 85 17 2 18 1 19 87 20 88 21 89 22 94 23
REMARK SMILES IDX 90 24 93 25 91 26 92 27 16 28 17 29 18 30 19 31 20 33 21 34
REMARK SMILES IDX 22 35 83 36 23 37 82 38 24 39 25 40 26 41 76 42 27 43 81 44
REMARK SMILES IDX 75 45 77 46 28 47 80 48 74 49 73 50 29 52 61 53 41 54 60 55
REMARK SMILES IDX 42 56 45 57 59 58 78 59 43 60 44 61 58 63 79 64 46 65 30 66
REMARK SMILES IDX 31 67 39 68 32 69 33 70 37 71 40 72 34 73 35 74 38 75 36 76
REMARK SMILES IDX 62 77 63 78 71 79 64 80 65 81 69 82 72 83 66 84 67 85 70 86
REMARK SMILES IDX 68 87 47 88 48 89 56 90 49 91 50 92 54 93 57 94 51 95 52 96
REMARK SMILES IDX 55 97 53 98
REMARK H PARENT 13 6 18 32 77 51 45 62
REMARK Flexibility Score: inf
ROOT
ATOM      1  C   UNL A   1      31.442  28.559  27.110  1.00  0.00     0.023 C 
ENDROOT
BRANCH   1   2
ATOM      2  C   UNL A   1      31.097  27.463  26.101  1.00  0.00     0.116 C 
BRANCH   2   3
ATOM      3  N   UNL A   1      30.988  26.159  26.725  1.00  0.00    -0.356 N 
ATOM      4  C   UNL A   1      31.823  25.083  26.623  1.00  0.00     0.224 C 
ATOM      5  O   UNL A   1      31.539  24.068  27.264  1.00  0.00    -0.275 OA
ATOM      6  H   UNL A   1      30.202  26.031  27.304  1.00  0.00     0.163 HD
BRANCH   4   7
ATOM      7  C   UNL A   1      33.107  25.169  25.806  1.00  0.00     0.138 C 
BRANCH   7   8
ATOM      8  C   UNL A   1      33.416  23.905  25.060  1.00  0.00    -0.010 A 
ATOM      9  C   UNL A   1      36.882  22.442  25.659  1.00  0.00     0.119 A 
ATOM     10  C   UNL A   1      36.697  21.295  24.893  1.00  0.00     0.048 A 
ATOM     11  C   UNL A   1      35.836  23.349  25.825  1.00  0.00     0.057 A 
ATOM     12  C   UNL A   1      35.470  21.039  24.261  1.00  0.00     0.031 A 
ATOM     13  C   UNL A   1      34.613  23.142  25.153  1.00  0.00     0.007 A 
ATOM     14  C   UNL A   1      34.436  21.984  24.391  1.00  0.00     0.049 A 
ATOM     15  N   UNL A   1      33.135  22.024  23.896  1.00  0.00    -0.340 N 
ATOM     16  C   UNL A   1      32.618  23.293  24.102  1.00  0.00     0.020 A 
ATOM     17  C   UNL A   1      31.394  23.843  23.453  1.00  0.00     0.065 C 
BRANCH   9  18
ATOM     18  O   UNL A   1      38.033  22.730  26.345  1.00  0.00    -0.497 OA
ATOM     19  C   UNL A   1      38.361  24.116  26.375  1.00  0.00     0.278 C 
ENDBRANCH   9  18
BRANCH  15  20
ATOM     20  C   UNL A   1      32.482  20.933  23.163  1.00  0.00     0.157 C 
BRANCH  20  21
ATOM     21  C   UNL A   1      32.647  19.560  23.796  1.00  0.00    -0.028 A 
ATOM     22  C   UNL A   1      32.519  19.356  25.182  1.00  0.00     0.007 A 
ATOM     23  C   UNL A   1      32.843  18.427  22.990  1.00  0.00     0.007 A 
ATOM     24  C   UNL A   1      32.597  18.078  25.746  1.00  0.00     0.016 A 
ATOM     25  C   UNL A   1      32.905  17.143  23.548  1.00  0.00     0.016 A 
ATOM     26  C   UNL A   1      32.784  16.974  24.924  1.00  0.00     0.017 A 
ATOM     27  Br  UNL A   1      32.845  15.240  25.674  1.00  0.00    -0.051 Br
ENDBRANCH  20  21
ENDBRANCH  15  20
ENDBRANCH   7   8
ENDBRANCH   4   7
ENDBRANCH   2   3
ENDBRANCH   1   2
BRANCH   1  28
ATOM     28  C   UNL A   1      32.944  28.816  27.291  1.00  0.00     0.023 C 
BRANCH  28  29
ATOM     29  C   UNL A   1      33.422  30.181  26.791  1.00  0.00     0.116 C 
BRANCH  29  30
ATOM     30  N   UNL A   1      33.658  31.134  27.859  1.00  0.00    -0.352 N 
ATOM     31  C   UNL A   1      34.762  31.577  28.529  1.00  0.00     0.251 C 
ATOM     32  H   UNL A   1      32.828  31.562  28.174  1.00  0.00     0.163 HD
ATOM     33  O   UNL A   1      34.585  32.534  29.290  1.00  0.00    -0.269 OA
BRANCH  31  34
ATOM     34  C   UNL A   1      36.118  30.971  28.444  1.00  0.00     0.039 A 
ATOM     35  C   UNL A   1      36.409  29.720  27.900  1.00  0.00     0.014 A 
ATOM     36  C   UNL A   1      37.166  31.698  29.042  1.00  0.00     0.014 A 
ATOM     37  C   UNL A   1      37.678  29.169  28.030  1.00  0.00     0.010 A 
ATOM     38  C   UNL A   1      38.442  31.156  29.166  1.00  0.00     0.010 A 
ATOM     39  C   UNL A   1      38.679  29.862  28.712  1.00  0.00    -0.014 A 
BRANCH  39  40
ATOM     40  C   UNL A   1      39.923  29.140  28.964  1.00  0.00     0.031 A 
ATOM     41  C   UNL A   1      40.296  28.886  30.387  1.00  0.00     0.074 A 
ATOM     42  C   UNL A   1      40.715  28.694  27.969  1.00  0.00     0.049 A 
ATOM     43  N   UNL A   1      41.364  29.254  31.025  1.00  0.00    -0.248 NA
ATOM     44  C   UNL A   1      39.329  28.149  31.215  1.00  0.00     0.031 C 
ATOM     45  C   UNL A   1      40.428  28.603  26.536  1.00  0.00     0.029 A 
ATOM     46  N   UNL A   1      41.952  28.134  28.075  1.00  0.00    -0.354 N 
ATOM     47  C   UNL A   1      41.269  28.700  32.301  1.00  0.00     0.074 A 
ATOM     48  C   UNL A   1      39.968  28.083  32.384  1.00  0.00     0.031 C 
ATOM     49  C   UNL A   1      41.360  27.821  25.947  1.00  0.00     0.029 A 
ATOM     50  C   UNL A   1      42.376  27.486  26.930  1.00  0.00     0.049 A 
ATOM     51  H   UNL A   1      42.496  28.186  28.895  1.00  0.00     0.167 HD
ATOM     52  C   UNL A   1      42.309  28.667  33.181  1.00  0.00     0.037 A 
ATOM     53  C   UNL A   1      43.442  26.658  26.833  1.00  0.00     0.037 A 
ATOM     54  C   UNL A   1      43.347  29.599  32.850  1.00  0.00     0.049 A 
ATOM     55  C   UNL A   1      44.359  26.958  27.959  1.00  0.00     0.074 A 
ATOM     56  C   UNL A   1      43.432  30.977  32.785  1.00  0.00     0.029 A 
ATOM     57  N   UNL A   1      44.488  29.141  32.243  1.00  0.00    -0.354 N 
ATOM     58  N   UNL A   1      45.050  28.058  28.073  1.00  0.00    -0.248 NA
ATOM     59  C   UNL A   1      44.213  26.181  29.181  1.00  0.00     0.031 C 
ATOM     60  C   UNL A   1      44.337  31.243  31.715  1.00  0.00     0.029 A 
ATOM     61  C   UNL A   1      44.750  30.009  31.214  1.00  0.00     0.049 A 
ATOM     62  H   UNL A   1      45.014  28.349  32.497  1.00  0.00     0.167 HD
ATOM     63  C   UNL A   1      45.081  28.317  29.434  1.00  0.00     0.074 A 
ATOM     64  C   UNL A   1      44.639  27.081  30.069  1.00  0.00     0.031 C 
ATOM     65  C   UNL A   1      45.202  29.590  29.911  1.00  0.00     0.037 A 
BRANCH  52  66
ATOM     66  C   UNL A   1      42.493  27.609  34.231  1.00  0.00     0.064 A 
ATOM     67  C   UNL A   1      43.118  26.387  33.917  1.00  0.00     0.173 A 
ATOM     68  C   UNL A   1      41.826  27.659  35.473  1.00  0.00     0.173 A 
ATOM     69  F   UNL A   1      43.744  26.223  32.741  1.00  0.00    -0.203 F 
ATOM     70  C   UNL A   1      43.051  25.285  34.773  1.00  0.00     0.198 A 
ATOM     71  C   UNL A   1      41.802  26.573  36.346  1.00  0.00     0.198 A 
ATOM     72  F   UNL A   1      41.097  28.725  35.831  1.00  0.00    -0.203 F 
ATOM     73  F   UNL A   1      43.577  24.112  34.394  1.00  0.00    -0.200 F 
ATOM     74  C   UNL A   1      42.393  25.378  35.987  1.00  0.00     0.200 A 
ATOM     75  F   UNL A   1      41.140  26.674  37.508  1.00  0.00    -0.200 F 
ATOM     76  F   UNL A   1      42.288  24.310  36.788  1.00  0.00    -0.200 F 
ENDBRANCH  52  66
BRANCH  53  77
ATOM     77  C   UNL A   1      43.509  25.395  26.065  1.00  0.00     0.064 A 
ATOM     78  C   UNL A   1      44.584  25.134  25.204  1.00  0.00     0.173 A 
ATOM     79  C   UNL A   1      42.668  24.306  26.375  1.00  0.00     0.173 A 
ATOM     80  F   UNL A   1      45.456  26.106  24.900  1.00  0.00    -0.203 F 
ATOM     81  C   UNL A   1      44.820  23.850  24.703  1.00  0.00     0.198 A 
ATOM     82  C   UNL A   1      42.899  23.030  25.864  1.00  0.00     0.198 A 
ATOM     83  F   UNL A   1      41.667  24.435  27.256  1.00  0.00    -0.203 F 
ATOM     84  F   UNL A   1      45.895  23.620  23.935  1.00  0.00    -0.200 F 
ATOM     85  C   UNL A   1      43.984  22.798  25.040  1.00  0.00     0.200 A 
ATOM     86  F   UNL A   1      42.103  22.015  26.230  1.00  0.00    -0.200 F 
ATOM     87  F   UNL A   1      44.246  21.557  24.609  1.00  0.00    -0.200 F 
ENDBRANCH  53  77
BRANCH  65  88
ATOM     88  C   UNL A   1      45.542  30.672  28.928  1.00  0.00     0.064 A 
ATOM     89  C   UNL A   1      46.862  31.048  28.625  1.00  0.00     0.173 A 
ATOM     90  C   UNL A   1      44.516  31.244  28.165  1.00  0.00     0.173 A 
ATOM     91  F   UNL A   1      47.901  30.462  29.234  1.00  0.00    -0.203 F 
ATOM     92  C   UNL A   1      47.136  31.994  27.640  1.00  0.00     0.198 A 
ATOM     93  C   UNL A   1      44.795  32.163  27.157  1.00  0.00     0.198 A 
ATOM     94  F   UNL A   1      43.242  30.872  28.365  1.00  0.00    -0.203 F 
ATOM     95  F   UNL A   1      48.405  32.347  27.379  1.00  0.00    -0.200 F 
ATOM     96  C   UNL A   1      46.103  32.547  26.903  1.00  0.00     0.200 A 
ATOM     97  F   UNL A   1      43.798  32.657  26.410  1.00  0.00    -0.200 F 
ATOM     98  F   UNL A   1      46.368  33.428  25.928  1.00  0.00    -0.200 F 
ENDBRANCH  65  88
ENDBRANCH  39  40
ENDBRANCH  31  34
ENDBRANCH  29  30
ENDBRANCH  28  29
ENDBRANCH   1  28
TORSDOF 15
ENDMDL
