MODEL 1
REMARK VINA RESULT:     -13.7      0.000      0.000
REMARK SMILES O=C(CCn1cc(/C=C\C(=O)c2ccc(F)cc2)c(-c2cccc(Cl)c2)n1)NCCCCNC(=O)c1ccc(-c2c3nc(c(-c4c(F)c(F)c(F)c(F)c4F)c4ccc([nH]4)c(-c4c(F)c(F)c(F)c(F)c4F)c4nc(c(-c5c(F)c(F)c(F)c(F)c5F)c5ccc2[nH]5)C=C4)C=C3)cc1
REMARK SMILES IDX 29 1 28 2 1 3 2 4 3 6 4 7 5 8 6 9 27 10 7 11 19 12 8 13 9 14
REMARK SMILES IDX 10 15 11 16 12 17 13 18 18 19 14 20 17 21 15 22 16 23 20 24
REMARK SMILES IDX 21 25 26 26 22 27 24 28 23 29 25 30 30 31 31 32 32 33 33 34
REMARK SMILES IDX 34 35 35 37 36 38 37 39 98 40 38 41 97 42 39 43 40 44 41 45
REMARK SMILES IDX 91 46 42 47 96 48 90 49 92 50 43 51 95 52 89 53 88 54 44 56
REMARK SMILES IDX 76 57 56 58 75 59 57 60 60 61 74 62 93 63 58 64 59 65 73 67
REMARK SMILES IDX 94 68 61 69 45 70 46 71 54 72 47 73 48 74 52 75 55 76 49 77
REMARK SMILES IDX 50 78 53 79 51 80 77 81 78 82 86 83 79 84 80 85 84 86 87 87
REMARK SMILES IDX 81 88 82 89 85 90 83 91 62 92 63 93 71 94 64 95 65 96 69 97
REMARK SMILES IDX 72 98 66 99 67 100 70 101 68 102
REMARK H PARENT 28 5 33 36 92 55 60 66
REMARK Flexibility Score: inf
ROOT
ATOM      1  C   UNL A   1      41.925  21.245  25.869  1.00  0.00     0.116 C 
ENDROOT
BRANCH   1   2
ATOM      2  N   UNL A   1      40.989  22.316  26.295  1.00  0.00    -0.356 N 
ATOM      3  O   UNL A   1      39.087  21.152  25.735  1.00  0.00    -0.275 OA
ATOM      4  C   UNL A   1      39.603  22.147  26.241  1.00  0.00     0.221 C 
ATOM      5  H   UNL A   1      41.354  23.168  26.625  1.00  0.00     0.163 HD
BRANCH   4   6
ATOM      6  C   UNL A   1      38.720  23.237  26.865  1.00  0.00     0.123 C 
BRANCH   6   7
ATOM      7  C   UNL A   1      37.795  24.015  25.910  1.00  0.00     0.154 C 
BRANCH   7   8
ATOM      8  N   UNL A   1      36.550  23.353  25.562  1.00  0.00    -0.271 N 
ATOM      9  C   UNL A   1      36.106  23.019  24.313  1.00  0.00     0.117 A 
ATOM     10  N   UNL A   1      35.551  23.453  26.447  1.00  0.00    -0.172 NA
ATOM     11  C   UNL A   1      34.813  23.497  24.281  1.00  0.00     0.021 A 
ATOM     12  C   UNL A   1      34.583  23.916  25.661  1.00  0.00     0.100 A 
BRANCH  11  13
ATOM     13  C   UNL A   1      34.162  23.694  23.018  1.00  0.00     0.016 C 
ATOM     14  C   UNL A   1      33.023  23.213  22.509  1.00  0.00     0.053 C 
BRANCH  14  15
ATOM     15  C   UNL A   1      32.052  22.218  23.022  1.00  0.00     0.185 C 
ATOM     16  O   UNL A   1      30.895  22.573  22.889  1.00  0.00    -0.289 OA
BRANCH  15  17
ATOM     17  C   UNL A   1      32.554  20.880  23.649  1.00  0.00     0.022 A 
ATOM     18  C   UNL A   1      32.328  19.679  22.319  1.00  0.00     0.015 A 
ATOM     19  C   UNL A   1      32.897  20.091  25.504  1.00  0.00     0.015 A 
ATOM     20  C   UNL A   1      32.274  17.956  22.758  1.00  0.00     0.040 A 
ATOM     21  C   UNL A   1      32.829  18.332  25.746  1.00  0.00     0.040 A 
ATOM     22  C   UNL A   1      32.487  17.347  24.393  1.00  0.00     0.123 A 
ATOM     23  F   UNL A   1      32.570  16.020  24.554  1.00  0.00    -0.207 F 
ENDBRANCH  15  17
ENDBRANCH  14  15
ENDBRANCH  11  13
BRANCH  12  24
ATOM     24  C   UNL A   1      33.501  24.824  26.203  1.00  0.00     0.004 A 
ATOM     25  C   UNL A   1      32.749  26.655  25.679  1.00  0.00     0.010 A 
ATOM     26  C   UNL A   1      32.308  23.545  26.671  1.00  0.00     0.031 A 
ATOM     27  C   UNL A   1      31.025  26.882  25.586  1.00  0.00     0.002 A 
ATOM     28  C   UNL A   1      30.641  23.906  26.554  1.00  0.00     0.041 A 
ATOM     29  C   UNL A   1      30.090  25.485  25.996  1.00  0.00     0.020 A 
ATOM     30  Cl  UNL A   1      29.532  22.731  27.130  1.00  0.00    -0.084 Cl
ENDBRANCH  12  24
ENDBRANCH   7   8
ENDBRANCH   6   7
ENDBRANCH   4   6
ENDBRANCH   1   2
BRANCH   1  31
ATOM     31  C   UNL A   1      42.185  20.089  26.864  1.00  0.00     0.023 C 
BRANCH  31  32
ATOM     32  C   UNL A   1      43.153  18.936  26.491  1.00  0.00     0.023 C 
BRANCH  32  33
ATOM     33  C   UNL A   1      43.686  18.830  25.035  1.00  0.00     0.116 C 
BRANCH  33  34
ATOM     34  N   UNL A   1      45.130  19.083  24.800  1.00  0.00    -0.352 N 
ATOM     35  C   UNL A   1      45.927  20.251  24.738  1.00  0.00     0.251 C 
ATOM     36  H   UNL A   1      45.647  18.257  24.655  1.00  0.00     0.163 HD
ATOM     37  O   UNL A   1      47.101  20.128  24.388  1.00  0.00    -0.269 OA
BRANCH  35  38
ATOM     38  C   UNL A   1      45.462  21.633  25.116  1.00  0.00     0.039 A 
ATOM     39  C   UNL A   1      44.689  22.559  24.353  1.00  0.00     0.014 A 
ATOM     40  C   UNL A   1      45.837  22.108  26.321  1.00  0.00     0.014 A 
ATOM     41  C   UNL A   1      44.408  23.927  24.831  1.00  0.00     0.010 A 
ATOM     42  C   UNL A   1      45.113  23.175  26.798  1.00  0.00     0.010 A 
ATOM     43  C   UNL A   1      44.834  24.325  26.093  1.00  0.00    -0.014 A 
BRANCH  43  44
ATOM     44  C   UNL A   1      44.568  25.562  27.027  1.00  0.00     0.031 A 
ATOM     45  C   UNL A   1      45.441  26.752  26.558  1.00  0.00     0.074 A 
ATOM     46  C   UNL A   1      43.395  25.781  27.840  1.00  0.00     0.049 A 
ATOM     47  N   UNL A   1      46.226  27.424  27.332  1.00  0.00    -0.248 NA
ATOM     48  C   UNL A   1      45.617  27.230  25.152  1.00  0.00     0.031 C 
ATOM     49  C   UNL A   1      42.240  24.827  28.045  1.00  0.00     0.029 A 
ATOM     50  N   UNL A   1      42.754  26.968  28.359  1.00  0.00    -0.354 N 
ATOM     51  C   UNL A   1      46.589  28.576  26.624  1.00  0.00     0.074 A 
ATOM     52  C   UNL A   1      46.399  28.305  25.248  1.00  0.00     0.031 C 
ATOM     53  C   UNL A   1      41.059  25.470  28.329  1.00  0.00     0.029 A 
ATOM     54  C   UNL A   1      41.284  26.891  28.577  1.00  0.00     0.049 A 
ATOM     55  H   UNL A   1      43.264  27.786  28.557  1.00  0.00     0.167 HD
ATOM     56  C   UNL A   1      46.659  29.757  27.287  1.00  0.00     0.037 A 
ATOM     57  C   UNL A   1      40.390  27.882  29.019  1.00  0.00     0.037 A 
ATOM     58  C   UNL A   1      46.621  29.476  28.697  1.00  0.00     0.049 A 
ATOM     59  C   UNL A   1      41.242  28.773  29.816  1.00  0.00     0.074 A 
ATOM     60  C   UNL A   1      47.481  28.780  29.525  1.00  0.00     0.029 A 
ATOM     61  N   UNL A   1      45.358  29.341  29.210  1.00  0.00    -0.354 N 
ATOM     62  N   UNL A   1      41.823  28.387  30.913  1.00  0.00    -0.248 NA
ATOM     63  C   UNL A   1      41.663  30.048  29.261  1.00  0.00     0.031 C 
ATOM     64  C   UNL A   1      46.666  28.140  30.492  1.00  0.00     0.029 A 
ATOM     65  C   UNL A   1      45.378  28.645  30.394  1.00  0.00     0.049 A 
ATOM     66  H   UNL A   1      44.543  29.696  28.787  1.00  0.00     0.167 HD
ATOM     67  C   UNL A   1      43.017  29.048  30.842  1.00  0.00     0.074 A 
ATOM     68  C   UNL A   1      42.791  30.192  29.958  1.00  0.00     0.031 C 
ATOM     69  C   UNL A   1      44.155  28.349  31.094  1.00  0.00     0.037 A 
BRANCH  56  70
ATOM     70  C   UNL A   1      46.357  31.135  26.758  1.00  0.00     0.064 A 
ATOM     71  C   UNL A   1      45.063  31.652  26.535  1.00  0.00     0.173 A 
ATOM     72  C   UNL A   1      47.401  32.078  26.738  1.00  0.00     0.173 A 
ATOM     73  F   UNL A   1      43.978  30.871  26.546  1.00  0.00    -0.203 F 
ATOM     74  C   UNL A   1      44.832  33.020  26.350  1.00  0.00     0.198 A 
ATOM     75  C   UNL A   1      47.167  33.444  26.568  1.00  0.00     0.198 A 
ATOM     76  F   UNL A   1      48.669  31.686  26.940  1.00  0.00    -0.203 F 
ATOM     77  F   UNL A   1      43.578  33.469  26.189  1.00  0.00    -0.200 F 
ATOM     78  C   UNL A   1      45.881  33.916  26.384  1.00  0.00     0.200 A 
ATOM     79  F   UNL A   1      48.190  34.306  26.628  1.00  0.00    -0.200 F 
ATOM     80  F   UNL A   1      45.652  35.231  26.263  1.00  0.00    -0.200 F 
ENDBRANCH  56  70
BRANCH  57  81
ATOM     81  C   UNL A   1      38.903  28.350  29.056  1.00  0.00     0.064 A 
ATOM     82  C   UNL A   1      38.393  29.170  28.036  1.00  0.00     0.173 A 
ATOM     83  C   UNL A   1      38.126  28.441  30.252  1.00  0.00     0.173 A 
ATOM     84  F   UNL A   1      39.109  29.337  26.934  1.00  0.00    -0.203 F 
ATOM     85  C   UNL A   1      37.246  29.988  28.155  1.00  0.00     0.198 A 
ATOM     86  C   UNL A   1      36.990  29.285  30.395  1.00  0.00     0.198 A 
ATOM     87  F   UNL A   1      38.509  27.784  31.356  1.00  0.00    -0.203 F 
ATOM     88  F   UNL A   1      36.881  30.776  27.132  1.00  0.00    -0.200 F 
ATOM     89  C   UNL A   1      36.557  30.067  29.344  1.00  0.00     0.200 A 
ATOM     90  F   UNL A   1      36.371  29.397  31.581  1.00  0.00    -0.200 F 
ATOM     91  F   UNL A   1      35.541  30.933  29.494  1.00  0.00    -0.200 F 
ENDBRANCH  57  81
BRANCH  69  92
ATOM     92  C   UNL A   1      44.122  27.135  31.987  1.00  0.00     0.064 A 
ATOM     93  C   UNL A   1      43.966  27.382  33.354  1.00  0.00     0.173 A 
ATOM     94  C   UNL A   1      44.390  25.804  31.621  1.00  0.00     0.173 A 
ATOM     95  F   UNL A   1      43.701  28.628  33.777  1.00  0.00    -0.203 F 
ATOM     96  C   UNL A   1      44.144  26.383  34.303  1.00  0.00     0.198 A 
ATOM     97  C   UNL A   1      44.560  24.795  32.570  1.00  0.00     0.198 A 
ATOM     98  F   UNL A   1      44.523  25.442  30.348  1.00  0.00    -0.203 F 
ATOM     99  F   UNL A   1      44.058  26.688  35.604  1.00  0.00    -0.200 F 
ATOM    100  C   UNL A   1      44.452  25.091  33.914  1.00  0.00     0.200 A 
ATOM    101  F   UNL A   1      44.863  23.547  32.180  1.00  0.00    -0.200 F 
ATOM    102  F   UNL A   1      44.654  24.138  34.833  1.00  0.00    -0.200 F 
ENDBRANCH  69  92
ENDBRANCH  43  44
ENDBRANCH  35  38
ENDBRANCH  33  34
ENDBRANCH  32  33
ENDBRANCH  31  32
ENDBRANCH   1  31
TORSDOF 17
ENDMDL
MODEL 2
REMARK VINA RESULT:     -13.4      1.866      3.630
REMARK SMILES O=C(CCn1cc(/C=C\C(=O)c2ccc(F)cc2)c(-c2cccc(Cl)c2)n1)NCCCCNC(=O)c1ccc(-c2c3nc(c(-c4c(F)c(F)c(F)c(F)c4F)c4ccc([nH]4)c(-c4c(F)c(F)c(F)c(F)c4F)c4nc(c(-c5c(F)c(F)c(F)c(F)c5F)c5ccc2[nH]5)C=C4)C=C3)cc1
REMARK SMILES IDX 29 1 28 2 1 3 2 4 3 6 4 7 5 8 6 9 27 10 7 11 19 12 8 13 9 14
REMARK SMILES IDX 10 15 11 16 12 17 13 18 18 19 14 20 17 21 15 22 16 23 20 24
REMARK SMILES IDX 21 25 26 26 22 27 24 28 23 29 25 30 30 31 31 32 32 33 33 34
REMARK SMILES IDX 34 35 35 37 36 38 37 39 98 40 38 41 97 42 39 43 40 44 41 45
REMARK SMILES IDX 91 46 42 47 96 48 90 49 92 50 43 51 95 52 89 53 88 54 44 56
REMARK SMILES IDX 76 57 56 58 75 59 57 60 60 61 74 62 93 63 58 64 59 65 73 67
REMARK SMILES IDX 94 68 61 69 45 70 46 71 54 72 47 73 48 74 52 75 55 76 49 77
REMARK SMILES IDX 50 78 53 79 51 80 77 81 78 82 86 83 79 84 80 85 84 86 87 87
REMARK SMILES IDX 81 88 82 89 85 90 83 91 62 92 63 93 71 94 64 95 65 96 69 97
REMARK SMILES IDX 72 98 66 99 67 100 70 101 68 102
REMARK H PARENT 28 5 33 36 92 55 60 66
REMARK Flexibility Score: inf
ROOT
ATOM      1  C   UNL A   1      41.053  21.631  26.005  1.00  0.00     0.116 C 
ENDROOT
BRANCH   1   2
ATOM      2  N   UNL A   1      39.890  22.546  26.134  1.00  0.00    -0.356 N 
ATOM      3  O   UNL A   1      38.366  21.057  25.271  1.00  0.00    -0.275 OA
ATOM      4  C   UNL A   1      38.595  22.145  25.796  1.00  0.00     0.221 C 
ATOM      5  H   UNL A   1      40.036  23.461  26.467  1.00  0.00     0.163 HD
BRANCH   4   6
ATOM      6  C   UNL A   1      37.437  23.097  26.128  1.00  0.00     0.123 C 
BRANCH   6   7
ATOM      7  C   UNL A   1      36.020  22.493  26.134  1.00  0.00     0.154 C 
BRANCH   7   8
ATOM      8  N   UNL A   1      35.025  23.216  25.361  1.00  0.00    -0.271 N 
ATOM      9  C   UNL A   1      34.141  24.155  25.814  1.00  0.00     0.117 A 
ATOM     10  N   UNL A   1      34.619  22.642  24.223  1.00  0.00    -0.172 NA
ATOM     11  C   UNL A   1      32.928  23.743  25.303  1.00  0.00     0.021 A 
ATOM     12  C   UNL A   1      33.302  22.650  24.410  1.00  0.00     0.100 A 
BRANCH  11  13
ATOM     13  C   UNL A   1      31.712  24.237  25.882  1.00  0.00     0.016 C 
ATOM     14  C   UNL A   1      30.632  24.816  25.347  1.00  0.00     0.053 C 
BRANCH  14  15
ATOM     15  C   UNL A   1      30.327  25.255  23.965  1.00  0.00     0.185 C 
ATOM     16  O   UNL A   1      30.311  24.334  23.169  1.00  0.00    -0.289 OA
BRANCH  15  17
ATOM     17  C   UNL A   1      30.064  26.762  23.658  1.00  0.00     0.022 A 
ATOM     18  C   UNL A   1      28.279  26.933  23.878  1.00  0.00     0.015 A 
ATOM     19  C   UNL A   1      30.990  28.315  22.703  1.00  0.00     0.015 A 
ATOM     20  C   UNL A   1      27.482  28.335  23.128  1.00  0.00     0.040 A 
ATOM     21  C   UNL A   1      30.024  29.651  22.039  1.00  0.00     0.040 A 
ATOM     22  C   UNL A   1      28.329  29.594  22.239  1.00  0.00     0.123 A 
ATOM     23  F   UNL A   1      27.621  30.665  21.857  1.00  0.00    -0.207 F 
ENDBRANCH  15  17
ENDBRANCH  14  15
ENDBRANCH  11  13
BRANCH  12  24
ATOM     24  C   UNL A   1      32.420  21.572  23.818  1.00  0.00     0.004 A 
ATOM     25  C   UNL A   1      32.018  20.907  21.923  1.00  0.00     0.010 A 
ATOM     26  C   UNL A   1      32.661  20.316  25.099  1.00  0.00     0.031 A 
ATOM     27  C   UNL A   1      32.039  19.198  21.589  1.00  0.00     0.002 A 
ATOM     28  C   UNL A   1      32.637  18.669  24.640  1.00  0.00     0.041 A 
ATOM     29  C   UNL A   1      32.380  18.199  22.960  1.00  0.00     0.020 A 
ATOM     30  Cl  UNL A   1      32.730  17.495  25.886  1.00  0.00    -0.084 Cl
ENDBRANCH  12  24
ENDBRANCH   7   8
ENDBRANCH   6   7
ENDBRANCH   4   6
ENDBRANCH   1   2
BRANCH   1  31
ATOM     31  C   UNL A   1      41.361  20.699  27.201  1.00  0.00     0.023 C 
BRANCH  31  32
ATOM     32  C   UNL A   1      42.314  19.489  27.027  1.00  0.00     0.023 C 
BRANCH  32  33
ATOM     33  C   UNL A   1      42.656  18.988  25.595  1.00  0.00     0.116 C 
BRANCH  33  34
ATOM     34  N   UNL A   1      44.058  19.119  25.125  1.00  0.00    -0.352 N 
ATOM     35  C   UNL A   1      44.911  20.219  24.871  1.00  0.00     0.251 C 
ATOM     36  H   UNL A   1      44.489  18.251  24.953  1.00  0.00     0.163 HD
ATOM     37  O   UNL A   1      46.005  19.991  24.353  1.00  0.00    -0.269 OA
BRANCH  35  38
ATOM     38  C   UNL A   1      44.606  21.650  25.233  1.00  0.00     0.039 A 
ATOM     39  C   UNL A   1      44.044  22.679  24.419  1.00  0.00     0.014 A 
ATOM     40  C   UNL A   1      44.923  22.059  26.477  1.00  0.00     0.014 A 
ATOM     41  C   UNL A   1      43.908  24.069  24.897  1.00  0.00     0.010 A 
ATOM     42  C   UNL A   1      44.309  23.213  26.906  1.00  0.00     0.010 A 
ATOM     43  C   UNL A   1      44.260  24.395  26.202  1.00  0.00    -0.014 A 
BRANCH  43  44
ATOM     44  C   UNL A   1      44.077  25.650  27.133  1.00  0.00     0.031 A 
ATOM     45  C   UNL A   1      44.988  26.795  26.628  1.00  0.00     0.074 A 
ATOM     46  C   UNL A   1      42.938  25.928  27.975  1.00  0.00     0.049 A 
ATOM     47  N   UNL A   1      45.825  27.437  27.375  1.00  0.00    -0.248 NA
ATOM     48  C   UNL A   1      45.147  27.254  25.214  1.00  0.00     0.031 C 
ATOM     49  C   UNL A   1      41.747  25.028  28.221  1.00  0.00     0.029 A 
ATOM     50  N   UNL A   1      42.366  27.146  28.501  1.00  0.00    -0.354 N 
ATOM     51  C   UNL A   1      46.219  28.566  26.647  1.00  0.00     0.074 A 
ATOM     52  C   UNL A   1      45.979  28.294  25.279  1.00  0.00     0.031 C 
ATOM     53  C   UNL A   1      40.605  25.726  28.531  1.00  0.00     0.029 A 
ATOM     54  C   UNL A   1      40.901  27.137  28.761  1.00  0.00     0.049 A 
ATOM     55  H   UNL A   1      42.918  27.941  28.678  1.00  0.00     0.167 HD
ATOM     56  C   UNL A   1      46.361  29.748  27.298  1.00  0.00     0.037 A 
ATOM     57  C   UNL A   1      40.065  28.172  29.219  1.00  0.00     0.037 A 
ATOM     58  C   UNL A   1      46.350  29.480  28.710  1.00  0.00     0.049 A 
ATOM     59  C   UNL A   1      40.979  29.029  29.984  1.00  0.00     0.074 A 
ATOM     60  C   UNL A   1      47.200  28.751  29.520  1.00  0.00     0.029 A 
ATOM     61  N   UNL A   1      45.097  29.405  29.259  1.00  0.00    -0.354 N 
ATOM     62  N   UNL A   1      41.572  28.625  31.068  1.00  0.00    -0.248 NA
ATOM     63  C   UNL A   1      41.441  30.279  29.406  1.00  0.00     0.031 C 
ATOM     64  C   UNL A   1      46.386  28.156  30.515  1.00  0.00     0.029 A 
ATOM     65  C   UNL A   1      45.119  28.718  30.448  1.00  0.00     0.049 A 
ATOM     66  H   UNL A   1      44.287  29.793  28.856  1.00  0.00     0.167 HD
ATOM     67  C   UNL A   1      42.792  29.231  30.958  1.00  0.00     0.074 A 
ATOM     68  C   UNL A   1      42.593  30.378  30.071  1.00  0.00     0.031 C 
ATOM     69  C   UNL A   1      43.904  28.483  31.185  1.00  0.00     0.037 A 
BRANCH  56  70
ATOM     70  C   UNL A   1      46.106  31.134  26.764  1.00  0.00     0.064 A 
ATOM     71  C   UNL A   1      44.831  31.704  26.565  1.00  0.00     0.173 A 
ATOM     72  C   UNL A   1      47.189  32.031  26.717  1.00  0.00     0.173 A 
ATOM     73  F   UNL A   1      43.715  30.970  26.603  1.00  0.00    -0.203 F 
ATOM     74  C   UNL A   1      44.654  33.079  26.375  1.00  0.00     0.198 A 
ATOM     75  C   UNL A   1      47.009  33.405  26.542  1.00  0.00     0.198 A 
ATOM     76  F   UNL A   1      48.443  31.588  26.896  1.00  0.00    -0.203 F 
ATOM     77  F   UNL A   1      43.417  33.581  26.236  1.00  0.00    -0.200 F 
ATOM     78  C   UNL A   1      45.741  33.930  26.381  1.00  0.00     0.200 A 
ATOM     79  F   UNL A   1      48.069  34.223  26.575  1.00  0.00    -0.200 F 
ATOM     80  F   UNL A   1      45.565  35.253  26.256  1.00  0.00    -0.200 F 
ENDBRANCH  56  70
BRANCH  57  81
ATOM     81  C   UNL A   1      38.602  28.707  29.293  1.00  0.00     0.064 A 
ATOM     82  C   UNL A   1      38.094  29.523  28.270  1.00  0.00     0.173 A 
ATOM     83  C   UNL A   1      37.872  28.862  30.512  1.00  0.00     0.173 A 
ATOM     84  F   UNL A   1      38.778  29.631  27.141  1.00  0.00    -0.203 F 
ATOM     85  C   UNL A   1      36.989  30.395  28.405  1.00  0.00     0.198 A 
ATOM     86  C   UNL A   1      36.780  29.759  30.671  1.00  0.00     0.198 A 
ATOM     87  F   UNL A   1      38.263  28.215  31.619  1.00  0.00    -0.203 F 
ATOM     88  F   UNL A   1      36.624  31.173  27.375  1.00  0.00    -0.200 F 
ATOM     89  C   UNL A   1      36.345  30.534  29.614  1.00  0.00     0.200 A 
ATOM     90  F   UNL A   1      36.207  29.928  31.873  1.00  0.00    -0.200 F 
ATOM     91  F   UNL A   1      35.374  31.448  29.775  1.00  0.00    -0.200 F 
ENDBRANCH  57  81
BRANCH  69  92
ATOM     92  C   UNL A   1      43.842  27.278  32.089  1.00  0.00     0.064 A 
ATOM     93  C   UNL A   1      43.643  27.540  33.447  1.00  0.00     0.173 A 
ATOM     94  C   UNL A   1      44.120  25.943  31.745  1.00  0.00     0.173 A 
ATOM     95  F   UNL A   1      43.366  28.790  33.848  1.00  0.00    -0.203 F 
ATOM     96  C   UNL A   1      43.789  26.550  34.412  1.00  0.00     0.198 A 
ATOM     97  C   UNL A   1      44.258  24.944  32.709  1.00  0.00     0.198 A 
ATOM     98  F   UNL A   1      44.292  25.568  30.480  1.00  0.00    -0.203 F 
ATOM     99  F   UNL A   1      43.663  26.869  35.706  1.00  0.00    -0.200 F 
ATOM    100  C   UNL A   1      44.108  25.254  34.046  1.00  0.00     0.200 A 
ATOM    101  F   UNL A   1      44.572  23.692  32.342  1.00  0.00    -0.200 F 
ATOM    102  F   UNL A   1      44.280  24.310  34.981  1.00  0.00    -0.200 F 
ENDBRANCH  69  92
ENDBRANCH  43  44
ENDBRANCH  35  38
ENDBRANCH  33  34
ENDBRANCH  32  33
ENDBRANCH  31  32
ENDBRANCH   1  31
TORSDOF 17
ENDMDL
MODEL 3
REMARK VINA RESULT:     -12.9      4.705     10.567
REMARK SMILES O=C(CCn1cc(/C=C\C(=O)c2ccc(F)cc2)c(-c2cccc(Cl)c2)n1)NCCCCNC(=O)c1ccc(-c2c3nc(c(-c4c(F)c(F)c(F)c(F)c4F)c4ccc([nH]4)c(-c4c(F)c(F)c(F)c(F)c4F)c4nc(c(-c5c(F)c(F)c(F)c(F)c5F)c5ccc2[nH]5)C=C4)C=C3)cc1
REMARK SMILES IDX 29 1 28 2 1 3 2 4 3 6 4 7 5 8 6 9 27 10 7 11 19 12 8 13 9 14
REMARK SMILES IDX 10 15 11 16 12 17 13 18 18 19 14 20 17 21 15 22 16 23 20 24
REMARK SMILES IDX 21 25 26 26 22 27 24 28 23 29 25 30 30 31 31 32 32 33 33 34
REMARK SMILES IDX 34 35 35 37 36 38 37 39 98 40 38 41 97 42 39 43 40 44 41 45
REMARK SMILES IDX 91 46 42 47 96 48 90 49 92 50 43 51 95 52 89 53 88 54 44 56
REMARK SMILES IDX 76 57 56 58 75 59 57 60 60 61 74 62 93 63 58 64 59 65 73 67
REMARK SMILES IDX 94 68 61 69 45 70 46 71 54 72 47 73 48 74 52 75 55 76 49 77
REMARK SMILES IDX 50 78 53 79 51 80 77 81 78 82 86 83 79 84 80 85 84 86 87 87
REMARK SMILES IDX 81 88 82 89 85 90 83 91 62 92 63 93 71 94 64 95 65 96 69 97
REMARK SMILES IDX 72 98 66 99 67 100 70 101 68 102
REMARK H PARENT 28 5 33 36 92 55 60 66
REMARK Flexibility Score: inf
ROOT
ATOM      1  C   UNL A   1      34.835  34.129  28.806  1.00  0.00     0.116 C 
ENDROOT
BRANCH   1   2
ATOM      2  N   UNL A   1      33.891  33.074  28.357  1.00  0.00    -0.356 N 
ATOM      3  O   UNL A   1      35.528  31.666  27.565  1.00  0.00    -0.275 OA
ATOM      4  C   UNL A   1      34.339  31.870  27.808  1.00  0.00     0.221 C 
ATOM      5  H   UNL A   1      32.923  33.228  28.447  1.00  0.00     0.163 HD
BRANCH   4   6
ATOM      6  C   UNL A   1      33.300  30.773  27.535  1.00  0.00     0.123 C 
BRANCH   6   7
ATOM      7  C   UNL A   1      33.827  29.330  27.415  1.00  0.00     0.154 C 
BRANCH   7   8
ATOM      8  N   UNL A   1      33.469  28.630  26.194  1.00  0.00    -0.271 N 
ATOM      9  C   UNL A   1      32.271  28.662  25.537  1.00  0.00     0.117 A 
ATOM     10  N   UNL A   1      34.179  27.534  25.902  1.00  0.00    -0.172 NA
ATOM     11  C   UNL A   1      31.976  27.333  25.317  1.00  0.00     0.021 A 
ATOM     12  C   UNL A   1      33.198  26.652  25.736  1.00  0.00     0.100 A 
BRANCH  11  13
ATOM     13  C   UNL A   1      30.626  26.948  25.018  1.00  0.00     0.016 C 
ATOM     14  C   UNL A   1      29.805  27.263  24.010  1.00  0.00     0.053 C 
BRANCH  14  15
ATOM     15  C   UNL A   1      29.946  28.205  22.876  1.00  0.00     0.185 C 
ATOM     16  O   UNL A   1      30.643  27.765  21.980  1.00  0.00    -0.289 OA
BRANCH  15  17
ATOM     17  C   UNL A   1      29.235  29.593  22.913  1.00  0.00     0.022 A 
ATOM     18  C   UNL A   1      28.331  29.647  21.351  1.00  0.00     0.015 A 
ATOM     19  C   UNL A   1      29.411  31.379  23.895  1.00  0.00     0.015 A 
ATOM     20  C   UNL A   1      27.816  31.239  20.745  1.00  0.00     0.040 A 
ATOM     21  C   UNL A   1      28.808  32.869  23.139  1.00  0.00     0.040 A 
ATOM     22  C   UNL A   1      28.079  32.752  21.600  1.00  0.00     0.123 A 
ATOM     23  F   UNL A   1      27.508  33.855  21.097  1.00  0.00    -0.207 F 
ENDBRANCH  15  17
ENDBRANCH  14  15
ENDBRANCH  11  13
BRANCH  12  24
ATOM     24  C   UNL A   1      33.397  25.188  26.062  1.00  0.00     0.004 A 
ATOM     25  C   UNL A   1      32.162  23.636  26.569  1.00  0.00     0.010 A 
ATOM     26  C   UNL A   1      34.712  24.840  24.867  1.00  0.00     0.031 A 
ATOM     27  C   UNL A   1      32.336  22.100  25.766  1.00  0.00     0.002 A 
ATOM     28  C   UNL A   1      34.783  23.281  24.167  1.00  0.00     0.041 A 
ATOM     29  C   UNL A   1      33.610  22.038  24.597  1.00  0.00     0.020 A 
ATOM     30  Cl  UNL A   1      36.114  22.931  23.143  1.00  0.00    -0.084 Cl
ENDBRANCH  12  24
ENDBRANCH   7   8
ENDBRANCH   6   7
ENDBRANCH   4   6
ENDBRANCH   1   2
BRANCH   1  31
ATOM     31  C   UNL A   1      34.396  35.601  28.622  1.00  0.00     0.023 C 
BRANCH  31  32
ATOM     32  C   UNL A   1      33.078  36.112  29.258  1.00  0.00     0.023 C 
BRANCH  32  33
ATOM     33  C   UNL A   1      32.639  35.565  30.645  1.00  0.00     0.116 C 
BRANCH  33  34
ATOM     34  N   UNL A   1      33.187  36.218  31.860  1.00  0.00    -0.352 N 
ATOM     35  C   UNL A   1      34.189  35.871  32.796  1.00  0.00     0.251 C 
ATOM     36  H   UNL A   1      32.759  37.083  32.058  1.00  0.00     0.163 HD
ATOM     37  O   UNL A   1      34.319  36.586  33.791  1.00  0.00    -0.269 OA
BRANCH  35  38
ATOM     38  C   UNL A   1      35.148  34.718  32.647  1.00  0.00     0.039 A 
ATOM     39  C   UNL A   1      34.869  33.318  32.627  1.00  0.00     0.014 A 
ATOM     40  C   UNL A   1      36.460  35.008  32.547  1.00  0.00     0.014 A 
ATOM     41  C   UNL A   1      35.944  32.306  32.581  1.00  0.00     0.010 A 
ATOM     42  C   UNL A   1      37.260  34.011  32.040  1.00  0.00     0.010 A 
ATOM     43  C   UNL A   1      37.272  32.704  32.475  1.00  0.00    -0.014 A 
BRANCH  43  44
ATOM     44  C   UNL A   1      38.639  31.981  32.192  1.00  0.00     0.031 A 
ATOM     45  C   UNL A   1      39.227  31.462  33.527  1.00  0.00     0.074 A 
ATOM     46  C   UNL A   1      39.063  31.420  30.931  1.00  0.00     0.049 A 
ATOM     47  N   UNL A   1      40.427  31.711  33.936  1.00  0.00    -0.248 NA
ATOM     48  C   UNL A   1      38.493  30.719  34.597  1.00  0.00     0.031 C 
ATOM     49  C   UNL A   1      38.337  31.508  29.607  1.00  0.00     0.029 A 
ATOM     50  N   UNL A   1      39.983  30.366  30.572  1.00  0.00    -0.354 N 
ATOM     51  C   UNL A   1      40.672  30.836  35.000  1.00  0.00     0.074 A 
ATOM     52  C   UNL A   1      39.417  30.432  35.514  1.00  0.00     0.031 C 
ATOM     53  C   UNL A   1      38.609  30.447  28.777  1.00  0.00     0.029 A 
ATOM     54  C   UNL A   1      39.701  29.636  29.307  1.00  0.00     0.049 A 
ATOM     55  H   UNL A   1      40.758  30.142  31.137  1.00  0.00     0.167 HD
ATOM     56  C   UNL A   1      41.893  30.253  35.102  1.00  0.00     0.037 A 
ATOM     57  C   UNL A   1      40.378  28.546  28.730  1.00  0.00     0.037 A 
ATOM     58  C   UNL A   1      42.785  30.937  34.204  1.00  0.00     0.049 A 
ATOM     59  C   UNL A   1      41.743  28.683  29.253  1.00  0.00     0.074 A 
ATOM     60  C   UNL A   1      43.235  32.242  34.163  1.00  0.00     0.029 A 
ATOM     61  N   UNL A   1      42.747  30.474  32.914  1.00  0.00    -0.354 N 
ATOM     62  N   UNL A   1      42.504  29.695  28.960  1.00  0.00    -0.248 NA
ATOM     63  C   UNL A   1      42.192  27.807  30.321  1.00  0.00     0.031 C 
ATOM     64  C   UNL A   1      43.366  32.572  32.791  1.00  0.00     0.029 A 
ATOM     65  C   UNL A   1      43.238  31.413  32.039  1.00  0.00     0.049 A 
ATOM     66  H   UNL A   1      42.413  29.587  32.649  1.00  0.00     0.167 HD
ATOM     67  C   UNL A   1      43.169  29.891  30.137  1.00  0.00     0.074 A 
ATOM     68  C   UNL A   1      43.115  28.613  30.848  1.00  0.00     0.031 C 
ATOM     69  C   UNL A   1      43.258  31.158  30.623  1.00  0.00     0.037 A 
BRANCH  56  70
ATOM     70  C   UNL A   1      42.225  28.886  35.641  1.00  0.00     0.064 A 
ATOM     71  C   UNL A   1      41.846  27.665  35.044  1.00  0.00     0.173 A 
ATOM     72  C   UNL A   1      43.204  28.794  36.647  1.00  0.00     0.173 A 
ATOM     73  F   UNL A   1      40.940  27.610  34.062  1.00  0.00    -0.203 F 
ATOM     74  C   UNL A   1      42.439  26.449  35.401  1.00  0.00     0.198 A 
ATOM     75  C   UNL A   1      43.805  27.581  36.993  1.00  0.00     0.198 A 
ATOM     76  F   UNL A   1      43.633  29.899  37.276  1.00  0.00    -0.203 F 
ATOM     77  F   UNL A   1      42.078  25.320  34.771  1.00  0.00    -0.200 F 
ATOM     78  C   UNL A   1      43.429  26.410  36.362  1.00  0.00     0.200 A 
ATOM     79  F   UNL A   1      44.782  27.561  37.908  1.00  0.00    -0.200 F 
ATOM     80  F   UNL A   1      44.035  25.253  36.663  1.00  0.00    -0.200 F 
ENDBRANCH  56  70
BRANCH  57  81
ATOM     81  C   UNL A   1      40.275  27.345  27.741  1.00  0.00     0.064 A 
ATOM     82  C   UNL A   1      39.751  26.116  28.171  1.00  0.00     0.173 A 
ATOM     83  C   UNL A   1      41.095  27.198  26.579  1.00  0.00     0.173 A 
ATOM     84  F   UNL A   1      39.128  26.062  29.339  1.00  0.00    -0.203 F 
ATOM     85  C   UNL A   1      39.986  24.872  27.542  1.00  0.00     0.198 A 
ATOM     86  C   UNL A   1      41.367  25.949  25.956  1.00  0.00     0.198 A 
ATOM     87  F   UNL A   1      41.742  28.258  26.072  1.00  0.00    -0.203 F 
ATOM     88  F   UNL A   1      39.479  23.750  28.074  1.00  0.00    -0.200 F 
ATOM     89  C   UNL A   1      40.816  24.782  26.447  1.00  0.00     0.200 A 
ATOM     90  F   UNL A   1      42.229  25.873  24.930  1.00  0.00    -0.200 F 
ATOM     91  F   UNL A   1      41.135  23.588  25.922  1.00  0.00    -0.200 F 
ENDBRANCH  57  81
BRANCH  69  92
ATOM     92  C   UNL A   1      43.207  32.339  29.686  1.00  0.00     0.064 A 
ATOM     93  C   UNL A   1      44.302  32.492  28.832  1.00  0.00     0.173 A 
ATOM     94  C   UNL A   1      42.265  33.383  29.687  1.00  0.00     0.173 A 
ATOM     95  F   UNL A   1      45.237  31.531  28.772  1.00  0.00    -0.203 F 
ATOM     96  C   UNL A   1      44.491  33.649  28.085  1.00  0.00     0.198 A 
ATOM     97  C   UNL A   1      42.445  34.542  28.932  1.00  0.00     0.198 A 
ATOM     98  F   UNL A   1      41.165  33.332  30.433  1.00  0.00    -0.203 F 
ATOM     99  F   UNL A   1      45.595  33.779  27.340  1.00  0.00    -0.200 F 
ATOM    100  C   UNL A   1      43.569  34.679  28.142  1.00  0.00     0.200 A 
ATOM    101  F   UNL A   1      41.546  35.536  28.999  1.00  0.00    -0.200 F 
ATOM    102  F   UNL A   1      43.770  35.806  27.444  1.00  0.00    -0.200 F 
ENDBRANCH  69  92
ENDBRANCH  43  44
ENDBRANCH  35  38
ENDBRANCH  33  34
ENDBRANCH  32  33
ENDBRANCH  31  32
ENDBRANCH   1  31
TORSDOF 17
ENDMDL
