MODEL 1
REMARK VINA RESULT:     -11.8      0.000      0.000
REMARK SMILES CCC(CC)(NC(=O)N[C@@H](C)[C@@H]1CCCO1)C(=O)NCCCCNC(=O)c1ccc(-c2c3nc(c(-c4c(F)c(F)c(F)c(F)c4F)c4ccc([nH]4)c(-c4c(F)c(F)c(F)c(F)c4F)c4nc(c(-c5c(F)c(F)c(F)c(F)c5F)c5ccc2[nH]5)C=C4)C=C3)cc1
REMARK SMILES IDX 21 1 20 2 19 3 17 4 18 5 3 7 2 8 1 9 4 10 5 11 6 12 7 13
REMARK SMILES IDX 8 15 9 16 10 18 11 19 12 20 13 21 16 22 14 23 15 24 22 25
REMARK SMILES IDX 23 26 24 27 25 28 26 30 27 31 28 32 89 33 29 34 88 35 30 36
REMARK SMILES IDX 31 37 32 38 82 39 33 40 87 41 81 42 83 43 34 44 86 45 80 46
REMARK SMILES IDX 79 47 35 49 67 50 47 51 66 52 48 53 51 54 65 55 84 56 49 57
REMARK SMILES IDX 50 58 64 60 85 61 52 62 36 63 37 64 45 65 38 66 39 67 43 68
REMARK SMILES IDX 46 69 40 70 41 71 44 72 42 73 68 74 69 75 77 76 70 77 71 78
REMARK SMILES IDX 75 79 78 80 72 81 73 82 76 83 74 84 53 85 54 86 62 87 55 88
REMARK SMILES IDX 56 89 60 90 63 91 57 92 58 93 61 94 59 95
REMARK H PARENT 19 6 6 14 9 17 24 29 83 48 51 59
REMARK Flexibility Score: inf
ROOT
ATOM      1  C   UNL A   1      31.212  30.711  25.554  1.00  0.00     0.023 C 
ENDROOT
BRANCH   1   2
ATOM      2  C   UNL A   1      32.405  29.749  25.620  1.00  0.00     0.116 C 
BRANCH   2   3
ATOM      3  N   UNL A   1      33.332  29.667  24.496  1.00  0.00    -0.354 N 
ATOM      4  C   UNL A   1      33.481  28.775  23.459  1.00  0.00     0.245 C 
ATOM      5  O   UNL A   1      34.149  29.177  22.498  1.00  0.00    -0.272 OA
ATOM      6  H   UNL A   1      33.985  30.403  24.475  1.00  0.00     0.163 HD
BRANCH   4   7
ATOM      7  C   UNL A   1      32.728  27.410  23.419  1.00  0.00     0.120 C 
BRANCH   7   8
ATOM      8  C   UNL A   1      31.249  27.374  23.911  1.00  0.00     0.035 C 
ATOM      9  C   UNL A   1      30.180  28.026  23.050  1.00  0.00     0.007 C 
ENDBRANCH   7   8
BRANCH   7  10
ATOM     10  C   UNL A   1      33.606  26.499  24.350  1.00  0.00     0.035 C 
ATOM     11  C   UNL A   1      33.142  26.296  25.785  1.00  0.00     0.007 C 
ENDBRANCH   7  10
BRANCH   7  12
ATOM     12  N   UNL A   1      32.714  26.949  22.016  1.00  0.00    -0.324 N 
ATOM     13  C   UNL A   1      32.772  25.739  21.434  1.00  0.00     0.315 C 
ATOM     14  H   UNL A   1      32.646  27.688  21.367  1.00  0.00     0.166 HD
ATOM     15  O   UNL A   1      33.030  25.726  20.226  1.00  0.00    -0.249 OA
ATOM     16  N   UNL A   1      32.532  24.559  22.019  1.00  0.00    -0.333 N 
ATOM     17  H   UNL A   1      32.633  23.821  21.375  1.00  0.00     0.165 HD
BRANCH  16  18
ATOM     18  C   UNL A   1      32.161  24.053  23.351  1.00  0.00     0.109 C 
ATOM     19  C   UNL A   1      30.647  23.890  23.500  1.00  0.00     0.034 C 
BRANCH  18  20
ATOM     20  C   UNL A   1      32.817  22.692  23.671  1.00  0.00     0.140 C 
ATOM     21  C   UNL A   1      32.262  21.578  22.784  1.00  0.00     0.036 C 
ATOM     22  O   UNL A   1      32.558  22.297  25.030  1.00  0.00    -0.376 OA
ATOM     23  C   UNL A   1      32.369  20.368  23.667  1.00  0.00     0.031 C 
ATOM     24  C   UNL A   1      32.084  20.947  25.035  1.00  0.00     0.160 C 
ENDBRANCH  18  20
ENDBRANCH  16  18
ENDBRANCH   7  12
ENDBRANCH   4   7
ENDBRANCH   2   3
ENDBRANCH   1   2
BRANCH   1  25
ATOM     25  C   UNL A   1      31.159  31.944  26.454  1.00  0.00     0.023 C 
BRANCH  25  26
ATOM     26  C   UNL A   1      32.485  32.426  27.017  1.00  0.00     0.116 C 
BRANCH  26  27
ATOM     27  N   UNL A   1      32.425  33.821  27.410  1.00  0.00    -0.352 N 
ATOM     28  C   UNL A   1      33.150  34.482  28.369  1.00  0.00     0.251 C 
ATOM     29  H   UNL A   1      31.772  34.371  26.920  1.00  0.00     0.163 HD
ATOM     30  O   UNL A   1      32.824  35.614  28.711  1.00  0.00    -0.269 OA
BRANCH  28  31
ATOM     31  C   UNL A   1      34.317  33.832  29.005  1.00  0.00     0.039 A 
ATOM     32  C   UNL A   1      34.094  32.776  29.893  1.00  0.00     0.014 A 
ATOM     33  C   UNL A   1      35.620  34.282  28.768  1.00  0.00     0.014 A 
ATOM     34  C   UNL A   1      35.176  32.150  30.516  1.00  0.00     0.010 A 
ATOM     35  C   UNL A   1      36.702  33.616  29.340  1.00  0.00     0.010 A 
ATOM     36  C   UNL A   1      36.491  32.552  30.231  1.00  0.00    -0.014 A 
BRANCH  36  37
ATOM     37  C   UNL A   1      37.651  31.883  30.872  1.00  0.00     0.031 A 
ATOM     38  C   UNL A   1      38.072  32.272  32.263  1.00  0.00     0.074 A 
ATOM     39  C   UNL A   1      38.353  30.960  30.188  1.00  0.00     0.049 A 
ATOM     40  N   UNL A   1      39.085  31.841  32.973  1.00  0.00    -0.248 NA
ATOM     41  C   UNL A   1      37.263  33.300  32.936  1.00  0.00     0.031 C 
ATOM     42  C   UNL A   1      38.065  30.525  28.821  1.00  0.00     0.029 A 
ATOM     43  N   UNL A   1      39.456  30.228  30.546  1.00  0.00    -0.354 N 
ATOM     44  C   UNL A   1      39.042  32.554  34.164  1.00  0.00     0.074 A 
ATOM     45  C   UNL A   1      37.934  33.478  34.065  1.00  0.00     0.031 C 
ATOM     46  C   UNL A   1      38.957  29.586  28.463  1.00  0.00     0.029 A 
ATOM     47  C   UNL A   1      39.897  29.378  29.560  1.00  0.00     0.049 A 
ATOM     48  H   UNL A   1      39.892  30.304  31.426  1.00  0.00     0.167 HD
ATOM     49  C   UNL A   1      39.841  32.432  35.250  1.00  0.00     0.037 A 
ATOM     50  C   UNL A   1      40.945  28.532  29.544  1.00  0.00     0.037 A 
ATOM     51  C   UNL A   1      40.924  31.491  35.359  1.00  0.00     0.049 A 
ATOM     52  C   UNL A   1      41.821  28.423  30.762  1.00  0.00     0.074 A 
ATOM     53  C   UNL A   1      41.749  31.244  36.443  1.00  0.00     0.029 A 
ATOM     54  N   UNL A   1      41.334  30.639  34.343  1.00  0.00    -0.354 N 
ATOM     55  N   UNL A   1      41.727  29.051  31.909  1.00  0.00    -0.248 NA
ATOM     56  C   UNL A   1      42.946  27.479  30.685  1.00  0.00     0.031 C 
ATOM     57  C   UNL A   1      42.689  30.277  36.067  1.00  0.00     0.029 A 
ATOM     58  C   UNL A   1      42.417  29.885  34.767  1.00  0.00     0.049 A 
ATOM     59  H   UNL A   1      40.918  30.579  33.453  1.00  0.00     0.167 HD
ATOM     60  C   UNL A   1      42.758  28.559  32.699  1.00  0.00     0.074 A 
ATOM     61  C   UNL A   1      43.456  27.569  31.905  1.00  0.00     0.031 C 
ATOM     62  C   UNL A   1      43.095  28.896  33.968  1.00  0.00     0.037 A 
BRANCH  49  63
ATOM     63  C   UNL A   1      39.576  33.342  36.416  1.00  0.00     0.064 A 
ATOM     64  C   UNL A   1      38.726  32.965  37.466  1.00  0.00     0.173 A 
ATOM     65  C   UNL A   1      40.216  34.588  36.505  1.00  0.00     0.173 A 
ATOM     66  F   UNL A   1      38.081  31.789  37.425  1.00  0.00    -0.203 F 
ATOM     67  C   UNL A   1      38.503  33.814  38.549  1.00  0.00     0.198 A 
ATOM     68  C   UNL A   1      40.015  35.420  37.603  1.00  0.00     0.198 A 
ATOM     69  F   UNL A   1      41.045  34.994  35.532  1.00  0.00    -0.203 F 
ATOM     70  F   UNL A   1      37.649  33.453  39.517  1.00  0.00    -0.200 F 
ATOM     71  C   UNL A   1      39.153  35.036  38.620  1.00  0.00     0.200 A 
ATOM     72  F   UNL A   1      40.654  36.596  37.677  1.00  0.00    -0.200 F 
ATOM     73  F   UNL A   1      38.944  35.848  39.665  1.00  0.00    -0.200 F 
ENDBRANCH  49  63
BRANCH  50  74
ATOM     74  C   UNL A   1      41.211  27.702  28.340  1.00  0.00     0.064 A 
ATOM     75  C   UNL A   1      42.090  28.146  27.342  1.00  0.00     0.173 A 
ATOM     76  C   UNL A   1      40.590  26.458  28.157  1.00  0.00     0.173 A 
ATOM     77  F   UNL A   1      42.691  29.338  27.462  1.00  0.00    -0.203 F 
ATOM     78  C   UNL A   1      42.320  27.387  26.196  1.00  0.00     0.198 A 
ATOM     79  C   UNL A   1      40.843  25.688  27.024  1.00  0.00     0.198 A 
ATOM     80  F   UNL A   1      39.744  25.987  29.084  1.00  0.00    -0.203 F 
ATOM     81  F   UNL A   1      43.127  27.857  25.236  1.00  0.00    -0.200 F 
ATOM     82  C   UNL A   1      41.702  26.157  26.041  1.00  0.00     0.200 A 
ATOM     83  F   UNL A   1      40.254  24.493  26.883  1.00  0.00    -0.200 F 
ATOM     84  F   UNL A   1      41.924  25.427  24.939  1.00  0.00    -0.200 F 
ENDBRANCH  50  74
BRANCH  62  85
ATOM     85  C   UNL A   1      44.247  28.163  34.593  1.00  0.00     0.064 A 
ATOM     86  C   UNL A   1      45.555  28.668  34.541  1.00  0.00     0.173 A 
ATOM     87  C   UNL A   1      44.032  26.962  35.285  1.00  0.00     0.173 A 
ATOM     88  F   UNL A   1      45.815  29.804  33.877  1.00  0.00    -0.203 F 
ATOM     89  C   UNL A   1      46.609  27.982  35.139  1.00  0.00     0.198 A 
ATOM     90  C   UNL A   1      45.084  26.296  35.907  1.00  0.00     0.198 A 
ATOM     91  F   UNL A   1      42.798  26.441  35.369  1.00  0.00    -0.203 F 
ATOM     92  F   UNL A   1      47.858  28.457  35.037  1.00  0.00    -0.200 F 
ATOM     93  C   UNL A   1      46.372  26.802  35.828  1.00  0.00     0.200 A 
ATOM     94  F   UNL A   1      44.849  25.163  36.584  1.00  0.00    -0.200 F 
ATOM     95  F   UNL A   1      47.386  26.148  36.409  1.00  0.00    -0.200 F 
ENDBRANCH  62  85
ENDBRANCH  36  37
ENDBRANCH  28  31
ENDBRANCH  26  27
ENDBRANCH  25  26
ENDBRANCH   1  25
TORSDOF 16
ENDMDL
MODEL 2
REMARK VINA RESULT:     -11.7      0.352      7.487
REMARK SMILES CCC(CC)(NC(=O)N[C@@H](C)[C@@H]1CCCO1)C(=O)NCCCCNC(=O)c1ccc(-c2c3nc(c(-c4c(F)c(F)c(F)c(F)c4F)c4ccc([nH]4)c(-c4c(F)c(F)c(F)c(F)c4F)c4nc(c(-c5c(F)c(F)c(F)c(F)c5F)c5ccc2[nH]5)C=C4)C=C3)cc1
REMARK SMILES IDX 21 1 20 2 19 3 17 4 18 5 3 7 2 8 1 9 4 10 5 11 6 12 7 13
REMARK SMILES IDX 8 15 9 16 10 18 11 19 12 20 13 21 16 22 14 23 15 24 22 25
REMARK SMILES IDX 23 26 24 27 25 28 26 30 27 31 28 32 89 33 29 34 88 35 30 36
REMARK SMILES IDX 31 37 32 38 82 39 33 40 87 41 81 42 83 43 34 44 86 45 80 46
REMARK SMILES IDX 79 47 35 49 67 50 47 51 66 52 48 53 51 54 65 55 84 56 49 57
REMARK SMILES IDX 50 58 64 60 85 61 52 62 36 63 37 64 45 65 38 66 39 67 43 68
REMARK SMILES IDX 46 69 40 70 41 71 44 72 42 73 68 74 69 75 77 76 70 77 71 78
REMARK SMILES IDX 75 79 78 80 72 81 73 82 76 83 74 84 53 85 54 86 62 87 55 88
REMARK SMILES IDX 56 89 60 90 63 91 57 92 58 93 61 94 59 95
REMARK H PARENT 19 6 6 14 9 17 24 29 83 48 51 59
REMARK Flexibility Score: inf
ROOT
ATOM      1  C   UNL A   1      31.321  30.704  25.486  1.00  0.00     0.023 C 
ENDROOT
BRANCH   1   2
ATOM      2  C   UNL A   1      32.464  29.694  25.654  1.00  0.00     0.116 C 
BRANCH   2   3
ATOM      3  N   UNL A   1      33.473  29.562  24.608  1.00  0.00    -0.354 N 
ATOM      4  C   UNL A   1      33.663  28.657  23.589  1.00  0.00     0.245 C 
ATOM      5  O   UNL A   1      34.423  29.022  22.683  1.00  0.00    -0.272 OA
ATOM      6  H   UNL A   1      34.160  30.266  24.639  1.00  0.00     0.163 HD
BRANCH   4   7
ATOM      7  C   UNL A   1      32.851  27.330  23.490  1.00  0.00     0.120 C 
BRANCH   7   8
ATOM      8  C   UNL A   1      31.377  27.332  23.998  1.00  0.00     0.035 C 
ATOM      9  C   UNL A   1      30.259  27.533  22.988  1.00  0.00     0.007 C 
ENDBRANCH   7   8
BRANCH   7  10
ATOM     10  C   UNL A   1      33.698  26.337  24.365  1.00  0.00     0.035 C 
ATOM     11  C   UNL A   1      33.407  26.281  25.856  1.00  0.00     0.007 C 
ENDBRANCH   7  10
BRANCH   7  12
ATOM     12  N   UNL A   1      32.803  26.941  22.066  1.00  0.00    -0.324 N 
ATOM     13  C   UNL A   1      32.814  25.760  21.424  1.00  0.00     0.315 C 
ATOM     14  H   UNL A   1      32.750  27.713  21.456  1.00  0.00     0.166 HD
ATOM     15  O   UNL A   1      33.055  25.799  20.213  1.00  0.00    -0.249 OA
ATOM     16  N   UNL A   1      32.546  24.560  21.953  1.00  0.00    -0.333 N 
ATOM     17  H   UNL A   1      32.615  23.853  21.272  1.00  0.00     0.165 HD
BRANCH  16  18
ATOM     18  C   UNL A   1      32.177  23.999  23.264  1.00  0.00     0.109 C 
ATOM     19  C   UNL A   1      30.665  23.811  23.402  1.00  0.00     0.034 C 
BRANCH  18  20
ATOM     20  C   UNL A   1      32.851  22.636  23.535  1.00  0.00     0.140 C 
ATOM     21  C   UNL A   1      32.178  21.511  22.749  1.00  0.00     0.036 C 
ATOM     22  O   UNL A   1      32.753  22.276  24.924  1.00  0.00    -0.376 OA
ATOM     23  C   UNL A   1      32.376  20.320  23.642  1.00  0.00     0.031 C 
ATOM     24  C   UNL A   1      32.266  20.934  25.020  1.00  0.00     0.160 C 
ENDBRANCH  18  20
ENDBRANCH  16  18
ENDBRANCH   7  12
ENDBRANCH   4   7
ENDBRANCH   2   3
ENDBRANCH   1   2
BRANCH   1  25
ATOM     25  C   UNL A   1      31.190  31.891  26.437  1.00  0.00     0.023 C 
BRANCH  25  26
ATOM     26  C   UNL A   1      32.482  32.434  27.022  1.00  0.00     0.116 C 
BRANCH  26  27
ATOM     27  N   UNL A   1      32.354  33.828  27.402  1.00  0.00    -0.352 N 
ATOM     28  C   UNL A   1      33.035  34.530  28.366  1.00  0.00     0.251 C 
ATOM     29  H   UNL A   1      31.684  34.344  26.899  1.00  0.00     0.163 HD
ATOM     30  O   UNL A   1      32.653  35.648  28.693  1.00  0.00    -0.269 OA
BRANCH  28  31
ATOM     31  C   UNL A   1      34.221  33.938  29.023  1.00  0.00     0.039 A 
ATOM     32  C   UNL A   1      34.028  32.921  29.963  1.00  0.00     0.014 A 
ATOM     33  C   UNL A   1      35.511  34.405  28.755  1.00  0.00     0.014 A 
ATOM     34  C   UNL A   1      35.128  32.350  30.607  1.00  0.00     0.010 A 
ATOM     35  C   UNL A   1      36.612  33.793  29.350  1.00  0.00     0.010 A 
ATOM     36  C   UNL A   1      36.431  32.768  30.292  1.00  0.00    -0.014 A 
BRANCH  36  37
ATOM     37  C   UNL A   1      37.610  32.158  30.957  1.00  0.00     0.031 A 
ATOM     38  C   UNL A   1      38.415  31.104  30.247  1.00  0.00     0.074 A 
ATOM     39  C   UNL A   1      37.930  32.518  32.214  1.00  0.00     0.049 A 
ATOM     40  N   UNL A   1      39.445  30.418  30.677  1.00  0.00    -0.248 NA
ATOM     41  C   UNL A   1      37.990  30.755  28.882  1.00  0.00     0.031 C 
ATOM     42  C   UNL A   1      37.206  33.502  33.019  1.00  0.00     0.029 A 
ATOM     43  N   UNL A   1      38.943  32.094  33.037  1.00  0.00    -0.354 N 
ATOM     44  C   UNL A   1      39.780  29.551  29.644  1.00  0.00     0.074 A 
ATOM     45  C   UNL A   1      38.816  29.762  28.586  1.00  0.00     0.031 C 
ATOM     46  C   UNL A   1      37.810  33.621  34.214  1.00  0.00     0.029 A 
ATOM     47  C   UNL A   1      38.941  32.699  34.270  1.00  0.00     0.049 A 
ATOM     48  H   UNL A   1      39.608  31.418  32.770  1.00  0.00     0.167 HD
ATOM     49  C   UNL A   1      40.810  28.675  29.577  1.00  0.00     0.037 A 
ATOM     50  C   UNL A   1      39.756  32.525  35.328  1.00  0.00     0.037 A 
ATOM     51  C   UNL A   1      41.785  28.490  30.619  1.00  0.00     0.049 A 
ATOM     52  C   UNL A   1      40.889  31.539  35.228  1.00  0.00     0.074 A 
ATOM     53  C   UNL A   1      42.906  27.676  30.619  1.00  0.00     0.029 A 
ATOM     54  N   UNL A   1      41.756  29.129  31.850  1.00  0.00    -0.354 N 
ATOM     55  N   UNL A   1      41.237  30.776  34.221  1.00  0.00    -0.248 NA
ATOM     56  C   UNL A   1      41.747  31.396  36.413  1.00  0.00     0.031 C 
ATOM     57  C   UNL A   1      43.526  27.786  31.869  1.00  0.00     0.029 A 
ATOM     58  C   UNL A   1      42.824  28.707  32.627  1.00  0.00     0.049 A 
ATOM     59  H   UNL A   1      41.077  29.785  32.131  1.00  0.00     0.167 HD
ATOM     60  C   UNL A   1      42.368  30.087  34.637  1.00  0.00     0.074 A 
ATOM     61  C   UNL A   1      42.657  30.533  35.984  1.00  0.00     0.031 C 
ATOM     62  C   UNL A   1      43.103  29.168  33.963  1.00  0.00     0.037 A 
BRANCH  49  63
ATOM     63  C   UNL A   1      40.939  27.845  28.332  1.00  0.00     0.064 A 
ATOM     64  C   UNL A   1      41.712  28.269  27.241  1.00  0.00     0.173 A 
ATOM     65  C   UNL A   1      40.318  26.590  28.248  1.00  0.00     0.173 A 
ATOM     66  F   UNL A   1      42.319  29.465  27.267  1.00  0.00    -0.203 F 
ATOM     67  C   UNL A   1      41.835  27.479  26.099  1.00  0.00     0.198 A 
ATOM     68  C   UNL A   1      40.468  25.790  27.117  1.00  0.00     0.198 A 
ATOM     69  F   UNL A   1      39.573  26.133  29.265  1.00  0.00    -0.203 F 
ATOM     70  F   UNL A   1      42.540  27.926  25.050  1.00  0.00    -0.200 F 
ATOM     71  C   UNL A   1      41.220  26.238  26.042  1.00  0.00     0.200 A 
ATOM     72  F   UNL A   1      39.884  24.584  27.068  1.00  0.00    -0.200 F 
ATOM     73  F   UNL A   1      41.345  25.477  24.947  1.00  0.00    -0.200 F 
ENDBRANCH  49  63
BRANCH  50  74
ATOM     74  C   UNL A   1      39.547  33.318  36.566  1.00  0.00     0.064 A 
ATOM     75  C   UNL A   1      38.693  32.858  37.578  1.00  0.00     0.173 A 
ATOM     76  C   UNL A   1      40.185  34.552  36.762  1.00  0.00     0.173 A 
ATOM     77  F   UNL A   1      38.043  31.695  37.428  1.00  0.00    -0.203 F 
ATOM     78  C   UNL A   1      38.467  33.611  38.729  1.00  0.00     0.198 A 
ATOM     79  C   UNL A   1      39.981  35.290  37.925  1.00  0.00     0.198 A 
ATOM     80  F   UNL A   1      41.015  35.034  35.826  1.00  0.00    -0.203 F 
ATOM     81  F   UNL A   1      37.608  33.170  39.658  1.00  0.00    -0.200 F 
ATOM     82  C   UNL A   1      39.116  34.824  38.904  1.00  0.00     0.200 A 
ATOM     83  F   UNL A   1      40.620  36.455  38.098  1.00  0.00    -0.200 F 
ATOM     84  F   UNL A   1      38.900  35.548  40.011  1.00  0.00    -0.200 F 
ENDBRANCH  50  74
BRANCH  62  85
ATOM     85  C   UNL A   1      44.312  28.610  34.656  1.00  0.00     0.064 A 
ATOM     86  C   UNL A   1      44.258  27.407  35.376  1.00  0.00     0.173 A 
ATOM     87  C   UNL A   1      45.548  29.268  34.565  1.00  0.00     0.173 A 
ATOM     88  F   UNL A   1      43.097  26.748  35.505  1.00  0.00    -0.203 F 
ATOM     89  C   UNL A   1      45.394  26.897  36.000  1.00  0.00     0.198 A 
ATOM     90  C   UNL A   1      46.687  28.738  35.166  1.00  0.00     0.198 A 
ATOM     91  F   UNL A   1      45.654  30.419  33.884  1.00  0.00    -0.203 F 
ATOM     92  F   UNL A   1      45.309  25.770  36.721  1.00  0.00    -0.200 F 
ATOM     93  C   UNL A   1      46.607  27.558  35.888  1.00  0.00     0.200 A 
ATOM     94  F   UNL A   1      47.862  29.373  35.044  1.00  0.00    -0.200 F 
ATOM     95  F   UNL A   1      47.700  27.061  36.483  1.00  0.00    -0.200 F 
ENDBRANCH  62  85
ENDBRANCH  36  37
ENDBRANCH  28  31
ENDBRANCH  26  27
ENDBRANCH  25  26
ENDBRANCH   1  25
TORSDOF 16
ENDMDL
MODEL 3
REMARK VINA RESULT:     -11.7      0.529      1.731
REMARK SMILES CCC(CC)(NC(=O)N[C@@H](C)[C@@H]1CCCO1)C(=O)NCCCCNC(=O)c1ccc(-c2c3nc(c(-c4c(F)c(F)c(F)c(F)c4F)c4ccc([nH]4)c(-c4c(F)c(F)c(F)c(F)c4F)c4nc(c(-c5c(F)c(F)c(F)c(F)c5F)c5ccc2[nH]5)C=C4)C=C3)cc1
REMARK SMILES IDX 21 1 20 2 19 3 17 4 18 5 3 7 2 8 1 9 4 10 5 11 6 12 7 13
REMARK SMILES IDX 8 15 9 16 10 18 11 19 12 20 13 21 16 22 14 23 15 24 22 25
REMARK SMILES IDX 23 26 24 27 25 28 26 30 27 31 28 32 89 33 29 34 88 35 30 36
REMARK SMILES IDX 31 37 32 38 82 39 33 40 87 41 81 42 83 43 34 44 86 45 80 46
REMARK SMILES IDX 79 47 35 49 67 50 47 51 66 52 48 53 51 54 65 55 84 56 49 57
REMARK SMILES IDX 50 58 64 60 85 61 52 62 36 63 37 64 45 65 38 66 39 67 43 68
REMARK SMILES IDX 46 69 40 70 41 71 44 72 42 73 68 74 69 75 77 76 70 77 71 78
REMARK SMILES IDX 75 79 78 80 72 81 73 82 76 83 74 84 53 85 54 86 62 87 55 88
REMARK SMILES IDX 56 89 60 90 63 91 57 92 58 93 61 94 59 95
REMARK H PARENT 19 6 6 14 9 17 24 29 83 48 51 59
REMARK Flexibility Score: inf
ROOT
ATOM      1  C   UNL A   1      31.104  30.812  25.473  1.00  0.00     0.023 C 
ENDROOT
BRANCH   1   2
ATOM      2  C   UNL A   1      32.177  29.717  25.508  1.00  0.00     0.116 C 
BRANCH   2   3
ATOM      3  N   UNL A   1      33.183  29.656  24.453  1.00  0.00    -0.354 N 
ATOM      4  C   UNL A   1      33.448  28.748  23.454  1.00  0.00     0.245 C 
ATOM      5  O   UNL A   1      34.161  29.160  22.530  1.00  0.00    -0.272 OA
ATOM      6  H   UNL A   1      33.801  30.422  24.458  1.00  0.00     0.163 HD
BRANCH   4   7
ATOM      7  C   UNL A   1      32.766  27.346  23.397  1.00  0.00     0.120 C 
BRANCH   7   8
ATOM      8  C   UNL A   1      31.306  27.220  23.929  1.00  0.00     0.035 C 
ATOM      9  C   UNL A   1      30.174  27.790  23.089  1.00  0.00     0.007 C 
ENDBRANCH   7   8
BRANCH   7  10
ATOM     10  C   UNL A   1      33.716  26.461  24.281  1.00  0.00     0.035 C 
ATOM     11  C   UNL A   1      33.401  26.343  25.764  1.00  0.00     0.007 C 
ENDBRANCH   7  10
BRANCH   7  12
ATOM     12  N   UNL A   1      32.736  26.921  21.984  1.00  0.00    -0.324 N 
ATOM     13  C   UNL A   1      32.788  25.726  21.371  1.00  0.00     0.315 C 
ATOM     14  H   UNL A   1      32.660  27.675  21.355  1.00  0.00     0.166 HD
ATOM     15  O   UNL A   1      33.032  25.743  20.161  1.00  0.00    -0.249 OA
ATOM     16  N   UNL A   1      32.556  24.531  21.929  1.00  0.00    -0.333 N 
ATOM     17  H   UNL A   1      32.651  23.809  21.267  1.00  0.00     0.165 HD
BRANCH  16  18
ATOM     18  C   UNL A   1      32.201  23.991  23.253  1.00  0.00     0.109 C 
ATOM     19  C   UNL A   1      30.719  23.620  23.341  1.00  0.00     0.034 C 
BRANCH  18  20
ATOM     20  C   UNL A   1      33.027  22.740  23.623  1.00  0.00     0.140 C 
ATOM     21  C   UNL A   1      33.232  22.630  25.134  1.00  0.00     0.036 C 
ATOM     22  O   UNL A   1      34.339  22.790  23.037  1.00  0.00    -0.376 OA
ATOM     23  C   UNL A   1      34.563  21.939  25.236  1.00  0.00     0.031 C 
ATOM     24  C   UNL A   1      35.308  22.509  24.051  1.00  0.00     0.160 C 
ENDBRANCH  18  20
ENDBRANCH  16  18
ENDBRANCH   7  12
ENDBRANCH   4   7
ENDBRANCH   2   3
ENDBRANCH   1   2
BRANCH   1  25
ATOM     25  C   UNL A   1      31.104  31.933  26.510  1.00  0.00     0.023 C 
BRANCH  25  26
ATOM     26  C   UNL A   1      32.464  32.466  26.927  1.00  0.00     0.116 C 
BRANCH  26  27
ATOM     27  N   UNL A   1      32.386  33.847  27.365  1.00  0.00    -0.352 N 
ATOM     28  C   UNL A   1      33.101  34.486  28.347  1.00  0.00     0.251 C 
ATOM     29  H   UNL A   1      31.729  34.405  26.890  1.00  0.00     0.163 HD
ATOM     30  O   UNL A   1      32.760  35.602  28.723  1.00  0.00    -0.269 OA
BRANCH  28  31
ATOM     31  C   UNL A   1      34.273  33.829  28.967  1.00  0.00     0.039 A 
ATOM     32  C   UNL A   1      34.055  32.815  29.903  1.00  0.00     0.014 A 
ATOM     33  C   UNL A   1      35.577  34.233  28.665  1.00  0.00     0.014 A 
ATOM     34  C   UNL A   1      35.141  32.183  30.512  1.00  0.00     0.010 A 
ATOM     35  C   UNL A   1      36.661  33.560  29.225  1.00  0.00     0.010 A 
ATOM     36  C   UNL A   1      36.455  32.537  30.164  1.00  0.00    -0.014 A 
BRANCH  36  37
ATOM     37  C   UNL A   1      37.620  31.862  30.790  1.00  0.00     0.031 A 
ATOM     38  C   UNL A   1      38.062  32.249  32.175  1.00  0.00     0.074 A 
ATOM     39  C   UNL A   1      38.308  30.936  30.097  1.00  0.00     0.049 A 
ATOM     40  N   UNL A   1      39.082  31.812  32.872  1.00  0.00    -0.248 NA
ATOM     41  C   UNL A   1      37.267  33.281  32.859  1.00  0.00     0.031 C 
ATOM     42  C   UNL A   1      38.000  30.502  28.734  1.00  0.00     0.029 A 
ATOM     43  N   UNL A   1      39.412  30.197  30.440  1.00  0.00    -0.354 N 
ATOM     44  C   UNL A   1      39.058  32.525  34.064  1.00  0.00     0.074 A 
ATOM     45  C   UNL A   1      37.953  33.455  33.979  1.00  0.00     0.031 C 
ATOM     46  C   UNL A   1      38.881  29.558  28.364  1.00  0.00     0.029 A 
ATOM     47  C   UNL A   1      39.835  29.345  29.449  1.00  0.00     0.049 A 
ATOM     48  H   UNL A   1      39.859  30.271  31.314  1.00  0.00     0.167 HD
ATOM     49  C   UNL A   1      39.871  32.399  35.139  1.00  0.00     0.037 A 
ATOM     50  C   UNL A   1      40.878  28.494  29.418  1.00  0.00     0.037 A 
ATOM     51  C   UNL A   1      40.950  31.451  35.233  1.00  0.00     0.049 A 
ATOM     52  C   UNL A   1      41.769  28.379  30.625  1.00  0.00     0.074 A 
ATOM     53  C   UNL A   1      41.788  31.199  36.307  1.00  0.00     0.029 A 
ATOM     54  N   UNL A   1      41.341  30.598  34.212  1.00  0.00    -0.354 N 
ATOM     55  N   UNL A   1      41.694  29.007  31.773  1.00  0.00    -0.248 NA
ATOM     56  C   UNL A   1      42.888  27.429  30.533  1.00  0.00     0.031 C 
ATOM     57  C   UNL A   1      42.717  30.228  35.918  1.00  0.00     0.029 A 
ATOM     58  C   UNL A   1      42.426  29.837  34.621  1.00  0.00     0.049 A 
ATOM     59  H   UNL A   1      40.913  30.540  33.327  1.00  0.00     0.167 HD
ATOM     60  C   UNL A   1      42.732  28.510  32.549  1.00  0.00     0.074 A 
ATOM     61  C   UNL A   1      43.415  27.516  31.746  1.00  0.00     0.031 C 
ATOM     62  C   UNL A   1      43.088  28.845  33.813  1.00  0.00     0.037 A 
BRANCH  49  63
ATOM     63  C   UNL A   1      39.626  33.309  36.309  1.00  0.00     0.064 A 
ATOM     64  C   UNL A   1      40.290  34.539  36.437  1.00  0.00     0.173 A 
ATOM     65  C   UNL A   1      38.683  32.968  37.290  1.00  0.00     0.173 A 
ATOM     66  F   UNL A   1      41.209  34.908  35.531  1.00  0.00    -0.203 F 
ATOM     67  C   UNL A   1      40.040  35.379  37.520  1.00  0.00     0.198 A 
ATOM     68  C   UNL A   1      38.414  33.825  38.355  1.00  0.00     0.198 A 
ATOM     69  F   UNL A   1      38.015  31.808  37.212  1.00  0.00    -0.203 F 
ATOM     70  F   UNL A   1      40.721  36.527  37.646  1.00  0.00    -0.200 F 
ATOM     71  C   UNL A   1      39.097  35.025  38.472  1.00  0.00     0.200 A 
ATOM     72  F   UNL A   1      37.492  33.488  39.268  1.00  0.00    -0.200 F 
ATOM     73  F   UNL A   1      38.852  35.839  39.508  1.00  0.00    -0.200 F 
ENDBRANCH  49  63
BRANCH  50  74
ATOM     74  C   UNL A   1      41.123  27.662  28.211  1.00  0.00     0.064 A 
ATOM     75  C   UNL A   1      41.938  28.131  27.171  1.00  0.00     0.173 A 
ATOM     76  C   UNL A   1      40.546  26.392  28.067  1.00  0.00     0.173 A 
ATOM     77  F   UNL A   1      42.494  29.348  27.252  1.00  0.00    -0.203 F 
ATOM     78  C   UNL A   1      42.147  27.370  26.022  1.00  0.00     0.198 A 
ATOM     79  C   UNL A   1      40.780  25.621  26.931  1.00  0.00     0.198 A 
ATOM     80  F   UNL A   1      39.763  25.897  29.036  1.00  0.00    -0.203 F 
ATOM     81  F   UNL A   1      42.891  27.863  25.022  1.00  0.00    -0.200 F 
ATOM     82  C   UNL A   1      41.574  26.114  25.905  1.00  0.00     0.200 A 
ATOM     83  F   UNL A   1      40.235  24.402  26.827  1.00  0.00    -0.200 F 
ATOM     84  F   UNL A   1      41.776  25.382  24.801  1.00  0.00    -0.200 F 
ENDBRANCH  50  74
BRANCH  62  85
ATOM     85  C   UNL A   1      44.244  28.106  34.423  1.00  0.00     0.064 A 
ATOM     86  C   UNL A   1      44.068  26.883  35.086  1.00  0.00     0.173 A 
ATOM     87  C   UNL A   1      45.548  28.610  34.307  1.00  0.00     0.173 A 
ATOM     88  F   UNL A   1      42.839  26.366  35.237  1.00  0.00    -0.203 F 
ATOM     89  C   UNL A   1      45.154  26.204  35.633  1.00  0.00     0.198 A 
ATOM     90  C   UNL A   1      46.634  27.913  34.829  1.00  0.00     0.198 A 
ATOM     91  F   UNL A   1      45.771  29.773  33.677  1.00  0.00    -0.203 F 
ATOM     92  F   UNL A   1      44.957  25.060  36.303  1.00  0.00    -0.200 F 
ATOM     93  C   UNL A   1      46.436  26.715  35.497  1.00  0.00     0.200 A 
ATOM     94  F   UNL A   1      47.874  28.402  34.684  1.00  0.00    -0.200 F 
ATOM     95  F   UNL A   1      47.480  26.056  36.018  1.00  0.00    -0.200 F 
ENDBRANCH  62  85
ENDBRANCH  36  37
ENDBRANCH  28  31
ENDBRANCH  26  27
ENDBRANCH  25  26
ENDBRANCH   1  25
TORSDOF 16
ENDMDL
