MODEL 1
REMARK VINA RESULT:     -10.5      0.000      0.000
REMARK SMILES C#CCN(CC(=O)NCCCCNC(=O)c1ccc(-c2c3nc(c(-c4c(F)c(F)c(F)c(F)c4F)c4ccc([nH]4)c(-c4c(F)c(F)c(F)c(F)c4F)c4nc(c(-c5c(F)c(F)c(F)c(F)c5F)c5ccc2[nH]5)C=C4)C=C3)cc1)C(=O)C(C)(C)[NH2+]CC
REMARK SMILES IDX 9 1 8 2 6 3 7 4 5 6 4 7 3 8 2 9 1 10 79 11 80 12 81 13 82 14
REMARK SMILES IDX 83 15 84 16 85 19 86 20 10 21 11 22 12 23 13 24 14 25 15 27
REMARK SMILES IDX 16 28 17 29 78 30 18 31 77 32 19 33 20 34 21 35 71 36 22 37
REMARK SMILES IDX 76 38 70 39 72 40 23 41 75 42 69 43 68 44 24 46 56 47 36 48
REMARK SMILES IDX 55 49 37 50 40 51 54 52 73 53 38 54 39 55 53 57 74 58 41 59
REMARK SMILES IDX 25 60 26 61 34 62 27 63 28 64 32 65 35 66 29 67 30 68 33 69
REMARK SMILES IDX 31 70 57 71 58 72 66 73 59 74 60 75 64 76 67 77 61 78 62 79
REMARK SMILES IDX 65 80 63 81 42 82 43 83 51 84 44 85 45 86 49 87 52 88 46 89
REMARK SMILES IDX 47 90 50 91 48 92
REMARK H PARENT 8 5 84 17 84 18 13 26 72 45 40 56
REMARK Flexibility Score: inf
ROOT
ATOM      1  C   UNL A   1      33.238  29.987  26.562  1.00  0.00     0.116 C 
ENDROOT
BRANCH   1   2
ATOM      2  N   UNL A   1      33.599  29.597  25.217  1.00  0.00    -0.355 N 
ATOM      3  C   UNL A   1      33.814  28.355  24.697  1.00  0.00     0.239 C 
ATOM      4  O   UNL A   1      33.813  28.253  23.466  1.00  0.00    -0.273 OA
ATOM      5  H   UNL A   1      33.705  30.340  24.581  1.00  0.00     0.163 HD
BRANCH   3   6
ATOM      6  C   UNL A   1      33.922  27.099  25.576  1.00  0.00     0.220 C 
BRANCH   6   7
ATOM      7  N   UNL A   1      33.242  25.898  25.089  1.00  0.00    -0.317 N 
BRANCH   7   8
ATOM      8  C   UNL A   1      34.060  24.971  24.304  1.00  0.00     0.210 C 
BRANCH   8   9
ATOM      9  C   UNL A   1      35.208  24.395  25.117  1.00  0.00    -0.085 C 
ATOM     10  C   UNL A   1      36.192  23.901  25.814  1.00  0.00     0.006 C 
ENDBRANCH   8   9
ENDBRANCH   7   8
BRANCH   7  11
ATOM     11  C   UNL A   1      31.901  25.549  25.279  1.00  0.00     0.284 C 
ATOM     12  O   UNL A   1      31.582  25.081  26.384  1.00  0.00    -0.268 OA
BRANCH  11  13
ATOM     13  C   UNL A   1      30.800  25.633  24.132  1.00  0.00     0.170 C 
ATOM     14  C   UNL A   1      30.555  24.364  23.315  1.00  0.00     0.090 C 
ATOM     15  C   UNL A   1      29.479  26.098  24.777  1.00  0.00     0.090 C 
BRANCH  13  16
ATOM     16  N   UNL A   1      31.117  26.749  23.185  1.00  0.00    -0.334 N 
ATOM     17  H   UNL A   1      31.422  26.320  22.310  1.00  0.00     0.347 HD
ATOM     18  H   UNL A   1      31.809  27.307  23.685  1.00  0.00     0.347 HD
BRANCH  16  19
ATOM     19  C   UNL A   1      30.071  27.709  22.846  1.00  0.00     0.257 C 
ATOM     20  C   UNL A   1      30.479  29.171  22.961  1.00  0.00     0.071 C 
ENDBRANCH  16  19
ENDBRANCH  13  16
ENDBRANCH  11  13
ENDBRANCH   7  11
ENDBRANCH   6   7
ENDBRANCH   3   6
ENDBRANCH   1   2
BRANCH   1  21
ATOM     21  C   UNL A   1      31.804  30.495  26.688  1.00  0.00     0.023 C 
BRANCH  21  22
ATOM     22  C   UNL A   1      31.633  32.012  26.688  1.00  0.00     0.023 C 
BRANCH  22  23
ATOM     23  C   UNL A   1      32.742  32.794  27.374  1.00  0.00     0.116 C 
BRANCH  23  24
ATOM     24  N   UNL A   1      32.382  34.167  27.697  1.00  0.00    -0.352 N 
ATOM     25  C   UNL A   1      32.970  35.020  28.599  1.00  0.00     0.251 C 
ATOM     26  H   UNL A   1      31.614  34.533  27.202  1.00  0.00     0.163 HD
ATOM     27  O   UNL A   1      32.496  36.132  28.803  1.00  0.00    -0.269 OA
BRANCH  25  28
ATOM     28  C   UNL A   1      34.152  34.568  29.362  1.00  0.00     0.039 A 
ATOM     29  C   UNL A   1      33.958  34.010  30.628  1.00  0.00     0.014 A 
ATOM     30  C   UNL A   1      35.435  34.651  28.815  1.00  0.00     0.014 A 
ATOM     31  C   UNL A   1      35.043  33.463  31.315  1.00  0.00     0.010 A 
ATOM     32  C   UNL A   1      36.501  34.040  29.466  1.00  0.00     0.010 A 
ATOM     33  C   UNL A   1      36.316  33.437  30.720  1.00  0.00    -0.014 A 
BRANCH  33  34
ATOM     34  C   UNL A   1      37.461  32.767  31.383  1.00  0.00     0.031 A 
ATOM     35  C   UNL A   1      38.133  31.594  30.729  1.00  0.00     0.074 A 
ATOM     36  C   UNL A   1      37.837  33.162  32.615  1.00  0.00     0.049 A 
ATOM     37  N   UNL A   1      39.093  30.831  31.185  1.00  0.00    -0.248 NA
ATOM     38  C   UNL A   1      37.638  31.208  29.398  1.00  0.00     0.031 C 
ATOM     39  C   UNL A   1      37.218  34.245  33.381  1.00  0.00     0.029 A 
ATOM     40  N   UNL A   1      38.819  32.684  33.447  1.00  0.00    -0.354 N 
ATOM     41  C   UNL A   1      39.301  29.864  30.210  1.00  0.00     0.074 A 
ATOM     42  C   UNL A   1      38.335  30.108  29.160  1.00  0.00     0.031 C 
ATOM     43  C   UNL A   1      37.842  34.357  34.565  1.00  0.00     0.029 A 
ATOM     44  C   UNL A   1      38.880  33.334  34.656  1.00  0.00     0.049 A 
ATOM     45  H   UNL A   1      39.422  31.945  33.202  1.00  0.00     0.167 HD
ATOM     46  C   UNL A   1      40.227  28.877  30.185  1.00  0.00     0.037 A 
ATOM     47  C   UNL A   1      39.677  33.123  35.720  1.00  0.00     0.037 A 
ATOM     48  C   UNL A   1      41.206  28.660  31.216  1.00  0.00     0.049 A 
ATOM     49  C   UNL A   1      40.714  32.036  35.657  1.00  0.00     0.074 A 
ATOM     50  C   UNL A   1      42.246  27.746  31.241  1.00  0.00     0.029 A 
ATOM     51  N   UNL A   1      41.264  29.363  32.410  1.00  0.00    -0.354 N 
ATOM     52  N   UNL A   1      40.962  31.185  34.692  1.00  0.00    -0.248 NA
ATOM     53  C   UNL A   1      41.586  31.884  36.830  1.00  0.00     0.031 C 
ATOM     54  C   UNL A   1      42.902  27.863  32.472  1.00  0.00     0.029 A 
ATOM     55  C   UNL A   1      42.303  28.884  33.192  1.00  0.00     0.049 A 
ATOM     56  H   UNL A   1      40.656  30.094  32.665  1.00  0.00     0.167 HD
ATOM     57  C   UNL A   1      42.029  30.413  35.128  1.00  0.00     0.074 A 
ATOM     58  C   UNL A   1      42.393  30.907  36.440  1.00  0.00     0.031 C 
ATOM     59  C   UNL A   1      42.651  29.385  34.498  1.00  0.00     0.037 A 
BRANCH  46  60
ATOM     60  C   UNL A   1      40.224  27.953  29.001  1.00  0.00     0.064 A 
ATOM     61  C   UNL A   1      40.931  28.254  27.827  1.00  0.00     0.173 A 
ATOM     62  C   UNL A   1      39.525  26.737  29.052  1.00  0.00     0.173 A 
ATOM     63  F   UNL A   1      41.606  29.409  27.723  1.00  0.00    -0.203 F 
ATOM     64  C   UNL A   1      40.912  27.388  26.737  1.00  0.00     0.198 A 
ATOM     65  C   UNL A   1      39.534  25.859  27.971  1.00  0.00     0.198 A 
ATOM     66  F   UNL A   1      38.836  26.397  30.151  1.00  0.00    -0.203 F 
ATOM     67  F   UNL A   1      41.551  27.722  25.607  1.00  0.00    -0.200 F 
ATOM     68  C   UNL A   1      40.220  26.190  26.811  1.00  0.00     0.200 A 
ATOM     69  F   UNL A   1      38.874  24.695  28.049  1.00  0.00    -0.200 F 
ATOM     70  F   UNL A   1      40.206  25.355  25.763  1.00  0.00    -0.200 F 
ENDBRANCH  46  60
BRANCH  47  71
ATOM     71  C   UNL A   1      39.535  33.979  36.927  1.00  0.00     0.064 A 
ATOM     72  C   UNL A   1      40.159  35.231  36.999  1.00  0.00     0.173 A 
ATOM     73  C   UNL A   1      38.765  33.566  38.024  1.00  0.00     0.173 A 
ATOM     74  F   UNL A   1      40.922  35.659  35.983  1.00  0.00    -0.203 F 
ATOM     75  C   UNL A   1      40.031  36.034  38.130  1.00  0.00     0.198 A 
ATOM     76  C   UNL A   1      38.615  34.382  39.144  1.00  0.00     0.198 A 
ATOM     77  F   UNL A   1      38.144  32.378  38.001  1.00  0.00    -0.203 F 
ATOM     78  F   UNL A   1      40.669  37.210  38.191  1.00  0.00    -0.200 F 
ATOM     79  C   UNL A   1      39.253  35.612  39.199  1.00  0.00     0.200 A 
ATOM     80  F   UNL A   1      37.852  33.976  40.169  1.00  0.00    -0.200 F 
ATOM     81  F   UNL A   1      39.124  36.388  40.284  1.00  0.00    -0.200 F 
ENDBRANCH  47  71
BRANCH  59  82
ATOM     82  C   UNL A   1      43.804  28.740  35.210  1.00  0.00     0.064 A 
ATOM     83  C   UNL A   1      43.614  27.666  36.091  1.00  0.00     0.173 A 
ATOM     84  C   UNL A   1      45.117  29.174  34.973  1.00  0.00     0.173 A 
ATOM     85  F   UNL A   1      42.377  27.225  36.362  1.00  0.00    -0.203 F 
ATOM     86  C   UNL A   1      44.697  27.064  36.728  1.00  0.00     0.198 A 
ATOM     87  C   UNL A   1      46.199  28.550  35.589  1.00  0.00     0.198 A 
ATOM     88  F   UNL A   1      45.353  30.193  34.134  1.00  0.00    -0.203 F 
ATOM     89  F   UNL A   1      44.488  26.068  37.601  1.00  0.00    -0.200 F 
ATOM     90  C   UNL A   1      45.987  27.501  36.471  1.00  0.00     0.200 A 
ATOM     91  F   UNL A   1      47.447  28.965  35.329  1.00  0.00    -0.200 F 
ATOM     92  F   UNL A   1      47.028  26.915  37.079  1.00  0.00    -0.200 F 
ENDBRANCH  59  82
ENDBRANCH  33  34
ENDBRANCH  25  28
ENDBRANCH  23  24
ENDBRANCH  22  23
ENDBRANCH  21  22
ENDBRANCH   1  21
TORSDOF 18
ENDMDL
MODEL 2
REMARK VINA RESULT:     -10.4      0.819      2.367
REMARK SMILES C#CCN(CC(=O)NCCCCNC(=O)c1ccc(-c2c3nc(c(-c4c(F)c(F)c(F)c(F)c4F)c4ccc([nH]4)c(-c4c(F)c(F)c(F)c(F)c4F)c4nc(c(-c5c(F)c(F)c(F)c(F)c5F)c5ccc2[nH]5)C=C4)C=C3)cc1)C(=O)C(C)(C)[NH2+]CC
REMARK SMILES IDX 9 1 8 2 6 3 7 4 5 6 4 7 3 8 2 9 1 10 79 11 80 12 81 13 82 14
REMARK SMILES IDX 83 15 84 16 85 19 86 20 10 21 11 22 12 23 13 24 14 25 15 27
REMARK SMILES IDX 16 28 17 29 78 30 18 31 77 32 19 33 20 34 21 35 71 36 22 37
REMARK SMILES IDX 76 38 70 39 72 40 23 41 75 42 69 43 68 44 24 46 56 47 36 48
REMARK SMILES IDX 55 49 37 50 40 51 54 52 73 53 38 54 39 55 53 57 74 58 41 59
REMARK SMILES IDX 25 60 26 61 34 62 27 63 28 64 32 65 35 66 29 67 30 68 33 69
REMARK SMILES IDX 31 70 57 71 58 72 66 73 59 74 60 75 64 76 67 77 61 78 62 79
REMARK SMILES IDX 65 80 63 81 42 82 43 83 51 84 44 85 45 86 49 87 52 88 46 89
REMARK SMILES IDX 47 90 50 91 48 92
REMARK H PARENT 8 5 84 17 84 18 13 26 72 45 40 56
REMARK Flexibility Score: inf
ROOT
ATOM      1  C   UNL A   1      31.659  29.778  25.187  1.00  0.00     0.116 C 
ENDROOT
BRANCH   1   2
ATOM      2  N   UNL A   1      32.798  29.729  24.298  1.00  0.00    -0.355 N 
ATOM      3  C   UNL A   1      33.608  28.679  23.975  1.00  0.00     0.239 C 
ATOM      4  O   UNL A   1      34.320  28.806  22.975  1.00  0.00    -0.273 OA
ATOM      5  H   UNL A   1      33.024  30.581  23.860  1.00  0.00     0.163 HD
BRANCH   3   6
ATOM      6  C   UNL A   1      33.560  27.339  24.725  1.00  0.00     0.220 C 
BRANCH   6   7
ATOM      7  N   UNL A   1      33.048  26.189  23.978  1.00  0.00    -0.317 N 
BRANCH   7   8
ATOM      8  C   UNL A   1      31.627  26.232  23.626  1.00  0.00     0.210 C 
BRANCH   8   9
ATOM      9  C   UNL A   1      30.734  25.976  24.829  1.00  0.00    -0.085 C 
ATOM     10  C   UNL A   1      29.968  25.756  25.860  1.00  0.00     0.006 C 
ENDBRANCH   8   9
ENDBRANCH   7   8
BRANCH   7  11
ATOM     11  C   UNL A   1      33.762  25.053  23.580  1.00  0.00     0.284 C 
ATOM     12  O   UNL A   1      34.072  24.964  22.381  1.00  0.00    -0.268 OA
BRANCH  11  13
ATOM     13  C   UNL A   1      34.105  23.844  24.556  1.00  0.00     0.170 C 
ATOM     14  C   UNL A   1      33.722  24.013  26.027  1.00  0.00     0.090 C 
ATOM     15  C   UNL A   1      33.440  22.575  23.989  1.00  0.00     0.090 C 
BRANCH  13  16
ATOM     16  N   UNL A   1      35.564  23.514  24.485  1.00  0.00    -0.334 N 
ATOM     17  H   UNL A   1      35.993  24.191  23.853  1.00  0.00     0.347 HD
ATOM     18  H   UNL A   1      35.582  22.539  24.189  1.00  0.00     0.347 HD
BRANCH  16  19
ATOM     19  C   UNL A   1      36.352  23.520  25.714  1.00  0.00     0.257 C 
ATOM     20  C   UNL A   1      37.713  22.847  25.609  1.00  0.00     0.071 C 
ENDBRANCH  16  19
ENDBRANCH  13  16
ENDBRANCH  11  13
ENDBRANCH   7  11
ENDBRANCH   6   7
ENDBRANCH   3   6
ENDBRANCH   1   2
BRANCH   1  21
ATOM     21  C   UNL A   1      31.976  30.377  26.556  1.00  0.00     0.023 C 
BRANCH  21  22
ATOM     22  C   UNL A   1      31.674  31.864  26.717  1.00  0.00     0.023 C 
BRANCH  22  23
ATOM     23  C   UNL A   1      32.799  32.697  27.312  1.00  0.00     0.116 C 
BRANCH  23  24
ATOM     24  N   UNL A   1      32.409  34.059  27.648  1.00  0.00    -0.352 N 
ATOM     25  C   UNL A   1      32.972  34.913  28.565  1.00  0.00     0.251 C 
ATOM     26  H   UNL A   1      31.639  34.416  27.151  1.00  0.00     0.163 HD
ATOM     27  O   UNL A   1      32.475  36.013  28.777  1.00  0.00    -0.269 OA
BRANCH  25  28
ATOM     28  C   UNL A   1      34.156  34.474  29.334  1.00  0.00     0.039 A 
ATOM     29  C   UNL A   1      33.962  33.899  30.592  1.00  0.00     0.014 A 
ATOM     30  C   UNL A   1      35.442  34.588  28.800  1.00  0.00     0.014 A 
ATOM     31  C   UNL A   1      35.051  33.366  31.282  1.00  0.00     0.010 A 
ATOM     32  C   UNL A   1      36.514  33.990  29.454  1.00  0.00     0.010 A 
ATOM     33  C   UNL A   1      36.329  33.369  30.699  1.00  0.00    -0.014 A 
BRANCH  33  34
ATOM     34  C   UNL A   1      37.481  32.714  31.365  1.00  0.00     0.031 A 
ATOM     35  C   UNL A   1      38.161  31.542  30.718  1.00  0.00     0.074 A 
ATOM     36  C   UNL A   1      37.856  33.122  32.593  1.00  0.00     0.049 A 
ATOM     37  N   UNL A   1      39.129  30.790  31.178  1.00  0.00    -0.248 NA
ATOM     38  C   UNL A   1      37.667  31.142  29.392  1.00  0.00     0.031 C 
ATOM     39  C   UNL A   1      37.229  34.205  33.353  1.00  0.00     0.029 A 
ATOM     40  N   UNL A   1      38.843  32.658  33.427  1.00  0.00    -0.354 N 
ATOM     41  C   UNL A   1      39.342  29.818  30.210  1.00  0.00     0.074 A 
ATOM     42  C   UNL A   1      38.373  30.046  29.160  1.00  0.00     0.031 C 
ATOM     43  C   UNL A   1      37.854  34.331  34.534  1.00  0.00     0.029 A 
ATOM     44  C   UNL A   1      38.901  33.318  34.631  1.00  0.00     0.049 A 
ATOM     45  H   UNL A   1      39.451  31.922  33.186  1.00  0.00     0.167 HD
ATOM     46  C   UNL A   1      40.277  28.838  30.191  1.00  0.00     0.037 A 
ATOM     47  C   UNL A   1      39.701  33.121  35.695  1.00  0.00     0.037 A 
ATOM     48  C   UNL A   1      41.260  28.637  31.222  1.00  0.00     0.049 A 
ATOM     49  C   UNL A   1      40.747  32.042  35.638  1.00  0.00     0.074 A 
ATOM     50  C   UNL A   1      42.307  27.732  31.252  1.00  0.00     0.029 A 
ATOM     51  N   UNL A   1      41.313  29.350  32.411  1.00  0.00    -0.354 N 
ATOM     52  N   UNL A   1      41.000  31.186  34.679  1.00  0.00    -0.248 NA
ATOM     53  C   UNL A   1      41.623  31.906  36.810  1.00  0.00     0.031 C 
ATOM     54  C   UNL A   1      42.963  27.864  32.480  1.00  0.00     0.029 A 
ATOM     55  C   UNL A   1      42.358  28.885  33.194  1.00  0.00     0.049 A 
ATOM     56  H   UNL A   1      40.700  30.077  32.661  1.00  0.00     0.167 HD
ATOM     57  C   UNL A   1      42.075  30.426  35.119  1.00  0.00     0.074 A 
ATOM     58  C   UNL A   1      42.437  30.933  36.426  1.00  0.00     0.031 C 
ATOM     59  C   UNL A   1      42.704  29.398  34.496  1.00  0.00     0.037 A 
BRANCH  46  60
ATOM     60  C   UNL A   1      40.279  27.905  29.014  1.00  0.00     0.064 A 
ATOM     61  C   UNL A   1      41.014  28.184  27.852  1.00  0.00     0.173 A 
ATOM     62  C   UNL A   1      39.557  26.703  29.060  1.00  0.00     0.173 A 
ATOM     63  F   UNL A   1      41.712  29.325  27.752  1.00  0.00    -0.203 F 
ATOM     64  C   UNL A   1      41.000  27.310  26.768  1.00  0.00     0.198 A 
ATOM     65  C   UNL A   1      39.571  25.816  27.987  1.00  0.00     0.198 A 
ATOM     66  F   UNL A   1      38.841  26.384  30.148  1.00  0.00    -0.203 F 
ATOM     67  F   UNL A   1      41.667  27.623  25.648  1.00  0.00    -0.200 F 
ATOM     68  C   UNL A   1      40.284  26.125  26.837  1.00  0.00     0.200 A 
ATOM     69  F   UNL A   1      38.887  24.665  28.060  1.00  0.00    -0.200 F 
ATOM     70  F   UNL A   1      40.275  25.283  25.795  1.00  0.00    -0.200 F 
ENDBRANCH  46  60
BRANCH  47  71
ATOM     71  C   UNL A   1      39.555  33.984  36.896  1.00  0.00     0.064 A 
ATOM     72  C   UNL A   1      40.179  35.237  36.963  1.00  0.00     0.173 A 
ATOM     73  C   UNL A   1      38.780  33.580  37.992  1.00  0.00     0.173 A 
ATOM     74  F   UNL A   1      40.947  35.658  35.947  1.00  0.00    -0.203 F 
ATOM     75  C   UNL A   1      40.046  36.047  38.088  1.00  0.00     0.198 A 
ATOM     76  C   UNL A   1      38.625  34.402  39.106  1.00  0.00     0.198 A 
ATOM     77  F   UNL A   1      38.158  32.392  37.973  1.00  0.00    -0.203 F 
ATOM     78  F   UNL A   1      40.685  37.224  38.143  1.00  0.00    -0.200 F 
ATOM     79  C   UNL A   1      39.263  35.633  39.156  1.00  0.00     0.200 A 
ATOM     80  F   UNL A   1      37.858  34.004  40.130  1.00  0.00    -0.200 F 
ATOM     81  F   UNL A   1      39.130  36.416  40.235  1.00  0.00    -0.200 F 
ENDBRANCH  47  71
BRANCH  59  82
ATOM     82  C   UNL A   1      43.864  28.768  35.210  1.00  0.00     0.064 A 
ATOM     83  C   UNL A   1      45.176  29.229  35.029  1.00  0.00     0.173 A 
ATOM     84  C   UNL A   1      43.654  27.721  36.119  1.00  0.00     0.173 A 
ATOM     85  F   UNL A   1      45.430  30.218  34.159  1.00  0.00    -0.203 F 
ATOM     86  C   UNL A   1      46.239  28.648  35.715  1.00  0.00     0.198 A 
ATOM     87  C   UNL A   1      44.715  27.162  36.825  1.00  0.00     0.198 A 
ATOM     88  F   UNL A   1      42.417  27.248  36.333  1.00  0.00    -0.203 F 
ATOM     89  F   UNL A   1      47.490  29.074  35.493  1.00  0.00    -0.200 F 
ATOM     90  C   UNL A   1      46.007  27.622  36.618  1.00  0.00     0.200 A 
ATOM     91  F   UNL A   1      44.487  26.179  37.708  1.00  0.00    -0.200 F 
ATOM     92  F   UNL A   1      47.031  27.069  37.283  1.00  0.00    -0.200 F 
ENDBRANCH  59  82
ENDBRANCH  33  34
ENDBRANCH  25  28
ENDBRANCH  23  24
ENDBRANCH  22  23
ENDBRANCH  21  22
ENDBRANCH   1  21
TORSDOF 18
ENDMDL
MODEL 3
REMARK VINA RESULT:     -10.1      0.946      2.338
REMARK SMILES C#CCN(CC(=O)NCCCCNC(=O)c1ccc(-c2c3nc(c(-c4c(F)c(F)c(F)c(F)c4F)c4ccc([nH]4)c(-c4c(F)c(F)c(F)c(F)c4F)c4nc(c(-c5c(F)c(F)c(F)c(F)c5F)c5ccc2[nH]5)C=C4)C=C3)cc1)C(=O)C(C)(C)[NH2+]CC
REMARK SMILES IDX 9 1 8 2 6 3 7 4 5 6 4 7 3 8 2 9 1 10 79 11 80 12 81 13 82 14
REMARK SMILES IDX 83 15 84 16 85 19 86 20 10 21 11 22 12 23 13 24 14 25 15 27
REMARK SMILES IDX 16 28 17 29 78 30 18 31 77 32 19 33 20 34 21 35 71 36 22 37
REMARK SMILES IDX 76 38 70 39 72 40 23 41 75 42 69 43 68 44 24 46 56 47 36 48
REMARK SMILES IDX 55 49 37 50 40 51 54 52 73 53 38 54 39 55 53 57 74 58 41 59
REMARK SMILES IDX 25 60 26 61 34 62 27 63 28 64 32 65 35 66 29 67 30 68 33 69
REMARK SMILES IDX 31 70 57 71 58 72 66 73 59 74 60 75 64 76 67 77 61 78 62 79
REMARK SMILES IDX 65 80 63 81 42 82 43 83 51 84 44 85 45 86 49 87 52 88 46 89
REMARK SMILES IDX 47 90 50 91 48 92
REMARK H PARENT 8 5 84 17 84 18 13 26 72 45 40 56
REMARK Flexibility Score: inf
ROOT
ATOM      1  C   UNL A   1      32.469  29.695  25.799  1.00  0.00     0.116 C 
ENDROOT
BRANCH   1   2
ATOM      2  N   UNL A   1      31.817  29.725  24.509  1.00  0.00    -0.355 N 
ATOM      3  C   UNL A   1      31.300  28.702  23.768  1.00  0.00     0.239 C 
ATOM      4  O   UNL A   1      30.533  29.005  22.850  1.00  0.00    -0.273 OA
ATOM      5  H   UNL A   1      31.732  30.618  24.104  1.00  0.00     0.163 HD
BRANCH   3   6
ATOM      6  C   UNL A   1      31.539  27.226  24.121  1.00  0.00     0.220 C 
BRANCH   6   7
ATOM      7  N   UNL A   1      32.927  26.761  24.085  1.00  0.00    -0.317 N 
BRANCH   7   8
ATOM      8  C   UNL A   1      33.658  27.015  22.842  1.00  0.00     0.210 C 
BRANCH   8   9
ATOM      9  C   UNL A   1      33.048  26.278  21.661  1.00  0.00    -0.085 C 
ATOM     10  C   UNL A   1      32.525  25.647  20.648  1.00  0.00     0.006 C 
ENDBRANCH   8   9
ENDBRANCH   7   8
BRANCH   7  11
ATOM     11  C   UNL A   1      33.620  26.090  25.099  1.00  0.00     0.284 C 
ATOM     12  O   UNL A   1      34.062  26.773  26.038  1.00  0.00    -0.268 OA
BRANCH  11  13
ATOM     13  C   UNL A   1      33.948  24.533  25.059  1.00  0.00     0.170 C 
ATOM     14  C   UNL A   1      35.409  24.141  24.834  1.00  0.00     0.090 C 
ATOM     15  C   UNL A   1      33.439  23.909  26.373  1.00  0.00     0.090 C 
BRANCH  13  16
ATOM     16  N   UNL A   1      33.112  23.850  24.021  1.00  0.00    -0.334 N 
ATOM     17  H   UNL A   1      33.642  23.040  23.696  1.00  0.00     0.347 HD
ATOM     18  H   UNL A   1      32.929  24.581  23.333  1.00  0.00     0.347 HD
BRANCH  16  19
ATOM     19  C   UNL A   1      31.782  23.372  24.385  1.00  0.00     0.257 C 
ATOM     20  C   UNL A   1      30.676  23.738  23.405  1.00  0.00     0.071 C 
ENDBRANCH  16  19
ENDBRANCH  13  16
ENDBRANCH  11  13
ENDBRANCH   7  11
ENDBRANCH   6   7
ENDBRANCH   3   6
ENDBRANCH   1   2
BRANCH   1  21
ATOM     21  C   UNL A   1      31.751  30.518  26.867  1.00  0.00     0.023 C 
BRANCH  21  22
ATOM     22  C   UNL A   1      31.721  32.026  26.635  1.00  0.00     0.023 C 
BRANCH  22  23
ATOM     23  C   UNL A   1      32.808  32.818  27.347  1.00  0.00     0.116 C 
BRANCH  23  24
ATOM     24  N   UNL A   1      32.415  34.174  27.697  1.00  0.00    -0.352 N 
ATOM     25  C   UNL A   1      32.972  35.017  28.628  1.00  0.00     0.251 C 
ATOM     26  H   UNL A   1      31.647  34.537  27.199  1.00  0.00     0.163 HD
ATOM     27  O   UNL A   1      32.472  36.115  28.850  1.00  0.00    -0.269 OA
BRANCH  25  28
ATOM     28  C   UNL A   1      34.151  34.570  29.398  1.00  0.00     0.039 A 
ATOM     29  C   UNL A   1      33.952  34.003  30.659  1.00  0.00     0.014 A 
ATOM     30  C   UNL A   1      35.438  34.668  28.863  1.00  0.00     0.014 A 
ATOM     31  C   UNL A   1      35.035  33.462  31.352  1.00  0.00     0.010 A 
ATOM     32  C   UNL A   1      36.504  34.062  29.519  1.00  0.00     0.010 A 
ATOM     33  C   UNL A   1      36.313  33.450  30.768  1.00  0.00    -0.014 A 
BRANCH  33  34
ATOM     34  C   UNL A   1      37.458  32.786  31.437  1.00  0.00     0.031 A 
ATOM     35  C   UNL A   1      38.140  31.617  30.786  1.00  0.00     0.074 A 
ATOM     36  C   UNL A   1      37.825  33.182  32.671  1.00  0.00     0.049 A 
ATOM     37  N   UNL A   1      39.101  30.858  31.246  1.00  0.00    -0.248 NA
ATOM     38  C   UNL A   1      37.654  31.229  29.452  1.00  0.00     0.031 C 
ATOM     39  C   UNL A   1      37.197  34.261  33.434  1.00  0.00     0.029 A 
ATOM     40  N   UNL A   1      38.805  32.709  33.508  1.00  0.00    -0.354 N 
ATOM     41  C   UNL A   1      39.319  29.893  30.272  1.00  0.00     0.074 A 
ATOM     42  C   UNL A   1      38.358  30.132  29.218  1.00  0.00     0.031 C 
ATOM     43  C   UNL A   1      37.814  34.376  34.621  1.00  0.00     0.029 A 
ATOM     44  C   UNL A   1      38.857  33.359  34.717  1.00  0.00     0.049 A 
ATOM     45  H   UNL A   1      39.414  31.974  33.265  1.00  0.00     0.167 HD
ATOM     46  C   UNL A   1      40.251  28.911  30.251  1.00  0.00     0.037 A 
ATOM     47  C   UNL A   1      39.649  33.152  35.786  1.00  0.00     0.037 A 
ATOM     48  C   UNL A   1      41.226  28.698  31.288  1.00  0.00     0.049 A 
ATOM     49  C   UNL A   1      40.692  32.070  35.728  1.00  0.00     0.074 A 
ATOM     50  C   UNL A   1      42.270  27.790  31.318  1.00  0.00     0.029 A 
ATOM     51  N   UNL A   1      41.273  29.401  32.483  1.00  0.00    -0.354 N 
ATOM     52  N   UNL A   1      40.949  31.221  34.763  1.00  0.00    -0.248 NA
ATOM     53  C   UNL A   1      41.559  31.922  36.905  1.00  0.00     0.031 C 
ATOM     54  C   UNL A   1      42.918  27.910  32.552  1.00  0.00     0.029 A 
ATOM     55  C   UNL A   1      42.311  28.927  33.270  1.00  0.00     0.049 A 
ATOM     56  H   UNL A   1      40.660  30.129  32.734  1.00  0.00     0.167 HD
ATOM     57  C   UNL A   1      42.019  30.454  35.205  1.00  0.00     0.074 A 
ATOM     58  C   UNL A   1      42.373  30.949  36.518  1.00  0.00     0.031 C 
ATOM     59  C   UNL A   1      42.649  29.430  34.578  1.00  0.00     0.037 A 
BRANCH  46  60
ATOM     60  C   UNL A   1      40.258  27.987  29.068  1.00  0.00     0.064 A 
ATOM     61  C   UNL A   1      39.538  26.782  29.067  1.00  0.00     0.173 A 
ATOM     62  C   UNL A   1      40.973  28.323  27.909  1.00  0.00     0.173 A 
ATOM     63  F   UNL A   1      38.847  26.407  30.155  1.00  0.00    -0.203 F 
ATOM     64  C   UNL A   1      39.562  25.934  27.963  1.00  0.00     0.198 A 
ATOM     65  C   UNL A   1      40.968  27.488  26.795  1.00  0.00     0.198 A 
ATOM     66  F   UNL A   1      41.675  29.465  27.854  1.00  0.00    -0.203 F 
ATOM     67  F   UNL A   1      38.910  24.763  28.006  1.00  0.00    -0.200 F 
ATOM     68  C   UNL A   1      40.271  26.289  26.826  1.00  0.00     0.200 A 
ATOM     69  F   UNL A   1      41.645  27.839  25.692  1.00  0.00    -0.200 F 
ATOM     70  F   UNL A   1      40.288  25.474  25.763  1.00  0.00    -0.200 F 
ENDBRANCH  46  60
BRANCH  47  71
ATOM     71  C   UNL A   1      39.497  34.006  36.992  1.00  0.00     0.064 A 
ATOM     72  C   UNL A   1      38.772  33.559  38.104  1.00  0.00     0.173 A 
ATOM     73  C   UNL A   1      40.081  35.279  37.061  1.00  0.00     0.173 A 
ATOM     74  F   UNL A   1      38.177  32.357  38.076  1.00  0.00    -0.203 F 
ATOM     75  C   UNL A   1      38.624  34.358  39.235  1.00  0.00     0.198 A 
ATOM     76  C   UNL A   1      39.957  36.067  38.203  1.00  0.00     0.198 A 
ATOM     77  F   UNL A   1      40.790  35.749  36.024  1.00  0.00    -0.203 F 
ATOM     78  F   UNL A   1      37.893  33.923  40.270  1.00  0.00    -0.200 F 
ATOM     79  C   UNL A   1      39.223  35.609  39.286  1.00  0.00     0.200 A 
ATOM     80  F   UNL A   1      40.547  37.269  38.253  1.00  0.00    -0.200 F 
ATOM     81  F   UNL A   1      39.086  36.374  40.378  1.00  0.00    -0.200 F 
ENDBRANCH  47  71
BRANCH  59  82
ATOM     82  C   UNL A   1      43.802  28.790  35.295  1.00  0.00     0.064 A 
ATOM     83  C   UNL A   1      43.619  27.688  36.143  1.00  0.00     0.173 A 
ATOM     84  C   UNL A   1      45.109  29.259  35.098  1.00  0.00     0.173 A 
ATOM     85  F   UNL A   1      42.386  27.214  36.376  1.00  0.00    -0.203 F 
ATOM     86  C   UNL A   1      44.701  27.093  36.785  1.00  0.00     0.198 A 
ATOM     87  C   UNL A   1      46.192  28.642  35.719  1.00  0.00     0.198 A 
ATOM     88  F   UNL A   1      45.339  30.306  34.292  1.00  0.00    -0.203 F 
ATOM     89  F   UNL A   1      44.497  26.069  37.626  1.00  0.00    -0.200 F 
ATOM     90  C   UNL A   1      45.986  27.564  36.567  1.00  0.00     0.200 A 
ATOM     91  F   UNL A   1      47.435  29.091  35.496  1.00  0.00    -0.200 F 
ATOM     92  F   UNL A   1      47.027  26.984  37.180  1.00  0.00    -0.200 F 
ENDBRANCH  59  82
ENDBRANCH  33  34
ENDBRANCH  25  28
ENDBRANCH  23  24
ENDBRANCH  22  23
ENDBRANCH  21  22
ENDBRANCH   1  21
TORSDOF 18
ENDMDL
