MODEL 1
REMARK VINA RESULT:     -14.1      0.000      0.000
REMARK SMILES Cc1cc(C(=O)N[C@H]2C=C[C@H](C(=O)NCCCCNC(=O)c3ccc(-c4c5nc(c(-c6c(F)c(F)c(F)c(F)c6F)c6ccc([nH]6)c(-c6c(F)c(F)c(F)c(F)c6F)c6nc(c(-c7c(F)c(F)c(F)c(F)c7F)c7ccc4[nH]7)C=C6)C=C5)cc3)C2)ccc1F
REMARK SMILES IDX 16 1 15 2 14 3 12 4 13 5 11 7 8 8 9 9 85 10 10 11 7 12 5 13
REMARK SMILES IDX 6 14 4 16 1 17 2 18 3 19 88 20 87 21 89 22 86 23 17 24 18 25
REMARK SMILES IDX 19 26 20 27 21 29 22 30 23 31 84 32 24 33 83 34 25 35 26 36
REMARK SMILES IDX 27 37 77 38 28 39 82 40 76 41 78 42 29 43 81 44 75 45 74 46
REMARK SMILES IDX 30 48 62 49 42 50 61 51 43 52 46 53 60 54 79 55 44 56 45 57
REMARK SMILES IDX 59 59 80 60 47 61 31 62 32 63 40 64 33 65 34 66 38 67 41 68
REMARK SMILES IDX 35 69 36 70 39 71 37 72 63 73 64 74 72 75 65 76 66 77 70 78
REMARK SMILES IDX 73 79 67 80 68 81 71 82 69 83 48 84 49 85 57 86 50 87 51 88
REMARK SMILES IDX 55 89 58 90 52 91 53 92 56 93 54 94
REMARK H PARENT 14 6 7 15 19 28 78 47 46 58
REMARK Flexibility Score: inf
ROOT
ATOM      1  C   UNL A   1      34.110  28.274  24.154  1.00  0.00     0.023 C 
ENDROOT
BRANCH   1   2
ATOM      2  C   UNL A   1      33.280  29.048  23.135  1.00  0.00     0.116 C 
BRANCH   2   3
ATOM      3  N   UNL A   1      32.522  28.156  22.288  1.00  0.00    -0.356 N 
ATOM      4  C   UNL A   1      31.269  27.655  22.396  1.00  0.00     0.227 C 
ATOM      5  O   UNL A   1      30.962  26.821  21.535  1.00  0.00    -0.274 OA
ATOM      6  H   UNL A   1      33.006  27.857  21.485  1.00  0.00     0.163 HD
BRANCH   4   7
ATOM      7  C   UNL A   1      30.278  28.026  23.529  1.00  0.00     0.103 C 
ATOM      8  C   UNL A   1      29.889  25.885  24.549  1.00  0.00     0.106 C 
ATOM      9  C   UNL A   1      28.609  26.420  23.997  1.00  0.00    -0.006 C 
ATOM     10  C   UNL A   1      30.656  27.192  24.771  1.00  0.00     0.047 C 
ATOM     11  C   UNL A   1      28.835  27.604  23.409  1.00  0.00    -0.016 C 
BRANCH   8  12
ATOM     12  N   UNL A   1      29.680  25.098  25.731  1.00  0.00    -0.346 N 
ATOM     13  C   UNL A   1      30.433  24.070  26.249  1.00  0.00     0.251 C 
ATOM     14  O   UNL A   1      30.059  23.555  27.304  1.00  0.00    -0.269 OA
ATOM     15  H   UNL A   1      28.877  25.330  26.251  1.00  0.00     0.164 HD
BRANCH  13  16
ATOM     16  C   UNL A   1      31.713  23.605  25.633  1.00  0.00     0.040 A 
ATOM     17  C   UNL A   1      35.439  24.398  25.487  1.00  0.00     0.047 C 
ATOM     18  C   UNL A   1      34.120  23.730  25.236  1.00  0.00    -0.015 A 
ATOM     19  C   UNL A   1      32.929  24.295  25.715  1.00  0.00     0.020 A 
ATOM     20  C   UNL A   1      34.058  22.521  24.549  1.00  0.00     0.126 A 
ATOM     21  C   UNL A   1      32.846  21.864  24.366  1.00  0.00     0.040 A 
ATOM     22  F   UNL A   1      35.177  21.976  24.051  1.00  0.00    -0.207 F 
ATOM     23  C   UNL A   1      31.679  22.396  24.921  1.00  0.00     0.017 A 
ENDBRANCH  13  16
ENDBRANCH   8  12
ENDBRANCH   4   7
ENDBRANCH   2   3
ENDBRANCH   1   2
BRANCH   1  24
ATOM     24  C   UNL A   1      33.585  28.336  25.596  1.00  0.00     0.023 C 
BRANCH  24  25
ATOM     25  C   UNL A   1      34.649  28.664  26.637  1.00  0.00     0.116 C 
BRANCH  25  26
ATOM     26  N   UNL A   1      34.655  30.078  26.995  1.00  0.00    -0.352 N 
ATOM     27  C   UNL A   1      35.480  30.736  27.878  1.00  0.00     0.251 C 
ATOM     28  H   UNL A   1      33.978  30.635  26.547  1.00  0.00     0.163 HD
ATOM     29  O   UNL A   1      35.214  31.864  28.268  1.00  0.00    -0.269 OA
BRANCH  27  30
ATOM     30  C   UNL A   1      36.704  30.065  28.340  1.00  0.00     0.039 A 
ATOM     31  C   UNL A   1      36.720  29.346  29.543  1.00  0.00     0.014 A 
ATOM     32  C   UNL A   1      37.848  30.186  27.559  1.00  0.00     0.014 A 
ATOM     33  C   UNL A   1      37.884  28.683  29.936  1.00  0.00     0.010 A 
ATOM     34  C   UNL A   1      38.968  29.476  27.902  1.00  0.00     0.010 A 
ATOM     35  C   UNL A   1      38.999  28.746  29.100  1.00  0.00    -0.014 A 
BRANCH  35  36
ATOM     36  C   UNL A   1      40.284  28.122  29.358  1.00  0.00     0.031 A 
ATOM     37  C   UNL A   1      40.631  26.794  28.824  1.00  0.00     0.074 A 
ATOM     38  C   UNL A   1      41.236  28.954  29.834  1.00  0.00     0.049 A 
ATOM     39  N   UNL A   1      41.704  26.161  29.149  1.00  0.00    -0.248 NA
ATOM     40  C   UNL A   1      39.801  26.058  27.877  1.00  0.00     0.031 C 
ATOM     41  C   UNL A   1      42.683  28.846  29.725  1.00  0.00     0.029 A 
ATOM     42  N   UNL A   1      41.033  30.085  30.639  1.00  0.00    -0.354 N 
ATOM     43  C   UNL A   1      41.868  25.119  28.266  1.00  0.00     0.074 A 
ATOM     44  C   UNL A   1      40.613  25.041  27.552  1.00  0.00     0.031 C 
ATOM     45  C   UNL A   1      43.245  29.661  30.633  1.00  0.00     0.029 A 
ATOM     46  C   UNL A   1      42.166  30.151  31.473  1.00  0.00     0.049 A 
ATOM     47  H   UNL A   1      40.264  30.701  30.624  1.00  0.00     0.167 HD
ATOM     48  C   UNL A   1      43.100  24.543  28.161  1.00  0.00     0.037 A 
ATOM     49  C   UNL A   1      42.042  29.888  32.808  1.00  0.00     0.037 A 
ATOM     50  C   UNL A   1      44.040  25.168  29.089  1.00  0.00     0.049 A 
ATOM     51  C   UNL A   1      42.899  28.737  33.271  1.00  0.00     0.074 A 
ATOM     52  C   UNL A   1      45.007  26.150  28.937  1.00  0.00     0.029 A 
ATOM     53  N   UNL A   1      43.834  25.032  30.455  1.00  0.00    -0.354 N 
ATOM     54  N   UNL A   1      43.302  27.762  32.504  1.00  0.00    -0.248 NA
ATOM     55  C   UNL A   1      43.398  28.622  34.631  1.00  0.00     0.031 C 
ATOM     56  C   UNL A   1      45.397  26.591  30.228  1.00  0.00     0.029 A 
ATOM     57  C   UNL A   1      44.673  25.870  31.162  1.00  0.00     0.049 A 
ATOM     58  H   UNL A   1      43.179  24.422  30.864  1.00  0.00     0.167 HD
ATOM     59  C   UNL A   1      44.128  26.922  33.214  1.00  0.00     0.074 A 
ATOM     60  C   UNL A   1      44.155  27.515  34.539  1.00  0.00     0.031 C 
ATOM     61  C   UNL A   1      44.703  25.827  32.620  1.00  0.00     0.037 A 
BRANCH  48  62
ATOM     62  C   UNL A   1      43.543  23.588  27.073  1.00  0.00     0.064 A 
ATOM     63  C   UNL A   1      44.363  24.031  26.007  1.00  0.00     0.173 A 
ATOM     64  C   UNL A   1      43.194  22.227  27.018  1.00  0.00     0.173 A 
ATOM     65  F   UNL A   1      44.836  25.282  25.956  1.00  0.00    -0.203 F 
ATOM     66  C   UNL A   1      44.732  23.205  24.942  1.00  0.00     0.198 A 
ATOM     67  C   UNL A   1      43.528  21.410  25.929  1.00  0.00     0.198 A 
ATOM     68  F   UNL A   1      42.566  21.629  28.037  1.00  0.00    -0.203 F 
ATOM     69  F   UNL A   1      45.510  23.689  23.964  1.00  0.00    -0.200 F 
ATOM     70  C   UNL A   1      44.292  21.901  24.888  1.00  0.00     0.200 A 
ATOM     71  F   UNL A   1      43.107  20.137  25.899  1.00  0.00    -0.200 F 
ATOM     72  F   UNL A   1      44.619  21.116  23.853  1.00  0.00    -0.200 F 
ENDBRANCH  48  62
BRANCH  49  73
ATOM     73  C   UNL A   1      40.681  30.227  33.322  1.00  0.00     0.064 A 
ATOM     74  C   UNL A   1      40.318  31.590  33.340  1.00  0.00     0.173 A 
ATOM     75  C   UNL A   1      39.645  29.283  33.289  1.00  0.00     0.173 A 
ATOM     76  F   UNL A   1      41.273  32.535  33.370  1.00  0.00    -0.203 F 
ATOM     77  C   UNL A   1      38.994  31.988  33.164  1.00  0.00     0.198 A 
ATOM     78  C   UNL A   1      38.317  29.688  33.129  1.00  0.00     0.198 A 
ATOM     79  F   UNL A   1      39.923  27.972  33.279  1.00  0.00    -0.203 F 
ATOM     80  F   UNL A   1      38.701  33.290  33.037  1.00  0.00    -0.200 F 
ATOM     81  C   UNL A   1      38.000  31.036  33.023  1.00  0.00     0.200 A 
ATOM     82  F   UNL A   1      37.351  28.769  32.985  1.00  0.00    -0.200 F 
ATOM     83  F   UNL A   1      36.743  31.413  32.748  1.00  0.00    -0.200 F 
ENDBRANCH  49  73
BRANCH  61  84
ATOM     84  C   UNL A   1      45.394  24.626  33.267  1.00  0.00     0.064 A 
ATOM     85  C   UNL A   1      46.714  24.597  33.740  1.00  0.00     0.173 A 
ATOM     86  C   UNL A   1      44.651  23.442  33.553  1.00  0.00     0.173 A 
ATOM     87  F   UNL A   1      47.542  25.632  33.604  1.00  0.00    -0.203 F 
ATOM     88  C   UNL A   1      47.244  23.496  34.427  1.00  0.00     0.198 A 
ATOM     89  C   UNL A   1      45.164  22.373  34.287  1.00  0.00     0.198 A 
ATOM     90  F   UNL A   1      43.382  23.274  33.155  1.00  0.00    -0.203 F 
ATOM     91  F   UNL A   1      48.523  23.529  34.830  1.00  0.00    -0.200 F 
ATOM     92  C   UNL A   1      46.466  22.397  34.722  1.00  0.00     0.200 A 
ATOM     93  F   UNL A   1      44.372  21.332  34.588  1.00  0.00    -0.200 F 
ATOM     94  F   UNL A   1      46.964  21.378  35.432  1.00  0.00    -0.200 F 
ENDBRANCH  61  84
ENDBRANCH  35  36
ENDBRANCH  27  30
ENDBRANCH  25  26
ENDBRANCH  24  25
ENDBRANCH   1  24
TORSDOF 13
ENDMDL
MODEL 2
REMARK VINA RESULT:     -14.1      3.894      9.755
REMARK SMILES Cc1cc(C(=O)N[C@H]2C=C[C@H](C(=O)NCCCCNC(=O)c3ccc(-c4c5nc(c(-c6c(F)c(F)c(F)c(F)c6F)c6ccc([nH]6)c(-c6c(F)c(F)c(F)c(F)c6F)c6nc(c(-c7c(F)c(F)c(F)c(F)c7F)c7ccc4[nH]7)C=C6)C=C5)cc3)C2)ccc1F
REMARK SMILES IDX 16 1 15 2 14 3 12 4 13 5 11 7 8 8 9 9 85 10 10 11 7 12 5 13
REMARK SMILES IDX 6 14 4 16 1 17 2 18 3 19 88 20 87 21 89 22 86 23 17 24 18 25
REMARK SMILES IDX 19 26 20 27 21 29 22 30 23 31 84 32 24 33 83 34 25 35 26 36
REMARK SMILES IDX 27 37 77 38 28 39 82 40 76 41 78 42 29 43 81 44 75 45 74 46
REMARK SMILES IDX 30 48 62 49 42 50 61 51 43 52 46 53 60 54 79 55 44 56 45 57
REMARK SMILES IDX 59 59 80 60 47 61 31 62 32 63 40 64 33 65 34 66 38 67 41 68
REMARK SMILES IDX 35 69 36 70 39 71 37 72 63 73 64 74 72 75 65 76 66 77 70 78
REMARK SMILES IDX 73 79 67 80 68 81 71 82 69 83 48 84 49 85 57 86 50 87 51 88
REMARK SMILES IDX 55 89 58 90 52 91 53 92 56 93 54 94
REMARK H PARENT 14 6 7 15 19 28 78 47 46 58
REMARK Flexibility Score: inf
ROOT
ATOM      1  C   UNL A   1      34.922  23.098  26.836  1.00  0.00     0.023 C 
ENDROOT
BRANCH   1   2
ATOM      2  C   UNL A   1      34.401  21.666  26.905  1.00  0.00     0.116 C 
BRANCH   2   3
ATOM      3  N   UNL A   1      32.991  21.604  26.601  1.00  0.00    -0.356 N 
ATOM      4  C   UNL A   1      32.324  21.308  25.460  1.00  0.00     0.227 C 
ATOM      5  O   UNL A   1      31.096  21.452  25.518  1.00  0.00    -0.274 OA
ATOM      6  H   UNL A   1      32.406  21.816  27.364  1.00  0.00     0.163 HD
BRANCH   4   7
ATOM      7  C   UNL A   1      33.009  20.871  24.141  1.00  0.00     0.103 C 
ATOM      8  C   UNL A   1      32.474  22.711  22.689  1.00  0.00     0.106 C 
ATOM      9  C   UNL A   1      31.871  21.454  22.153  1.00  0.00    -0.006 C 
ATOM     10  C   UNL A   1      33.635  22.130  23.501  1.00  0.00     0.047 C 
ATOM     11  C   UNL A   1      32.153  20.435  22.978  1.00  0.00    -0.016 C 
BRANCH   8  12
ATOM     12  N   UNL A   1      32.861  23.613  21.642  1.00  0.00    -0.346 N 
ATOM     13  C   UNL A   1      32.877  24.989  21.625  1.00  0.00     0.251 C 
ATOM     14  O   UNL A   1      33.277  25.549  20.604  1.00  0.00    -0.269 OA
ATOM     15  H   UNL A   1      33.162  23.182  20.809  1.00  0.00     0.164 HD
BRANCH  13  16
ATOM     16  C   UNL A   1      32.504  25.823  22.808  1.00  0.00     0.040 A 
ATOM     17  C   UNL A   1      33.909  27.216  26.066  1.00  0.00     0.047 C 
ATOM     18  C   UNL A   1      32.957  26.908  24.949  1.00  0.00    -0.015 A 
ATOM     19  C   UNL A   1      33.308  25.998  23.940  1.00  0.00     0.020 A 
ATOM     20  C   UNL A   1      31.720  27.543  24.876  1.00  0.00     0.126 A 
ATOM     21  C   UNL A   1      30.858  27.310  23.811  1.00  0.00     0.040 A 
ATOM     22  F   UNL A   1      31.346  28.392  25.844  1.00  0.00    -0.207 F 
ATOM     23  C   UNL A   1      31.255  26.464  22.771  1.00  0.00     0.017 A 
ENDBRANCH  13  16
ENDBRANCH   8  12
ENDBRANCH   4   7
ENDBRANCH   2   3
ENDBRANCH   1   2
BRANCH   1  24
ATOM     24  C   UNL A   1      35.675  23.451  25.546  1.00  0.00     0.023 C 
BRANCH  24  25
ATOM     25  C   UNL A   1      37.046  24.077  25.771  1.00  0.00     0.116 C 
BRANCH  25  26
ATOM     26  N   UNL A   1      38.017  23.114  26.280  1.00  0.00    -0.352 N 
ATOM     27  C   UNL A   1      39.243  23.355  26.857  1.00  0.00     0.251 C 
ATOM     28  H   UNL A   1      37.762  22.167  26.198  1.00  0.00     0.163 HD
ATOM     29  O   UNL A   1      40.056  22.454  27.007  1.00  0.00    -0.269 OA
BRANCH  27  30
ATOM     30  C   UNL A   1      39.560  24.718  27.306  1.00  0.00     0.039 A 
ATOM     31  C   UNL A   1      40.151  25.644  26.434  1.00  0.00     0.014 A 
ATOM     32  C   UNL A   1      39.278  25.051  28.627  1.00  0.00     0.014 A 
ATOM     33  C   UNL A   1      40.401  26.944  26.876  1.00  0.00     0.010 A 
ATOM     34  C   UNL A   1      39.453  26.345  29.040  1.00  0.00     0.010 A 
ATOM     35  C   UNL A   1      40.037  27.286  28.178  1.00  0.00    -0.014 A 
BRANCH  35  36
ATOM     36  C   UNL A   1      40.230  28.586  28.796  1.00  0.00     0.031 A 
ATOM     37  C   UNL A   1      39.151  29.586  28.868  1.00  0.00     0.074 A 
ATOM     38  C   UNL A   1      41.335  28.692  29.566  1.00  0.00     0.049 A 
ATOM     39  N   UNL A   1      39.333  30.791  29.284  1.00  0.00    -0.248 NA
ATOM     40  C   UNL A   1      37.771  29.322  28.478  1.00  0.00     0.031 C 
ATOM     41  C   UNL A   1      41.583  29.583  30.690  1.00  0.00     0.029 A 
ATOM     42  N   UNL A   1      42.549  28.013  29.388  1.00  0.00    -0.354 N 
ATOM     43  C   UNL A   1      38.099  31.355  29.507  1.00  0.00     0.074 A 
ATOM     44  C   UNL A   1      37.159  30.436  28.905  1.00  0.00     0.031 C 
ATOM     45  C   UNL A   1      42.906  29.619  30.925  1.00  0.00     0.029 A 
ATOM     46  C   UNL A   1      43.540  28.911  29.827  1.00  0.00     0.049 A 
ATOM     47  H   UNL A   1      42.680  27.104  29.031  1.00  0.00     0.167 HD
ATOM     48  C   UNL A   1      38.025  32.466  30.297  1.00  0.00     0.037 A 
ATOM     49  C   UNL A   1      44.389  29.484  28.922  1.00  0.00     0.037 A 
ATOM     50  C   UNL A   1      39.357  32.871  30.741  1.00  0.00     0.049 A 
ATOM     51  C   UNL A   1      44.321  30.990  28.912  1.00  0.00     0.074 A 
ATOM     52  C   UNL A   1      40.065  32.663  31.914  1.00  0.00     0.029 A 
ATOM     53  N   UNL A   1      40.278  33.313  29.801  1.00  0.00    -0.354 N 
ATOM     54  N   UNL A   1      43.280  31.684  29.280  1.00  0.00    -0.248 NA
ATOM     55  C   UNL A   1      45.443  31.828  28.522  1.00  0.00     0.031 C 
ATOM     56  C   UNL A   1      41.422  33.003  31.678  1.00  0.00     0.029 A 
ATOM     57  C   UNL A   1      41.533  33.427  30.364  1.00  0.00     0.049 A 
ATOM     58  H   UNL A   1      40.066  33.516  28.862  1.00  0.00     0.167 HD
ATOM     59  C   UNL A   1      43.574  33.027  29.227  1.00  0.00     0.074 A 
ATOM     60  C   UNL A   1      44.944  33.054  28.750  1.00  0.00     0.031 C 
ATOM     61  C   UNL A   1      42.644  33.969  29.589  1.00  0.00     0.037 A 
BRANCH  48  62
ATOM     62  C   UNL A   1      36.758  33.060  30.873  1.00  0.00     0.064 A 
ATOM     63  C   UNL A   1      35.884  33.830  30.067  1.00  0.00     0.173 A 
ATOM     64  C   UNL A   1      36.344  32.913  32.209  1.00  0.00     0.173 A 
ATOM     65  F   UNL A   1      36.103  34.002  28.758  1.00  0.00    -0.203 F 
ATOM     66  C   UNL A   1      34.745  34.461  30.574  1.00  0.00     0.198 A 
ATOM     67  C   UNL A   1      35.225  33.580  32.727  1.00  0.00     0.198 A 
ATOM     68  F   UNL A   1      36.976  32.078  33.043  1.00  0.00    -0.203 F 
ATOM     69  F   UNL A   1      33.961  35.177  29.755  1.00  0.00    -0.200 F 
ATOM     70  C   UNL A   1      34.429  34.359  31.911  1.00  0.00     0.200 A 
ATOM     71  F   UNL A   1      34.922  33.456  34.027  1.00  0.00    -0.200 F 
ATOM     72  F   UNL A   1      33.355  34.987  32.405  1.00  0.00    -0.200 F 
ENDBRANCH  48  62
BRANCH  49  73
ATOM     73  C   UNL A   1      44.608  28.610  27.730  1.00  0.00     0.064 A 
ATOM     74  C   UNL A   1      45.269  27.382  27.941  1.00  0.00     0.173 A 
ATOM     75  C   UNL A   1      43.782  28.713  26.602  1.00  0.00     0.173 A 
ATOM     76  F   UNL A   1      46.070  27.230  29.009  1.00  0.00    -0.203 F 
ATOM     77  C   UNL A   1      44.985  26.264  27.159  1.00  0.00     0.198 A 
ATOM     78  C   UNL A   1      43.514  27.594  25.810  1.00  0.00     0.198 A 
ATOM     79  F   UNL A   1      43.133  29.857  26.339  1.00  0.00    -0.203 F 
ATOM     80  F   UNL A   1      45.516  25.075  27.477  1.00  0.00    -0.200 F 
ATOM     81  C   UNL A   1      44.080  26.363  26.116  1.00  0.00     0.200 A 
ATOM     82  F   UNL A   1      42.633  27.683  24.803  1.00  0.00    -0.200 F 
ATOM     83  F   UNL A   1      43.725  25.267  25.429  1.00  0.00    -0.200 F 
ENDBRANCH  49  73
BRANCH  61  84
ATOM     84  C   UNL A   1      42.646  35.477  29.336  1.00  0.00     0.064 A 
ATOM     85  C   UNL A   1      43.344  36.433  30.087  1.00  0.00     0.173 A 
ATOM     86  C   UNL A   1      41.997  36.009  28.182  1.00  0.00     0.173 A 
ATOM     87  F   UNL A   1      44.046  36.111  31.173  1.00  0.00    -0.203 F 
ATOM     88  C   UNL A   1      43.391  37.787  29.727  1.00  0.00     0.198 A 
ATOM     89  C   UNL A   1      42.095  37.346  27.794  1.00  0.00     0.198 A 
ATOM     90  F   UNL A   1      41.258  35.253  27.358  1.00  0.00    -0.203 F 
ATOM     91  F   UNL A   1      44.060  38.650  30.506  1.00  0.00    -0.200 F 
ATOM     92  C   UNL A   1      42.790  38.239  28.571  1.00  0.00     0.200 A 
ATOM     93  F   UNL A   1      41.528  37.749  26.647  1.00  0.00    -0.200 F 
ATOM     94  F   UNL A   1      42.893  39.522  28.204  1.00  0.00    -0.200 F 
ENDBRANCH  61  84
ENDBRANCH  35  36
ENDBRANCH  27  30
ENDBRANCH  25  26
ENDBRANCH  24  25
ENDBRANCH   1  24
TORSDOF 13
ENDMDL
MODEL 3
REMARK VINA RESULT:     -13.9      1.040      1.986
REMARK SMILES Cc1cc(C(=O)N[C@H]2C=C[C@H](C(=O)NCCCCNC(=O)c3ccc(-c4c5nc(c(-c6c(F)c(F)c(F)c(F)c6F)c6ccc([nH]6)c(-c6c(F)c(F)c(F)c(F)c6F)c6nc(c(-c7c(F)c(F)c(F)c(F)c7F)c7ccc4[nH]7)C=C6)C=C5)cc3)C2)ccc1F
REMARK SMILES IDX 16 1 15 2 14 3 12 4 13 5 11 7 8 8 9 9 85 10 10 11 7 12 5 13
REMARK SMILES IDX 6 14 4 16 1 17 2 18 3 19 88 20 87 21 89 22 86 23 17 24 18 25
REMARK SMILES IDX 19 26 20 27 21 29 22 30 23 31 84 32 24 33 83 34 25 35 26 36
REMARK SMILES IDX 27 37 77 38 28 39 82 40 76 41 78 42 29 43 81 44 75 45 74 46
REMARK SMILES IDX 30 48 62 49 42 50 61 51 43 52 46 53 60 54 79 55 44 56 45 57
REMARK SMILES IDX 59 59 80 60 47 61 31 62 32 63 40 64 33 65 34 66 38 67 41 68
REMARK SMILES IDX 35 69 36 70 39 71 37 72 63 73 64 74 72 75 65 76 66 77 70 78
REMARK SMILES IDX 73 79 67 80 68 81 71 82 69 83 48 84 49 85 57 86 50 87 51 88
REMARK SMILES IDX 55 89 58 90 52 91 53 92 56 93 54 94
REMARK H PARENT 14 6 7 15 19 28 78 47 46 58
REMARK Flexibility Score: inf
ROOT
ATOM      1  C   UNL A   1      32.798  29.121  24.873  1.00  0.00     0.023 C 
ENDROOT
BRANCH   1   2
ATOM      2  C   UNL A   1      31.400  28.846  25.420  1.00  0.00     0.116 C 
BRANCH   2   3
ATOM      3  N   UNL A   1      31.335  27.559  26.072  1.00  0.00    -0.356 N 
ATOM      4  C   UNL A   1      30.730  26.398  25.724  1.00  0.00     0.227 C 
ATOM      5  O   UNL A   1      30.785  25.503  26.577  1.00  0.00    -0.274 OA
ATOM      6  H   UNL A   1      31.819  27.519  26.928  1.00  0.00     0.163 HD
BRANCH   4   7
ATOM      7  C   UNL A   1      29.966  26.181  24.394  1.00  0.00     0.103 C 
ATOM      8  C   UNL A   1      31.761  25.626  22.893  1.00  0.00     0.106 C 
ATOM      9  C   UNL A   1      31.094  26.883  22.439  1.00  0.00    -0.006 C 
ATOM     10  C   UNL A   1      30.614  24.978  23.674  1.00  0.00     0.047 C 
ATOM     11  C   UNL A   1      30.109  27.201  23.291  1.00  0.00    -0.016 C 
BRANCH   8  12
ATOM     12  N   UNL A   1      32.257  24.850  21.793  1.00  0.00    -0.346 N 
ATOM     13  C   UNL A   1      33.152  23.805  21.785  1.00  0.00     0.251 C 
ATOM     14  O   UNL A   1      33.410  23.274  20.704  1.00  0.00    -0.269 OA
ATOM     15  H   UNL A   1      31.903  25.103  20.910  1.00  0.00     0.164 HD
BRANCH  13  16
ATOM     16  C   UNL A   1      33.761  23.243  23.029  1.00  0.00     0.040 A 
ATOM     17  C   UNL A   1      36.495  23.907  25.602  1.00  0.00     0.047 C 
ATOM     18  C   UNL A   1      35.355  23.252  24.880  1.00  0.00    -0.015 A 
ATOM     19  C   UNL A   1      34.921  23.737  23.637  1.00  0.00     0.020 A 
ATOM     20  C   UNL A   1      34.687  22.169  25.446  1.00  0.00     0.126 A 
ATOM     21  C   UNL A   1      33.590  21.595  24.812  1.00  0.00     0.040 A 
ATOM     22  F   UNL A   1      35.102  21.665  26.616  1.00  0.00    -0.207 F 
ATOM     23  C   UNL A   1      33.118  22.141  23.615  1.00  0.00     0.017 A 
ENDBRANCH  13  16
ENDBRANCH   8  12
ENDBRANCH   4   7
ENDBRANCH   2   3
ENDBRANCH   1   2
BRANCH   1  24
ATOM     24  C   UNL A   1      33.903  28.218  25.439  1.00  0.00     0.023 C 
BRANCH  24  25
ATOM     25  C   UNL A   1      34.371  28.602  26.838  1.00  0.00     0.116 C 
BRANCH  25  26
ATOM     26  N   UNL A   1      34.452  30.048  27.017  1.00  0.00    -0.352 N 
ATOM     27  C   UNL A   1      35.361  30.772  27.754  1.00  0.00     0.251 C 
ATOM     28  H   UNL A   1      33.765  30.575  26.548  1.00  0.00     0.163 HD
ATOM     29  O   UNL A   1      35.162  31.950  28.017  1.00  0.00    -0.269 OA
BRANCH  27  30
ATOM     30  C   UNL A   1      36.590  30.110  28.213  1.00  0.00     0.039 A 
ATOM     31  C   UNL A   1      36.620  29.412  29.429  1.00  0.00     0.014 A 
ATOM     32  C   UNL A   1      37.725  30.218  27.417  1.00  0.00     0.014 A 
ATOM     33  C   UNL A   1      37.789  28.757  29.820  1.00  0.00     0.010 A 
ATOM     34  C   UNL A   1      38.849  29.515  27.760  1.00  0.00     0.010 A 
ATOM     35  C   UNL A   1      38.894  28.806  28.971  1.00  0.00    -0.014 A 
BRANCH  35  36
ATOM     36  C   UNL A   1      40.183  28.187  29.224  1.00  0.00     0.031 A 
ATOM     37  C   UNL A   1      40.525  26.850  28.709  1.00  0.00     0.074 A 
ATOM     38  C   UNL A   1      41.139  29.028  29.676  1.00  0.00     0.049 A 
ATOM     39  N   UNL A   1      41.602  26.224  29.033  1.00  0.00    -0.248 NA
ATOM     40  C   UNL A   1      39.685  26.098  27.784  1.00  0.00     0.031 C 
ATOM     41  C   UNL A   1      42.585  28.919  29.552  1.00  0.00     0.029 A 
ATOM     42  N   UNL A   1      40.945  30.173  30.463  1.00  0.00    -0.354 N 
ATOM     43  C   UNL A   1      41.757  25.167  28.166  1.00  0.00     0.074 A 
ATOM     44  C   UNL A   1      40.494  25.076  27.467  1.00  0.00     0.031 C 
ATOM     45  C   UNL A   1      43.157  29.750  30.440  1.00  0.00     0.029 A 
ATOM     46  C   UNL A   1      42.086  30.253  31.283  1.00  0.00     0.049 A 
ATOM     47  H   UNL A   1      40.175  30.787  30.446  1.00  0.00     0.167 HD
ATOM     48  C   UNL A   1      42.989  24.591  28.057  1.00  0.00     0.037 A 
ATOM     49  C   UNL A   1      41.978  30.013  32.625  1.00  0.00     0.037 A 
ATOM     50  C   UNL A   1      43.938  25.232  28.964  1.00  0.00     0.049 A 
ATOM     51  C   UNL A   1      42.840  28.871  33.097  1.00  0.00     0.074 A 
ATOM     52  C   UNL A   1      44.902  26.211  28.784  1.00  0.00     0.029 A 
ATOM     53  N   UNL A   1      43.747  25.119  30.335  1.00  0.00    -0.354 N 
ATOM     54  N   UNL A   1      43.236  27.883  32.342  1.00  0.00    -0.248 NA
ATOM     55  C   UNL A   1      43.355  28.779  34.454  1.00  0.00     0.031 C 
ATOM     56  C   UNL A   1      45.306  26.675  30.063  1.00  0.00     0.029 A 
ATOM     57  C   UNL A   1      44.594  25.969  31.018  1.00  0.00     0.049 A 
ATOM     58  H   UNL A   1      43.098  24.516  30.761  1.00  0.00     0.167 HD
ATOM     59  C   UNL A   1      44.071  27.056  33.057  1.00  0.00     0.074 A 
ATOM     60  C   UNL A   1      44.112  27.672  34.372  1.00  0.00     0.031 C 
ATOM     61  C   UNL A   1      44.639  25.951  32.475  1.00  0.00     0.037 A 
BRANCH  48  62
ATOM     62  C   UNL A   1      43.419  23.617  26.981  1.00  0.00     0.064 A 
ATOM     63  C   UNL A   1      42.913  22.295  26.953  1.00  0.00     0.173 A 
ATOM     64  C   UNL A   1      44.327  23.919  25.951  1.00  0.00     0.173 A 
ATOM     65  F   UNL A   1      41.988  21.877  27.825  1.00  0.00    -0.203 F 
ATOM     66  C   UNL A   1      43.340  21.341  26.026  1.00  0.00     0.198 A 
ATOM     67  C   UNL A   1      44.787  22.951  25.047  1.00  0.00     0.198 A 
ATOM     68  F   UNL A   1      44.758  25.170  25.749  1.00  0.00    -0.203 F 
ATOM     69  F   UNL A   1      42.820  20.105  26.056  1.00  0.00    -0.200 F 
ATOM     70  C   UNL A   1      44.297  21.660  25.089  1.00  0.00     0.200 A 
ATOM     71  F   UNL A   1      45.706  23.282  24.129  1.00  0.00    -0.200 F 
ATOM     72  F   UNL A   1      44.730  20.738  24.219  1.00  0.00    -0.200 F 
ENDBRANCH  48  62
BRANCH  49  73
ATOM     73  C   UNL A   1      40.622  30.360  33.148  1.00  0.00     0.064 A 
ATOM     74  C   UNL A   1      40.239  31.717  33.101  1.00  0.00     0.173 A 
ATOM     75  C   UNL A   1      39.600  29.402  33.186  1.00  0.00     0.173 A 
ATOM     76  F   UNL A   1      41.179  32.676  33.060  1.00  0.00    -0.203 F 
ATOM     77  C   UNL A   1      38.906  32.087  32.931  1.00  0.00     0.198 A 
ATOM     78  C   UNL A   1      38.263  29.778  33.032  1.00  0.00     0.198 A 
ATOM     79  F   UNL A   1      39.898  28.095  33.241  1.00  0.00    -0.203 F 
ATOM     80  F   UNL A   1      38.590  33.375  32.741  1.00  0.00    -0.200 F 
ATOM     81  C   UNL A   1      37.924  31.114  32.861  1.00  0.00     0.200 A 
ATOM     82  F   UNL A   1      37.309  28.839  32.958  1.00  0.00    -0.200 F 
ATOM     83  F   UNL A   1      36.656  31.458  32.593  1.00  0.00    -0.200 F 
ENDBRANCH  49  73
BRANCH  61  84
ATOM     84  C   UNL A   1      45.339  24.762  33.136  1.00  0.00     0.064 A 
ATOM     85  C   UNL A   1      46.651  24.754  33.630  1.00  0.00     0.173 A 
ATOM     86  C   UNL A   1      44.610  23.566  33.410  1.00  0.00     0.173 A 
ATOM     87  F   UNL A   1      47.465  25.802  33.506  1.00  0.00    -0.203 F 
ATOM     88  C   UNL A   1      47.188  23.662  34.327  1.00  0.00     0.198 A 
ATOM     89  C   UNL A   1      45.128  22.506  34.155  1.00  0.00     0.198 A 
ATOM     90  F   UNL A   1      43.351  23.379  32.992  1.00  0.00    -0.203 F 
ATOM     91  F   UNL A   1      48.459  23.716  34.750  1.00  0.00    -0.200 F 
ATOM     92  C   UNL A   1      46.422  22.552  34.611  1.00  0.00     0.200 A 
ATOM     93  F   UNL A   1      44.348  21.454  34.444  1.00  0.00    -0.200 F 
ATOM     94  F   UNL A   1      46.924  21.541  35.330  1.00  0.00    -0.200 F 
ENDBRANCH  61  84
ENDBRANCH  35  36
ENDBRANCH  27  30
ENDBRANCH  25  26
ENDBRANCH  24  25
ENDBRANCH   1  24
TORSDOF 13
ENDMDL
