MODEL 1
REMARK VINA RESULT:     -12.9      0.000      0.000
REMARK SMILES O=C(Cc1ccccc1-c1ccn(C(F)F)c(=O)c1)NCCCCNC(=O)c1ccc(-c2c3nc(c(-c4c(F)c(F)c(F)c(F)c4F)c4ccc([nH]4)c(-c4c(F)c(F)c(F)c(F)c4F)c4nc(c(-c5c(F)c(F)c(F)c(F)c5F)c5ccc2[nH]5)C=C4)C=C3)cc1
REMARK SMILES IDX 22 1 21 2 20 3 1 4 2 5 3 7 4 8 5 9 9 10 6 11 8 12 7 13 10 14
REMARK SMILES IDX 11 15 19 16 12 17 17 18 13 19 18 20 14 21 15 22 16 23 23 24
REMARK SMILES IDX 24 25 25 26 26 27 27 29 28 30 29 31 90 32 30 33 89 34 31 35
REMARK SMILES IDX 32 36 33 37 83 38 34 39 88 40 82 41 84 42 35 43 87 44 81 45
REMARK SMILES IDX 80 46 36 48 68 49 48 50 67 51 49 52 52 53 66 54 85 55 50 56
REMARK SMILES IDX 51 57 65 59 86 60 53 61 37 62 38 63 46 64 39 65 40 66 44 67
REMARK SMILES IDX 47 68 41 69 42 70 45 71 43 72 69 73 70 74 78 75 71 76 72 77
REMARK SMILES IDX 76 78 79 79 73 80 74 81 77 82 75 83 54 84 55 85 63 86 56 87
REMARK SMILES IDX 57 88 61 89 64 90 58 91 59 92 62 93 60 94
REMARK H PARENT 20 6 25 28 84 47 52 58
REMARK Flexibility Score: inf
ROOT
ATOM      1  C   UNL A   1      31.679  30.657  26.106  1.00  0.00     0.023 C 
ENDROOT
BRANCH   1   2
ATOM      2  C   UNL A   1      32.107  29.615  27.133  1.00  0.00     0.116 C 
BRANCH   2   3
ATOM      3  N   UNL A   1      31.902  28.235  26.727  1.00  0.00    -0.356 N 
ATOM      4  O   UNL A   1      34.039  27.989  25.935  1.00  0.00    -0.275 OA
ATOM      5  C   UNL A   1      32.950  27.492  26.214  1.00  0.00     0.224 C 
ATOM      6  H   UNL A   1      31.011  27.826  26.817  1.00  0.00     0.163 HD
BRANCH   5   7
ATOM      7  C   UNL A   1      32.659  26.024  25.958  1.00  0.00     0.136 C 
BRANCH   7   8
ATOM      8  C   UNL A   1      32.835  25.489  24.542  1.00  0.00    -0.031 A 
ATOM      9  C   UNL A   1      33.869  24.548  24.348  1.00  0.00     0.005 A 
ATOM     10  C   UNL A   1      31.967  25.754  23.456  1.00  0.00    -0.014 A 
ATOM     11  C   UNL A   1      34.065  23.922  23.117  1.00  0.00     0.000 A 
ATOM     12  C   UNL A   1      32.189  25.131  22.215  1.00  0.00     0.009 A 
ATOM     13  C   UNL A   1      33.231  24.220  22.046  1.00  0.00     0.001 A 
BRANCH  10  14
ATOM     14  C   UNL A   1      30.807  26.657  23.556  1.00  0.00    -0.011 A 
ATOM     15  C   UNL A   1      29.529  26.223  24.083  1.00  0.00     0.027 A 
ATOM     16  C   UNL A   1      30.933  27.912  23.095  1.00  0.00     0.080 A 
ATOM     17  C   UNL A   1      28.435  26.965  23.876  1.00  0.00     0.095 A 
ATOM     18  C   UNL A   1      29.742  28.806  22.996  1.00  0.00     0.255 A 
ATOM     19  N   UNL A   1      28.523  28.197  23.258  1.00  0.00    -0.258 N 
ATOM     20  O   UNL A   1      29.908  29.971  22.667  1.00  0.00    -0.269 OA
BRANCH  19  21
ATOM     21  C   UNL A   1      27.323  28.930  22.946  1.00  0.00     0.451 C 
ATOM     22  F   UNL A   1      26.226  28.233  23.325  1.00  0.00    -0.185 F 
ATOM     23  F   UNL A   1      27.280  30.142  23.550  1.00  0.00    -0.185 F 
ENDBRANCH  19  21
ENDBRANCH  10  14
ENDBRANCH   7   8
ENDBRANCH   5   7
ENDBRANCH   2   3
ENDBRANCH   1   2
BRANCH   1  24
ATOM     24  C   UNL A   1      31.419  32.060  26.654  1.00  0.00     0.023 C 
BRANCH  24  25
ATOM     25  C   UNL A   1      32.613  32.759  27.299  1.00  0.00     0.116 C 
BRANCH  25  26
ATOM     26  N   UNL A   1      32.361  34.153  27.630  1.00  0.00    -0.352 N 
ATOM     27  C   UNL A   1      32.981  34.976  28.542  1.00  0.00     0.251 C 
ATOM     28  H   UNL A   1      31.630  34.574  27.121  1.00  0.00     0.163 HD
ATOM     29  O   UNL A   1      32.532  36.098  28.754  1.00  0.00    -0.269 OA
BRANCH  27  30
ATOM     30  C   UNL A   1      34.162  34.509  29.303  1.00  0.00     0.039 A 
ATOM     31  C   UNL A   1      33.975  34.001  30.591  1.00  0.00     0.014 A 
ATOM     32  C   UNL A   1      35.449  34.570  28.761  1.00  0.00     0.014 A 
ATOM     33  C   UNL A   1      35.060  33.469  31.297  1.00  0.00     0.010 A 
ATOM     34  C   UNL A   1      36.513  33.968  29.430  1.00  0.00     0.010 A 
ATOM     35  C   UNL A   1      36.329  33.402  30.702  1.00  0.00    -0.014 A 
BRANCH  35  36
ATOM     36  C   UNL A   1      37.468  32.724  31.381  1.00  0.00     0.031 A 
ATOM     37  C   UNL A   1      38.166  31.564  30.725  1.00  0.00     0.074 A 
ATOM     38  C   UNL A   1      37.828  33.106  32.622  1.00  0.00     0.049 A 
ATOM     39  N   UNL A   1      39.120  30.798  31.193  1.00  0.00    -0.248 NA
ATOM     40  C   UNL A   1      37.714  31.198  29.375  1.00  0.00     0.031 C 
ATOM     41  C   UNL A   1      37.205  34.186  33.388  1.00  0.00     0.029 A 
ATOM     42  N   UNL A   1      38.799  32.621  33.464  1.00  0.00    -0.354 N 
ATOM     43  C   UNL A   1      39.369  29.854  30.206  1.00  0.00     0.074 A 
ATOM     44  C   UNL A   1      38.431  30.110  29.133  1.00  0.00     0.031 C 
ATOM     45  C   UNL A   1      37.823  34.297  34.576  1.00  0.00     0.029 A 
ATOM     46  C   UNL A   1      38.856  33.270  34.674  1.00  0.00     0.049 A 
ATOM     47  H   UNL A   1      39.398  31.877  33.224  1.00  0.00     0.167 HD
ATOM     48  C   UNL A   1      40.307  28.876  30.186  1.00  0.00     0.037 A 
ATOM     49  C   UNL A   1      39.645  33.058  35.745  1.00  0.00     0.037 A 
ATOM     50  C   UNL A   1      41.258  28.640  31.240  1.00  0.00     0.049 A 
ATOM     51  C   UNL A   1      40.670  31.958  35.700  1.00  0.00     0.074 A 
ATOM     52  C   UNL A   1      42.290  27.718  31.280  1.00  0.00     0.029 A 
ATOM     53  N   UNL A   1      41.292  29.328  32.444  1.00  0.00    -0.354 N 
ATOM     54  N   UNL A   1      40.943  31.118  34.731  1.00  0.00    -0.248 NA
ATOM     55  C   UNL A   1      41.502  31.779  36.899  1.00  0.00     0.031 C 
ATOM     56  C   UNL A   1      42.914  27.812  32.528  1.00  0.00     0.029 A 
ATOM     57  C   UNL A   1      42.309  28.832  33.244  1.00  0.00     0.049 A 
ATOM     58  H   UNL A   1      40.683  30.061  32.694  1.00  0.00     0.167 HD
ATOM     59  C   UNL A   1      41.994  30.337  35.188  1.00  0.00     0.074 A 
ATOM     60  C   UNL A   1      42.321  30.809  36.516  1.00  0.00     0.031 C 
ATOM     61  C   UNL A   1      42.633  29.317  34.561  1.00  0.00     0.037 A 
BRANCH  48  62
ATOM     62  C   UNL A   1      40.354  27.982  28.980  1.00  0.00     0.064 A 
ATOM     63  C   UNL A   1      39.626  26.783  28.921  1.00  0.00     0.173 A 
ATOM     64  C   UNL A   1      41.100  28.350  27.850  1.00  0.00     0.173 A 
ATOM     65  F   UNL A   1      38.905  26.380  29.979  1.00  0.00    -0.203 F 
ATOM     66  C   UNL A   1      39.668  25.972  27.790  1.00  0.00     0.198 A 
ATOM     67  C   UNL A   1      41.114  27.554  26.707  1.00  0.00     0.198 A 
ATOM     68  F   UNL A   1      41.809  29.489  27.849  1.00  0.00    -0.203 F 
ATOM     69  F   UNL A   1      39.004  24.808  27.777  1.00  0.00    -0.200 F 
ATOM     70  C   UNL A   1      40.404  26.362  26.682  1.00  0.00     0.200 A 
ATOM     71  F   UNL A   1      41.815  27.938  25.633  1.00  0.00    -0.200 F 
ATOM     72  F   UNL A   1      40.436  25.585  25.590  1.00  0.00    -0.200 F 
ENDBRANCH  48  62
BRANCH  49  73
ATOM     73  C   UNL A   1      39.513  33.922  36.949  1.00  0.00     0.064 A 
ATOM     74  C   UNL A   1      38.747  33.511  38.048  1.00  0.00     0.173 A 
ATOM     75  C   UNL A   1      40.134  35.177  37.020  1.00  0.00     0.173 A 
ATOM     76  F   UNL A   1      38.114  32.328  38.017  1.00  0.00    -0.203 F 
ATOM     77  C   UNL A   1      38.587  34.330  39.163  1.00  0.00     0.198 A 
ATOM     78  C   UNL A   1      39.999  35.984  38.149  1.00  0.00     0.198 A 
ATOM     79  F   UNL A   1      40.883  35.616  35.998  1.00  0.00    -0.203 F 
ATOM     80  F   UNL A   1      37.808  33.933  40.178  1.00  0.00    -0.200 F 
ATOM     81  C   UNL A   1      39.218  35.564  39.216  1.00  0.00     0.200 A 
ATOM     82  F   UNL A   1      40.623  37.168  38.202  1.00  0.00    -0.200 F 
ATOM     83  F   UNL A   1      39.066  36.351  40.289  1.00  0.00    -0.200 F 
ENDBRANCH  49  73
BRANCH  61  84
ATOM     84  C   UNL A   1      43.778  28.670  35.286  1.00  0.00     0.064 A 
ATOM     85  C   UNL A   1      45.095  29.131  35.148  1.00  0.00     0.173 A 
ATOM     86  C   UNL A   1      43.546  27.598  36.163  1.00  0.00     0.173 A 
ATOM     87  F   UNL A   1      45.372  30.143  34.311  1.00  0.00    -0.203 F 
ATOM     88  C   UNL A   1      46.141  28.526  35.839  1.00  0.00     0.198 A 
ATOM     89  C   UNL A   1      44.590  27.018  36.877  1.00  0.00     0.198 A 
ATOM     90  F   UNL A   1      42.303  27.124  36.338  1.00  0.00    -0.203 F 
ATOM     91  F   UNL A   1      47.398  28.952  35.654  1.00  0.00    -0.200 F 
ATOM     92  C   UNL A   1      45.887  27.476  36.709  1.00  0.00     0.200 A 
ATOM     93  F   UNL A   1      44.340  26.012  37.727  1.00  0.00    -0.200 F 
ATOM     94  F   UNL A   1      46.895  26.901  37.379  1.00  0.00    -0.200 F 
ENDBRANCH  61  84
ENDBRANCH  35  36
ENDBRANCH  27  30
ENDBRANCH  25  26
ENDBRANCH  24  25
ENDBRANCH   1  24
TORSDOF 14
ENDMDL
MODEL 2
REMARK VINA RESULT:     -12.8      1.777      7.756
REMARK SMILES O=C(Cc1ccccc1-c1ccn(C(F)F)c(=O)c1)NCCCCNC(=O)c1ccc(-c2c3nc(c(-c4c(F)c(F)c(F)c(F)c4F)c4ccc([nH]4)c(-c4c(F)c(F)c(F)c(F)c4F)c4nc(c(-c5c(F)c(F)c(F)c(F)c5F)c5ccc2[nH]5)C=C4)C=C3)cc1
REMARK SMILES IDX 22 1 21 2 20 3 1 4 2 5 3 7 4 8 5 9 9 10 6 11 8 12 7 13 10 14
REMARK SMILES IDX 11 15 19 16 12 17 17 18 13 19 18 20 14 21 15 22 16 23 23 24
REMARK SMILES IDX 24 25 25 26 26 27 27 29 28 30 29 31 90 32 30 33 89 34 31 35
REMARK SMILES IDX 32 36 33 37 83 38 34 39 88 40 82 41 84 42 35 43 87 44 81 45
REMARK SMILES IDX 80 46 36 48 68 49 48 50 67 51 49 52 52 53 66 54 85 55 50 56
REMARK SMILES IDX 51 57 65 59 86 60 53 61 37 62 38 63 46 64 39 65 40 66 44 67
REMARK SMILES IDX 47 68 41 69 42 70 45 71 43 72 69 73 70 74 78 75 71 76 72 77
REMARK SMILES IDX 76 78 79 79 73 80 74 81 77 82 75 83 54 84 55 85 63 86 56 87
REMARK SMILES IDX 57 88 61 89 64 90 58 91 59 92 62 93 60 94
REMARK H PARENT 20 6 25 28 84 47 52 58
REMARK Flexibility Score: inf
ROOT
ATOM      1  C   UNL A   1      31.786  30.589  26.937  1.00  0.00     0.023 C 
ENDROOT
BRANCH   1   2
ATOM      2  C   UNL A   1      32.519  29.949  25.764  1.00  0.00     0.116 C 
BRANCH   2   3
ATOM      3  N   UNL A   1      31.668  29.528  24.666  1.00  0.00    -0.356 N 
ATOM      4  O   UNL A   1      33.427  29.148  23.245  1.00  0.00    -0.275 OA
ATOM      5  C   UNL A   1      32.223  29.074  23.482  1.00  0.00     0.224 C 
ATOM      6  H   UNL A   1      30.689  29.567  24.763  1.00  0.00     0.163 HD
BRANCH   5   7
ATOM      7  C   UNL A   1      31.245  28.526  22.459  1.00  0.00     0.136 C 
BRANCH   7   8
ATOM      8  C   UNL A   1      29.771  28.449  22.836  1.00  0.00    -0.031 A 
ATOM      9  C   UNL A   1      28.940  29.478  22.344  1.00  0.00     0.005 A 
ATOM     10  C   UNL A   1      29.158  27.368  23.513  1.00  0.00    -0.014 A 
ATOM     11  C   UNL A   1      27.560  29.463  22.549  1.00  0.00     0.000 A 
ATOM     12  C   UNL A   1      27.768  27.376  23.729  1.00  0.00     0.009 A 
ATOM     13  C   UNL A   1      26.974  28.417  23.250  1.00  0.00     0.001 A 
BRANCH  10  14
ATOM     14  C   UNL A   1      29.907  26.199  24.005  1.00  0.00    -0.011 A 
ATOM     15  C   UNL A   1      30.240  25.076  23.153  1.00  0.00     0.027 A 
ATOM     16  C   UNL A   1      30.250  26.159  25.304  1.00  0.00     0.080 A 
ATOM     17  C   UNL A   1      30.641  23.920  23.697  1.00  0.00     0.095 A 
ATOM     18  C   UNL A   1      30.838  24.921  25.895  1.00  0.00     0.255 A 
ATOM     19  N   UNL A   1      30.847  23.814  25.059  1.00  0.00    -0.258 N 
ATOM     20  O   UNL A   1      31.227  24.953  27.052  1.00  0.00    -0.269 OA
BRANCH  19  21
ATOM     21  C   UNL A   1      31.172  22.536  25.637  1.00  0.00     0.451 C 
ATOM     22  F   UNL A   1      30.078  21.977  26.207  1.00  0.00    -0.185 F 
ATOM     23  F   UNL A   1      31.663  21.661  24.726  1.00  0.00    -0.185 F 
ENDBRANCH  19  21
ENDBRANCH  10  14
ENDBRANCH   7   8
ENDBRANCH   5   7
ENDBRANCH   2   3
ENDBRANCH   1   2
BRANCH   1  24
ATOM     24  C   UNL A   1      31.561  32.098  26.836  1.00  0.00     0.023 C 
BRANCH  24  25
ATOM     25  C   UNL A   1      32.792  32.974  27.054  1.00  0.00     0.116 C 
BRANCH  25  26
ATOM     26  N   UNL A   1      32.485  34.277  27.622  1.00  0.00    -0.352 N 
ATOM     27  C   UNL A   1      33.049  34.936  28.691  1.00  0.00     0.251 C 
ATOM     28  H   UNL A   1      31.758  34.765  27.171  1.00  0.00     0.163 HD
ATOM     29  O   UNL A   1      32.557  35.989  29.085  1.00  0.00    -0.269 OA
BRANCH  27  30
ATOM     30  C   UNL A   1      34.220  34.369  29.398  1.00  0.00     0.039 A 
ATOM     31  C   UNL A   1      34.006  33.609  30.552  1.00  0.00     0.014 A 
ATOM     32  C   UNL A   1      35.522  34.581  28.939  1.00  0.00     0.014 A 
ATOM     33  C   UNL A   1      35.085  32.986  31.188  1.00  0.00     0.010 A 
ATOM     34  C   UNL A   1      36.585  33.895  29.524  1.00  0.00     0.010 A 
ATOM     35  C   UNL A   1      36.378  33.083  30.650  1.00  0.00    -0.014 A 
BRANCH  35  36
ATOM     36  C   UNL A   1      37.518  32.324  31.234  1.00  0.00     0.031 A 
ATOM     37  C   UNL A   1      38.053  32.679  32.594  1.00  0.00     0.074 A 
ATOM     38  C   UNL A   1      38.121  31.362  30.508  1.00  0.00     0.049 A 
ATOM     39  N   UNL A   1      39.087  32.188  33.232  1.00  0.00    -0.248 NA
ATOM     40  C   UNL A   1      37.351  33.744  33.324  1.00  0.00     0.031 C 
ATOM     41  C   UNL A   1      37.730  30.950  29.159  1.00  0.00     0.029 A 
ATOM     42  N   UNL A   1      39.199  30.561  30.798  1.00  0.00    -0.354 N 
ATOM     43  C   UNL A   1      39.168  32.894  34.424  1.00  0.00     0.074 A 
ATOM     44  C   UNL A   1      38.111  33.882  34.401  1.00  0.00     0.031 C 
ATOM     45  C   UNL A   1      38.540  29.961  28.748  1.00  0.00     0.029 A 
ATOM     46  C   UNL A   1      39.533  29.696  29.784  1.00  0.00     0.049 A 
ATOM     47  H   UNL A   1      39.688  30.604  31.652  1.00  0.00     0.167 HD
ATOM     48  C   UNL A   1      40.032  32.722  35.454  1.00  0.00     0.037 A 
ATOM     49  C   UNL A   1      40.532  28.796  29.695  1.00  0.00     0.037 A 
ATOM     50  C   UNL A   1      41.065  31.720  35.490  1.00  0.00     0.049 A 
ATOM     51  C   UNL A   1      41.483  28.633  30.849  1.00  0.00     0.074 A 
ATOM     52  C   UNL A   1      41.944  31.423  36.518  1.00  0.00     0.029 A 
ATOM     53  N   UNL A   1      41.363  30.853  34.449  1.00  0.00    -0.354 N 
ATOM     54  N   UNL A   1      41.504  29.258  32.001  1.00  0.00    -0.248 NA
ATOM     55  C   UNL A   1      42.549  27.633  30.692  1.00  0.00     0.031 C 
ATOM     56  C   UNL A   1      42.807  30.413  36.080  1.00  0.00     0.029 A 
ATOM     57  C   UNL A   1      42.429  30.041  34.801  1.00  0.00     0.049 A 
ATOM     58  H   UNL A   1      40.887  30.820  33.587  1.00  0.00     0.167 HD
ATOM     59  C   UNL A   1      42.559  28.708  32.715  1.00  0.00     0.074 A 
ATOM     60  C   UNL A   1      43.147  27.688  31.873  1.00  0.00     0.031 C 
ATOM     61  C   UNL A   1      43.000  29.020  33.959  1.00  0.00     0.037 A 
BRANCH  48  62
ATOM     62  C   UNL A   1      39.897  33.638  36.636  1.00  0.00     0.064 A 
ATOM     63  C   UNL A   1      40.625  34.835  36.729  1.00  0.00     0.173 A 
ATOM     64  C   UNL A   1      38.996  33.339  37.670  1.00  0.00     0.173 A 
ATOM     65  F   UNL A   1      41.507  35.163  35.772  1.00  0.00    -0.203 F 
ATOM     66  C   UNL A   1      40.477  35.682  37.824  1.00  0.00     0.198 A 
ATOM     67  C   UNL A   1      38.826  34.205  38.748  1.00  0.00     0.198 A 
ATOM     68  F   UNL A   1      38.270  32.212  37.629  1.00  0.00    -0.203 F 
ATOM     69  F   UNL A   1      41.219  36.795  37.913  1.00  0.00    -0.200 F 
ATOM     70  C   UNL A   1      39.573  35.372  38.827  1.00  0.00     0.200 A 
ATOM     71  F   UNL A   1      37.942  33.910  39.710  1.00  0.00    -0.200 F 
ATOM     72  F   UNL A   1      39.426  36.192  39.876  1.00  0.00    -0.200 F 
ENDBRANCH  48  62
BRANCH  49  73
ATOM     73  C   UNL A   1      40.673  27.959  28.473  1.00  0.00     0.064 A 
ATOM     74  C   UNL A   1      40.067  26.698  28.392  1.00  0.00     0.173 A 
ATOM     75  C   UNL A   1      41.427  28.393  27.373  1.00  0.00     0.173 A 
ATOM     76  F   UNL A   1      39.355  26.230  29.429  1.00  0.00    -0.203 F 
ATOM     77  C   UNL A   1      40.227  25.892  27.267  1.00  0.00     0.198 A 
ATOM     78  C   UNL A   1      41.561  27.598  26.235  1.00  0.00     0.198 A 
ATOM     79  F   UNL A   1      42.024  29.593  27.397  1.00  0.00    -0.203 F 
ATOM     80  F   UNL A   1      39.678  24.670  27.237  1.00  0.00    -0.200 F 
ATOM     81  C   UNL A   1      40.969  26.345  26.187  1.00  0.00     0.200 A 
ATOM     82  F   UNL A   1      42.267  28.046  25.188  1.00  0.00    -0.200 F 
ATOM     83  F   UNL A   1      41.121  25.570  25.104  1.00  0.00    -0.200 F 
ENDBRANCH  49  73
BRANCH  61  84
ATOM     84  C   UNL A   1      44.150  28.222  34.504  1.00  0.00     0.064 A 
ATOM     85  C   UNL A   1      45.479  28.650  34.363  1.00  0.00     0.173 A 
ATOM     86  C   UNL A   1      43.914  27.033  35.211  1.00  0.00     0.173 A 
ATOM     87  F   UNL A   1      45.758  29.772  33.683  1.00  0.00    -0.203 F 
ATOM     88  C   UNL A   1      46.530  27.903  34.887  1.00  0.00     0.198 A 
ATOM     89  C   UNL A   1      44.966  26.306  35.761  1.00  0.00     0.198 A 
ATOM     90  F   UNL A   1      42.662  26.584  35.381  1.00  0.00    -0.203 F 
ATOM     91  F   UNL A   1      47.794  28.305  34.699  1.00  0.00    -0.200 F 
ATOM     92  C   UNL A   1      46.272  26.737  35.593  1.00  0.00     0.200 A 
ATOM     93  F   UNL A   1      44.714  25.187  36.454  1.00  0.00    -0.200 F 
ATOM     94  F   UNL A   1      47.285  26.023  36.103  1.00  0.00    -0.200 F 
ENDBRANCH  61  84
ENDBRANCH  35  36
ENDBRANCH  27  30
ENDBRANCH  25  26
ENDBRANCH  24  25
ENDBRANCH   1  24
TORSDOF 14
ENDMDL
MODEL 3
REMARK VINA RESULT:     -12.8      0.136      1.589
REMARK SMILES O=C(Cc1ccccc1-c1ccn(C(F)F)c(=O)c1)NCCCCNC(=O)c1ccc(-c2c3nc(c(-c4c(F)c(F)c(F)c(F)c4F)c4ccc([nH]4)c(-c4c(F)c(F)c(F)c(F)c4F)c4nc(c(-c5c(F)c(F)c(F)c(F)c5F)c5ccc2[nH]5)C=C4)C=C3)cc1
REMARK SMILES IDX 22 1 21 2 20 3 1 4 2 5 3 7 4 8 5 9 9 10 6 11 8 12 7 13 10 14
REMARK SMILES IDX 11 15 19 16 12 17 17 18 13 19 18 20 14 21 15 22 16 23 23 24
REMARK SMILES IDX 24 25 25 26 26 27 27 29 28 30 29 31 90 32 30 33 89 34 31 35
REMARK SMILES IDX 32 36 33 37 83 38 34 39 88 40 82 41 84 42 35 43 87 44 81 45
REMARK SMILES IDX 80 46 36 48 68 49 48 50 67 51 49 52 52 53 66 54 85 55 50 56
REMARK SMILES IDX 51 57 65 59 86 60 53 61 37 62 38 63 46 64 39 65 40 66 44 67
REMARK SMILES IDX 47 68 41 69 42 70 45 71 43 72 69 73 70 74 78 75 71 76 72 77
REMARK SMILES IDX 76 78 79 79 73 80 74 81 77 82 75 83 54 84 55 85 63 86 56 87
REMARK SMILES IDX 57 88 61 89 64 90 58 91 59 92 62 93 60 94
REMARK H PARENT 20 6 25 28 84 47 52 58
REMARK Flexibility Score: inf
ROOT
ATOM      1  C   UNL A   1      31.672  30.699  26.009  1.00  0.00     0.023 C 
ENDROOT
BRANCH   1   2
ATOM      2  C   UNL A   1      32.100  29.663  27.042  1.00  0.00     0.116 C 
BRANCH   2   3
ATOM      3  N   UNL A   1      31.891  28.281  26.647  1.00  0.00    -0.356 N 
ATOM      4  O   UNL A   1      34.073  27.971  26.012  1.00  0.00    -0.275 OA
ATOM      5  C   UNL A   1      32.955  27.505  26.222  1.00  0.00     0.224 C 
ATOM      6  H   UNL A   1      30.987  27.894  26.680  1.00  0.00     0.163 HD
BRANCH   5   7
ATOM      7  C   UNL A   1      32.648  26.040  25.971  1.00  0.00     0.136 C 
BRANCH   7   8
ATOM      8  C   UNL A   1      32.830  25.494  24.560  1.00  0.00    -0.031 A 
ATOM      9  C   UNL A   1      33.846  24.531  24.382  1.00  0.00     0.005 A 
ATOM     10  C   UNL A   1      31.981  25.773  23.461  1.00  0.00    -0.014 A 
ATOM     11  C   UNL A   1      34.044  23.896  23.156  1.00  0.00     0.000 A 
ATOM     12  C   UNL A   1      32.206  25.140  22.225  1.00  0.00     0.009 A 
ATOM     13  C   UNL A   1      33.230  24.207  22.074  1.00  0.00     0.001 A 
BRANCH  10  14
ATOM     14  C   UNL A   1      30.840  26.701  23.543  1.00  0.00    -0.011 A 
ATOM     15  C   UNL A   1      29.574  26.323  24.137  1.00  0.00     0.027 A 
ATOM     16  C   UNL A   1      30.970  27.924  23.002  1.00  0.00     0.080 A 
ATOM     17  C   UNL A   1      28.485  27.071  23.920  1.00  0.00     0.095 A 
ATOM     18  C   UNL A   1      29.790  28.831  22.887  1.00  0.00     0.255 A 
ATOM     19  N   UNL A   1      28.572  28.261  23.225  1.00  0.00    -0.258 N 
ATOM     20  O   UNL A   1      29.964  29.970  22.482  1.00  0.00    -0.269 OA
BRANCH  19  21
ATOM     21  C   UNL A   1      27.373  28.994  22.908  1.00  0.00     0.451 C 
ATOM     22  F   UNL A   1      26.273  28.278  23.239  1.00  0.00    -0.185 F 
ATOM     23  F   UNL A   1      27.307  30.187  23.548  1.00  0.00    -0.185 F 
ENDBRANCH  19  21
ENDBRANCH  10  14
ENDBRANCH   7   8
ENDBRANCH   5   7
ENDBRANCH   2   3
ENDBRANCH   1   2
BRANCH   1  24
ATOM     24  C   UNL A   1      31.395  32.101  26.551  1.00  0.00     0.023 C 
BRANCH  24  25
ATOM     25  C   UNL A   1      32.555  32.781  27.273  1.00  0.00     0.116 C 
BRANCH  25  26
ATOM     26  N   UNL A   1      32.294  34.171  27.611  1.00  0.00    -0.352 N 
ATOM     27  C   UNL A   1      32.916  34.997  28.521  1.00  0.00     0.251 C 
ATOM     28  H   UNL A   1      31.555  34.588  27.111  1.00  0.00     0.163 HD
ATOM     29  O   UNL A   1      32.458  36.115  28.740  1.00  0.00    -0.269 OA
BRANCH  27  30
ATOM     30  C   UNL A   1      34.108  34.538  29.268  1.00  0.00     0.039 A 
ATOM     31  C   UNL A   1      33.936  34.010  30.551  1.00  0.00     0.014 A 
ATOM     32  C   UNL A   1      35.391  34.625  28.721  1.00  0.00     0.014 A 
ATOM     33  C   UNL A   1      35.032  33.486  31.244  1.00  0.00     0.010 A 
ATOM     34  C   UNL A   1      36.467  34.030  29.376  1.00  0.00     0.010 A 
ATOM     35  C   UNL A   1      36.299  33.445  30.641  1.00  0.00    -0.014 A 
BRANCH  35  36
ATOM     36  C   UNL A   1      37.452  32.776  31.305  1.00  0.00     0.031 A 
ATOM     37  C   UNL A   1      38.152  31.624  30.637  1.00  0.00     0.074 A 
ATOM     38  C   UNL A   1      37.822  33.156  32.543  1.00  0.00     0.049 A 
ATOM     39  N   UNL A   1      39.119  30.865  31.092  1.00  0.00    -0.248 NA
ATOM     40  C   UNL A   1      37.689  31.258  29.291  1.00  0.00     0.031 C 
ATOM     41  C   UNL A   1      37.197  34.228  33.321  1.00  0.00     0.029 A 
ATOM     42  N   UNL A   1      38.807  32.677  33.373  1.00  0.00    -0.354 N 
ATOM     43  C   UNL A   1      39.365  29.928  30.099  1.00  0.00     0.074 A 
ATOM     44  C   UNL A   1      38.414  30.179  29.037  1.00  0.00     0.031 C 
ATOM     45  C   UNL A   1      37.827  34.340  34.501  1.00  0.00     0.029 A 
ATOM     46  C   UNL A   1      38.871  33.323  34.584  1.00  0.00     0.049 A 
ATOM     47  H   UNL A   1      39.410  31.940  33.124  1.00  0.00     0.167 HD
ATOM     48  C   UNL A   1      40.312  28.958  30.065  1.00  0.00     0.037 A 
ATOM     49  C   UNL A   1      39.673  33.115  35.646  1.00  0.00     0.037 A 
ATOM     50  C   UNL A   1      41.277  28.727  31.108  1.00  0.00     0.049 A 
ATOM     51  C   UNL A   1      40.708  32.024  35.586  1.00  0.00     0.074 A 
ATOM     52  C   UNL A   1      42.318  27.814  31.133  1.00  0.00     0.029 A 
ATOM     53  N   UNL A   1      41.318  29.411  32.314  1.00  0.00    -0.354 N 
ATOM     54  N   UNL A   1      40.978  31.190  34.611  1.00  0.00    -0.248 NA
ATOM     55  C   UNL A   1      41.555  31.849  36.774  1.00  0.00     0.031 C 
ATOM     56  C   UNL A   1      42.956  27.910  32.374  1.00  0.00     0.029 A 
ATOM     57  C   UNL A   1      42.349  28.922  33.100  1.00  0.00     0.049 A 
ATOM     58  H   UNL A   1      40.706  30.137  32.573  1.00  0.00     0.167 HD
ATOM     59  C   UNL A   1      42.042  30.417  35.053  1.00  0.00     0.074 A 
ATOM     60  C   UNL A   1      42.378  30.888  36.379  1.00  0.00     0.031 C 
ATOM     61  C   UNL A   1      42.683  29.406  34.416  1.00  0.00     0.037 A 
BRANCH  48  62
ATOM     62  C   UNL A   1      40.354  28.069  28.855  1.00  0.00     0.064 A 
ATOM     63  C   UNL A   1      41.107  28.403  27.719  1.00  0.00     0.173 A 
ATOM     64  C   UNL A   1      39.670  26.844  28.849  1.00  0.00     0.173 A 
ATOM     65  F   UNL A   1      41.772  29.568  27.670  1.00  0.00    -0.203 F 
ATOM     66  C   UNL A   1      41.149  27.560  26.611  1.00  0.00     0.198 A 
ATOM     67  C   UNL A   1      39.740  25.987  27.753  1.00  0.00     0.198 A 
ATOM     68  F   UNL A   1      38.941  26.470  29.912  1.00  0.00    -0.203 F 
ATOM     69  F   UNL A   1      41.834  27.925  25.519  1.00  0.00    -0.200 F 
ATOM     70  C   UNL A   1      40.473  26.350  26.633  1.00  0.00     0.200 A 
ATOM     71  F   UNL A   1      39.097  24.812  27.780  1.00  0.00    -0.200 F 
ATOM     72  F   UNL A   1      40.521  25.535  25.570  1.00  0.00    -0.200 F 
ENDBRANCH  48  62
BRANCH  49  73
ATOM     73  C   UNL A   1      39.548  33.973  36.854  1.00  0.00     0.064 A 
ATOM     74  C   UNL A   1      40.219  35.200  36.937  1.00  0.00     0.173 A 
ATOM     75  C   UNL A   1      38.772  33.578  37.954  1.00  0.00     0.173 A 
ATOM     76  F   UNL A   1      40.992  35.609  35.920  1.00  0.00    -0.203 F 
ATOM     77  C   UNL A   1      40.137  35.991  38.081  1.00  0.00     0.198 A 
ATOM     78  C   UNL A   1      38.666  34.385  39.087  1.00  0.00     0.198 A 
ATOM     79  F   UNL A   1      38.106  32.415  37.925  1.00  0.00    -0.203 F 
ATOM     80  F   UNL A   1      40.830  37.137  38.152  1.00  0.00    -0.200 F 
ATOM     81  C   UNL A   1      39.357  35.586  39.153  1.00  0.00     0.200 A 
ATOM     82  F   UNL A   1      37.899  33.996  40.113  1.00  0.00    -0.200 F 
ATOM     83  F   UNL A   1      39.277  36.348  40.252  1.00  0.00    -0.200 F 
ENDBRANCH  49  73
BRANCH  61  84
ATOM     84  C   UNL A   1      43.841  28.767  35.126  1.00  0.00     0.064 A 
ATOM     85  C   UNL A   1      45.153  29.241  34.975  1.00  0.00     0.173 A 
ATOM     86  C   UNL A   1      43.630  27.689  36.001  1.00  0.00     0.173 A 
ATOM     87  F   UNL A   1      45.410  30.259  34.139  1.00  0.00    -0.203 F 
ATOM     88  C   UNL A   1      46.212  28.644  35.652  1.00  0.00     0.198 A 
ATOM     89  C   UNL A   1      44.687  27.116  36.701  1.00  0.00     0.198 A 
ATOM     90  F   UNL A   1      42.394  27.202  36.186  1.00  0.00    -0.203 F 
ATOM     91  F   UNL A   1      47.463  29.083  35.455  1.00  0.00    -0.200 F 
ATOM     92  C   UNL A   1      45.978  27.588  36.520  1.00  0.00     0.200 A 
ATOM     93  F   UNL A   1      44.456  26.105  37.549  1.00  0.00    -0.200 F 
ATOM     94  F   UNL A   1      46.998  27.020  37.178  1.00  0.00    -0.200 F 
ENDBRANCH  61  84
ENDBRANCH  35  36
ENDBRANCH  27  30
ENDBRANCH  25  26
ENDBRANCH  24  25
ENDBRANCH   1  24
TORSDOF 14
ENDMDL
