MODEL 1
REMARK VINA RESULT:     -10.9      0.000      0.000
REMARK SMILES CC[C@H](C)[C@@H](C)[C@](C)(O)C(=O)NCCCCNC(=O)c1ccc(-c2c3nc(c(-c4c(F)c(F)c(F)c(F)c4F)c4ccc([nH]4)c(-c4c(F)c(F)c(F)c(F)c4F)c4nc(c(-c5c(F)c(F)c(F)c(F)c5F)c5ccc2[nH]5)C=C4)C=C3)cc1
REMARK SMILES IDX 14 1 13 2 12 3 10 4 11 5 7 7 8 8 5 9 6 10 3 11 4 12 2 13
REMARK SMILES IDX 1 14 9 15 15 17 16 18 17 19 18 20 19 22 20 23 21 24 82 25
REMARK SMILES IDX 22 26 81 27 23 28 24 29 25 30 75 31 26 32 80 33 74 34 76 35
REMARK SMILES IDX 27 36 79 37 73 38 72 39 28 41 60 42 40 43 59 44 41 45 44 46
REMARK SMILES IDX 58 47 77 48 42 49 43 50 57 52 78 53 45 54 29 55 30 56 38 57
REMARK SMILES IDX 31 58 32 59 36 60 39 61 33 62 34 63 37 64 35 65 61 66 62 67
REMARK SMILES IDX 70 68 63 69 64 70 68 71 71 72 65 73 66 74 69 75 67 76 46 77
REMARK SMILES IDX 47 78 55 79 48 80 49 81 53 82 56 83 50 84 51 85 54 86 52 87
REMARK H PARENT 12 6 9 16 17 21 76 40 44 51
REMARK Flexibility Score: inf
ROOT
ATOM      1  C   UNL A   1      31.445  30.625  26.594  1.00  0.00     0.023 C 
ENDROOT
BRANCH   1   2
ATOM      2  C   UNL A   1      32.796  29.940  26.410  1.00  0.00     0.116 C 
BRANCH   2   3
ATOM      3  N   UNL A   1      33.228  29.941  25.028  1.00  0.00    -0.354 N 
ATOM      4  C   UNL A   1      33.144  28.949  24.094  1.00  0.00     0.251 C 
ATOM      5  O   UNL A   1      33.490  29.244  22.944  1.00  0.00    -0.272 OA
ATOM      6  H   UNL A   1      33.642  30.779  24.716  1.00  0.00     0.163 HD
BRANCH   4   7
ATOM      7  C   UNL A   1      32.606  27.532  24.455  1.00  0.00     0.143 C 
ATOM      8  C   UNL A   1      33.085  26.556  23.357  1.00  0.00     0.053 C 
BRANCH   7   9
ATOM      9  C   UNL A   1      31.061  27.422  24.724  1.00  0.00     0.030 C 
ATOM     10  C   UNL A   1      30.835  26.359  25.836  1.00  0.00     0.011 C 
BRANCH   9  11
ATOM     11  C   UNL A   1      30.116  27.131  23.497  1.00  0.00    -0.008 C 
ATOM     12  C   UNL A   1      28.728  26.655  23.985  1.00  0.00     0.008 C 
BRANCH  11  13
ATOM     13  C   UNL A   1      29.876  28.342  22.564  1.00  0.00     0.000 C 
ATOM     14  C   UNL A   1      29.478  29.609  23.315  1.00  0.00     0.004 C 
ENDBRANCH  11  13
ENDBRANCH   9  11
ENDBRANCH   7   9
BRANCH   7  15
ATOM     15  O   UNL A   1      33.261  27.141  25.686  1.00  0.00    -0.380 OA
ATOM     16  H   UNL A   1      32.601  26.802  26.311  1.00  0.00     0.212 HD
ENDBRANCH   7  15
ENDBRANCH   4   7
ENDBRANCH   2   3
ENDBRANCH   1   2
BRANCH   1  17
ATOM     17  C   UNL A   1      31.482  32.153  26.557  1.00  0.00     0.023 C 
BRANCH  17  18
ATOM     18  C   UNL A   1      32.670  32.790  27.271  1.00  0.00     0.116 C 
BRANCH  18  19
ATOM     19  N   UNL A   1      32.426  34.178  27.632  1.00  0.00    -0.352 N 
ATOM     20  C   UNL A   1      32.999  34.948  28.616  1.00  0.00     0.251 C 
ATOM     21  H   UNL A   1      31.745  34.636  27.088  1.00  0.00     0.163 HD
ATOM     22  O   UNL A   1      32.527  36.045  28.893  1.00  0.00    -0.269 OA
BRANCH  20  23
ATOM     23  C   UNL A   1      34.175  34.447  29.362  1.00  0.00     0.039 A 
ATOM     24  C   UNL A   1      33.975  33.812  30.591  1.00  0.00     0.014 A 
ATOM     25  C   UNL A   1      35.467  34.607  28.858  1.00  0.00     0.014 A 
ATOM     26  C   UNL A   1      35.065  33.273  31.278  1.00  0.00     0.010 A 
ATOM     27  C   UNL A   1      36.541  33.999  29.502  1.00  0.00     0.010 A 
ATOM     28  C   UNL A   1      36.352  33.325  30.719  1.00  0.00    -0.014 A 
BRANCH  28  29
ATOM     29  C   UNL A   1      37.510  32.674  31.387  1.00  0.00     0.031 A 
ATOM     30  C   UNL A   1      38.216  31.523  30.728  1.00  0.00     0.074 A 
ATOM     31  C   UNL A   1      37.881  33.075  32.619  1.00  0.00     0.049 A 
ATOM     32  N   UNL A   1      39.196  30.780  31.183  1.00  0.00    -0.248 NA
ATOM     33  C   UNL A   1      37.742  31.134  29.391  1.00  0.00     0.031 C 
ATOM     34  C   UNL A   1      37.246  34.147  33.386  1.00  0.00     0.029 A 
ATOM     35  N   UNL A   1      38.876  32.619  33.448  1.00  0.00    -0.354 N 
ATOM     36  C   UNL A   1      39.443  29.836  30.196  1.00  0.00     0.074 A 
ATOM     37  C   UNL A   1      38.474  30.058  29.144  1.00  0.00     0.031 C 
ATOM     38  C   UNL A   1      37.878  34.281  34.563  1.00  0.00     0.029 A 
ATOM     39  C   UNL A   1      38.934  33.278  34.652  1.00  0.00     0.049 A 
ATOM     40  H   UNL A   1      39.489  31.888  33.204  1.00  0.00     0.167 HD
ATOM     41  C   UNL A   1      40.407  28.883  30.159  1.00  0.00     0.037 A 
ATOM     42  C   UNL A   1      39.741  33.089  35.713  1.00  0.00     0.037 A 
ATOM     43  C   UNL A   1      41.379  28.674  31.200  1.00  0.00     0.049 A 
ATOM     44  C   UNL A   1      40.794  32.014  35.654  1.00  0.00     0.074 A 
ATOM     45  C   UNL A   1      42.430  27.773  31.232  1.00  0.00     0.029 A 
ATOM     46  N   UNL A   1      41.417  29.372  32.398  1.00  0.00    -0.354 N 
ATOM     47  N   UNL A   1      41.065  31.173  34.686  1.00  0.00    -0.248 NA
ATOM     48  C   UNL A   1      41.658  31.868  36.833  1.00  0.00     0.031 C 
ATOM     49  C   UNL A   1      43.069  27.889  32.469  1.00  0.00     0.029 A 
ATOM     50  C   UNL A   1      42.457  28.904  33.186  1.00  0.00     0.049 A 
ATOM     51  H   UNL A   1      40.796  30.094  32.651  1.00  0.00     0.167 HD
ATOM     52  C   UNL A   1      42.145  30.420  35.125  1.00  0.00     0.074 A 
ATOM     53  C   UNL A   1      42.491  30.915  36.441  1.00  0.00     0.031 C 
ATOM     54  C   UNL A   1      42.794  29.410  34.493  1.00  0.00     0.037 A 
BRANCH  41  55
ATOM     55  C   UNL A   1      40.456  27.994  28.948  1.00  0.00     0.064 A 
ATOM     56  C   UNL A   1      39.739  26.789  28.890  1.00  0.00     0.173 A 
ATOM     57  C   UNL A   1      41.204  28.365  27.820  1.00  0.00     0.173 A 
ATOM     58  F   UNL A   1      39.016  26.381  29.944  1.00  0.00    -0.203 F 
ATOM     59  C   UNL A   1      39.797  25.973  27.762  1.00  0.00     0.198 A 
ATOM     60  C   UNL A   1      41.232  27.564  26.681  1.00  0.00     0.198 A 
ATOM     61  F   UNL A   1      41.902  29.510  27.819  1.00  0.00    -0.203 F 
ATOM     62  F   UNL A   1      39.150  24.800  27.752  1.00  0.00    -0.200 F 
ATOM     63  C   UNL A   1      40.538  26.365  26.657  1.00  0.00     0.200 A 
ATOM     64  F   UNL A   1      41.936  27.951  25.609  1.00  0.00    -0.200 F 
ATOM     65  F   UNL A   1      40.587  25.582  25.570  1.00  0.00    -0.200 F 
ENDBRANCH  41  55
BRANCH  42  66
ATOM     66  C   UNL A   1      39.598  33.950  36.917  1.00  0.00     0.064 A 
ATOM     67  C   UNL A   1      40.239  35.195  36.992  1.00  0.00     0.173 A 
ATOM     68  C   UNL A   1      38.823  33.548  38.014  1.00  0.00     0.173 A 
ATOM     69  F   UNL A   1      41.008  35.614  35.977  1.00  0.00    -0.203 F 
ATOM     70  C   UNL A   1      40.127  35.995  38.127  1.00  0.00     0.198 A 
ATOM     71  C   UNL A   1      38.688  34.363  39.136  1.00  0.00     0.198 A 
ATOM     72  F   UNL A   1      38.186  32.369  37.991  1.00  0.00    -0.203 F 
ATOM     73  F   UNL A   1      40.788  37.159  38.192  1.00  0.00    -0.200 F 
ATOM     74  C   UNL A   1      39.346  35.582  39.196  1.00  0.00     0.200 A 
ATOM     75  F   UNL A   1      37.919  33.967  40.160  1.00  0.00    -0.200 F 
ATOM     76  F   UNL A   1      39.234  36.354  40.285  1.00  0.00    -0.200 F 
ENDBRANCH  42  66
BRANCH  54  77
ATOM     77  C   UNL A   1      43.967  28.795  35.200  1.00  0.00     0.064 A 
ATOM     78  C   UNL A   1      45.273  29.274  35.021  1.00  0.00     0.173 A 
ATOM     79  C   UNL A   1      43.775  27.735  36.102  1.00  0.00     0.173 A 
ATOM     80  F   UNL A   1      45.513  30.275  34.159  1.00  0.00    -0.203 F 
ATOM     81  C   UNL A   1      46.347  28.698  35.696  1.00  0.00     0.198 A 
ATOM     82  C   UNL A   1      44.846  27.185  36.800  1.00  0.00     0.198 A 
ATOM     83  F   UNL A   1      42.545  27.244  36.316  1.00  0.00    -0.203 F 
ATOM     84  F   UNL A   1      47.591  29.138  35.471  1.00  0.00    -0.200 F 
ATOM     85  C   UNL A   1      46.131  27.660  36.591  1.00  0.00     0.200 A 
ATOM     86  F   UNL A   1      44.633  26.192  37.676  1.00  0.00    -0.200 F 
ATOM     87  F   UNL A   1      47.164  27.113  37.247  1.00  0.00    -0.200 F 
ENDBRANCH  54  77
ENDBRANCH  28  29
ENDBRANCH  20  23
ENDBRANCH  18  19
ENDBRANCH  17  18
ENDBRANCH   1  17
TORSDOF 15
ENDMDL
MODEL 2
REMARK VINA RESULT:     -10.7      6.159     10.256
REMARK SMILES CC[C@H](C)[C@@H](C)[C@](C)(O)C(=O)NCCCCNC(=O)c1ccc(-c2c3nc(c(-c4c(F)c(F)c(F)c(F)c4F)c4ccc([nH]4)c(-c4c(F)c(F)c(F)c(F)c4F)c4nc(c(-c5c(F)c(F)c(F)c(F)c5F)c5ccc2[nH]5)C=C4)C=C3)cc1
REMARK SMILES IDX 14 1 13 2 12 3 10 4 11 5 7 7 8 8 5 9 6 10 3 11 4 12 2 13
REMARK SMILES IDX 1 14 9 15 15 17 16 18 17 19 18 20 19 22 20 23 21 24 82 25
REMARK SMILES IDX 22 26 81 27 23 28 24 29 25 30 75 31 26 32 80 33 74 34 76 35
REMARK SMILES IDX 27 36 79 37 73 38 72 39 28 41 60 42 40 43 59 44 41 45 44 46
REMARK SMILES IDX 58 47 77 48 42 49 43 50 57 52 78 53 45 54 29 55 30 56 38 57
REMARK SMILES IDX 31 58 32 59 36 60 39 61 33 62 34 63 37 64 35 65 61 66 62 67
REMARK SMILES IDX 70 68 63 69 64 70 68 71 71 72 65 73 66 74 69 75 67 76 46 77
REMARK SMILES IDX 47 78 55 79 48 80 49 81 53 82 56 83 50 84 51 85 54 86 52 87
REMARK H PARENT 12 6 9 16 17 21 76 40 44 51
REMARK Flexibility Score: inf
ROOT
ATOM      1  C   UNL A   1      37.406  21.075  24.468  1.00  0.00     0.023 C 
ENDROOT
BRANCH   1   2
ATOM      2  C   UNL A   1      36.016  21.312  25.050  1.00  0.00     0.116 C 
BRANCH   2   3
ATOM      3  N   UNL A   1      35.229  20.098  25.103  1.00  0.00    -0.354 N 
ATOM      4  C   UNL A   1      33.872  19.944  25.074  1.00  0.00     0.251 C 
ATOM      5  O   UNL A   1      33.452  18.783  25.022  1.00  0.00    -0.272 OA
ATOM      6  H   UNL A   1      35.746  19.263  25.169  1.00  0.00     0.163 HD
BRANCH   4   7
ATOM      7  C   UNL A   1      32.912  21.170  25.072  1.00  0.00     0.143 C 
ATOM      8  C   UNL A   1      32.676  21.576  23.600  1.00  0.00     0.053 C 
BRANCH   7   9
ATOM      9  C   UNL A   1      33.337  22.389  25.970  1.00  0.00     0.030 C 
ATOM     10  C   UNL A   1      33.260  21.946  27.458  1.00  0.00     0.011 C 
BRANCH   9  11
ATOM     11  C   UNL A   1      32.574  23.754  25.772  1.00  0.00    -0.008 C 
ATOM     12  C   UNL A   1      31.507  23.941  26.875  1.00  0.00     0.008 C 
BRANCH  11  13
ATOM     13  C   UNL A   1      33.478  25.009  25.799  1.00  0.00     0.000 C 
ATOM     14  C   UNL A   1      34.778  24.830  25.020  1.00  0.00     0.004 C 
ENDBRANCH  11  13
ENDBRANCH   9  11
ENDBRANCH   7   9
BRANCH   7  15
ATOM     15  O   UNL A   1      31.643  20.704  25.593  1.00  0.00    -0.380 OA
ATOM     16  H   UNL A   1      31.247  20.077  24.968  1.00  0.00     0.212 HD
ENDBRANCH   7  15
ENDBRANCH   4   7
ENDBRANCH   2   3
ENDBRANCH   1   2
BRANCH   1  17
ATOM     17  C   UNL A   1      38.131  19.838  25.001  1.00  0.00     0.023 C 
BRANCH  17  18
ATOM     18  C   UNL A   1      39.147  20.109  26.106  1.00  0.00     0.116 C 
BRANCH  18  19
ATOM     19  N   UNL A   1      40.253  19.162  26.090  1.00  0.00    -0.352 N 
ATOM     20  C   UNL A   1      41.609  19.388  26.128  1.00  0.00     0.251 C 
ATOM     21  H   UNL A   1      39.989  18.215  26.047  1.00  0.00     0.163 HD
ATOM     22  O   UNL A   1      42.391  18.470  25.915  1.00  0.00    -0.269 OA
BRANCH  20  23
ATOM     23  C   UNL A   1      42.128  20.746  26.403  1.00  0.00     0.039 A 
ATOM     24  C   UNL A   1      42.367  21.608  25.329  1.00  0.00     0.014 A 
ATOM     25  C   UNL A   1      42.387  21.166  27.709  1.00  0.00     0.014 A 
ATOM     26  C   UNL A   1      42.794  22.915  25.572  1.00  0.00     0.010 A 
ATOM     27  C   UNL A   1      42.733  22.492  27.955  1.00  0.00     0.010 A 
ATOM     28  C   UNL A   1      42.941  23.381  26.889  1.00  0.00    -0.014 A 
BRANCH  28  29
ATOM     29  C   UNL A   1      43.302  24.796  27.171  1.00  0.00     0.031 A 
ATOM     30  C   UNL A   1      44.701  25.285  26.925  1.00  0.00     0.074 A 
ATOM     31  C   UNL A   1      42.387  25.622  27.715  1.00  0.00     0.049 A 
ATOM     32  N   UNL A   1      45.227  26.459  27.175  1.00  0.00    -0.248 NA
ATOM     33  C   UNL A   1      45.646  24.318  26.344  1.00  0.00     0.031 C 
ATOM     34  C   UNL A   1      41.009  25.256  28.048  1.00  0.00     0.029 A 
ATOM     35  N   UNL A   1      42.481  26.938  28.095  1.00  0.00    -0.354 N 
ATOM     36  C   UNL A   1      46.559  26.366  26.796  1.00  0.00     0.074 A 
ATOM     37  C   UNL A   1      46.779  25.005  26.353  1.00  0.00     0.031 C 
ATOM     38  C   UNL A   1      40.382  26.325  28.563  1.00  0.00     0.029 A 
ATOM     39  C   UNL A   1      41.322  27.439  28.636  1.00  0.00     0.049 A 
ATOM     40  H   UNL A   1      43.302  27.472  27.992  1.00  0.00     0.167 HD
ATOM     41  C   UNL A   1      47.508  27.333  26.793  1.00  0.00     0.037 A 
ATOM     42  C   UNL A   1      41.049  28.657  29.142  1.00  0.00     0.037 A 
ATOM     43  C   UNL A   1      47.281  28.690  27.218  1.00  0.00     0.049 A 
ATOM     44  C   UNL A   1      42.124  29.711  29.142  1.00  0.00     0.074 A 
ATOM     45  C   UNL A   1      48.162  29.758  27.202  1.00  0.00     0.029 A 
ATOM     46  N   UNL A   1      46.089  29.165  27.745  1.00  0.00    -0.354 N 
ATOM     47  N   UNL A   1      43.361  29.632  28.715  1.00  0.00    -0.248 NA
ATOM     48  C   UNL A   1      41.762  31.026  29.689  1.00  0.00     0.031 C 
ATOM     49  C   UNL A   1      47.520  30.864  27.766  1.00  0.00     0.029 A 
ATOM     50  C   UNL A   1      46.219  30.504  28.080  1.00  0.00     0.049 A 
ATOM     51  H   UNL A   1      45.271  28.629  27.863  1.00  0.00     0.167 HD
ATOM     52  C   UNL A   1      43.915  30.889  28.913  1.00  0.00     0.074 A 
ATOM     53  C   UNL A   1      42.874  31.718  29.484  1.00  0.00     0.031 C 
ATOM     54  C   UNL A   1      45.173  31.319  28.643  1.00  0.00     0.037 A 
BRANCH  41  55
ATOM     55  C   UNL A   1      48.881  26.957  26.311  1.00  0.00     0.064 A 
ATOM     56  C   UNL A   1      49.853  26.446  27.184  1.00  0.00     0.173 A 
ATOM     57  C   UNL A   1      49.219  27.079  24.954  1.00  0.00     0.173 A 
ATOM     58  F   UNL A   1      49.586  26.319  28.494  1.00  0.00    -0.203 F 
ATOM     59  C   UNL A   1      51.123  26.105  26.724  1.00  0.00     0.198 A 
ATOM     60  C   UNL A   1      50.478  26.703  24.492  1.00  0.00     0.198 A 
ATOM     61  F   UNL A   1      48.325  27.553  24.074  1.00  0.00    -0.203 F 
ATOM     62  F   UNL A   1      52.052  25.673  27.588  1.00  0.00    -0.200 F 
ATOM     63  C   UNL A   1      51.431  26.227  25.378  1.00  0.00     0.200 A 
ATOM     64  F   UNL A   1      50.769  26.808  23.188  1.00  0.00    -0.200 F 
ATOM     65  F   UNL A   1      52.651  25.891  24.936  1.00  0.00    -0.200 F 
ENDBRANCH  41  55
BRANCH  42  66
ATOM     66  C   UNL A   1      39.693  28.952  29.676  1.00  0.00     0.064 A 
ATOM     67  C   UNL A   1      39.385  28.724  31.025  1.00  0.00     0.173 A 
ATOM     68  C   UNL A   1      38.680  29.463  28.854  1.00  0.00     0.173 A 
ATOM     69  F   UNL A   1      40.315  28.215  31.847  1.00  0.00    -0.203 F 
ATOM     70  C   UNL A   1      38.110  28.976  31.525  1.00  0.00     0.198 A 
ATOM     71  C   UNL A   1      37.413  29.744  29.361  1.00  0.00     0.198 A 
ATOM     72  F   UNL A   1      38.924  29.703  27.557  1.00  0.00    -0.203 F 
ATOM     73  F   UNL A   1      37.829  28.705  32.807  1.00  0.00    -0.200 F 
ATOM     74  C   UNL A   1      37.126  29.493  30.695  1.00  0.00     0.200 A 
ATOM     75  F   UNL A   1      36.471  30.258  28.560  1.00  0.00    -0.200 F 
ATOM     76  F   UNL A   1      35.901  29.741  31.177  1.00  0.00    -0.200 F 
ENDBRANCH  42  66
BRANCH  54  77
ATOM     77  C   UNL A   1      45.485  32.760  28.929  1.00  0.00     0.064 A 
ATOM     78  C   UNL A   1      46.045  33.167  30.150  1.00  0.00     0.173 A 
ATOM     79  C   UNL A   1      45.258  33.742  27.953  1.00  0.00     0.173 A 
ATOM     80  F   UNL A   1      46.269  32.270  31.123  1.00  0.00    -0.203 F 
ATOM     81  C   UNL A   1      46.340  34.507  30.391  1.00  0.00     0.198 A 
ATOM     82  C   UNL A   1      45.585  35.075  28.185  1.00  0.00     0.198 A 
ATOM     83  F   UNL A   1      44.731  33.405  26.765  1.00  0.00    -0.203 F 
ATOM     84  F   UNL A   1      46.826  34.879  31.582  1.00  0.00    -0.200 F 
ATOM     85  C   UNL A   1      46.117  35.457  29.407  1.00  0.00     0.200 A 
ATOM     86  F   UNL A   1      45.384  35.989  27.225  1.00  0.00    -0.200 F 
ATOM     87  F   UNL A   1      46.410  36.744  29.637  1.00  0.00    -0.200 F 
ENDBRANCH  54  77
ENDBRANCH  28  29
ENDBRANCH  20  23
ENDBRANCH  18  19
ENDBRANCH  17  18
ENDBRANCH   1  17
TORSDOF 15
ENDMDL
MODEL 3
REMARK VINA RESULT:     -10.6      0.929      2.027
REMARK SMILES CC[C@H](C)[C@@H](C)[C@](C)(O)C(=O)NCCCCNC(=O)c1ccc(-c2c3nc(c(-c4c(F)c(F)c(F)c(F)c4F)c4ccc([nH]4)c(-c4c(F)c(F)c(F)c(F)c4F)c4nc(c(-c5c(F)c(F)c(F)c(F)c5F)c5ccc2[nH]5)C=C4)C=C3)cc1
REMARK SMILES IDX 14 1 13 2 12 3 10 4 11 5 7 7 8 8 5 9 6 10 3 11 4 12 2 13
REMARK SMILES IDX 1 14 9 15 15 17 16 18 17 19 18 20 19 22 20 23 21 24 82 25
REMARK SMILES IDX 22 26 81 27 23 28 24 29 25 30 75 31 26 32 80 33 74 34 76 35
REMARK SMILES IDX 27 36 79 37 73 38 72 39 28 41 60 42 40 43 59 44 41 45 44 46
REMARK SMILES IDX 58 47 77 48 42 49 43 50 57 52 78 53 45 54 29 55 30 56 38 57
REMARK SMILES IDX 31 58 32 59 36 60 39 61 33 62 34 63 37 64 35 65 61 66 62 67
REMARK SMILES IDX 70 68 63 69 64 70 68 71 71 72 65 73 66 74 69 75 67 76 46 77
REMARK SMILES IDX 47 78 55 79 48 80 49 81 53 82 56 83 50 84 51 85 54 86 52 87
REMARK H PARENT 12 6 9 16 17 21 76 40 44 51
REMARK Flexibility Score: inf
ROOT
ATOM      1  C   UNL A   1      31.891  30.581  25.650  1.00  0.00     0.023 C 
ENDROOT
BRANCH   1   2
ATOM      2  C   UNL A   1      30.721  29.776  25.093  1.00  0.00     0.116 C 
BRANCH   2   3
ATOM      3  N   UNL A   1      30.481  30.055  23.693  1.00  0.00    -0.354 N 
ATOM      4  C   UNL A   1      30.581  29.223  22.615  1.00  0.00     0.251 C 
ATOM      5  O   UNL A   1      30.211  29.684  21.528  1.00  0.00    -0.272 OA
ATOM      6  H   UNL A   1      30.205  30.978  23.488  1.00  0.00     0.163 HD
BRANCH   4   7
ATOM      7  C   UNL A   1      31.099  27.761  22.758  1.00  0.00     0.143 C 
ATOM      8  C   UNL A   1      30.018  26.953  23.509  1.00  0.00     0.053 C 
BRANCH   7   9
ATOM      9  C   UNL A   1      32.527  27.589  23.392  1.00  0.00     0.030 C 
ATOM     10  C   UNL A   1      33.581  28.077  22.358  1.00  0.00     0.011 C 
BRANCH   9  11
ATOM     11  C   UNL A   1      32.925  26.166  23.939  1.00  0.00    -0.008 C 
ATOM     12  C   UNL A   1      33.716  25.378  22.869  1.00  0.00     0.008 C 
BRANCH  11  13
ATOM     13  C   UNL A   1      33.793  26.185  25.220  1.00  0.00     0.000 C 
ATOM     14  C   UNL A   1      34.610  24.910  25.410  1.00  0.00     0.004 C 
ENDBRANCH  11  13
ENDBRANCH   9  11
ENDBRANCH   7   9
BRANCH   7  15
ATOM     15  O   UNL A   1      31.181  27.218  21.417  1.00  0.00    -0.380 OA
ATOM     16  H   UNL A   1      31.676  27.830  20.850  1.00  0.00     0.212 HD
ENDBRANCH   7  15
ENDBRANCH   4   7
ENDBRANCH   2   3
ENDBRANCH   1   2
BRANCH   1  17
ATOM     17  C   UNL A   1      31.503  31.850  26.410  1.00  0.00     0.023 C 
BRANCH  17  18
ATOM     18  C   UNL A   1      32.613  32.461  27.258  1.00  0.00     0.116 C 
BRANCH  18  19
ATOM     19  N   UNL A   1      32.378  33.866  27.558  1.00  0.00    -0.352 N 
ATOM     20  C   UNL A   1      32.975  34.682  28.490  1.00  0.00     0.251 C 
ATOM     21  H   UNL A   1      31.684  34.298  27.009  1.00  0.00     0.163 HD
ATOM     22  O   UNL A   1      32.509  35.791  28.724  1.00  0.00    -0.269 OA
BRANCH  20  23
ATOM     23  C   UNL A   1      34.168  34.216  29.231  1.00  0.00     0.039 A 
ATOM     24  C   UNL A   1      33.991  33.553  30.448  1.00  0.00     0.014 A 
ATOM     25  C   UNL A   1      35.454  34.437  28.733  1.00  0.00     0.014 A 
ATOM     26  C   UNL A   1      35.100  33.047  31.129  1.00  0.00     0.010 A 
ATOM     27  C   UNL A   1      36.550  33.862  29.370  1.00  0.00     0.010 A 
ATOM     28  C   UNL A   1      36.386  33.161  30.575  1.00  0.00    -0.014 A 
BRANCH  28  29
ATOM     29  C   UNL A   1      37.568  32.546  31.235  1.00  0.00     0.031 A 
ATOM     30  C   UNL A   1      38.309  31.421  30.569  1.00  0.00     0.074 A 
ATOM     31  C   UNL A   1      37.931  32.954  32.467  1.00  0.00     0.049 A 
ATOM     32  N   UNL A   1      39.315  30.710  31.016  1.00  0.00    -0.248 NA
ATOM     33  C   UNL A   1      37.842  31.023  29.232  1.00  0.00     0.031 C 
ATOM     34  C   UNL A   1      37.263  34.001  33.242  1.00  0.00     0.029 A 
ATOM     35  N   UNL A   1      38.943  32.527  33.290  1.00  0.00    -0.354 N 
ATOM     36  C   UNL A   1      39.589  29.778  30.024  1.00  0.00     0.074 A 
ATOM     37  C   UNL A   1      38.609  29.973  28.977  1.00  0.00     0.031 C 
ATOM     38  C   UNL A   1      37.895  34.150  34.416  1.00  0.00     0.029 A 
ATOM     39  C   UNL A   1      38.985  33.183  34.497  1.00  0.00     0.049 A 
ATOM     40  H   UNL A   1      39.579  31.819  33.040  1.00  0.00     0.167 HD
ATOM     41  C   UNL A   1      40.583  28.858  29.978  1.00  0.00     0.037 A 
ATOM     42  C   UNL A   1      39.803  33.017  35.554  1.00  0.00     0.037 A 
ATOM     43  C   UNL A   1      41.567  28.678  31.015  1.00  0.00     0.049 A 
ATOM     44  C   UNL A   1      40.890  31.978  35.485  1.00  0.00     0.074 A 
ATOM     45  C   UNL A   1      42.647  27.812  31.038  1.00  0.00     0.029 A 
ATOM     46  N   UNL A   1      41.587  29.372  32.216  1.00  0.00    -0.354 N 
ATOM     47  N   UNL A   1      41.185  31.150  34.513  1.00  0.00    -0.248 NA
ATOM     48  C   UNL A   1      41.764  31.856  36.661  1.00  0.00     0.031 C 
ATOM     49  C   UNL A   1      43.288  27.944  32.273  1.00  0.00     0.029 A 
ATOM     50  C   UNL A   1      42.645  28.935  32.998  1.00  0.00     0.049 A 
ATOM     51  H   UNL A   1      40.943  30.071  32.474  1.00  0.00     0.167 HD
ATOM     52  C   UNL A   1      42.291  30.432  34.944  1.00  0.00     0.074 A 
ATOM     53  C   UNL A   1      42.627  30.933  36.260  1.00  0.00     0.031 C 
ATOM     54  C   UNL A   1      42.970  29.446  34.305  1.00  0.00     0.037 A 
BRANCH  41  55
ATOM     55  C   UNL A   1      40.657  27.976  28.764  1.00  0.00     0.064 A 
ATOM     56  C   UNL A   1      39.948  26.768  28.687  1.00  0.00     0.173 A 
ATOM     57  C   UNL A   1      41.422  28.358  27.650  1.00  0.00     0.173 A 
ATOM     58  F   UNL A   1      39.209  26.350  29.727  1.00  0.00    -0.203 F 
ATOM     59  C   UNL A   1      40.029  25.959  27.556  1.00  0.00     0.198 A 
ATOM     60  C   UNL A   1      41.472  27.564  26.508  1.00  0.00     0.198 A 
ATOM     61  F   UNL A   1      42.113  29.507  27.667  1.00  0.00    -0.203 F 
ATOM     62  F   UNL A   1      39.387  24.783  27.529  1.00  0.00    -0.200 F 
ATOM     63  C   UNL A   1      40.785  26.361  26.466  1.00  0.00     0.200 A 
ATOM     64  F   UNL A   1      42.191  27.961  25.449  1.00  0.00    -0.200 F 
ATOM     65  F   UNL A   1      40.855  25.584  25.375  1.00  0.00    -0.200 F 
ENDBRANCH  41  55
BRANCH  42  66
ATOM     66  C   UNL A   1      39.636  33.867  36.762  1.00  0.00     0.064 A 
ATOM     67  C   UNL A   1      40.262  35.119  36.853  1.00  0.00     0.173 A 
ATOM     68  C   UNL A   1      38.853  33.449  37.847  1.00  0.00     0.173 A 
ATOM     69  F   UNL A   1      41.039  35.553  35.850  1.00  0.00    -0.203 F 
ATOM     70  C   UNL A   1      40.129  35.909  37.992  1.00  0.00     0.198 A 
ATOM     71  C   UNL A   1      38.695  34.254  38.973  1.00  0.00     0.198 A 
ATOM     72  F   UNL A   1      38.229  32.263  37.808  1.00  0.00    -0.203 F 
ATOM     73  F   UNL A   1      40.776  37.080  38.073  1.00  0.00    -0.200 F 
ATOM     74  C   UNL A   1      39.339  35.480  39.049  1.00  0.00     0.200 A 
ATOM     75  F   UNL A   1      37.919  33.843  39.985  1.00  0.00    -0.200 F 
ATOM     76  F   UNL A   1      39.207  36.243  40.142  1.00  0.00    -0.200 F 
ENDBRANCH  42  66
BRANCH  54  77
ATOM     77  C   UNL A   1      44.166  28.868  35.005  1.00  0.00     0.064 A 
ATOM     78  C   UNL A   1      44.064  27.741  35.835  1.00  0.00     0.173 A 
ATOM     79  C   UNL A   1      45.440  29.425  34.810  1.00  0.00     0.173 A 
ATOM     80  F   UNL A   1      42.868  27.180  36.067  1.00  0.00    -0.203 F 
ATOM     81  C   UNL A   1      45.188  27.212  36.466  1.00  0.00     0.198 A 
ATOM     82  C   UNL A   1      46.565  28.872  35.414  1.00  0.00     0.198 A 
ATOM     83  F   UNL A   1      45.595  30.498  34.019  1.00  0.00    -0.203 F 
ATOM     84  F   UNL A   1      45.058  26.167  37.294  1.00  0.00    -0.200 F 
ATOM     85  C   UNL A   1      46.437  27.772  36.248  1.00  0.00     0.200 A 
ATOM     86  F   UNL A   1      47.775  29.406  35.189  1.00  0.00    -0.200 F 
ATOM     87  F   UNL A   1      47.519  27.255  36.847  1.00  0.00    -0.200 F 
ENDBRANCH  54  77
ENDBRANCH  28  29
ENDBRANCH  20  23
ENDBRANCH  18  19
ENDBRANCH  17  18
ENDBRANCH   1  17
TORSDOF 15
ENDMDL
