MODEL 1
REMARK VINA RESULT:     -12.8      0.000      0.000
REMARK SMILES O=C(NCCCCNC(=O)C1(C/C=C/c2ccccc2)CCCCC1)c1ccc(-c2c3nc(c(-c4c(F)c(F)c(F)c(F)c4F)c4ccc([nH]4)c(-c4c(F)c(F)c(F)c(F)c4F)c4nc(c(-c5c(F)c(F)c(F)c(F)c5F)c5ccc2[nH]5)C=C4)C=C3)cc1
REMARK SMILES IDX 6 1 5 2 4 3 3 4 1 5 2 6 26 8 27 9 88 10 28 11 87 12 29 13
REMARK SMILES IDX 30 14 31 15 81 16 32 17 86 18 80 19 82 20 33 21 85 22 79 23
REMARK SMILES IDX 78 24 34 26 66 27 46 28 65 29 47 30 50 31 64 32 83 33 48 34
REMARK SMILES IDX 49 35 63 37 84 38 51 39 35 40 36 41 44 42 37 43 38 44 42 45
REMARK SMILES IDX 45 46 39 47 40 48 43 49 41 50 67 51 68 52 76 53 69 54 70 55
REMARK SMILES IDX 74 56 77 57 71 58 72 59 75 60 73 61 52 62 53 63 61 64 54 65
REMARK SMILES IDX 55 66 59 67 62 68 56 69 57 70 60 71 58 72 7 73 8 74 9 75
REMARK SMILES IDX 10 77 11 78 21 79 25 80 22 81 24 82 23 83 12 84 13 85 14 86
REMARK SMILES IDX 15 87 16 88 20 89 17 90 19 91 18 92
REMARK H PARENT 3 7 82 25 50 36 8 76
REMARK Flexibility Score: inf
ROOT
ATOM      1  C   UNL A   1      31.784  30.207  26.379  1.00  0.00     0.023 C 
ENDROOT
BRANCH   1   2
ATOM      2  C   UNL A   1      31.629  31.712  26.546  1.00  0.00     0.023 C 
BRANCH   2   3
ATOM      3  C   UNL A   1      32.734  32.489  27.242  1.00  0.00     0.116 C 
BRANCH   3   4
ATOM      4  N   UNL A   1      32.401  33.846  27.664  1.00  0.00    -0.352 N 
ATOM      5  O   UNL A   1      32.800  35.834  28.740  1.00  0.00    -0.269 OA
ATOM      6  C   UNL A   1      33.096  34.671  28.527  1.00  0.00     0.251 C 
ATOM      7  H   UNL A   1      31.573  34.222  27.284  1.00  0.00     0.163 HD
BRANCH   6   8
ATOM      8  C   UNL A   1      34.241  34.112  29.247  1.00  0.00     0.039 A 
ATOM      9  C   UNL A   1      35.514  34.592  28.958  1.00  0.00     0.014 A 
ATOM     10  C   UNL A   1      34.032  33.068  30.152  1.00  0.00     0.014 A 
ATOM     11  C   UNL A   1      36.605  33.893  29.427  1.00  0.00     0.010 A 
ATOM     12  C   UNL A   1      35.135  32.452  30.733  1.00  0.00     0.010 A 
ATOM     13  C   UNL A   1      36.423  32.844  30.346  1.00  0.00    -0.014 A 
BRANCH  13  14
ATOM     14  C   UNL A   1      37.629  32.275  30.970  1.00  0.00     0.031 A 
ATOM     15  C   UNL A   1      38.033  32.650  32.358  1.00  0.00     0.074 A 
ATOM     16  C   UNL A   1      38.289  31.345  30.255  1.00  0.00     0.049 A 
ATOM     17  N   UNL A   1      39.001  32.160  33.087  1.00  0.00    -0.248 NA
ATOM     18  C   UNL A   1      37.261  33.714  33.017  1.00  0.00     0.031 C 
ATOM     19  C   UNL A   1      37.942  30.947  28.884  1.00  0.00     0.029 A 
ATOM     20  N   UNL A   1      39.338  30.535  30.578  1.00  0.00    -0.354 N 
ATOM     21  C   UNL A   1      38.966  32.863  34.283  1.00  0.00     0.074 A 
ATOM     22  C   UNL A   1      37.899  33.833  34.175  1.00  0.00     0.031 C 
ATOM     23  C   UNL A   1      38.710  29.916  28.517  1.00  0.00     0.029 A 
ATOM     24  C   UNL A   1      39.656  29.640  29.587  1.00  0.00     0.049 A 
ATOM     25  H   UNL A   1      39.819  30.587  31.436  1.00  0.00     0.167 HD
ATOM     26  C   UNL A   1      39.761  32.696  35.366  1.00  0.00     0.037 A 
ATOM     27  C   UNL A   1      40.620  28.706  29.547  1.00  0.00     0.037 A 
ATOM     28  C   UNL A   1      40.818  31.718  35.426  1.00  0.00     0.049 A 
ATOM     29  C   UNL A   1      41.495  28.562  30.755  1.00  0.00     0.074 A 
ATOM     30  C   UNL A   1      41.688  31.444  36.465  1.00  0.00     0.029 A 
ATOM     31  N   UNL A   1      41.152  30.855  34.387  1.00  0.00    -0.354 N 
ATOM     32  N   UNL A   1      41.438  29.210  31.895  1.00  0.00    -0.248 NA
ATOM     33  C   UNL A   1      42.566  27.566  30.675  1.00  0.00     0.031 C 
ATOM     34  C   UNL A   1      42.583  30.458  36.034  1.00  0.00     0.029 A 
ATOM     35  C   UNL A   1      42.232  30.066  34.750  1.00  0.00     0.049 A 
ATOM     36  H   UNL A   1      40.688  30.810  33.519  1.00  0.00     0.167 HD
ATOM     37  C   UNL A   1      42.459  28.694  32.677  1.00  0.00     0.074 A 
ATOM     38  C   UNL A   1      43.099  27.659  31.886  1.00  0.00     0.031 C 
ATOM     39  C   UNL A   1      42.840  29.046  33.929  1.00  0.00     0.037 A 
BRANCH  26  40
ATOM     40  C   UNL A   1      39.541  33.608  36.541  1.00  0.00     0.064 A 
ATOM     41  C   UNL A   1      38.756  33.229  37.641  1.00  0.00     0.173 A 
ATOM     42  C   UNL A   1      40.137  34.878  36.573  1.00  0.00     0.173 A 
ATOM     43  F   UNL A   1      38.150  32.032  37.657  1.00  0.00    -0.203 F 
ATOM     44  C   UNL A   1      38.547  34.099  38.709  1.00  0.00     0.198 A 
ATOM     45  C   UNL A   1      39.951  35.733  37.658  1.00  0.00     0.198 A 
ATOM     46  F   UNL A   1      40.901  35.294  35.552  1.00  0.00    -0.203 F 
ATOM     47  F   UNL A   1      37.745  33.735  39.721  1.00  0.00    -0.200 F 
ATOM     48  C   UNL A   1      39.149  35.348  38.720  1.00  0.00     0.200 A 
ATOM     49  F   UNL A   1      40.544  36.936  37.670  1.00  0.00    -0.200 F 
ATOM     50  F   UNL A   1      38.947  36.182  39.749  1.00  0.00    -0.200 F 
ENDBRANCH  26  40
BRANCH  27  51
ATOM     51  C   UNL A   1      40.791  27.872  28.330  1.00  0.00     0.064 A 
ATOM     52  C   UNL A   1      40.151  26.632  28.203  1.00  0.00     0.173 A 
ATOM     53  C   UNL A   1      41.567  28.318  27.249  1.00  0.00     0.173 A 
ATOM     54  F   UNL A   1      39.402  26.158  29.209  1.00  0.00    -0.203 F 
ATOM     55  C   UNL A   1      40.296  25.864  27.050  1.00  0.00     0.198 A 
ATOM     56  C   UNL A   1      41.682  27.566  26.083  1.00  0.00     0.198 A 
ATOM     57  F   UNL A   1      42.188  29.506  27.311  1.00  0.00    -0.203 F 
ATOM     58  F   UNL A   1      39.707  24.663  26.970  1.00  0.00    -0.200 F 
ATOM     59  C   UNL A   1      41.055  26.334  25.988  1.00  0.00     0.200 A 
ATOM     60  F   UNL A   1      42.394  28.039  25.051  1.00  0.00    -0.200 F 
ATOM     61  F   UNL A   1      41.183  25.599  24.874  1.00  0.00    -0.200 F 
ENDBRANCH  27  51
BRANCH  39  62
ATOM     62  C   UNL A   1      43.986  28.280  34.519  1.00  0.00     0.064 A 
ATOM     63  C   UNL A   1      43.790  27.064  35.190  1.00  0.00     0.173 A 
ATOM     64  C   UNL A   1      45.297  28.758  34.387  1.00  0.00     0.173 A 
ATOM     65  F   UNL A   1      42.551  26.577  35.358  1.00  0.00    -0.203 F 
ATOM     66  C   UNL A   1      44.865  26.368  35.733  1.00  0.00     0.198 A 
ATOM     67  C   UNL A   1      46.374  28.044  34.899  1.00  0.00     0.198 A 
ATOM     68  F   UNL A   1      45.534  29.916  33.750  1.00  0.00    -0.203 F 
ATOM     69  F   UNL A   1      44.652  25.238  36.419  1.00  0.00    -0.200 F 
ATOM     70  C   UNL A   1      46.156  26.854  35.580  1.00  0.00     0.200 A 
ATOM     71  F   UNL A   1      47.620  28.506  34.738  1.00  0.00    -0.200 F 
ATOM     72  F   UNL A   1      47.192  26.180  36.096  1.00  0.00    -0.200 F 
ENDBRANCH  39  62
ENDBRANCH  13  14
ENDBRANCH   6   8
ENDBRANCH   3   4
ENDBRANCH   2   3
ENDBRANCH   1   2
BRANCH   1  73
ATOM     73  C   UNL A   1      33.147  29.664  25.993  1.00  0.00     0.116 C 
BRANCH  73  74
ATOM     74  N   UNL A   1      33.471  29.686  24.594  1.00  0.00    -0.356 N 
ATOM     75  C   UNL A   1      33.288  28.696  23.671  1.00  0.00     0.226 C 
ATOM     76  H   UNL A   1      33.876  30.517  24.259  1.00  0.00     0.163 HD
ATOM     77  O   UNL A   1      33.463  29.041  22.496  1.00  0.00    -0.274 OA
BRANCH  75  78
ATOM     78  C   UNL A   1      32.953  27.206  24.052  1.00  0.00     0.053 C 
ATOM     79  C   UNL A   1      33.601  26.330  22.917  1.00  0.00     0.017 C 
ATOM     80  C   UNL A   1      33.699  26.854  25.366  1.00  0.00     0.017 C 
ATOM     81  C   UNL A   1      33.665  24.831  23.219  1.00  0.00     0.001 C 
ATOM     82  C   UNL A   1      33.729  25.358  25.680  1.00  0.00     0.001 C 
ATOM     83  C   UNL A   1      34.350  24.553  24.549  1.00  0.00     0.000 C 
BRANCH  78  84
ATOM     84  C   UNL A   1      31.404  26.888  24.044  1.00  0.00     0.044 C 
BRANCH  84  85
ATOM     85  C   UNL A   1      30.402  28.028  23.993  1.00  0.00    -0.025 C 
ATOM     86  C   UNL A   1      29.885  28.505  22.846  1.00  0.00     0.004 C 
BRANCH  86  87
ATOM     87  C   UNL A   1      29.161  29.782  22.691  1.00  0.00    -0.026 A 
ATOM     88  C   UNL A   1      28.622  30.098  21.440  1.00  0.00     0.008 A 
ATOM     89  C   UNL A   1      29.194  30.786  23.674  1.00  0.00     0.008 A 
ATOM     90  C   UNL A   1      28.149  31.386  21.172  1.00  0.00     0.001 A 
ATOM     91  C   UNL A   1      28.754  32.084  23.394  1.00  0.00     0.001 A 
ATOM     92  C   UNL A   1      28.239  32.385  22.139  1.00  0.00     0.000 A 
ENDBRANCH  86  87
ENDBRANCH  84  85
ENDBRANCH  78  84
ENDBRANCH  75  78
ENDBRANCH  73  74
ENDBRANCH   1  73
TORSDOF 14
ENDMDL
MODEL 2
REMARK VINA RESULT:     -12.7      5.614     10.543
REMARK SMILES O=C(NCCCCNC(=O)C1(C/C=C/c2ccccc2)CCCCC1)c1ccc(-c2c3nc(c(-c4c(F)c(F)c(F)c(F)c4F)c4ccc([nH]4)c(-c4c(F)c(F)c(F)c(F)c4F)c4nc(c(-c5c(F)c(F)c(F)c(F)c5F)c5ccc2[nH]5)C=C4)C=C3)cc1
REMARK SMILES IDX 6 1 5 2 4 3 3 4 1 5 2 6 26 8 27 9 88 10 28 11 87 12 29 13
REMARK SMILES IDX 30 14 31 15 81 16 32 17 86 18 80 19 82 20 33 21 85 22 79 23
REMARK SMILES IDX 78 24 34 26 66 27 46 28 65 29 47 30 50 31 64 32 83 33 48 34
REMARK SMILES IDX 49 35 63 37 84 38 51 39 35 40 36 41 44 42 37 43 38 44 42 45
REMARK SMILES IDX 45 46 39 47 40 48 43 49 41 50 67 51 68 52 76 53 69 54 70 55
REMARK SMILES IDX 74 56 77 57 71 58 72 59 75 60 73 61 52 62 53 63 61 64 54 65
REMARK SMILES IDX 55 66 59 67 62 68 56 69 57 70 60 71 58 72 7 73 8 74 9 75
REMARK SMILES IDX 10 77 11 78 21 79 25 80 22 81 24 82 23 83 12 84 13 85 14 86
REMARK SMILES IDX 15 87 16 88 20 89 17 90 19 91 18 92
REMARK H PARENT 3 7 82 25 50 36 8 76
REMARK Flexibility Score: inf
ROOT
ATOM      1  C   UNL A   1      38.859  22.413  26.145  1.00  0.00     0.023 C 
ENDROOT
BRANCH   1   2
ATOM      2  C   UNL A   1      38.954  21.041  25.494  1.00  0.00     0.023 C 
BRANCH   2   3
ATOM      3  C   UNL A   1      39.456  19.871  26.324  1.00  0.00     0.116 C 
BRANCH   3   4
ATOM      4  N   UNL A   1      40.626  19.169  25.806  1.00  0.00    -0.352 N 
ATOM      5  O   UNL A   1      42.879  18.847  25.503  1.00  0.00    -0.269 OA
ATOM      6  C   UNL A   1      41.953  19.550  25.869  1.00  0.00     0.251 C 
ATOM      7  H   UNL A   1      40.447  18.313  25.353  1.00  0.00     0.163 HD
BRANCH   6   8
ATOM      8  C   UNL A   1      42.266  20.884  26.382  1.00  0.00     0.039 A 
ATOM      9  C   UNL A   1      42.530  21.906  25.476  1.00  0.00     0.014 A 
ATOM     10  C   UNL A   1      42.360  21.078  27.763  1.00  0.00     0.014 A 
ATOM     11  C   UNL A   1      43.084  23.078  25.946  1.00  0.00     0.010 A 
ATOM     12  C   UNL A   1      42.788  22.311  28.241  1.00  0.00     0.010 A 
ATOM     13  C   UNL A   1      43.180  23.301  27.331  1.00  0.00    -0.014 A 
BRANCH  13  14
ATOM     14  C   UNL A   1      43.582  24.648  27.773  1.00  0.00     0.031 A 
ATOM     15  C   UNL A   1      45.013  25.070  27.762  1.00  0.00     0.074 A 
ATOM     16  C   UNL A   1      42.584  25.489  28.101  1.00  0.00     0.049 A 
ATOM     17  N   UNL A   1      45.519  26.248  28.018  1.00  0.00    -0.248 NA
ATOM     18  C   UNL A   1      46.014  24.044  27.432  1.00  0.00     0.031 C 
ATOM     19  C   UNL A   1      41.163  25.123  28.138  1.00  0.00     0.029 A 
ATOM     20  N   UNL A   1      42.591  26.818  28.413  1.00  0.00    -0.354 N 
ATOM     21  C   UNL A   1      46.893  26.105  27.893  1.00  0.00     0.074 A 
ATOM     22  C   UNL A   1      47.148  24.719  27.566  1.00  0.00     0.031 C 
ATOM     23  C   UNL A   1      40.432  26.218  28.375  1.00  0.00     0.029 A 
ATOM     24  C   UNL A   1      41.334  27.338  28.590  1.00  0.00     0.049 A 
ATOM     25  H   UNL A   1      43.416  27.349  28.501  1.00  0.00     0.167 HD
ATOM     26  C   UNL A   1      47.843  27.059  28.037  1.00  0.00     0.037 A 
ATOM     27  C   UNL A   1      40.956  28.587  28.909  1.00  0.00     0.037 A 
ATOM     28  C   UNL A   1      47.541  28.428  28.371  1.00  0.00     0.049 A 
ATOM     29  C   UNL A   1      42.035  29.614  29.082  1.00  0.00     0.074 A 
ATOM     30  C   UNL A   1      48.409  29.492  28.539  1.00  0.00     0.029 A 
ATOM     31  N   UNL A   1      46.259  28.920  28.594  1.00  0.00    -0.354 N 
ATOM     32  N   UNL A   1      43.332  29.479  28.934  1.00  0.00    -0.248 NA
ATOM     33  C   UNL A   1      41.604  30.959  29.469  1.00  0.00     0.031 C 
ATOM     34  C   UNL A   1      47.658  30.610  28.921  1.00  0.00     0.029 A 
ATOM     35  C   UNL A   1      46.314  30.265  28.926  1.00  0.00     0.049 A 
ATOM     36  H   UNL A   1      45.432  28.390  28.526  1.00  0.00     0.167 HD
ATOM     37  C   UNL A   1      43.876  30.725  29.198  1.00  0.00     0.074 A 
ATOM     38  C   UNL A   1      42.760  31.608  29.487  1.00  0.00     0.031 C 
ATOM     39  C   UNL A   1      45.177  31.107  29.208  1.00  0.00     0.037 A 
BRANCH  26  40
ATOM     40  C   UNL A   1      49.279  26.645  27.878  1.00  0.00     0.064 A 
ATOM     41  C   UNL A   1      50.116  26.420  28.982  1.00  0.00     0.173 A 
ATOM     42  C   UNL A   1      49.826  26.458  26.599  1.00  0.00     0.173 A 
ATOM     43  F   UNL A   1      49.651  26.598  30.228  1.00  0.00    -0.203 F 
ATOM     44  C   UNL A   1      51.451  26.060  28.812  1.00  0.00     0.198 A 
ATOM     45  C   UNL A   1      51.153  26.067  26.433  1.00  0.00     0.198 A 
ATOM     46  F   UNL A   1      49.074  26.655  25.506  1.00  0.00    -0.203 F 
ATOM     47  F   UNL A   1      52.244  25.907  29.883  1.00  0.00    -0.200 F 
ATOM     48  C   UNL A   1      51.967  25.877  27.538  1.00  0.00     0.200 A 
ATOM     49  F   UNL A   1      51.646  25.881  25.200  1.00  0.00    -0.200 F 
ATOM     50  F   UNL A   1      53.251  25.530  27.377  1.00  0.00    -0.200 F 
ENDBRANCH  26  40
BRANCH  27  51
ATOM     51  C   UNL A   1      39.516  28.902  29.083  1.00  0.00     0.064 A 
ATOM     52  C   UNL A   1      38.900  28.820  30.339  1.00  0.00     0.173 A 
ATOM     53  C   UNL A   1      38.732  29.333  28.001  1.00  0.00     0.173 A 
ATOM     54  F   UNL A   1      39.604  28.409  31.404  1.00  0.00    -0.203 F 
ATOM     55  C   UNL A   1      37.553  29.138  30.501  1.00  0.00     0.198 A 
ATOM     56  C   UNL A   1      37.396  29.685  28.172  1.00  0.00     0.198 A 
ATOM     57  F   UNL A   1      39.275  29.445  26.780  1.00  0.00    -0.203 F 
ATOM     58  F   UNL A   1      36.979  29.012  31.706  1.00  0.00    -0.200 F 
ATOM     59  C   UNL A   1      36.804  29.578  29.420  1.00  0.00     0.200 A 
ATOM     60  F   UNL A   1      36.685  30.135  27.128  1.00  0.00    -0.200 F 
ATOM     61  F   UNL A   1      35.512  29.897  29.581  1.00  0.00    -0.200 F 
ENDBRANCH  27  51
BRANCH  39  62
ATOM     62  C   UNL A   1      45.447  32.549  29.519  1.00  0.00     0.064 A 
ATOM     63  C   UNL A   1      45.708  32.984  30.826  1.00  0.00     0.173 A 
ATOM     64  C   UNL A   1      45.469  33.500  28.488  1.00  0.00     0.173 A 
ATOM     65  F   UNL A   1      45.679  32.113  31.846  1.00  0.00    -0.203 F 
ATOM     66  C   UNL A   1      45.954  34.326  31.095  1.00  0.00     0.198 A 
ATOM     67  C   UNL A   1      45.750  34.835  28.755  1.00  0.00     0.198 A 
ATOM     68  F   UNL A   1      45.228  33.130  27.221  1.00  0.00    -0.203 F 
ATOM     69  F   UNL A   1      46.145  34.731  32.357  1.00  0.00    -0.200 F 
ATOM     70  C   UNL A   1      45.983  35.249  30.058  1.00  0.00     0.200 A 
ATOM     71  F   UNL A   1      45.792  35.721  27.752  1.00  0.00    -0.200 F 
ATOM     72  F   UNL A   1      46.227  36.540  30.317  1.00  0.00    -0.200 F 
ENDBRANCH  39  62
ENDBRANCH  13  14
ENDBRANCH   6   8
ENDBRANCH   3   4
ENDBRANCH   2   3
ENDBRANCH   1   2
BRANCH   1  73
ATOM     73  C   UNL A   1      37.699  23.313  25.762  1.00  0.00     0.116 C 
BRANCH  73  74
ATOM     74  N   UNL A   1      37.323  23.317  24.376  1.00  0.00    -0.356 N 
ATOM     75  C   UNL A   1      36.105  23.026  23.833  1.00  0.00     0.226 C 
ATOM     76  H   UNL A   1      38.032  23.559  23.739  1.00  0.00     0.163 HD
ATOM     77  O   UNL A   1      35.990  23.302  22.633  1.00  0.00    -0.274 OA
BRANCH  75  78
ATOM     78  C   UNL A   1      34.944  22.326  24.631  1.00  0.00     0.053 C 
ATOM     79  C   UNL A   1      33.661  22.495  23.738  1.00  0.00     0.017 C 
ATOM     80  C   UNL A   1      35.241  20.804  24.699  1.00  0.00     0.017 C 
ATOM     81  C   UNL A   1      32.464  21.642  24.161  1.00  0.00     0.001 C 
ATOM     82  C   UNL A   1      34.052  19.960  25.157  1.00  0.00     0.001 C 
ATOM     83  C   UNL A   1      32.832  20.170  24.272  1.00  0.00     0.000 C 
BRANCH  78  84
ATOM     84  C   UNL A   1      34.628  23.017  26.018  1.00  0.00     0.044 C 
BRANCH  84  85
ATOM     85  C   UNL A   1      33.713  24.229  26.065  1.00  0.00    -0.025 C 
ATOM     86  C   UNL A   1      34.127  25.479  25.793  1.00  0.00     0.004 C 
BRANCH  86  87
ATOM     87  C   UNL A   1      33.395  26.720  26.110  1.00  0.00    -0.026 A 
ATOM     88  C   UNL A   1      34.127  27.888  26.347  1.00  0.00     0.008 A 
ATOM     89  C   UNL A   1      32.022  26.723  26.411  1.00  0.00     0.008 A 
ATOM     90  C   UNL A   1      33.510  29.019  26.889  1.00  0.00     0.001 A 
ATOM     91  C   UNL A   1      31.412  27.843  26.987  1.00  0.00     0.001 A 
ATOM     92  C   UNL A   1      32.160  28.988  27.232  1.00  0.00     0.000 A 
ENDBRANCH  86  87
ENDBRANCH  84  85
ENDBRANCH  78  84
ENDBRANCH  75  78
ENDBRANCH  73  74
ENDBRANCH   1  73
TORSDOF 14
ENDMDL
MODEL 3
REMARK VINA RESULT:     -12.7      5.884     11.512
REMARK SMILES O=C(NCCCCNC(=O)C1(C/C=C/c2ccccc2)CCCCC1)c1ccc(-c2c3nc(c(-c4c(F)c(F)c(F)c(F)c4F)c4ccc([nH]4)c(-c4c(F)c(F)c(F)c(F)c4F)c4nc(c(-c5c(F)c(F)c(F)c(F)c5F)c5ccc2[nH]5)C=C4)C=C3)cc1
REMARK SMILES IDX 6 1 5 2 4 3 3 4 1 5 2 6 26 8 27 9 88 10 28 11 87 12 29 13
REMARK SMILES IDX 30 14 31 15 81 16 32 17 86 18 80 19 82 20 33 21 85 22 79 23
REMARK SMILES IDX 78 24 34 26 66 27 46 28 65 29 47 30 50 31 64 32 83 33 48 34
REMARK SMILES IDX 49 35 63 37 84 38 51 39 35 40 36 41 44 42 37 43 38 44 42 45
REMARK SMILES IDX 45 46 39 47 40 48 43 49 41 50 67 51 68 52 76 53 69 54 70 55
REMARK SMILES IDX 74 56 77 57 71 58 72 59 75 60 73 61 52 62 53 63 61 64 54 65
REMARK SMILES IDX 55 66 59 67 62 68 56 69 57 70 60 71 58 72 7 73 8 74 9 75
REMARK SMILES IDX 10 77 11 78 21 79 25 80 22 81 24 82 23 83 12 84 13 85 14 86
REMARK SMILES IDX 15 87 16 88 20 89 17 90 19 91 18 92
REMARK H PARENT 3 7 82 25 50 36 8 76
REMARK Flexibility Score: inf
ROOT
ATOM      1  C   UNL A   1      37.307  21.340  24.436  1.00  0.00     0.023 C 
ENDROOT
BRANCH   1   2
ATOM      2  C   UNL A   1      37.843  20.032  24.998  1.00  0.00     0.023 C 
BRANCH   2   3
ATOM      3  C   UNL A   1      38.976  20.080  26.011  1.00  0.00     0.116 C 
BRANCH   3   4
ATOM      4  N   UNL A   1      40.113  19.204  25.749  1.00  0.00    -0.352 N 
ATOM      5  O   UNL A   1      42.331  18.616  25.819  1.00  0.00    -0.269 OA
ATOM      6  C   UNL A   1      41.455  19.451  25.968  1.00  0.00     0.251 C 
ATOM      7  H   UNL A   1      39.895  18.322  25.367  1.00  0.00     0.163 HD
BRANCH   6   8
ATOM      8  C   UNL A   1      41.853  20.797  26.379  1.00  0.00     0.039 A 
ATOM      9  C   UNL A   1      41.885  21.808  25.423  1.00  0.00     0.014 A 
ATOM     10  C   UNL A   1      42.256  21.015  27.699  1.00  0.00     0.014 A 
ATOM     11  C   UNL A   1      42.510  22.995  25.739  1.00  0.00     0.010 A 
ATOM     12  C   UNL A   1      42.759  22.262  28.051  1.00  0.00     0.010 A 
ATOM     13  C   UNL A   1      42.915  23.243  27.062  1.00  0.00    -0.014 A 
BRANCH  13  14
ATOM     14  C   UNL A   1      43.383  24.602  27.383  1.00  0.00     0.031 A 
ATOM     15  C   UNL A   1      44.756  25.055  27.012  1.00  0.00     0.074 A 
ATOM     16  C   UNL A   1      42.481  25.425  27.948  1.00  0.00     0.049 A 
ATOM     17  N   UNL A   1      45.281  26.247  27.127  1.00  0.00    -0.248 NA
ATOM     18  C   UNL A   1      45.666  24.048  26.446  1.00  0.00     0.031 C 
ATOM     19  C   UNL A   1      41.123  25.029  28.342  1.00  0.00     0.029 A 
ATOM     20  N   UNL A   1      42.534  26.757  28.241  1.00  0.00    -0.354 N 
ATOM     21  C   UNL A   1      46.584  26.132  26.662  1.00  0.00     0.074 A 
ATOM     22  C   UNL A   1      46.782  24.749  26.288  1.00  0.00     0.031 C 
ATOM     23  C   UNL A   1      40.449  26.110  28.750  1.00  0.00     0.029 A 
ATOM     24  C   UNL A   1      41.349  27.252  28.727  1.00  0.00     0.049 A 
ATOM     25  H   UNL A   1      43.342  27.307  28.118  1.00  0.00     0.167 HD
ATOM     26  C   UNL A   1      47.517  27.109  26.560  1.00  0.00     0.037 A 
ATOM     27  C   UNL A   1      41.034  28.495  29.124  1.00  0.00     0.037 A 
ATOM     28  C   UNL A   1      47.276  28.474  26.952  1.00  0.00     0.049 A 
ATOM     29  C   UNL A   1      42.097  29.547  29.016  1.00  0.00     0.074 A 
ATOM     30  C   UNL A   1      48.133  29.558  26.893  1.00  0.00     0.029 A 
ATOM     31  N   UNL A   1      46.079  28.940  27.488  1.00  0.00    -0.354 N 
ATOM     32  N   UNL A   1      43.318  29.439  28.549  1.00  0.00    -0.248 NA
ATOM     33  C   UNL A   1      41.745  30.886  29.493  1.00  0.00     0.031 C 
ATOM     34  C   UNL A   1      47.475  30.663  27.445  1.00  0.00     0.029 A 
ATOM     35  C   UNL A   1      46.184  30.289  27.789  1.00  0.00     0.049 A 
ATOM     36  H   UNL A   1      45.274  28.392  27.632  1.00  0.00     0.167 HD
ATOM     37  C   UNL A   1      43.881  30.699  28.662  1.00  0.00     0.074 A 
ATOM     38  C   UNL A   1      42.853  31.560  29.218  1.00  0.00     0.031 C 
ATOM     39  C   UNL A   1      45.134  31.109  28.344  1.00  0.00     0.037 A 
BRANCH  26  40
ATOM     40  C   UNL A   1      48.876  26.725  26.047  1.00  0.00     0.064 A 
ATOM     41  C   UNL A   1      49.262  26.952  24.717  1.00  0.00     0.173 A 
ATOM     42  C   UNL A   1      49.816  26.129  26.904  1.00  0.00     0.173 A 
ATOM     43  F   UNL A   1      48.400  27.505  23.850  1.00  0.00    -0.203 F 
ATOM     44  C   UNL A   1      50.519  26.568  24.256  1.00  0.00     0.198 A 
ATOM     45  C   UNL A   1      51.083  25.775  26.447  1.00  0.00     0.198 A 
ATOM     46  F   UNL A   1      49.506  25.889  28.186  1.00  0.00    -0.203 F 
ATOM     47  F   UNL A   1      50.842  26.745  22.966  1.00  0.00    -0.200 F 
ATOM     48  C   UNL A   1      51.432  25.984  25.123  1.00  0.00     0.200 A 
ATOM     49  F   UNL A   1      51.967  25.220  27.290  1.00  0.00    -0.200 F 
ATOM     50  F   UNL A   1      52.640  25.616  24.677  1.00  0.00    -0.200 F 
ENDBRANCH  26  40
BRANCH  27  51
ATOM     51  C   UNL A   1      39.676  28.780  29.653  1.00  0.00     0.064 A 
ATOM     52  C   UNL A   1      39.374  28.610  31.010  1.00  0.00     0.173 A 
ATOM     53  C   UNL A   1      38.660  29.270  28.816  1.00  0.00     0.173 A 
ATOM     54  F   UNL A   1      40.307  28.141  31.851  1.00  0.00    -0.203 F 
ATOM     55  C   UNL A   1      38.104  28.901  31.505  1.00  0.00     0.198 A 
ATOM     56  C   UNL A   1      37.403  29.594  29.319  1.00  0.00     0.198 A 
ATOM     57  F   UNL A   1      38.901  29.467  27.511  1.00  0.00    -0.203 F 
ATOM     58  F   UNL A   1      37.830  28.691  32.800  1.00  0.00    -0.200 F 
ATOM     59  C   UNL A   1      37.122  29.399  30.662  1.00  0.00     0.200 A 
ATOM     60  F   UNL A   1      36.468  30.100  28.504  1.00  0.00    -0.200 F 
ATOM     61  F   UNL A   1      35.906  29.691  31.143  1.00  0.00    -0.200 F 
ENDBRANCH  27  51
BRANCH  39  62
ATOM     62  C   UNL A   1      45.439  32.559  28.571  1.00  0.00     0.064 A 
ATOM     63  C   UNL A   1      46.014  33.013  29.767  1.00  0.00     0.173 A 
ATOM     64  C   UNL A   1      45.176  33.501  27.565  1.00  0.00     0.173 A 
ATOM     65  F   UNL A   1      46.265  32.151  30.764  1.00  0.00    -0.203 F 
ATOM     66  C   UNL A   1      46.287  34.363  29.959  1.00  0.00     0.198 A 
ATOM     67  C   UNL A   1      45.482  34.844  27.746  1.00  0.00     0.198 A 
ATOM     68  F   UNL A   1      44.629  33.114  26.401  1.00  0.00    -0.203 F 
ATOM     69  F   UNL A   1      46.782  34.784  31.130  1.00  0.00    -0.200 F 
ATOM     70  C   UNL A   1      46.029  35.276  28.946  1.00  0.00     0.200 A 
ATOM     71  F   UNL A   1      45.247  35.722  26.763  1.00  0.00    -0.200 F 
ATOM     72  F   UNL A   1      46.299  36.575  29.130  1.00  0.00    -0.200 F 
ENDBRANCH  39  62
ENDBRANCH  13  14
ENDBRANCH   6   8
ENDBRANCH   3   4
ENDBRANCH   2   3
ENDBRANCH   1   2
BRANCH   1  73
ATOM     73  C   UNL A   1      36.941  22.445  25.407  1.00  0.00     0.116 C 
BRANCH  73  74
ATOM     74  N   UNL A   1      36.100  22.074  26.511  1.00  0.00    -0.356 N 
ATOM     75  C   UNL A   1      34.756  22.275  26.649  1.00  0.00     0.226 C 
ATOM     76  H   UNL A   1      36.547  21.620  27.260  1.00  0.00     0.163 HD
ATOM     77  O   UNL A   1      34.236  21.680  27.602  1.00  0.00    -0.274 OA
BRANCH  75  78
ATOM     78  C   UNL A   1      33.923  23.241  25.728  1.00  0.00     0.053 C 
ATOM     79  C   UNL A   1      32.693  23.691  26.599  1.00  0.00     0.017 C 
ATOM     80  C   UNL A   1      34.767  24.515  25.460  1.00  0.00     0.017 C 
ATOM     81  C   UNL A   1      31.893  24.863  26.026  1.00  0.00     0.001 C 
ATOM     82  C   UNL A   1      33.971  25.671  24.855  1.00  0.00     0.001 C 
ATOM     83  C   UNL A   1      32.784  26.059  25.725  1.00  0.00     0.000 C 
BRANCH  78  84
ATOM     84  C   UNL A   1      33.336  22.533  24.442  1.00  0.00     0.044 C 
BRANCH  84  85
ATOM     85  C   UNL A   1      33.563  21.046  24.231  1.00  0.00    -0.025 C 
ATOM     86  C   UNL A   1      32.564  20.146  24.182  1.00  0.00     0.004 C 
BRANCH  86  87
ATOM     87  C   UNL A   1      32.714  18.682  24.290  1.00  0.00    -0.026 A 
ATOM     88  C   UNL A   1      32.543  18.081  25.541  1.00  0.00     0.008 A 
ATOM     89  C   UNL A   1      33.247  17.905  23.246  1.00  0.00     0.008 A 
ATOM     90  C   UNL A   1      32.913  16.749  25.749  1.00  0.00     0.001 A 
ATOM     91  C   UNL A   1      33.650  16.584  23.464  1.00  0.00     0.001 A 
ATOM     92  C   UNL A   1      33.489  16.009  24.718  1.00  0.00     0.000 A 
ENDBRANCH  86  87
ENDBRANCH  84  85
ENDBRANCH  78  84
ENDBRANCH  75  78
ENDBRANCH  73  74
ENDBRANCH   1  73
TORSDOF 14
ENDMDL
