MODEL 1
REMARK VINA RESULT:     -12.5      0.000      0.000
REMARK SMILES COc1ncccc1NS(=O)(=O)c1ccc(Br)c(C(=O)NCCCCNC(=O)c2ccc(-c3c4nc(c(-c5c(F)c(F)c(F)c(F)c5F)c5ccc([nH]5)c(-c5c(F)c(F)c(F)c(F)c5F)c5nc(c(-c6c(F)c(F)c(F)c(F)c6F)c6ccc3[nH]6)C=C5)C=C4)cc2)c1
REMARK SMILES IDX 22 1 21 2 19 3 20 4 18 6 13 7 14 8 92 9 15 10 16 11 17 12
REMARK SMILES IDX 10 13 11 14 12 15 9 16 8 18 3 19 4 20 5 21 7 22 6 23 2 24
REMARK SMILES IDX 1 25 23 26 24 27 25 28 26 29 27 30 28 32 29 33 30 34 91 35
REMARK SMILES IDX 31 36 90 37 32 38 33 39 34 40 84 41 35 42 89 43 83 44 85 45
REMARK SMILES IDX 36 46 88 47 82 48 81 49 37 51 69 52 49 53 68 54 50 55 53 56
REMARK SMILES IDX 67 57 86 58 51 59 52 60 66 62 87 63 54 64 38 65 39 66 47 67
REMARK SMILES IDX 40 68 41 69 45 70 48 71 42 72 43 73 46 74 44 75 70 76 71 77
REMARK SMILES IDX 79 78 72 79 73 80 77 81 80 82 74 83 75 84 78 85 76 86 55 87
REMARK SMILES IDX 56 88 64 89 57 90 58 91 62 92 65 93 59 94 60 95 63 96 61 97
REMARK H PARENT 21 5 9 17 26 31 85 50 53 61
REMARK Flexibility Score: inf
ROOT
ATOM      1  C   UNL A   1      33.753  29.624  26.631  1.00  0.00     0.116 C 
ENDROOT
BRANCH   1   2
ATOM      2  N   UNL A   1      33.864  29.428  25.204  1.00  0.00    -0.352 N 
ATOM      3  C   UNL A   1      33.189  28.829  24.186  1.00  0.00     0.252 C 
ATOM      4  O   UNL A   1      33.675  29.088  23.077  1.00  0.00    -0.269 OA
ATOM      5  H   UNL A   1      34.679  29.862  24.863  1.00  0.00     0.163 HD
BRANCH   3   6
ATOM      6  C   UNL A   1      32.039  27.869  24.226  1.00  0.00     0.055 A 
ATOM      7  C   UNL A   1      31.561  25.476  24.767  1.00  0.00     0.088 A 
ATOM      8  C   UNL A   1      30.225  25.687  24.500  1.00  0.00     0.023 A 
ATOM      9  C   UNL A   1      32.431  26.580  24.693  1.00  0.00     0.037 A 
ATOM     10  C   UNL A   1      29.808  26.929  24.020  1.00  0.00     0.018 A 
ATOM     11  C   UNL A   1      30.710  27.991  23.813  1.00  0.00     0.030 A 
ATOM     12  Br  UNL A   1      29.958  29.352  22.738  1.00  0.00    -0.050 Br
BRANCH   7  13
ATOM     13  S   UNL A   1      32.353  23.894  25.014  1.00  0.00     0.262 S 
ATOM     14  O   UNL A   1      32.991  23.564  23.755  1.00  0.00    -0.201 OA
ATOM     15  O   UNL A   1      31.322  23.028  25.550  1.00  0.00    -0.201 OA
BRANCH  13  16
ATOM     16  N   UNL A   1      33.604  23.865  26.158  1.00  0.00    -0.274 N 
ATOM     17  H   UNL A   1      33.456  24.275  27.041  1.00  0.00     0.180 HD
BRANCH  16  18
ATOM     18  C   UNL A   1      34.867  23.261  25.875  1.00  0.00     0.111 A 
ATOM     19  C   UNL A   1      35.130  21.888  25.938  1.00  0.00     0.238 A 
ATOM     20  N   UNL A   1      36.357  21.358  25.729  1.00  0.00    -0.220 NA
ATOM     21  C   UNL A   1      37.354  22.223  25.433  1.00  0.00     0.115 A 
ATOM     22  C   UNL A   1      35.914  24.119  25.545  1.00  0.00     0.034 A 
ATOM     23  C   UNL A   1      37.182  23.594  25.323  1.00  0.00     0.023 A 
BRANCH  19  24
ATOM     24  O   UNL A   1      34.084  21.037  26.197  1.00  0.00    -0.480 OA
ATOM     25  C   UNL A   1      33.772  20.169  25.109  1.00  0.00     0.280 C 
ENDBRANCH  19  24
ENDBRANCH  16  18
ENDBRANCH  13  16
ENDBRANCH   7  13
ENDBRANCH   3   6
ENDBRANCH   1   2
BRANCH   1  26
ATOM     26  C   UNL A   1      32.377  30.079  27.110  1.00  0.00     0.023 C 
BRANCH  26  27
ATOM     27  C   UNL A   1      32.105  31.561  26.832  1.00  0.00     0.023 C 
BRANCH  27  28
ATOM     28  C   UNL A   1      33.053  32.535  27.525  1.00  0.00     0.116 C 
BRANCH  28  29
ATOM     29  N   UNL A   1      32.535  33.885  27.672  1.00  0.00    -0.352 N 
ATOM     30  C   UNL A   1      33.012  34.853  28.533  1.00  0.00     0.251 C 
ATOM     31  H   UNL A   1      31.771  34.133  27.104  1.00  0.00     0.163 HD
ATOM     32  O   UNL A   1      32.462  35.942  28.643  1.00  0.00    -0.269 OA
BRANCH  30  33
ATOM     33  C   UNL A   1      34.180  34.513  29.369  1.00  0.00     0.039 A 
ATOM     34  C   UNL A   1      33.969  33.994  30.648  1.00  0.00     0.014 A 
ATOM     35  C   UNL A   1      35.466  34.578  28.826  1.00  0.00     0.014 A 
ATOM     36  C   UNL A   1      35.047  33.453  31.352  1.00  0.00     0.010 A 
ATOM     37  C   UNL A   1      36.521  33.972  29.497  1.00  0.00     0.010 A 
ATOM     38  C   UNL A   1      36.320  33.394  30.761  1.00  0.00    -0.014 A 
BRANCH  38  39
ATOM     39  C   UNL A   1      37.453  32.718  31.441  1.00  0.00     0.031 A 
ATOM     40  C   UNL A   1      38.127  31.546  30.786  1.00  0.00     0.074 A 
ATOM     41  C   UNL A   1      37.821  33.107  32.677  1.00  0.00     0.049 A 
ATOM     42  N   UNL A   1      39.081  30.776  31.245  1.00  0.00    -0.248 NA
ATOM     43  C   UNL A   1      37.639  31.167  29.451  1.00  0.00     0.031 C 
ATOM     44  C   UNL A   1      37.202  34.188  33.445  1.00  0.00     0.029 A 
ATOM     45  N   UNL A   1      38.800  32.628  33.512  1.00  0.00    -0.354 N 
ATOM     46  C   UNL A   1      39.292  29.816  30.266  1.00  0.00     0.074 A 
ATOM     47  C   UNL A   1      38.331  30.063  29.214  1.00  0.00     0.031 C 
ATOM     48  C   UNL A   1      37.830  34.306  34.626  1.00  0.00     0.029 A 
ATOM     49  C   UNL A   1      38.876  33.292  34.712  1.00  0.00     0.049 A 
ATOM     50  H   UNL A   1      39.393  31.880  33.273  1.00  0.00     0.167 HD
ATOM     51  C   UNL A   1      40.221  28.832  30.236  1.00  0.00     0.037 A 
ATOM     52  C   UNL A   1      39.698  33.104  35.762  1.00  0.00     0.037 A 
ATOM     53  C   UNL A   1      41.202  28.613  31.266  1.00  0.00     0.049 A 
ATOM     54  C   UNL A   1      40.741  32.021  35.691  1.00  0.00     0.074 A 
ATOM     55  C   UNL A   1      42.230  27.689  31.296  1.00  0.00     0.029 A 
ATOM     56  N   UNL A   1      41.272  29.332  32.449  1.00  0.00    -0.354 N 
ATOM     57  N   UNL A   1      40.983  31.167  34.726  1.00  0.00    -0.248 NA
ATOM     58  C   UNL A   1      41.633  31.882  36.851  1.00  0.00     0.031 C 
ATOM     59  C   UNL A   1      42.905  27.828  32.514  1.00  0.00     0.029 A 
ATOM     60  C   UNL A   1      42.322  28.864  33.224  1.00  0.00     0.049 A 
ATOM     61  H   UNL A   1      40.668  30.067  32.701  1.00  0.00     0.167 HD
ATOM     62  C   UNL A   1      42.066  30.409  35.148  1.00  0.00     0.074 A 
ATOM     63  C   UNL A   1      42.445  30.913  36.452  1.00  0.00     0.031 C 
ATOM     64  C   UNL A   1      42.691  29.388  34.513  1.00  0.00     0.037 A 
BRANCH  51  65
ATOM     65  C   UNL A   1      40.230  27.928  29.039  1.00  0.00     0.064 A 
ATOM     66  C   UNL A   1      40.958  28.249  27.883  1.00  0.00     0.173 A 
ATOM     67  C   UNL A   1      39.522  26.717  29.054  1.00  0.00     0.173 A 
ATOM     68  F   UNL A   1      41.639  29.403  27.814  1.00  0.00    -0.203 F 
ATOM     69  C   UNL A   1      40.951  27.406  26.775  1.00  0.00     0.198 A 
ATOM     70  C   UNL A   1      39.542  25.862  27.955  1.00  0.00     0.198 A 
ATOM     71  F   UNL A   1      38.814  26.361  30.136  1.00  0.00    -0.203 F 
ATOM     72  F   UNL A   1      41.612  27.760  25.663  1.00  0.00    -0.200 F 
ATOM     73  C   UNL A   1      40.249  26.211  26.814  1.00  0.00     0.200 A 
ATOM     74  F   UNL A   1      38.871  24.703  27.998  1.00  0.00    -0.200 F 
ATOM     75  F   UNL A   1      40.248  25.399  25.748  1.00  0.00    -0.200 F 
ENDBRANCH  51  65
BRANCH  52  76
ATOM     76  C   UNL A   1      39.598  33.983  36.955  1.00  0.00     0.064 A 
ATOM     77  C   UNL A   1      38.837  33.598  38.067  1.00  0.00     0.173 A 
ATOM     78  C   UNL A   1      40.252  35.222  37.009  1.00  0.00     0.173 A 
ATOM     79  F   UNL A   1      38.177  32.430  38.054  1.00  0.00    -0.203 F 
ATOM     80  C   UNL A   1      38.715  34.427  39.180  1.00  0.00     0.198 A 
ATOM     81  C   UNL A   1      40.150  36.040  38.133  1.00  0.00     0.198 A 
ATOM     82  F   UNL A   1      40.997  35.634  35.974  1.00  0.00    -0.203 F 
ATOM     83  F   UNL A   1      37.945  34.053  40.211  1.00  0.00    -0.200 F 
ATOM     84  C   UNL A   1      39.375  35.646  39.214  1.00  0.00     0.200 A 
ATOM     85  F   UNL A   1      40.800  37.212  38.168  1.00  0.00    -0.200 F 
ATOM     86  F   UNL A   1      39.260  36.443  40.285  1.00  0.00    -0.200 F 
ENDBRANCH  52  76
BRANCH  64  87
ATOM     87  C   UNL A   1      43.871  28.770  35.202  1.00  0.00     0.064 A 
ATOM     88  C   UNL A   1      43.721  27.709  36.106  1.00  0.00     0.173 A 
ATOM     89  C   UNL A   1      45.171  29.216  34.916  1.00  0.00     0.173 A 
ATOM     90  F   UNL A   1      42.496  27.260  36.422  1.00  0.00    -0.203 F 
ATOM     91  C   UNL A   1      44.830  27.128  36.714  1.00  0.00     0.198 A 
ATOM     92  C   UNL A   1      46.278  28.614  35.506  1.00  0.00     0.198 A 
ATOM     93  F   UNL A   1      45.366  30.224  34.053  1.00  0.00    -0.203 F 
ATOM     94  F   UNL A   1      44.662  26.141  37.606  1.00  0.00    -0.200 F 
ATOM     95  C   UNL A   1      46.107  27.575  36.409  1.00  0.00     0.200 A 
ATOM     96  F   UNL A   1      47.512  29.040  35.202  1.00  0.00    -0.200 F 
ATOM     97  F   UNL A   1      47.173  27.008  36.991  1.00  0.00    -0.200 F 
ENDBRANCH  64  87
ENDBRANCH  38  39
ENDBRANCH  30  33
ENDBRANCH  28  29
ENDBRANCH  27  28
ENDBRANCH  26  27
ENDBRANCH   1  26
TORSDOF 15
ENDMDL
MODEL 2
REMARK VINA RESULT:     -12.5      0.600      7.378
REMARK SMILES COc1ncccc1NS(=O)(=O)c1ccc(Br)c(C(=O)NCCCCNC(=O)c2ccc(-c3c4nc(c(-c5c(F)c(F)c(F)c(F)c5F)c5ccc([nH]5)c(-c5c(F)c(F)c(F)c(F)c5F)c5nc(c(-c6c(F)c(F)c(F)c(F)c6F)c6ccc3[nH]6)C=C5)C=C4)cc2)c1
REMARK SMILES IDX 22 1 21 2 19 3 20 4 18 6 13 7 14 8 92 9 15 10 16 11 17 12
REMARK SMILES IDX 10 13 11 14 12 15 9 16 8 18 3 19 4 20 5 21 7 22 6 23 2 24
REMARK SMILES IDX 1 25 23 26 24 27 25 28 26 29 27 30 28 32 29 33 30 34 91 35
REMARK SMILES IDX 31 36 90 37 32 38 33 39 34 40 84 41 35 42 89 43 83 44 85 45
REMARK SMILES IDX 36 46 88 47 82 48 81 49 37 51 69 52 49 53 68 54 50 55 53 56
REMARK SMILES IDX 67 57 86 58 51 59 52 60 66 62 87 63 54 64 38 65 39 66 47 67
REMARK SMILES IDX 40 68 41 69 45 70 48 71 42 72 43 73 46 74 44 75 70 76 71 77
REMARK SMILES IDX 79 78 72 79 73 80 77 81 80 82 74 83 75 84 78 85 76 86 55 87
REMARK SMILES IDX 56 88 64 89 57 90 58 91 62 92 65 93 59 94 60 95 63 96 61 97
REMARK H PARENT 21 5 9 17 26 31 85 50 53 61
REMARK Flexibility Score: inf
ROOT
ATOM      1  C   UNL A   1      33.506  29.679  26.631  1.00  0.00     0.116 C 
ENDROOT
BRANCH   1   2
ATOM      2  N   UNL A   1      33.659  29.521  25.204  1.00  0.00    -0.352 N 
ATOM      3  C   UNL A   1      33.002  28.968  24.148  1.00  0.00     0.252 C 
ATOM      4  O   UNL A   1      33.531  29.245  23.062  1.00  0.00    -0.269 OA
ATOM      5  H   UNL A   1      34.495  29.943  24.901  1.00  0.00     0.163 HD
BRANCH   3   6
ATOM      6  C   UNL A   1      31.828  28.037  24.124  1.00  0.00     0.055 A 
ATOM      7  C   UNL A   1      31.245  25.675  24.699  1.00  0.00     0.088 A 
ATOM      8  C   UNL A   1      29.942  25.908  24.316  1.00  0.00     0.023 A 
ATOM      9  C   UNL A   1      32.147  26.755  24.662  1.00  0.00     0.037 A 
ATOM     10  C   UNL A   1      29.597  27.143  23.766  1.00  0.00     0.018 A 
ATOM     11  C   UNL A   1      30.541  28.177  23.599  1.00  0.00     0.030 A 
ATOM     12  Br  UNL A   1      29.914  29.518  22.424  1.00  0.00    -0.050 Br
BRANCH   7  13
ATOM     13  S   UNL A   1      31.973  24.085  25.060  1.00  0.00     0.262 S 
ATOM     14  O   UNL A   1      32.593  23.638  23.828  1.00  0.00    -0.201 OA
ATOM     15  O   UNL A   1      30.910  23.302  25.657  1.00  0.00    -0.201 OA
BRANCH  13  16
ATOM     16  N   UNL A   1      33.226  24.087  26.203  1.00  0.00    -0.274 N 
ATOM     17  H   UNL A   1      33.095  24.560  27.056  1.00  0.00     0.180 HD
BRANCH  16  18
ATOM     18  C   UNL A   1      34.466  23.421  25.959  1.00  0.00     0.111 A 
ATOM     19  C   UNL A   1      34.687  22.051  26.135  1.00  0.00     0.238 A 
ATOM     20  N   UNL A   1      35.894  21.467  25.960  1.00  0.00    -0.220 NA
ATOM     21  C   UNL A   1      36.914  22.272  25.583  1.00  0.00     0.115 A 
ATOM     22  C   UNL A   1      35.535  24.215  25.548  1.00  0.00     0.034 A 
ATOM     23  C   UNL A   1      36.784  23.633  25.359  1.00  0.00     0.023 A 
BRANCH  19  24
ATOM     24  O   UNL A   1      33.619  21.258  26.475  1.00  0.00    -0.480 OA
ATOM     25  C   UNL A   1      33.352  20.225  25.529  1.00  0.00     0.280 C 
ENDBRANCH  19  24
ENDBRANCH  16  18
ENDBRANCH  13  16
ENDBRANCH   7  13
ENDBRANCH   3   6
ENDBRANCH   1   2
BRANCH   1  26
ATOM     26  C   UNL A   1      32.125  30.151  27.079  1.00  0.00     0.023 C 
BRANCH  26  27
ATOM     27  C   UNL A   1      31.882  31.639  26.809  1.00  0.00     0.023 C 
BRANCH  27  28
ATOM     28  C   UNL A   1      32.941  32.582  27.374  1.00  0.00     0.116 C 
BRANCH  28  29
ATOM     29  N   UNL A   1      32.476  33.937  27.623  1.00  0.00    -0.352 N 
ATOM     30  C   UNL A   1      32.996  34.821  28.545  1.00  0.00     0.251 C 
ATOM     31  H   UNL A   1      31.718  34.254  27.082  1.00  0.00     0.163 HD
ATOM     32  O   UNL A   1      32.489  35.920  28.739  1.00  0.00    -0.269 OA
BRANCH  30  33
ATOM     33  C   UNL A   1      34.157  34.379  29.343  1.00  0.00     0.039 A 
ATOM     34  C   UNL A   1      33.936  33.645  30.510  1.00  0.00     0.014 A 
ATOM     35  C   UNL A   1      35.452  34.571  28.853  1.00  0.00     0.014 A 
ATOM     36  C   UNL A   1      35.015  33.024  31.141  1.00  0.00     0.010 A 
ATOM     37  C   UNL A   1      36.512  33.892  29.441  1.00  0.00     0.010 A 
ATOM     38  C   UNL A   1      36.303  33.102  30.583  1.00  0.00    -0.014 A 
BRANCH  38  39
ATOM     39  C   UNL A   1      37.442  32.354  31.169  1.00  0.00     0.031 A 
ATOM     40  C   UNL A   1      37.957  32.721  32.531  1.00  0.00     0.074 A 
ATOM     41  C   UNL A   1      38.060  31.400  30.445  1.00  0.00     0.049 A 
ATOM     42  N   UNL A   1      38.984  32.240  33.186  1.00  0.00    -0.248 NA
ATOM     43  C   UNL A   1      37.245  33.796  33.238  1.00  0.00     0.031 C 
ATOM     44  C   UNL A   1      37.696  30.998  29.086  1.00  0.00     0.029 A 
ATOM     45  N   UNL A   1      39.136  30.603  30.748  1.00  0.00    -0.354 N 
ATOM     46  C   UNL A   1      39.049  32.965  34.368  1.00  0.00     0.074 A 
ATOM     47  C   UNL A   1      37.996  33.956  34.317  1.00  0.00     0.031 C 
ATOM     48  C   UNL A   1      38.517  30.014  28.682  1.00  0.00     0.029 A 
ATOM     49  C   UNL A   1      39.482  29.736  29.740  1.00  0.00     0.049 A 
ATOM     50  H   UNL A   1      39.614  30.647  31.607  1.00  0.00     0.167 HD
ATOM     51  C   UNL A   1      39.894  32.803  35.412  1.00  0.00     0.037 A 
ATOM     52  C   UNL A   1      40.468  28.820  29.679  1.00  0.00     0.037 A 
ATOM     53  C   UNL A   1      40.915  31.792  35.477  1.00  0.00     0.049 A 
ATOM     54  C   UNL A   1      41.376  28.640  30.865  1.00  0.00     0.074 A 
ATOM     55  C   UNL A   1      41.776  31.499  36.519  1.00  0.00     0.029 A 
ATOM     56  N   UNL A   1      41.210  30.906  34.451  1.00  0.00    -0.354 N 
ATOM     57  N   UNL A   1      41.380  29.281  32.009  1.00  0.00    -0.248 NA
ATOM     58  C   UNL A   1      42.413  27.604  30.756  1.00  0.00     0.031 C 
ATOM     59  C   UNL A   1      42.615  30.456  36.113  1.00  0.00     0.029 A 
ATOM     60  C   UNL A   1      42.250  30.072  34.832  1.00  0.00     0.049 A 
ATOM     61  H   UNL A   1      40.749  30.873  33.583  1.00  0.00     0.167 HD
ATOM     62  C   UNL A   1      42.395  28.710  32.764  1.00  0.00     0.074 A 
ATOM     63  C   UNL A   1      42.979  27.661  31.953  1.00  0.00     0.031 C 
ATOM     64  C   UNL A   1      42.807  29.026  34.016  1.00  0.00     0.037 A 
BRANCH  51  65
ATOM     65  C   UNL A   1      39.737  33.733  36.578  1.00  0.00     0.064 A 
ATOM     66  C   UNL A   1      38.914  33.410  37.668  1.00  0.00     0.173 A 
ATOM     67  C   UNL A   1      40.432  34.951  36.618  1.00  0.00     0.173 A 
ATOM     68  F   UNL A   1      38.217  32.264  37.670  1.00  0.00    -0.203 F 
ATOM     69  C   UNL A   1      38.770  34.286  38.741  1.00  0.00     0.198 A 
ATOM     70  C   UNL A   1      40.307  35.811  37.707  1.00  0.00     0.198 A 
ATOM     71  F   UNL A   1      41.234  35.306  35.604  1.00  0.00    -0.203 F 
ATOM     72  F   UNL A   1      37.938  33.977  39.746  1.00  0.00    -0.200 F 
ATOM     73  C   UNL A   1      39.470  35.481  38.763  1.00  0.00     0.200 A 
ATOM     74  F   UNL A   1      40.993  36.962  37.731  1.00  0.00    -0.200 F 
ATOM     75  F   UNL A   1      39.333  36.320  39.798  1.00  0.00    -0.200 F 
ENDBRANCH  51  65
BRANCH  52  76
ATOM     76  C   UNL A   1      40.625  27.974  28.468  1.00  0.00     0.064 A 
ATOM     77  C   UNL A   1      41.400  28.410  27.385  1.00  0.00     0.173 A 
ATOM     78  C   UNL A   1      40.004  26.721  28.365  1.00  0.00     0.173 A 
ATOM     79  F   UNL A   1      41.997  29.610  27.430  1.00  0.00    -0.203 F 
ATOM     80  C   UNL A   1      41.532  27.635  26.234  1.00  0.00     0.198 A 
ATOM     81  C   UNL A   1      40.157  25.935  27.223  1.00  0.00     0.198 A 
ATOM     82  F   UNL A   1      39.256  26.256  29.375  1.00  0.00    -0.203 F 
ATOM     83  F   UNL A   1      42.243  28.095  25.196  1.00  0.00    -0.200 F 
ATOM     84  C   UNL A   1      40.914  26.396  26.156  1.00  0.00     0.200 A 
ATOM     85  F   UNL A   1      39.568  24.733  27.156  1.00  0.00    -0.200 F 
ATOM     86  F   UNL A   1      41.041  25.650  25.051  1.00  0.00    -0.200 F 
ENDBRANCH  52  76
BRANCH  64  87
ATOM     87  C   UNL A   1      43.919  28.207  34.600  1.00  0.00     0.064 A 
ATOM     88  C   UNL A   1      45.255  28.624  34.528  1.00  0.00     0.173 A 
ATOM     89  C   UNL A   1      43.636  27.013  35.282  1.00  0.00     0.173 A 
ATOM     90  F   UNL A   1      45.576  29.750  33.872  1.00  0.00    -0.203 F 
ATOM     91  C   UNL A   1      46.272  27.865  35.101  1.00  0.00     0.198 A 
ATOM     92  C   UNL A   1      44.652  26.271  35.877  1.00  0.00     0.198 A 
ATOM     93  F   UNL A   1      42.372  26.576  35.384  1.00  0.00    -0.203 F 
ATOM     94  F   UNL A   1      47.547  28.261  34.985  1.00  0.00    -0.200 F 
ATOM     95  C   UNL A   1      45.969  26.694  35.781  1.00  0.00     0.200 A 
ATOM     96  F   UNL A   1      44.357  25.146  36.543  1.00  0.00    -0.200 F 
ATOM     97  F   UNL A   1      46.949  25.971  36.339  1.00  0.00    -0.200 F 
ENDBRANCH  64  87
ENDBRANCH  38  39
ENDBRANCH  30  33
ENDBRANCH  28  29
ENDBRANCH  27  28
ENDBRANCH  26  27
ENDBRANCH   1  26
TORSDOF 15
ENDMDL
MODEL 3
REMARK VINA RESULT:     -12.3      0.627      2.035
REMARK SMILES COc1ncccc1NS(=O)(=O)c1ccc(Br)c(C(=O)NCCCCNC(=O)c2ccc(-c3c4nc(c(-c5c(F)c(F)c(F)c(F)c5F)c5ccc([nH]5)c(-c5c(F)c(F)c(F)c(F)c5F)c5nc(c(-c6c(F)c(F)c(F)c(F)c6F)c6ccc3[nH]6)C=C5)C=C4)cc2)c1
REMARK SMILES IDX 22 1 21 2 19 3 20 4 18 6 13 7 14 8 92 9 15 10 16 11 17 12
REMARK SMILES IDX 10 13 11 14 12 15 9 16 8 18 3 19 4 20 5 21 7 22 6 23 2 24
REMARK SMILES IDX 1 25 23 26 24 27 25 28 26 29 27 30 28 32 29 33 30 34 91 35
REMARK SMILES IDX 31 36 90 37 32 38 33 39 34 40 84 41 35 42 89 43 83 44 85 45
REMARK SMILES IDX 36 46 88 47 82 48 81 49 37 51 69 52 49 53 68 54 50 55 53 56
REMARK SMILES IDX 67 57 86 58 51 59 52 60 66 62 87 63 54 64 38 65 39 66 47 67
REMARK SMILES IDX 40 68 41 69 45 70 48 71 42 72 43 73 46 74 44 75 70 76 71 77
REMARK SMILES IDX 79 78 72 79 73 80 77 81 80 82 74 83 75 84 78 85 76 86 55 87
REMARK SMILES IDX 56 88 64 89 57 90 58 91 62 92 65 93 59 94 60 95 63 96 61 97
REMARK H PARENT 21 5 9 17 26 31 85 50 53 61
REMARK Flexibility Score: inf
ROOT
ATOM      1  C   UNL A   1      33.814  29.432  26.849  1.00  0.00     0.116 C 
ENDROOT
BRANCH   1   2
ATOM      2  N   UNL A   1      34.043  29.146  25.452  1.00  0.00    -0.352 N 
ATOM      3  C   UNL A   1      33.435  28.512  24.412  1.00  0.00     0.252 C 
ATOM      4  O   UNL A   1      34.028  28.685  23.338  1.00  0.00    -0.269 OA
ATOM      5  H   UNL A   1      34.902  29.529  25.161  1.00  0.00     0.163 HD
BRANCH   3   6
ATOM      6  C   UNL A   1      32.247  27.600  24.402  1.00  0.00     0.055 A 
ATOM      7  C   UNL A   1      31.625  25.259  25.023  1.00  0.00     0.088 A 
ATOM      8  C   UNL A   1      30.327  25.505  24.630  1.00  0.00     0.023 A 
ATOM      9  C   UNL A   1      32.544  26.324  24.967  1.00  0.00     0.037 A 
ATOM     10  C   UNL A   1      30.004  26.734  24.053  1.00  0.00     0.018 A 
ATOM     11  C   UNL A   1      30.964  27.749  23.870  1.00  0.00     0.030 A 
ATOM     12  Br  UNL A   1      30.362  29.075  22.665  1.00  0.00    -0.050 Br
BRANCH   7  13
ATOM     13  S   UNL A   1      32.326  23.665  25.418  1.00  0.00     0.262 S 
ATOM     14  O   UNL A   1      31.217  22.831  25.834  1.00  0.00    -0.201 OA
ATOM     15  O   UNL A   1      33.409  23.940  26.342  1.00  0.00    -0.201 OA
BRANCH  13  16
ATOM     16  N   UNL A   1      33.040  22.830  24.126  1.00  0.00    -0.274 N 
ATOM     17  H   UNL A   1      32.497  22.626  23.329  1.00  0.00     0.180 HD
BRANCH  16  18
ATOM     18  C   UNL A   1      34.406  22.415  24.162  1.00  0.00     0.111 A 
ATOM     19  C   UNL A   1      34.882  21.290  24.843  1.00  0.00     0.238 A 
ATOM     20  N   UNL A   1      36.194  20.965  24.911  1.00  0.00    -0.220 NA
ATOM     21  C   UNL A   1      37.060  21.782  24.269  1.00  0.00     0.115 A 
ATOM     22  C   UNL A   1      35.325  23.220  23.492  1.00  0.00     0.034 A 
ATOM     23  C   UNL A   1      36.678  22.902  23.548  1.00  0.00     0.023 A 
BRANCH  19  24
ATOM     24  O   UNL A   1      33.970  20.459  25.446  1.00  0.00    -0.480 OA
ATOM     25  C   UNL A   1      33.531  19.390  24.609  1.00  0.00     0.280 C 
ENDBRANCH  19  24
ENDBRANCH  16  18
ENDBRANCH  13  16
ENDBRANCH   7  13
ENDBRANCH   3   6
ENDBRANCH   1   2
BRANCH   1  26
ATOM     26  C   UNL A   1      32.405  29.915  27.182  1.00  0.00     0.023 C 
BRANCH  26  27
ATOM     27  C   UNL A   1      32.168  31.381  26.803  1.00  0.00     0.023 C 
BRANCH  27  28
ATOM     28  C   UNL A   1      33.112  32.381  27.465  1.00  0.00     0.116 C 
BRANCH  28  29
ATOM     29  N   UNL A   1      32.572  33.724  27.603  1.00  0.00    -0.352 N 
ATOM     30  C   UNL A   1      33.023  34.700  28.469  1.00  0.00     0.251 C 
ATOM     31  H   UNL A   1      31.812  33.960  27.024  1.00  0.00     0.163 HD
ATOM     32  O   UNL A   1      32.456  35.781  28.570  1.00  0.00    -0.269 OA
BRANCH  30  33
ATOM     33  C   UNL A   1      34.185  34.379  29.321  1.00  0.00     0.039 A 
ATOM     34  C   UNL A   1      33.966  33.801  30.573  1.00  0.00     0.014 A 
ATOM     35  C   UNL A   1      35.479  34.519  28.814  1.00  0.00     0.014 A 
ATOM     36  C   UNL A   1      35.050  33.280  31.284  1.00  0.00     0.010 A 
ATOM     37  C   UNL A   1      36.544  33.934  29.489  1.00  0.00     0.010 A 
ATOM     38  C   UNL A   1      36.338  33.299  30.724  1.00  0.00    -0.014 A 
BRANCH  38  39
ATOM     39  C   UNL A   1      37.483  32.646  31.407  1.00  0.00     0.031 A 
ATOM     40  C   UNL A   1      38.200  31.506  30.741  1.00  0.00     0.074 A 
ATOM     41  C   UNL A   1      37.825  33.026  32.653  1.00  0.00     0.049 A 
ATOM     42  N   UNL A   1      39.172  30.758  31.199  1.00  0.00    -0.248 NA
ATOM     43  C   UNL A   1      37.739  31.135  29.394  1.00  0.00     0.031 C 
ATOM     44  C   UNL A   1      37.164  34.075  33.431  1.00  0.00     0.029 A 
ATOM     45  N   UNL A   1      38.808  32.563  33.492  1.00  0.00    -0.354 N 
ATOM     46  C   UNL A   1      39.423  29.821  30.207  1.00  0.00     0.074 A 
ATOM     47  C   UNL A   1      38.468  30.056  29.147  1.00  0.00     0.031 C 
ATOM     48  C   UNL A   1      37.775  34.193  34.622  1.00  0.00     0.029 A 
ATOM     49  C   UNL A   1      38.850  33.210  34.703  1.00  0.00     0.049 A 
ATOM     50  H   UNL A   1      39.426  31.837  33.248  1.00  0.00     0.167 HD
ATOM     51  C   UNL A   1      40.382  28.867  30.172  1.00  0.00     0.037 A 
ATOM     52  C   UNL A   1      39.666  33.029  35.760  1.00  0.00     0.037 A 
ATOM     53  C   UNL A   1      41.357  28.660  31.210  1.00  0.00     0.049 A 
ATOM     54  C   UNL A   1      40.742  31.979  35.683  1.00  0.00     0.074 A 
ATOM     55  C   UNL A   1      42.413  27.767  31.238  1.00  0.00     0.029 A 
ATOM     56  N   UNL A   1      41.392  29.361  32.406  1.00  0.00    -0.354 N 
ATOM     57  N   UNL A   1      41.020  31.149  34.708  1.00  0.00    -0.248 NA
ATOM     58  C   UNL A   1      41.624  31.848  36.852  1.00  0.00     0.031 C 
ATOM     59  C   UNL A   1      43.069  27.906  32.466  1.00  0.00     0.029 A 
ATOM     60  C   UNL A   1      42.446  28.912  33.185  1.00  0.00     0.049 A 
ATOM     61  H   UNL A   1      40.763  30.073  32.662  1.00  0.00     0.167 HD
ATOM     62  C   UNL A   1      42.122  30.418  35.131  1.00  0.00     0.074 A 
ATOM     63  C   UNL A   1      42.470  30.911  36.447  1.00  0.00     0.031 C 
ATOM     64  C   UNL A   1      42.784  29.426  34.487  1.00  0.00     0.037 A 
BRANCH  51  65
ATOM     65  C   UNL A   1      40.432  27.983  28.961  1.00  0.00     0.064 A 
ATOM     66  C   UNL A   1      39.702  26.786  28.897  1.00  0.00     0.173 A 
ATOM     67  C   UNL A   1      41.198  28.345  27.843  1.00  0.00     0.173 A 
ATOM     68  F   UNL A   1      38.965  26.388  29.946  1.00  0.00    -0.203 F 
ATOM     69  C   UNL A   1      39.762  25.969  27.771  1.00  0.00     0.198 A 
ATOM     70  C   UNL A   1      41.233  27.540  26.708  1.00  0.00     0.198 A 
ATOM     71  F   UNL A   1      41.912  29.481  27.852  1.00  0.00    -0.203 F 
ATOM     72  F   UNL A   1      39.097  24.806  27.754  1.00  0.00    -0.200 F 
ATOM     73  C   UNL A   1      40.522  26.349  26.676  1.00  0.00     0.200 A 
ATOM     74  F   UNL A   1      41.959  27.914  25.646  1.00  0.00    -0.200 F 
ATOM     75  F   UNL A   1      40.575  25.564  25.591  1.00  0.00    -0.200 F 
ENDBRANCH  51  65
BRANCH  52  76
ATOM     76  C   UNL A   1      39.525  33.885  36.966  1.00  0.00     0.064 A 
ATOM     77  C   UNL A   1      40.116  35.155  37.016  1.00  0.00     0.173 A 
ATOM     78  C   UNL A   1      38.806  33.454  38.089  1.00  0.00     0.173 A 
ATOM     79  F   UNL A   1      40.830  35.602  35.973  1.00  0.00    -0.203 F 
ATOM     80  C   UNL A   1      40.012  35.954  38.153  1.00  0.00     0.198 A 
ATOM     81  C   UNL A   1      38.681  34.264  39.217  1.00  0.00     0.198 A 
ATOM     82  F   UNL A   1      38.218  32.250  38.090  1.00  0.00    -0.203 F 
ATOM     83  F   UNL A   1      40.623  37.146  38.190  1.00  0.00    -0.200 F 
ATOM     84  C   UNL A   1      39.290  35.510  39.251  1.00  0.00     0.200 A 
ATOM     85  F   UNL A   1      37.973  33.837  40.272  1.00  0.00    -0.200 F 
ATOM     86  F   UNL A   1      39.188  36.279  40.343  1.00  0.00    -0.200 F 
ENDBRANCH  52  76
BRANCH  64  87
ATOM     87  C   UNL A   1      43.974  28.832  35.181  1.00  0.00     0.064 A 
ATOM     88  C   UNL A   1      45.267  29.337  34.985  1.00  0.00     0.173 A 
ATOM     89  C   UNL A   1      43.808  27.776  36.090  1.00  0.00     0.173 A 
ATOM     90  F   UNL A   1      45.476  30.336  34.113  1.00  0.00    -0.203 F 
ATOM     91  C   UNL A   1      46.356  28.792  35.659  1.00  0.00     0.198 A 
ATOM     92  C   UNL A   1      44.895  27.252  36.783  1.00  0.00     0.198 A 
ATOM     93  F   UNL A   1      42.589  27.264  36.316  1.00  0.00    -0.203 F 
ATOM     94  F   UNL A   1      47.589  29.262  35.427  1.00  0.00    -0.200 F 
ATOM     95  C   UNL A   1      46.168  27.756  36.562  1.00  0.00     0.200 A 
ATOM     96  F   UNL A   1      44.712  26.258  37.663  1.00  0.00    -0.200 F 
ATOM     97  F   UNL A   1      47.218  27.239  37.216  1.00  0.00    -0.200 F 
ENDBRANCH  64  87
ENDBRANCH  38  39
ENDBRANCH  30  33
ENDBRANCH  28  29
ENDBRANCH  27  28
ENDBRANCH  26  27
ENDBRANCH   1  26
TORSDOF 15
ENDMDL
