MODEL 1
REMARK VINA RESULT:     -12.3      0.000      0.000
REMARK SMILES O=C(NCCCCNC(=O)c1ccc(C(F)(F)F)nc1NC[C@@H]1CCOC1)c1ccc(-c2c3nc(c(-c4c(F)c(F)c(F)c(F)c4F)c4ccc([nH]4)c(-c4c(F)c(F)c(F)c(F)c4F)c4nc(c(-c5c(F)c(F)c(F)c(F)c5F)c5ccc2[nH]5)C=C4)C=C3)cc1
REMARK SMILES IDX 6 1 5 2 4 3 3 4 1 5 2 6 28 8 29 9 90 10 30 11 89 12 31 13
REMARK SMILES IDX 32 14 33 15 83 16 34 17 88 18 82 19 84 20 35 21 87 22 81 23
REMARK SMILES IDX 80 24 36 26 68 27 48 28 67 29 49 30 52 31 66 32 85 33 50 34
REMARK SMILES IDX 51 35 65 37 86 38 53 39 37 40 38 41 46 42 39 43 40 44 44 45
REMARK SMILES IDX 47 46 41 47 42 48 45 49 43 50 69 51 70 52 78 53 71 54 72 55
REMARK SMILES IDX 76 56 79 57 73 58 74 59 77 60 75 61 54 62 55 63 63 64 56 65
REMARK SMILES IDX 57 66 61 67 64 68 58 69 59 70 62 71 60 72 7 73 8 74 9 75
REMARK SMILES IDX 10 77 11 78 12 79 20 80 13 81 19 82 14 83 21 84 22 86 23 87
REMARK SMILES IDX 24 88 27 89 25 90 26 91 15 92 16 93 17 94 18 95
REMARK H PARENT 3 7 84 25 52 36 8 76 21 85
REMARK Flexibility Score: inf
ROOT
ATOM      1  C   UNL A   1      31.517  30.496  26.191  1.00  0.00     0.023 C 
ENDROOT
BRANCH   1   2
ATOM      2  C   UNL A   1      31.407  31.991  26.490  1.00  0.00     0.023 C 
BRANCH   2   3
ATOM      3  C   UNL A   1      32.633  32.611  27.149  1.00  0.00     0.116 C 
BRANCH   3   4
ATOM      4  N   UNL A   1      32.405  33.978  27.590  1.00  0.00    -0.352 N 
ATOM      5  O   UNL A   1      32.614  35.800  28.900  1.00  0.00    -0.269 OA
ATOM      6  C   UNL A   1      33.055  34.707  28.553  1.00  0.00     0.251 C 
ATOM      7  H   UNL A   1      31.674  34.450  27.129  1.00  0.00     0.163 HD
BRANCH   6   8
ATOM      8  C   UNL A   1      34.273  34.171  29.195  1.00  0.00     0.039 A 
ATOM      9  C   UNL A   1      35.544  34.518  28.730  1.00  0.00     0.014 A 
ATOM     10  C   UNL A   1      34.135  33.316  30.292  1.00  0.00     0.014 A 
ATOM     11  C   UNL A   1      36.672  33.910  29.273  1.00  0.00     0.010 A 
ATOM     12  C   UNL A   1      35.271  32.767  30.887  1.00  0.00     0.010 A 
ATOM     13  C   UNL A   1      36.546  33.036  30.363  1.00  0.00    -0.014 A 
BRANCH  13  14
ATOM     14  C   UNL A   1      37.751  32.439  30.990  1.00  0.00     0.031 A 
ATOM     15  C   UNL A   1      38.499  31.331  30.309  1.00  0.00     0.074 A 
ATOM     16  C   UNL A   1      38.140  32.871  32.204  1.00  0.00     0.049 A 
ATOM     17  N   UNL A   1      39.499  30.612  30.750  1.00  0.00    -0.248 NA
ATOM     18  C   UNL A   1      38.056  30.977  28.953  1.00  0.00     0.031 C 
ATOM     19  C   UNL A   1      37.494  33.943  32.962  1.00  0.00     0.029 A 
ATOM     20  N   UNL A   1      39.159  32.451  33.022  1.00  0.00    -0.354 N 
ATOM     21  C   UNL A   1      39.789  29.704  29.740  1.00  0.00     0.074 A 
ATOM     22  C   UNL A   1      38.841  29.945  28.674  1.00  0.00     0.031 C 
ATOM     23  C   UNL A   1      38.128  34.095  34.133  1.00  0.00     0.029 A 
ATOM     24  C   UNL A   1      39.181  33.091  34.235  1.00  0.00     0.049 A 
ATOM     25  H   UNL A   1      39.809  31.758  32.763  1.00  0.00     0.167 HD
ATOM     26  C   UNL A   1      40.759  28.758  29.711  1.00  0.00     0.037 A 
ATOM     27  C   UNL A   1      39.934  32.867  35.328  1.00  0.00     0.037 A 
ATOM     28  C   UNL A   1      41.695  28.528  30.783  1.00  0.00     0.049 A 
ATOM     29  C   UNL A   1      40.968  31.779  35.295  1.00  0.00     0.074 A 
ATOM     30  C   UNL A   1      42.741  27.623  30.837  1.00  0.00     0.029 A 
ATOM     31  N   UNL A   1      41.685  29.197  32.000  1.00  0.00    -0.354 N 
ATOM     32  N   UNL A   1      41.261  30.949  34.324  1.00  0.00    -0.248 NA
ATOM     33  C   UNL A   1      41.779  31.596  36.506  1.00  0.00     0.031 C 
ATOM     34  C   UNL A   1      43.319  27.696  32.108  1.00  0.00     0.029 A 
ATOM     35  C   UNL A   1      42.685  28.701  32.822  1.00  0.00     0.049 A 
ATOM     36  H   UNL A   1      41.060  29.919  32.242  1.00  0.00     0.167 HD
ATOM     37  C   UNL A   1      42.308  30.167  34.792  1.00  0.00     0.074 A 
ATOM     38  C   UNL A   1      42.599  30.622  36.137  1.00  0.00     0.031 C 
ATOM     39  C   UNL A   1      42.973  29.171  34.156  1.00  0.00     0.037 A 
BRANCH  26  40
ATOM     40  C   UNL A   1      40.827  27.871  28.499  1.00  0.00     0.064 A 
ATOM     41  C   UNL A   1      40.135  26.653  28.424  1.00  0.00     0.173 A 
ATOM     42  C   UNL A   1      41.595  28.252  27.386  1.00  0.00     0.173 A 
ATOM     43  F   UNL A   1      39.391  26.235  29.460  1.00  0.00    -0.203 F 
ATOM     44  C   UNL A   1      40.249  25.828  27.308  1.00  0.00     0.198 A 
ATOM     45  C   UNL A   1      41.677  27.443  26.256  1.00  0.00     0.198 A 
ATOM     46  F   UNL A   1      42.269  29.412  27.393  1.00  0.00    -0.203 F 
ATOM     47  F   UNL A   1      39.635  24.636  27.291  1.00  0.00    -0.200 F 
ATOM     48  C   UNL A   1      41.016  26.226  26.223  1.00  0.00     0.200 A 
ATOM     49  F   UNL A   1      42.403  27.838  25.202  1.00  0.00    -0.200 F 
ATOM     50  F   UNL A   1      41.127  25.429  25.151  1.00  0.00    -0.200 F 
ENDBRANCH  26  40
BRANCH  27  51
ATOM     51  C   UNL A   1      39.710  33.695  36.540  1.00  0.00     0.064 A 
ATOM     52  C   UNL A   1      40.303  34.956  36.672  1.00  0.00     0.173 A 
ATOM     53  C   UNL A   1      38.849  33.265  37.561  1.00  0.00     0.173 A 
ATOM     54  F   UNL A   1      41.144  35.403  35.728  1.00  0.00    -0.203 F 
ATOM     55  C   UNL A   1      40.045  35.756  37.784  1.00  0.00     0.198 A 
ATOM     56  C   UNL A   1      38.569  34.078  38.656  1.00  0.00     0.198 A 
ATOM     57  F   UNL A   1      38.248  32.069  37.475  1.00  0.00    -0.203 F 
ATOM     58  F   UNL A   1      40.644  36.949  37.900  1.00  0.00    -0.200 F 
ATOM     59  C   UNL A   1      39.171  35.321  38.769  1.00  0.00     0.200 A 
ATOM     60  F   UNL A   1      37.706  33.662  39.594  1.00  0.00    -0.200 F 
ATOM     61  F   UNL A   1      38.907  36.102  39.826  1.00  0.00    -0.200 F 
ENDBRANCH  27  51
BRANCH  39  62
ATOM     62  C   UNL A   1      44.125  28.531  34.876  1.00  0.00     0.064 A 
ATOM     63  C   UNL A   1      43.972  27.358  35.629  1.00  0.00     0.173 A 
ATOM     64  C   UNL A   1      45.418  29.061  34.739  1.00  0.00     0.173 A 
ATOM     65  F   UNL A   1      42.755  26.822  35.806  1.00  0.00    -0.203 F 
ATOM     66  C   UNL A   1      45.071  26.743  36.224  1.00  0.00     0.198 A 
ATOM     67  C   UNL A   1      46.518  28.425  35.307  1.00  0.00     0.198 A 
ATOM     68  F   UNL A   1      45.618  30.179  34.026  1.00  0.00    -0.203 F 
ATOM     69  F   UNL A   1      44.900  25.640  36.966  1.00  0.00    -0.200 F 
ATOM     70  C   UNL A   1      46.344  27.270  36.052  1.00  0.00     0.200 A 
ATOM     71  F   UNL A   1      47.746  28.928  35.126  1.00  0.00    -0.200 F 
ATOM     72  F   UNL A   1      47.402  26.662  36.606  1.00  0.00    -0.200 F 
ENDBRANCH  39  62
ENDBRANCH  13  14
ENDBRANCH   6   8
ENDBRANCH   3   4
ENDBRANCH   2   3
ENDBRANCH   1   2
BRANCH   1  73
ATOM     73  C   UNL A   1      32.940  29.963  26.049  1.00  0.00     0.116 C 
BRANCH  73  74
ATOM     74  N   UNL A   1      33.301  29.701  24.666  1.00  0.00    -0.352 N 
ATOM     75  C   UNL A   1      33.322  28.504  23.989  1.00  0.00     0.255 C 
ATOM     76  H   UNL A   1      33.569  30.489  24.141  1.00  0.00     0.163 HD
ATOM     77  O   UNL A   1      33.839  28.444  22.875  1.00  0.00    -0.269 OA
BRANCH  75  78
ATOM     78  C   UNL A   1      32.733  27.293  24.597  1.00  0.00     0.082 A 
ATOM     79  C   UNL A   1      33.415  26.635  25.626  1.00  0.00     0.020 A 
ATOM     80  C   UNL A   1      31.479  26.826  24.188  1.00  0.00     0.139 A 
ATOM     81  C   UNL A   1      32.892  25.461  26.150  1.00  0.00     0.034 A 
ATOM     82  N   UNL A   1      30.979  25.676  24.700  1.00  0.00    -0.226 NA
ATOM     83  C   UNL A   1      31.680  24.990  25.651  1.00  0.00     0.146 A 
BRANCH  80  84
ATOM     84  N   UNL A   1      30.760  27.478  23.202  1.00  0.00    -0.369 N 
ATOM     85  H   UNL A   1      31.067  27.404  22.270  1.00  0.00     0.162 HD
BRANCH  84  86
ATOM     86  C   UNL A   1      29.571  28.268  23.481  1.00  0.00     0.120 C 
BRANCH  86  87
ATOM     87  C   UNL A   1      29.841  29.748  23.136  1.00  0.00     0.036 C 
ATOM     88  C   UNL A   1      28.663  30.642  23.479  1.00  0.00     0.036 C 
ATOM     89  C   UNL A   1      29.923  29.964  21.633  1.00  0.00     0.165 C 
ATOM     90  C   UNL A   1      27.750  30.483  22.280  1.00  0.00     0.160 C 
ATOM     91  O   UNL A   1      28.578  30.130  21.164  1.00  0.00    -0.381 OA
ENDBRANCH  86  87
ENDBRANCH  84  86
ENDBRANCH  80  84
BRANCH  83  92
ATOM     92  C   UNL A   1      31.109  23.678  26.173  1.00  0.00     0.433 C 
ATOM     93  F   UNL A   1      29.953  23.841  26.874  1.00  0.00    -0.165 F 
ATOM     94  F   UNL A   1      30.833  22.781  25.184  1.00  0.00    -0.165 F 
ATOM     95  F   UNL A   1      31.960  23.027  27.022  1.00  0.00    -0.165 F 
ENDBRANCH  83  92
ENDBRANCH  75  78
ENDBRANCH  73  74
ENDBRANCH   1  73
TORSDOF 15
ENDMDL
MODEL 2
REMARK VINA RESULT:     -12.2      0.239      1.646
REMARK SMILES O=C(NCCCCNC(=O)c1ccc(C(F)(F)F)nc1NC[C@@H]1CCOC1)c1ccc(-c2c3nc(c(-c4c(F)c(F)c(F)c(F)c4F)c4ccc([nH]4)c(-c4c(F)c(F)c(F)c(F)c4F)c4nc(c(-c5c(F)c(F)c(F)c(F)c5F)c5ccc2[nH]5)C=C4)C=C3)cc1
REMARK SMILES IDX 6 1 5 2 4 3 3 4 1 5 2 6 28 8 29 9 90 10 30 11 89 12 31 13
REMARK SMILES IDX 32 14 33 15 83 16 34 17 88 18 82 19 84 20 35 21 87 22 81 23
REMARK SMILES IDX 80 24 36 26 68 27 48 28 67 29 49 30 52 31 66 32 85 33 50 34
REMARK SMILES IDX 51 35 65 37 86 38 53 39 37 40 38 41 46 42 39 43 40 44 44 45
REMARK SMILES IDX 47 46 41 47 42 48 45 49 43 50 69 51 70 52 78 53 71 54 72 55
REMARK SMILES IDX 76 56 79 57 73 58 74 59 77 60 75 61 54 62 55 63 63 64 56 65
REMARK SMILES IDX 57 66 61 67 64 68 58 69 59 70 62 71 60 72 7 73 8 74 9 75
REMARK SMILES IDX 10 77 11 78 12 79 20 80 13 81 19 82 14 83 21 84 22 86 23 87
REMARK SMILES IDX 24 88 27 89 25 90 26 91 15 92 16 93 17 94 18 95
REMARK H PARENT 3 7 84 25 52 36 8 76 21 85
REMARK Flexibility Score: inf
ROOT
ATOM      1  C   UNL A   1      31.446  30.546  26.220  1.00  0.00     0.023 C 
ENDROOT
BRANCH   1   2
ATOM      2  C   UNL A   1      31.356  32.049  26.482  1.00  0.00     0.023 C 
BRANCH   2   3
ATOM      3  C   UNL A   1      32.558  32.652  27.199  1.00  0.00     0.116 C 
BRANCH   3   4
ATOM      4  N   UNL A   1      32.330  34.024  27.624  1.00  0.00    -0.352 N 
ATOM      5  O   UNL A   1      32.530  35.858  28.920  1.00  0.00    -0.269 OA
ATOM      6  C   UNL A   1      32.971  34.761  28.588  1.00  0.00     0.251 C 
ATOM      7  H   UNL A   1      31.606  34.494  27.151  1.00  0.00     0.163 HD
BRANCH   6   8
ATOM      8  C   UNL A   1      34.179  34.226  29.249  1.00  0.00     0.039 A 
ATOM      9  C   UNL A   1      35.456  34.514  28.757  1.00  0.00     0.014 A 
ATOM     10  C   UNL A   1      34.028  33.436  30.391  1.00  0.00     0.014 A 
ATOM     11  C   UNL A   1      36.571  33.905  29.323  1.00  0.00     0.010 A 
ATOM     12  C   UNL A   1      35.155  32.889  31.006  1.00  0.00     0.010 A 
ATOM     13  C   UNL A   1      36.432  33.095  30.460  1.00  0.00    -0.014 A 
BRANCH  13  14
ATOM     14  C   UNL A   1      37.626  32.500  31.109  1.00  0.00     0.031 A 
ATOM     15  C   UNL A   1      38.380  31.383  30.448  1.00  0.00     0.074 A 
ATOM     16  C   UNL A   1      38.000  32.942  32.323  1.00  0.00     0.049 A 
ATOM     17  N   UNL A   1      39.371  30.665  30.910  1.00  0.00    -0.248 NA
ATOM     18  C   UNL A   1      37.954  31.017  29.090  1.00  0.00     0.031 C 
ATOM     19  C   UNL A   1      37.348  34.024  33.062  1.00  0.00     0.029 A 
ATOM     20  N   UNL A   1      39.006  32.526  33.159  1.00  0.00    -0.354 N 
ATOM     21  C   UNL A   1      39.672  29.746  29.913  1.00  0.00     0.074 A 
ATOM     22  C   UNL A   1      38.738  29.980  28.832  1.00  0.00     0.031 C 
ATOM     23  C   UNL A   1      37.967  34.185  34.239  1.00  0.00     0.029 A 
ATOM     24  C   UNL A   1      39.014  33.178  34.365  1.00  0.00     0.049 A 
ATOM     25  H   UNL A   1      39.658  31.829  32.915  1.00  0.00     0.167 HD
ATOM     26  C   UNL A   1      40.638  28.796  29.906  1.00  0.00     0.037 A 
ATOM     27  C   UNL A   1      39.752  32.962  35.472  1.00  0.00     0.037 A 
ATOM     28  C   UNL A   1      41.559  28.573  30.993  1.00  0.00     0.049 A 
ATOM     29  C   UNL A   1      40.782  31.870  35.463  1.00  0.00     0.074 A 
ATOM     30  C   UNL A   1      42.600  27.666  31.070  1.00  0.00     0.029 A 
ATOM     31  N   UNL A   1      41.535  29.255  32.203  1.00  0.00    -0.354 N 
ATOM     32  N   UNL A   1      41.085  31.030  34.504  1.00  0.00    -0.248 NA
ATOM     33  C   UNL A   1      41.576  31.697  36.687  1.00  0.00     0.031 C 
ATOM     34  C   UNL A   1      43.161  27.749  32.348  1.00  0.00     0.029 A 
ATOM     35  C   UNL A   1      42.521  28.763  33.044  1.00  0.00     0.049 A 
ATOM     36  H   UNL A   1      40.909  29.981  32.429  1.00  0.00     0.167 HD
ATOM     37  C   UNL A   1      42.123  30.249  34.994  1.00  0.00     0.074 A 
ATOM     38  C   UNL A   1      42.397  30.716  36.338  1.00  0.00     0.031 C 
ATOM     39  C   UNL A   1      42.793  29.245  34.377  1.00  0.00     0.037 A 
BRANCH  26  40
ATOM     40  C   UNL A   1      40.720  27.897  28.703  1.00  0.00     0.064 A 
ATOM     41  C   UNL A   1      41.516  28.209  27.591  1.00  0.00     0.173 A 
ATOM     42  C   UNL A   1      39.991  26.697  28.666  1.00  0.00     0.173 A 
ATOM     43  F   UNL A   1      42.229  29.345  27.569  1.00  0.00    -0.203 F 
ATOM     44  C   UNL A   1      41.541  27.383  26.470  1.00  0.00     0.198 A 
ATOM     45  C   UNL A   1      40.047  25.854  27.560  1.00  0.00     0.198 A 
ATOM     46  F   UNL A   1      39.221  26.340  29.705  1.00  0.00    -0.203 F 
ATOM     47  F   UNL A   1      42.254  27.739  25.392  1.00  0.00    -0.200 F 
ATOM     48  C   UNL A   1      40.810  26.204  26.457  1.00  0.00     0.200 A 
ATOM     49  F   UNL A   1      39.354  24.707  27.557  1.00  0.00    -0.200 F 
ATOM     50  F   UNL A   1      40.832  25.411  25.376  1.00  0.00    -0.200 F 
ENDBRANCH  26  40
BRANCH  27  51
ATOM     51  C   UNL A   1      39.514  33.803  36.672  1.00  0.00     0.064 A 
ATOM     52  C   UNL A   1      38.714  33.346  37.726  1.00  0.00     0.173 A 
ATOM     53  C   UNL A   1      40.132  35.055  36.812  1.00  0.00     0.173 A 
ATOM     54  F   UNL A   1      38.092  32.162  37.631  1.00  0.00    -0.203 F 
ATOM     55  C   UNL A   1      38.538  34.113  38.877  1.00  0.00     0.198 A 
ATOM     56  C   UNL A   1      39.980  35.806  37.975  1.00  0.00     0.198 A 
ATOM     57  F   UNL A   1      40.917  35.531  35.834  1.00  0.00    -0.203 F 
ATOM     58  F   UNL A   1      37.748  33.665  39.862  1.00  0.00    -0.200 F 
ATOM     59  C   UNL A   1      39.180  35.336  39.005  1.00  0.00     0.200 A 
ATOM     60  F   UNL A   1      40.620  36.977  38.103  1.00  0.00    -0.200 F 
ATOM     61  F   UNL A   1      39.028  36.061  40.121  1.00  0.00    -0.200 F 
ENDBRANCH  27  51
BRANCH  39  62
ATOM     62  C   UNL A   1      43.933  28.608  35.119  1.00  0.00     0.064 A 
ATOM     63  C   UNL A   1      43.750  27.492  35.948  1.00  0.00     0.173 A 
ATOM     64  C   UNL A   1      45.242  29.078  34.928  1.00  0.00     0.173 A 
ATOM     65  F   UNL A   1      42.517  27.016  36.177  1.00  0.00    -0.203 F 
ATOM     66  C   UNL A   1      44.835  26.874  36.563  1.00  0.00     0.198 A 
ATOM     67  C   UNL A   1      46.327  28.438  35.519  1.00  0.00     0.198 A 
ATOM     68  F   UNL A   1      45.471  30.139  34.142  1.00  0.00    -0.203 F 
ATOM     69  F   UNL A   1      44.636  25.828  37.377  1.00  0.00    -0.200 F 
ATOM     70  C   UNL A   1      46.123  27.340  36.339  1.00  0.00     0.200 A 
ATOM     71  F   UNL A   1      47.570  28.880  35.287  1.00  0.00    -0.200 F 
ATOM     72  F   UNL A   1      47.168  26.728  36.914  1.00  0.00    -0.200 F 
ENDBRANCH  39  62
ENDBRANCH  13  14
ENDBRANCH   6   8
ENDBRANCH   3   4
ENDBRANCH   2   3
ENDBRANCH   1   2
BRANCH   1  73
ATOM     73  C   UNL A   1      32.858  29.997  26.044  1.00  0.00     0.116 C 
BRANCH  73  74
ATOM     74  N   UNL A   1      33.179  29.721  24.653  1.00  0.00    -0.352 N 
ATOM     75  C   UNL A   1      33.183  28.517  23.989  1.00  0.00     0.255 C 
ATOM     76  H   UNL A   1      33.429  30.504  24.112  1.00  0.00     0.163 HD
ATOM     77  O   UNL A   1      33.667  28.446  22.861  1.00  0.00    -0.269 OA
BRANCH  75  78
ATOM     78  C   UNL A   1      32.616  27.311  24.628  1.00  0.00     0.082 A 
ATOM     79  C   UNL A   1      33.317  26.682  25.661  1.00  0.00     0.020 A 
ATOM     80  C   UNL A   1      31.363  26.821  24.241  1.00  0.00     0.139 A 
ATOM     81  C   UNL A   1      32.814  25.513  26.214  1.00  0.00     0.034 A 
ATOM     82  N   UNL A   1      30.883  25.676  24.782  1.00  0.00    -0.226 NA
ATOM     83  C   UNL A   1      31.602  25.017  25.739  1.00  0.00     0.146 A 
BRANCH  80  84
ATOM     84  N   UNL A   1      30.625  27.445  23.251  1.00  0.00    -0.369 N 
ATOM     85  H   UNL A   1      30.898  27.322  22.314  1.00  0.00     0.162 HD
BRANCH  84  86
ATOM     86  C   UNL A   1      29.463  28.274  23.533  1.00  0.00     0.120 C 
BRANCH  86  87
ATOM     87  C   UNL A   1      29.764  29.736  23.138  1.00  0.00     0.036 C 
ATOM     88  C   UNL A   1      28.626  30.673  23.501  1.00  0.00     0.036 C 
ATOM     89  C   UNL A   1      29.794  29.910  21.628  1.00  0.00     0.165 C 
ATOM     90  C   UNL A   1      27.663  30.511  22.341  1.00  0.00     0.160 C 
ATOM     91  O   UNL A   1      28.439  30.105  21.205  1.00  0.00    -0.381 OA
ENDBRANCH  86  87
ENDBRANCH  84  86
ENDBRANCH  80  84
BRANCH  83  92
ATOM     92  C   UNL A   1      31.053  23.709  26.292  1.00  0.00     0.433 C 
ATOM     93  F   UNL A   1      31.856  23.153  27.242  1.00  0.00    -0.165 F 
ATOM     94  F   UNL A   1      29.822  23.841  26.863  1.00  0.00    -0.165 F 
ATOM     95  F   UNL A   1      30.904  22.746  25.333  1.00  0.00    -0.165 F 
ENDBRANCH  83  92
ENDBRANCH  75  78
ENDBRANCH  73  74
ENDBRANCH   1  73
TORSDOF 15
ENDMDL
MODEL 3
REMARK VINA RESULT:     -12.1      5.881     11.161
REMARK SMILES O=C(NCCCCNC(=O)c1ccc(C(F)(F)F)nc1NC[C@@H]1CCOC1)c1ccc(-c2c3nc(c(-c4c(F)c(F)c(F)c(F)c4F)c4ccc([nH]4)c(-c4c(F)c(F)c(F)c(F)c4F)c4nc(c(-c5c(F)c(F)c(F)c(F)c5F)c5ccc2[nH]5)C=C4)C=C3)cc1
REMARK SMILES IDX 6 1 5 2 4 3 3 4 1 5 2 6 28 8 29 9 90 10 30 11 89 12 31 13
REMARK SMILES IDX 32 14 33 15 83 16 34 17 88 18 82 19 84 20 35 21 87 22 81 23
REMARK SMILES IDX 80 24 36 26 68 27 48 28 67 29 49 30 52 31 66 32 85 33 50 34
REMARK SMILES IDX 51 35 65 37 86 38 53 39 37 40 38 41 46 42 39 43 40 44 44 45
REMARK SMILES IDX 47 46 41 47 42 48 45 49 43 50 69 51 70 52 78 53 71 54 72 55
REMARK SMILES IDX 76 56 79 57 73 58 74 59 77 60 75 61 54 62 55 63 63 64 56 65
REMARK SMILES IDX 57 66 61 67 64 68 58 69 59 70 62 71 60 72 7 73 8 74 9 75
REMARK SMILES IDX 10 77 11 78 12 79 20 80 13 81 19 82 14 83 21 84 22 86 23 87
REMARK SMILES IDX 24 88 27 89 25 90 26 91 15 92 16 93 17 94 18 95
REMARK H PARENT 3 7 84 25 52 36 8 76 21 85
REMARK Flexibility Score: inf
ROOT
ATOM      1  C   UNL A   1      36.867  20.836  24.671  1.00  0.00     0.023 C 
ENDROOT
BRANCH   1   2
ATOM      2  C   UNL A   1      37.934  19.765  24.898  1.00  0.00     0.023 C 
BRANCH   2   3
ATOM      3  C   UNL A   1      39.058  20.164  25.847  1.00  0.00     0.116 C 
BRANCH   3   4
ATOM      4  N   UNL A   1      40.135  19.187  25.886  1.00  0.00    -0.352 N 
ATOM      5  O   UNL A   1      42.261  18.440  25.921  1.00  0.00    -0.269 OA
ATOM      6  C   UNL A   1      41.479  19.374  26.083  1.00  0.00     0.251 C 
ATOM      7  H   UNL A   1      39.857  18.252  25.749  1.00  0.00     0.163 HD
BRANCH   6   8
ATOM      8  C   UNL A   1      41.996  20.704  26.465  1.00  0.00     0.039 A 
ATOM      9  C   UNL A   1      42.265  21.014  27.801  1.00  0.00     0.014 A 
ATOM     10  C   UNL A   1      42.229  21.649  25.463  1.00  0.00     0.014 A 
ATOM     11  C   UNL A   1      42.638  22.309  28.151  1.00  0.00     0.010 A 
ATOM     12  C   UNL A   1      42.678  22.924  25.807  1.00  0.00     0.010 A 
ATOM     13  C   UNL A   1      42.858  23.273  27.156  1.00  0.00    -0.014 A 
BRANCH  13  14
ATOM     14  C   UNL A   1      43.323  24.634  27.519  1.00  0.00     0.031 A 
ATOM     15  C   UNL A   1      42.364  25.648  28.072  1.00  0.00     0.074 A 
ATOM     16  C   UNL A   1      44.608  24.967  27.303  1.00  0.00     0.049 A 
ATOM     17  N   UNL A   1      42.560  26.915  28.337  1.00  0.00    -0.248 NA
ATOM     18  C   UNL A   1      41.000  25.178  28.352  1.00  0.00     0.031 C 
ATOM     19  C   UNL A   1      45.632  24.066  26.773  1.00  0.00     0.029 A 
ATOM     20  N   UNL A   1      45.270  26.156  27.482  1.00  0.00    -0.354 N 
ATOM     21  C   UNL A   1      41.340  27.400  28.791  1.00  0.00     0.074 A 
ATOM     22  C   UNL A   1      40.404  26.297  28.738  1.00  0.00     0.031 C 
ATOM     23  C   UNL A   1      46.791  24.732  26.669  1.00  0.00     0.029 A 
ATOM     24  C   UNL A   1      46.575  26.120  27.060  1.00  0.00     0.049 A 
ATOM     25  H   UNL A   1      44.849  26.955  27.875  1.00  0.00     0.167 HD
ATOM     26  C   UNL A   1      41.035  28.652  29.212  1.00  0.00     0.037 A 
ATOM     27  C   UNL A   1      47.487  27.105  26.956  1.00  0.00     0.037 A 
ATOM     28  C   UNL A   1      41.978  29.740  29.256  1.00  0.00     0.049 A 
ATOM     29  C   UNL A   1      47.115  28.497  27.377  1.00  0.00     0.074 A 
ATOM     30  C   UNL A   1      41.783  31.035  29.703  1.00  0.00     0.029 A 
ATOM     31  N   UNL A   1      43.294  29.666  28.818  1.00  0.00    -0.354 N 
ATOM     32  N   UNL A   1      45.971  28.940  27.840  1.00  0.00    -0.248 NA
ATOM     33  C   UNL A   1      48.157  29.526  27.267  1.00  0.00     0.031 C 
ATOM     34  C   UNL A   1      42.955  31.761  29.473  1.00  0.00     0.029 A 
ATOM     35  C   UNL A   1      43.910  30.900  28.954  1.00  0.00     0.049 A 
ATOM     36  H   UNL A   1      43.726  28.855  28.464  1.00  0.00     0.167 HD
ATOM     37  C   UNL A   1      46.163  30.288  28.104  1.00  0.00     0.074 A 
ATOM     38  C   UNL A   1      47.535  30.592  27.750  1.00  0.00     0.031 C 
ATOM     39  C   UNL A   1      45.282  31.188  28.608  1.00  0.00     0.037 A 
BRANCH  26  40
ATOM     40  C   UNL A   1      39.612  28.921  29.615  1.00  0.00     0.064 A 
ATOM     41  C   UNL A   1      38.659  29.413  28.710  1.00  0.00     0.173 A 
ATOM     42  C   UNL A   1      39.191  28.675  30.933  1.00  0.00     0.173 A 
ATOM     43  F   UNL A   1      39.005  29.672  27.440  1.00  0.00    -0.203 F 
ATOM     44  C   UNL A   1      37.358  29.696  29.119  1.00  0.00     0.198 A 
ATOM     45  C   UNL A   1      37.880  28.923  31.329  1.00  0.00     0.198 A 
ATOM     46  F   UNL A   1      40.054  28.192  31.840  1.00  0.00    -0.203 F 
ATOM     47  F   UNL A   1      36.486  30.232  28.252  1.00  0.00    -0.200 F 
ATOM     48  C   UNL A   1      36.968  29.446  30.426  1.00  0.00     0.200 A 
ATOM     49  F   UNL A   1      37.501  28.664  32.587  1.00  0.00    -0.200 F 
ATOM     50  F   UNL A   1      35.716  29.722  30.818  1.00  0.00    -0.200 F 
ENDBRANCH  26  40
BRANCH  27  51
ATOM     51  C   UNL A   1      48.833  26.787  26.413  1.00  0.00     0.064 A 
ATOM     52  C   UNL A   1      49.822  26.219  27.225  1.00  0.00     0.173 A 
ATOM     53  C   UNL A   1      49.132  26.989  25.057  1.00  0.00     0.173 A 
ATOM     54  F   UNL A   1      49.586  26.020  28.529  1.00  0.00    -0.203 F 
ATOM     55  C   UNL A   1      51.065  25.868  26.700  1.00  0.00     0.198 A 
ATOM     56  C   UNL A   1      50.363  26.610  24.529  1.00  0.00     0.198 A 
ATOM     57  F   UNL A   1      48.213  27.519  24.237  1.00  0.00    -0.203 F 
ATOM     58  F   UNL A   1      52.004  25.349  27.502  1.00  0.00    -0.200 F 
ATOM     59  C   UNL A   1      51.330  26.053  25.351  1.00  0.00     0.200 A 
ATOM     60  F   UNL A   1      50.607  26.770  23.220  1.00  0.00    -0.200 F 
ATOM     61  F   UNL A   1      52.517  25.694  24.844  1.00  0.00    -0.200 F 
ENDBRANCH  27  51
BRANCH  39  62
ATOM     62  C   UNL A   1      45.777  32.582  28.865  1.00  0.00     0.064 A 
ATOM     63  C   UNL A   1      45.629  33.610  27.923  1.00  0.00     0.173 A 
ATOM     64  C   UNL A   1      46.337  32.908  30.111  1.00  0.00     0.173 A 
ATOM     65  F   UNL A   1      45.116  33.347  26.711  1.00  0.00    -0.203 F 
ATOM     66  C   UNL A   1      46.028  34.911  28.217  1.00  0.00     0.198 A 
ATOM     67  C   UNL A   1      46.706  34.215  30.412  1.00  0.00     0.198 A 
ATOM     68  F   UNL A   1      46.498  31.961  31.047  1.00  0.00    -0.203 F 
ATOM     69  F   UNL A   1      45.906  35.873  27.291  1.00  0.00    -0.200 F 
ATOM     70  C   UNL A   1      46.555  35.215  29.464  1.00  0.00     0.200 A 
ATOM     71  F   UNL A   1      47.199  34.508  31.622  1.00  0.00    -0.200 F 
ATOM     72  F   UNL A   1      46.916  36.473  29.752  1.00  0.00    -0.200 F 
ENDBRANCH  39  62
ENDBRANCH  13  14
ENDBRANCH   6   8
ENDBRANCH   3   4
ENDBRANCH   2   3
ENDBRANCH   1   2
BRANCH   1  73
ATOM     73  C   UNL A   1      36.727  21.866  25.788  1.00  0.00     0.116 C 
BRANCH  73  74
ATOM     74  N   UNL A   1      35.550  21.639  26.610  1.00  0.00    -0.352 N 
ATOM     75  C   UNL A   1      34.296  22.193  26.497  1.00  0.00     0.255 C 
ATOM     76  H   UNL A   1      35.666  21.002  27.351  1.00  0.00     0.163 HD
ATOM     77  O   UNL A   1      33.476  22.030  27.398  1.00  0.00    -0.269 OA
BRANCH  75  78
ATOM     78  C   UNL A   1      33.937  22.986  25.303  1.00  0.00     0.082 A 
ATOM     79  C   UNL A   1      34.535  24.234  25.097  1.00  0.00     0.020 A 
ATOM     80  C   UNL A   1      33.041  22.481  24.354  1.00  0.00     0.139 A 
ATOM     81  C   UNL A   1      34.146  25.004  24.010  1.00  0.00     0.034 A 
ATOM     82  N   UNL A   1      32.663  23.243  23.300  1.00  0.00    -0.226 NA
ATOM     83  C   UNL A   1      33.189  24.493  23.137  1.00  0.00     0.146 A 
BRANCH  80  84
ATOM     84  N   UNL A   1      32.465  21.232  24.507  1.00  0.00    -0.369 N 
ATOM     85  H   UNL A   1      31.727  21.132  25.151  1.00  0.00     0.162 HD
BRANCH  84  86
ATOM     86  C   UNL A   1      32.899  20.062  23.760  1.00  0.00     0.120 C 
BRANCH  86  87
ATOM     87  C   UNL A   1      33.677  19.112  24.695  1.00  0.00     0.036 C 
ATOM     88  C   UNL A   1      34.079  17.824  24.000  1.00  0.00     0.036 C 
ATOM     89  C   UNL A   1      32.787  18.564  25.799  1.00  0.00     0.165 C 
ATOM     90  C   UNL A   1      32.829  16.973  24.102  1.00  0.00     0.160 C 
ATOM     91  O   UNL A   1      32.106  17.425  25.256  1.00  0.00    -0.381 OA
ENDBRANCH  86  87
ENDBRANCH  84  86
ENDBRANCH  80  84
BRANCH  83  92
ATOM     92  C   UNL A   1      32.708  25.340  21.966  1.00  0.00     0.433 C 
ATOM     93  F   UNL A   1      31.379  25.630  22.028  1.00  0.00    -0.165 F 
ATOM     94  F   UNL A   1      33.356  26.535  21.864  1.00  0.00    -0.165 F 
ATOM     95  F   UNL A   1      32.890  24.728  20.756  1.00  0.00    -0.165 F 
ENDBRANCH  83  92
ENDBRANCH  75  78
ENDBRANCH  73  74
ENDBRANCH   1  73
TORSDOF 15
ENDMDL
