MODEL 1
REMARK VINA RESULT:     -13.6      0.000      0.000
REMARK SMILES COc1ccc2[nH]c(C(=O)c3cc(C)ccn3)c(CC(=O)NCCCCNC(=O)c3ccc(-c4c5nc(c(-c6c(F)c(F)c(F)c(F)c6F)c6ccc([nH]6)c(-c6c(F)c(F)c(F)c(F)c6F)c6nc(c(-c7c(F)c(F)c(F)c(F)c7F)c7ccc4[nH]7)C=C6)C=C5)cc3)c2c1
REMARK SMILES IDX 24 1 23 2 22 3 20 4 21 5 19 7 18 8 3 9 4 10 94 11 5 12 93 13
REMARK SMILES IDX 6 14 7 15 8 16 2 18 1 19 9 20 10 21 11 22 12 23 17 24 13 25
REMARK SMILES IDX 16 26 14 27 15 28 25 29 26 30 27 31 28 32 29 34 30 35 31 36
REMARK SMILES IDX 92 37 32 38 91 39 33 40 34 41 35 42 85 43 36 44 90 45 84 46
REMARK SMILES IDX 86 47 37 48 89 49 83 50 82 51 38 53 70 54 50 55 69 56 51 57
REMARK SMILES IDX 54 58 68 59 87 60 52 61 53 62 67 64 88 65 55 66 39 67 40 68
REMARK SMILES IDX 48 69 41 70 42 71 46 72 49 73 43 74 44 75 47 76 45 77 71 78
REMARK SMILES IDX 72 79 80 80 73 81 74 82 78 83 81 84 75 85 76 86 79 87 77 88
REMARK SMILES IDX 56 89 57 90 65 91 58 92 59 93 63 94 66 95 60 96 61 97 64 98
REMARK SMILES IDX 62 99
REMARK H PARENT 22 6 7 17 27 33 86 52 54 63
REMARK Flexibility Score: inf
ROOT
ATOM      1  C   UNL A   1      31.915  30.539  26.576  1.00  0.00     0.023 C 
ENDROOT
BRANCH   1   2
ATOM      2  C   UNL A   1      33.372  30.133  26.777  1.00  0.00     0.116 C 
BRANCH   2   3
ATOM      3  N   UNL A   1      33.899  29.377  25.662  1.00  0.00    -0.356 N 
ATOM      4  C   UNL A   1      33.696  28.069  25.323  1.00  0.00     0.224 C 
ATOM      5  O   UNL A   1      34.085  27.721  24.205  1.00  0.00    -0.275 OA
ATOM      6  H   UNL A   1      34.492  29.880  25.056  1.00  0.00     0.163 HD
BRANCH   4   7
ATOM      7  C   UNL A   1      32.906  27.123  26.224  1.00  0.00     0.138 C 
BRANCH   7   8
ATOM      8  C   UNL A   1      31.688  26.501  25.589  1.00  0.00    -0.002 A 
ATOM      9  C   UNL A   1      29.594  28.872  23.421  1.00  0.00     0.119 A 
ATOM     10  C   UNL A   1      28.557  27.973  23.185  1.00  0.00     0.048 A 
ATOM     11  C   UNL A   1      30.712  28.473  24.160  1.00  0.00     0.057 A 
ATOM     12  C   UNL A   1      28.605  26.667  23.693  1.00  0.00     0.030 A 
ATOM     13  C   UNL A   1      30.771  27.175  24.715  1.00  0.00     0.008 A 
ATOM     14  C   UNL A   1      29.722  26.302  24.454  1.00  0.00     0.046 A 
ATOM     15  N   UNL A   1      30.023  25.116  25.080  1.00  0.00    -0.352 N 
ATOM     16  C   UNL A   1      31.244  25.182  25.717  1.00  0.00     0.093 A 
ATOM     17  H   UNL A   1      29.441  24.322  25.073  1.00  0.00     0.167 HD
BRANCH   9  18
ATOM     18  O   UNL A   1      29.645  30.161  22.959  1.00  0.00    -0.497 OA
ATOM     19  C   UNL A   1      29.051  30.388  21.686  1.00  0.00     0.278 C 
ENDBRANCH   9  18
BRANCH  16  20
ATOM     20  C   UNL A   1      31.894  24.075  26.414  1.00  0.00     0.227 C 
ATOM     21  O   UNL A   1      31.554  23.688  27.529  1.00  0.00    -0.285 OA
BRANCH  20  22
ATOM     22  C   UNL A   1      33.063  23.408  25.784  1.00  0.00     0.113 A 
ATOM     23  C   UNL A   1      34.343  23.912  25.995  1.00  0.00     0.036 A 
ATOM     24  N   UNL A   1      32.796  22.306  25.038  1.00  0.00    -0.253 NA
ATOM     25  C   UNL A   1      35.421  23.248  25.407  1.00  0.00    -0.047 A 
ATOM     26  C   UNL A   1      33.857  21.663  24.513  1.00  0.00     0.112 A 
ATOM     27  C   UNL A   1      36.827  23.736  25.584  1.00  0.00     0.044 C 
ATOM     28  C   UNL A   1      35.168  22.093  24.662  1.00  0.00     0.023 A 
ENDBRANCH  20  22
ENDBRANCH  16  20
ENDBRANCH   7   8
ENDBRANCH   4   7
ENDBRANCH   2   3
ENDBRANCH   1   2
BRANCH   1  29
ATOM     29  C   UNL A   1      31.616  32.015  26.848  1.00  0.00     0.023 C 
BRANCH  29  30
ATOM     30  C   UNL A   1      32.796  32.840  27.344  1.00  0.00     0.116 C 
BRANCH  30  31
ATOM     31  N   UNL A   1      32.441  34.210  27.683  1.00  0.00    -0.352 N 
ATOM     32  C   UNL A   1      32.998  35.035  28.630  1.00  0.00     0.251 C 
ATOM     33  H   UNL A   1      31.700  34.599  27.164  1.00  0.00     0.163 HD
ATOM     34  O   UNL A   1      32.506  36.134  28.868  1.00  0.00    -0.269 OA
BRANCH  32  35
ATOM     35  C   UNL A   1      34.175  34.573  29.397  1.00  0.00     0.039 A 
ATOM     36  C   UNL A   1      33.981  34.045  30.675  1.00  0.00     0.014 A 
ATOM     37  C   UNL A   1      35.456  34.628  28.844  1.00  0.00     0.014 A 
ATOM     38  C   UNL A   1      35.063  33.497  31.368  1.00  0.00     0.010 A 
ATOM     39  C   UNL A   1      36.519  34.018  29.504  1.00  0.00     0.010 A 
ATOM     40  C   UNL A   1      36.332  33.442  30.769  1.00  0.00    -0.014 A 
BRANCH  40  41
ATOM     41  C   UNL A   1      37.473  32.768  31.441  1.00  0.00     0.031 A 
ATOM     42  C   UNL A   1      38.137  31.585  30.797  1.00  0.00     0.074 A 
ATOM     43  C   UNL A   1      37.860  33.176  32.665  1.00  0.00     0.049 A 
ATOM     44  N   UNL A   1      39.090  30.815  31.260  1.00  0.00    -0.248 NA
ATOM     45  C   UNL A   1      37.647  31.198  29.465  1.00  0.00     0.031 C 
ATOM     46  C   UNL A   1      37.265  34.283  33.415  1.00  0.00     0.029 A 
ATOM     47  N   UNL A   1      38.840  32.697  33.500  1.00  0.00    -0.354 N 
ATOM     48  C   UNL A   1      39.302  29.849  30.286  1.00  0.00     0.074 A 
ATOM     49  C   UNL A   1      38.343  30.096  29.229  1.00  0.00     0.031 C 
ATOM     50  C   UNL A   1      37.904  34.413  34.588  1.00  0.00     0.029 A 
ATOM     51  C   UNL A   1      38.925  33.374  34.691  1.00  0.00     0.049 A 
ATOM     52  H   UNL A   1      39.424  31.941  33.267  1.00  0.00     0.167 HD
ATOM     53  C   UNL A   1      40.228  28.861  30.263  1.00  0.00     0.037 A 
ATOM     54  C   UNL A   1      39.730  33.174  35.752  1.00  0.00     0.037 A 
ATOM     55  C   UNL A   1      41.192  28.630  31.306  1.00  0.00     0.049 A 
ATOM     56  C   UNL A   1      40.737  32.057  35.711  1.00  0.00     0.074 A 
ATOM     57  C   UNL A   1      42.208  27.691  31.351  1.00  0.00     0.029 A 
ATOM     58  N   UNL A   1      41.254  29.343  32.495  1.00  0.00    -0.354 N 
ATOM     59  N   UNL A   1      40.976  31.194  34.755  1.00  0.00    -0.248 NA
ATOM     60  C   UNL A   1      41.588  31.889  36.897  1.00  0.00     0.031 C 
ATOM     61  C   UNL A   1      42.856  27.805  32.586  1.00  0.00     0.029 A 
ATOM     62  C   UNL A   1      42.277  28.849  33.290  1.00  0.00     0.049 A 
ATOM     63  H   UNL A   1      40.660  30.089  32.738  1.00  0.00     0.167 HD
ATOM     64  C   UNL A   1      42.021  30.399  35.209  1.00  0.00     0.074 A 
ATOM     65  C   UNL A   1      42.379  30.894  36.522  1.00  0.00     0.031 C 
ATOM     66  C   UNL A   1      42.628  29.357  34.592  1.00  0.00     0.037 A 
BRANCH  53  67
ATOM     67  C   UNL A   1      40.243  27.955  29.065  1.00  0.00     0.064 A 
ATOM     68  C   UNL A   1      40.982  28.271  27.914  1.00  0.00     0.173 A 
ATOM     69  C   UNL A   1      39.534  26.745  29.078  1.00  0.00     0.173 A 
ATOM     70  F   UNL A   1      41.668  29.421  27.846  1.00  0.00    -0.203 F 
ATOM     71  C   UNL A   1      40.981  27.425  26.807  1.00  0.00     0.198 A 
ATOM     72  C   UNL A   1      39.562  25.886  27.981  1.00  0.00     0.198 A 
ATOM     73  F   UNL A   1      38.818  26.390  30.155  1.00  0.00    -0.203 F 
ATOM     74  F   UNL A   1      41.649  27.774  25.700  1.00  0.00    -0.200 F 
ATOM     75  C   UNL A   1      40.278  26.231  26.845  1.00  0.00     0.200 A 
ATOM     76  F   UNL A   1      38.894  24.726  28.024  1.00  0.00    -0.200 F 
ATOM     77  F   UNL A   1      40.283  25.415  25.781  1.00  0.00    -0.200 F 
ENDBRANCH  53  67
BRANCH  54  78
ATOM     78  C   UNL A   1      39.636  34.070  36.935  1.00  0.00     0.064 A 
ATOM     79  C   UNL A   1      40.330  35.287  36.969  1.00  0.00     0.173 A 
ATOM     80  C   UNL A   1      38.856  33.731  38.051  1.00  0.00     0.173 A 
ATOM     81  F   UNL A   1      41.105  35.645  35.936  1.00  0.00    -0.203 F 
ATOM     82  C   UNL A   1      40.262  36.123  38.082  1.00  0.00     0.198 A 
ATOM     83  C   UNL A   1      38.767  34.581  39.151  1.00  0.00     0.198 A 
ATOM     84  F   UNL A   1      38.170  32.579  38.066  1.00  0.00    -0.203 F 
ATOM     85  F   UNL A   1      40.970  37.261  38.106  1.00  0.00    -0.200 F 
ATOM     86  C   UNL A   1      39.476  35.773  39.169  1.00  0.00     0.200 A 
ATOM     87  F   UNL A   1      37.995  34.246  40.194  1.00  0.00    -0.200 F 
ATOM     88  F   UNL A   1      39.406  36.580  40.236  1.00  0.00    -0.200 F 
ENDBRANCH  54  78
BRANCH  66  89
ATOM     89  C   UNL A   1      43.769  28.699  35.314  1.00  0.00     0.064 A 
ATOM     90  C   UNL A   1      45.092  29.137  35.155  1.00  0.00     0.173 A 
ATOM     91  C   UNL A   1      43.528  27.646  36.210  1.00  0.00     0.173 A 
ATOM     92  F   UNL A   1      45.375  30.129  34.299  1.00  0.00    -0.203 F 
ATOM     93  C   UNL A   1      46.134  28.529  35.849  1.00  0.00     0.198 A 
ATOM     94  C   UNL A   1      44.569  27.060  36.925  1.00  0.00     0.198 A 
ATOM     95  F   UNL A   1      42.279  27.193  36.402  1.00  0.00    -0.203 F 
ATOM     96  F   UNL A   1      47.396  28.932  35.647  1.00  0.00    -0.200 F 
ATOM     97  C   UNL A   1      45.872  27.497  36.738  1.00  0.00     0.200 A 
ATOM     98  F   UNL A   1      44.311  26.073  37.794  1.00  0.00    -0.200 F 
ATOM     99  F   UNL A   1      46.876  26.919  37.411  1.00  0.00    -0.200 F 
ENDBRANCH  66  89
ENDBRANCH  40  41
ENDBRANCH  32  35
ENDBRANCH  30  31
ENDBRANCH  29  30
ENDBRANCH   1  29
TORSDOF 15
ENDMDL
MODEL 2
REMARK VINA RESULT:     -13.5      0.531      7.209
REMARK SMILES COc1ccc2[nH]c(C(=O)c3cc(C)ccn3)c(CC(=O)NCCCCNC(=O)c3ccc(-c4c5nc(c(-c6c(F)c(F)c(F)c(F)c6F)c6ccc([nH]6)c(-c6c(F)c(F)c(F)c(F)c6F)c6nc(c(-c7c(F)c(F)c(F)c(F)c7F)c7ccc4[nH]7)C=C6)C=C5)cc3)c2c1
REMARK SMILES IDX 24 1 23 2 22 3 20 4 21 5 19 7 18 8 3 9 4 10 94 11 5 12 93 13
REMARK SMILES IDX 6 14 7 15 8 16 2 18 1 19 9 20 10 21 11 22 12 23 17 24 13 25
REMARK SMILES IDX 16 26 14 27 15 28 25 29 26 30 27 31 28 32 29 34 30 35 31 36
REMARK SMILES IDX 92 37 32 38 91 39 33 40 34 41 35 42 85 43 36 44 90 45 84 46
REMARK SMILES IDX 86 47 37 48 89 49 83 50 82 51 38 53 70 54 50 55 69 56 51 57
REMARK SMILES IDX 54 58 68 59 87 60 52 61 53 62 67 64 88 65 55 66 39 67 40 68
REMARK SMILES IDX 48 69 41 70 42 71 46 72 49 73 43 74 44 75 47 76 45 77 71 78
REMARK SMILES IDX 72 79 80 80 73 81 74 82 78 83 81 84 75 85 76 86 79 87 77 88
REMARK SMILES IDX 56 89 57 90 65 91 58 92 59 93 63 94 66 95 60 96 61 97 64 98
REMARK SMILES IDX 62 99
REMARK H PARENT 22 6 7 17 27 33 86 52 54 63
REMARK Flexibility Score: inf
ROOT
ATOM      1  C   UNL A   1      31.760  30.683  26.416  1.00  0.00     0.023 C 
ENDROOT
BRANCH   1   2
ATOM      2  C   UNL A   1      33.172  30.185  26.715  1.00  0.00     0.116 C 
BRANCH   2   3
ATOM      3  N   UNL A   1      33.739  29.429  25.621  1.00  0.00    -0.356 N 
ATOM      4  C   UNL A   1      33.573  28.113  25.294  1.00  0.00     0.224 C 
ATOM      5  O   UNL A   1      33.993  27.760  24.188  1.00  0.00    -0.275 OA
ATOM      6  H   UNL A   1      34.333  29.938  25.022  1.00  0.00     0.163 HD
BRANCH   4   7
ATOM      7  C   UNL A   1      32.785  27.159  26.189  1.00  0.00     0.138 C 
BRANCH   7   8
ATOM      8  C   UNL A   1      31.569  26.537  25.551  1.00  0.00    -0.002 A 
ATOM      9  C   UNL A   1      29.490  28.905  23.364  1.00  0.00     0.119 A 
ATOM     10  C   UNL A   1      28.453  28.007  23.126  1.00  0.00     0.048 A 
ATOM     11  C   UNL A   1      30.604  28.506  24.110  1.00  0.00     0.057 A 
ATOM     12  C   UNL A   1      28.496  26.703  23.639  1.00  0.00     0.030 A 
ATOM     13  C   UNL A   1      30.657  27.210  24.669  1.00  0.00     0.008 A 
ATOM     14  C   UNL A   1      29.608  26.338  24.407  1.00  0.00     0.046 A 
ATOM     15  N   UNL A   1      29.904  25.154  25.038  1.00  0.00    -0.352 N 
ATOM     16  C   UNL A   1      31.122  25.220  25.681  1.00  0.00     0.093 A 
ATOM     17  H   UNL A   1      29.321  24.361  25.031  1.00  0.00     0.167 HD
BRANCH   9  18
ATOM     18  O   UNL A   1      29.546  30.192  22.898  1.00  0.00    -0.497 OA
ATOM     19  C   UNL A   1      28.947  30.418  21.627  1.00  0.00     0.278 C 
ENDBRANCH   9  18
BRANCH  16  20
ATOM     20  C   UNL A   1      31.767  24.114  26.385  1.00  0.00     0.227 C 
ATOM     21  O   UNL A   1      31.412  23.723  27.494  1.00  0.00    -0.285 OA
BRANCH  20  22
ATOM     22  C   UNL A   1      32.948  23.454  25.770  1.00  0.00     0.113 A 
ATOM     23  C   UNL A   1      34.228  23.913  26.065  1.00  0.00     0.036 A 
ATOM     24  N   UNL A   1      32.690  22.401  24.953  1.00  0.00    -0.253 NA
ATOM     25  C   UNL A   1      35.316  23.256  25.489  1.00  0.00    -0.047 A 
ATOM     26  C   UNL A   1      33.759  21.761  24.440  1.00  0.00     0.112 A 
ATOM     27  C   UNL A   1      36.723  23.698  25.754  1.00  0.00     0.044 C 
ATOM     28  C   UNL A   1      35.072  22.150  24.670  1.00  0.00     0.023 A 
ENDBRANCH  20  22
ENDBRANCH  16  20
ENDBRANCH   7   8
ENDBRANCH   4   7
ENDBRANCH   2   3
ENDBRANCH   1   2
BRANCH   1  29
ATOM     29  C   UNL A   1      31.514  32.156  26.747  1.00  0.00     0.023 C 
BRANCH  29  30
ATOM     30  C   UNL A   1      32.731  32.924  27.250  1.00  0.00     0.116 C 
BRANCH  30  31
ATOM     31  N   UNL A   1      32.415  34.270  27.706  1.00  0.00    -0.352 N 
ATOM     32  C   UNL A   1      32.988  34.990  28.726  1.00  0.00     0.251 C 
ATOM     33  H   UNL A   1      31.692  34.727  27.217  1.00  0.00     0.163 HD
ATOM     34  O   UNL A   1      32.528  36.080  29.055  1.00  0.00    -0.269 OA
BRANCH  32  35
ATOM     35  C   UNL A   1      34.141  34.425  29.458  1.00  0.00     0.039 A 
ATOM     36  C   UNL A   1      33.908  33.711  30.635  1.00  0.00     0.014 A 
ATOM     37  C   UNL A   1      35.441  34.568  28.967  1.00  0.00     0.014 A 
ATOM     38  C   UNL A   1      34.970  33.071  31.278  1.00  0.00     0.010 A 
ATOM     39  C   UNL A   1      36.486  33.872  29.567  1.00  0.00     0.010 A 
ATOM     40  C   UNL A   1      36.260  33.112  30.725  1.00  0.00    -0.014 A 
BRANCH  40  41
ATOM     41  C   UNL A   1      37.383  32.351  31.330  1.00  0.00     0.031 A 
ATOM     42  C   UNL A   1      37.893  32.714  32.695  1.00  0.00     0.074 A 
ATOM     43  C   UNL A   1      37.992  31.384  30.617  1.00  0.00     0.049 A 
ATOM     44  N   UNL A   1      38.913  32.225  33.356  1.00  0.00    -0.248 NA
ATOM     45  C   UNL A   1      37.179  33.789  33.401  1.00  0.00     0.031 C 
ATOM     46  C   UNL A   1      37.620  30.969  29.264  1.00  0.00     0.029 A 
ATOM     47  N   UNL A   1      39.063  30.582  30.928  1.00  0.00    -0.354 N 
ATOM     48  C   UNL A   1      38.969  32.940  34.545  1.00  0.00     0.074 A 
ATOM     49  C   UNL A   1      37.916  33.932  34.493  1.00  0.00     0.031 C 
ATOM     50  C   UNL A   1      38.433  29.976  28.868  1.00  0.00     0.029 A 
ATOM     51  C   UNL A   1      39.408  29.713  29.922  1.00  0.00     0.049 A 
ATOM     52  H   UNL A   1      39.537  30.626  31.789  1.00  0.00     0.167 HD
ATOM     53  C   UNL A   1      39.807  32.768  35.595  1.00  0.00     0.037 A 
ATOM     54  C   UNL A   1      40.406  28.811  29.854  1.00  0.00     0.037 A 
ATOM     55  C   UNL A   1      40.841  31.769  35.651  1.00  0.00     0.049 A 
ATOM     56  C   UNL A   1      41.337  28.654  31.025  1.00  0.00     0.074 A 
ATOM     57  C   UNL A   1      41.704  31.478  36.693  1.00  0.00     0.029 A 
ATOM     58  N   UNL A   1      41.156  30.900  34.617  1.00  0.00    -0.354 N 
ATOM     59  N   UNL A   1      41.337  29.287  32.173  1.00  0.00    -0.248 NA
ATOM     60  C   UNL A   1      42.406  27.654  30.893  1.00  0.00     0.031 C 
ATOM     61  C   UNL A   1      42.572  30.464  36.272  1.00  0.00     0.029 A 
ATOM     62  C   UNL A   1      42.216  30.088  34.987  1.00  0.00     0.049 A 
ATOM     63  H   UNL A   1      40.694  30.865  33.748  1.00  0.00     0.167 HD
ATOM     64  C   UNL A   1      42.382  28.745  32.909  1.00  0.00     0.074 A 
ATOM     65  C   UNL A   1      42.986  27.720  32.082  1.00  0.00     0.031 C 
ATOM     66  C   UNL A   1      42.802  29.066  34.156  1.00  0.00     0.037 A 
BRANCH  53  67
ATOM     67  C   UNL A   1      39.635  33.685  36.773  1.00  0.00     0.064 A 
ATOM     68  C   UNL A   1      40.281  34.930  36.834  1.00  0.00     0.173 A 
ATOM     69  C   UNL A   1      38.795  33.329  37.838  1.00  0.00     0.173 A 
ATOM     70  F   UNL A   1      41.104  35.314  35.847  1.00  0.00    -0.203 F 
ATOM     71  C   UNL A   1      40.118  35.768  37.935  1.00  0.00     0.198 A 
ATOM     72  C   UNL A   1      38.610  34.184  38.922  1.00  0.00     0.198 A 
ATOM     73  F   UNL A   1      38.148  32.154  37.826  1.00  0.00    -0.203 F 
ATOM     74  F   UNL A   1      40.787  36.927  37.995  1.00  0.00    -0.200 F 
ATOM     75  C   UNL A   1      39.278  35.398  38.973  1.00  0.00     0.200 A 
ATOM     76  F   UNL A   1      37.787  33.831  39.918  1.00  0.00    -0.200 F 
ATOM     77  F   UNL A   1      39.119  36.208  40.029  1.00  0.00    -0.200 F 
ENDBRANCH  53  67
BRANCH  54  78
ATOM     78  C   UNL A   1      40.562  27.967  28.640  1.00  0.00     0.064 A 
ATOM     79  C   UNL A   1      39.926  26.722  28.548  1.00  0.00     0.173 A 
ATOM     80  C   UNL A   1      41.346  28.382  27.554  1.00  0.00     0.173 A 
ATOM     81  F   UNL A   1      39.182  26.272  29.569  1.00  0.00    -0.203 F 
ATOM     82  C   UNL A   1      40.081  25.915  27.422  1.00  0.00     0.198 A 
ATOM     83  C   UNL A   1      41.479  27.587  26.417  1.00  0.00     0.198 A 
ATOM     84  F   UNL A   1      41.973  29.566  27.592  1.00  0.00    -0.203 F 
ATOM     85  F   UNL A   1      39.497  24.710  27.377  1.00  0.00    -0.200 F 
ATOM     86  C   UNL A   1      40.852  26.351  26.355  1.00  0.00     0.200 A 
ATOM     87  F   UNL A   1      42.213  28.017  25.382  1.00  0.00    -0.200 F 
ATOM     88  F   UNL A   1      40.997  25.578  25.270  1.00  0.00    -0.200 F 
ENDBRANCH  54  78
BRANCH  66  89
ATOM     89  C   UNL A   1      43.948  28.279  34.722  1.00  0.00     0.064 A 
ATOM     90  C   UNL A   1      43.747  27.071  35.406  1.00  0.00     0.173 A 
ATOM     91  C   UNL A   1      45.269  28.717  34.538  1.00  0.00     0.173 A 
ATOM     92  F   UNL A   1      42.503  26.618  35.621  1.00  0.00    -0.203 F 
ATOM     93  C   UNL A   1      44.824  26.343  35.904  1.00  0.00     0.198 A 
ATOM     94  C   UNL A   1      46.345  27.972  35.012  1.00  0.00     0.198 A 
ATOM     95  F   UNL A   1      45.517  29.864  33.886  1.00  0.00    -0.203 F 
ATOM     96  F   UNL A   1      44.605  25.216  36.596  1.00  0.00    -0.200 F 
ATOM     97  C   UNL A   1      46.121  26.789  35.701  1.00  0.00     0.200 A 
ATOM     98  F   UNL A   1      47.598  28.398  34.801  1.00  0.00    -0.200 F 
ATOM     99  F   UNL A   1      47.156  26.083  36.175  1.00  0.00    -0.200 F 
ENDBRANCH  66  89
ENDBRANCH  40  41
ENDBRANCH  32  35
ENDBRANCH  30  31
ENDBRANCH  29  30
ENDBRANCH   1  29
TORSDOF 15
ENDMDL
MODEL 3
REMARK VINA RESULT:     -13.4      5.605     11.159
REMARK SMILES COc1ccc2[nH]c(C(=O)c3cc(C)ccn3)c(CC(=O)NCCCCNC(=O)c3ccc(-c4c5nc(c(-c6c(F)c(F)c(F)c(F)c6F)c6ccc([nH]6)c(-c6c(F)c(F)c(F)c(F)c6F)c6nc(c(-c7c(F)c(F)c(F)c(F)c7F)c7ccc4[nH]7)C=C6)C=C5)cc3)c2c1
REMARK SMILES IDX 24 1 23 2 22 3 20 4 21 5 19 7 18 8 3 9 4 10 94 11 5 12 93 13
REMARK SMILES IDX 6 14 7 15 8 16 2 18 1 19 9 20 10 21 11 22 12 23 17 24 13 25
REMARK SMILES IDX 16 26 14 27 15 28 25 29 26 30 27 31 28 32 29 34 30 35 31 36
REMARK SMILES IDX 92 37 32 38 91 39 33 40 34 41 35 42 85 43 36 44 90 45 84 46
REMARK SMILES IDX 86 47 37 48 89 49 83 50 82 51 38 53 70 54 50 55 69 56 51 57
REMARK SMILES IDX 54 58 68 59 87 60 52 61 53 62 67 64 88 65 55 66 39 67 40 68
REMARK SMILES IDX 48 69 41 70 42 71 46 72 49 73 43 74 44 75 47 76 45 77 71 78
REMARK SMILES IDX 72 79 80 80 73 81 74 82 78 83 81 84 75 85 76 86 79 87 77 88
REMARK SMILES IDX 56 89 57 90 65 91 58 92 59 93 63 94 66 95 60 96 61 97 64 98
REMARK SMILES IDX 62 99
REMARK H PARENT 22 6 7 17 27 33 86 52 54 63
REMARK Flexibility Score: inf
ROOT
ATOM      1  C   UNL A   1      37.274  21.198  24.823  1.00  0.00     0.023 C 
ENDROOT
BRANCH   1   2
ATOM      2  C   UNL A   1      37.596  22.398  25.711  1.00  0.00     0.116 C 
BRANCH   2   3
ATOM      3  N   UNL A   1      36.434  22.903  26.407  1.00  0.00    -0.356 N 
ATOM      4  C   UNL A   1      35.358  23.590  25.921  1.00  0.00     0.224 C 
ATOM      5  O   UNL A   1      34.395  23.720  26.682  1.00  0.00    -0.275 OA
ATOM      6  H   UNL A   1      36.416  22.727  27.377  1.00  0.00     0.163 HD
BRANCH   4   7
ATOM      7  C   UNL A   1      35.293  24.050  24.467  1.00  0.00     0.138 C 
BRANCH   7   8
ATOM      8  C   UNL A   1      34.087  23.575  23.696  1.00  0.00    -0.002 A 
ATOM      9  C   UNL A   1      33.245  19.858  24.124  1.00  0.00     0.119 A 
ATOM     10  C   UNL A   1      32.227  19.831  23.174  1.00  0.00     0.048 A 
ATOM     11  C   UNL A   1      33.895  21.060  24.419  1.00  0.00     0.057 A 
ATOM     12  C   UNL A   1      31.848  20.995  22.490  1.00  0.00     0.030 A 
ATOM     13  C   UNL A   1      33.558  22.240  23.720  1.00  0.00     0.008 A 
ATOM     14  C   UNL A   1      32.534  22.179  22.784  1.00  0.00     0.046 A 
ATOM     15  N   UNL A   1      32.389  23.443  22.265  1.00  0.00    -0.352 N 
ATOM     16  C   UNL A   1      33.269  24.329  22.851  1.00  0.00     0.093 A 
ATOM     17  H   UNL A   1      31.740  23.685  21.565  1.00  0.00     0.167 HD
BRANCH   9  18
ATOM     18  O   UNL A   1      33.678  18.780  24.851  1.00  0.00    -0.497 OA
ATOM     19  C   UNL A   1      32.659  17.941  25.382  1.00  0.00     0.278 C 
ENDBRANCH   9  18
BRANCH  16  20
ATOM     20  C   UNL A   1      33.329  25.763  22.581  1.00  0.00     0.227 C 
ATOM     21  O   UNL A   1      33.839  26.239  21.571  1.00  0.00    -0.285 OA
BRANCH  20  22
ATOM     22  C   UNL A   1      32.802  26.714  23.596  1.00  0.00     0.113 A 
ATOM     23  C   UNL A   1      33.611  27.114  24.654  1.00  0.00     0.036 A 
ATOM     24  N   UNL A   1      31.533  27.155  23.403  1.00  0.00    -0.253 NA
ATOM     25  C   UNL A   1      33.093  28.026  25.575  1.00  0.00    -0.047 A 
ATOM     26  C   UNL A   1      31.070  28.062  24.285  1.00  0.00     0.112 A 
ATOM     27  C   UNL A   1      33.903  28.498  26.745  1.00  0.00     0.044 C 
ATOM     28  C   UNL A   1      31.799  28.516  25.375  1.00  0.00     0.023 A 
ENDBRANCH  20  22
ENDBRANCH  16  20
ENDBRANCH   7   8
ENDBRANCH   4   7
ENDBRANCH   2   3
ENDBRANCH   1   2
BRANCH   1  29
ATOM     29  C   UNL A   1      38.214  20.003  24.990  1.00  0.00     0.023 C 
BRANCH  29  30
ATOM     30  C   UNL A   1      39.389  20.224  25.936  1.00  0.00     0.116 C 
BRANCH  30  31
ATOM     31  N   UNL A   1      40.355  19.135  25.920  1.00  0.00    -0.352 N 
ATOM     32  C   UNL A   1      41.717  19.190  26.087  1.00  0.00     0.251 C 
ATOM     33  H   UNL A   1      39.981  18.236  25.769  1.00  0.00     0.163 HD
ATOM     34  O   UNL A   1      42.406  18.185  25.935  1.00  0.00    -0.269 OA
BRANCH  32  35
ATOM     35  C   UNL A   1      42.360  20.482  26.410  1.00  0.00     0.039 A 
ATOM     36  C   UNL A   1      42.918  21.234  25.375  1.00  0.00     0.014 A 
ATOM     37  C   UNL A   1      42.379  20.964  27.721  1.00  0.00     0.014 A 
ATOM     38  C   UNL A   1      43.425  22.508  25.641  1.00  0.00     0.010 A 
ATOM     39  C   UNL A   1      42.819  22.260  27.974  1.00  0.00     0.010 A 
ATOM     40  C   UNL A   1      43.340  23.047  26.935  1.00  0.00    -0.014 A 
BRANCH  40  41
ATOM     41  C   UNL A   1      43.773  24.438  27.221  1.00  0.00     0.031 A 
ATOM     42  C   UNL A   1      42.781  25.452  27.715  1.00  0.00     0.074 A 
ATOM     43  C   UNL A   1      45.043  24.807  26.964  1.00  0.00     0.049 A 
ATOM     44  N   UNL A   1      42.947  26.732  27.943  1.00  0.00    -0.248 NA
ATOM     45  C   UNL A   1      41.414  24.970  27.961  1.00  0.00     0.031 C 
ATOM     46  C   UNL A   1      46.090  23.927  26.440  1.00  0.00     0.029 A 
ATOM     47  N   UNL A   1      45.668  26.023  27.096  1.00  0.00    -0.354 N 
ATOM     48  C   UNL A   1      41.706  27.207  28.344  1.00  0.00     0.074 A 
ATOM     49  C   UNL A   1      40.784  26.093  28.277  1.00  0.00     0.031 C 
ATOM     50  C   UNL A   1      47.229  24.625  26.315  1.00  0.00     0.029 A 
ATOM     51  C   UNL A   1      46.986  26.009  26.711  1.00  0.00     0.049 A 
ATOM     52  H   UNL A   1      45.214  26.827  27.435  1.00  0.00     0.167 HD
ATOM     53  C   UNL A   1      41.370  28.454  28.754  1.00  0.00     0.037 A 
ATOM     54  C   UNL A   1      47.893  27.003  26.673  1.00  0.00     0.037 A 
ATOM     55  C   UNL A   1      42.293  29.554  28.836  1.00  0.00     0.049 A 
ATOM     56  C   UNL A   1      47.491  28.384  27.113  1.00  0.00     0.074 A 
ATOM     57  C   UNL A   1      42.064  30.841  29.292  1.00  0.00     0.029 A 
ATOM     58  N   UNL A   1      43.623  29.500  28.446  1.00  0.00    -0.354 N 
ATOM     59  N   UNL A   1      46.332  28.806  27.557  1.00  0.00    -0.248 NA
ATOM     60  C   UNL A   1      48.524  29.427  27.050  1.00  0.00     0.031 C 
ATOM     61  C   UNL A   1      43.243  31.578  29.136  1.00  0.00     0.029 A 
ATOM     62  C   UNL A   1      44.221  30.737  28.630  1.00  0.00     0.049 A 
ATOM     63  H   UNL A   1      44.076  28.701  28.091  1.00  0.00     0.167 HD
ATOM     64  C   UNL A   1      46.503  30.152  27.853  1.00  0.00     0.074 A 
ATOM     65  C   UNL A   1      47.882  30.473  27.550  1.00  0.00     0.031 C 
ATOM     66  C   UNL A   1      45.599  31.040  28.331  1.00  0.00     0.037 A 
BRANCH  53  67
ATOM     67  C   UNL A   1      39.940  28.690  29.146  1.00  0.00     0.064 A 
ATOM     68  C   UNL A   1      39.492  28.466  30.457  1.00  0.00     0.173 A 
ATOM     69  C   UNL A   1      39.014  29.174  28.210  1.00  0.00     0.173 A 
ATOM     70  F   UNL A   1      40.334  27.993  31.388  1.00  0.00    -0.203 F 
ATOM     71  C   UNL A   1      38.161  28.683  30.807  1.00  0.00     0.198 A 
ATOM     72  C   UNL A   1      37.691  29.421  28.572  1.00  0.00     0.198 A 
ATOM     73  F   UNL A   1      39.391  29.413  26.946  1.00  0.00    -0.203 F 
ATOM     74  F   UNL A   1      37.744  28.410  32.050  1.00  0.00    -0.200 F 
ATOM     75  C   UNL A   1      37.265  29.168  29.867  1.00  0.00     0.200 A 
ATOM     76  F   UNL A   1      36.830  29.902  27.666  1.00  0.00    -0.200 F 
ATOM     77  F   UNL A   1      35.986  29.381  30.206  1.00  0.00    -0.200 F 
ENDBRANCH  53  67
BRANCH  54  78
ATOM     78  C   UNL A   1      49.282  26.723  26.223  1.00  0.00     0.064 A 
ATOM     79  C   UNL A   1      49.662  26.942  24.892  1.00  0.00     0.173 A 
ATOM     80  C   UNL A   1      50.254  26.232  27.107  1.00  0.00     0.173 A 
ATOM     81  F   UNL A   1      48.763  27.391  24.005  1.00  0.00    -0.203 F 
ATOM     82  C   UNL A   1      50.957  26.664  24.457  1.00  0.00     0.198 A 
ATOM     83  C   UNL A   1      51.555  25.981  26.678  1.00  0.00     0.198 A 
ATOM     84  F   UNL A   1      49.942  26.008  28.392  1.00  0.00    -0.203 F 
ATOM     85  F   UNL A   1      51.281  26.843  23.170  1.00  0.00    -0.200 F 
ATOM     86  C   UNL A   1      51.904  26.190  25.352  1.00  0.00     0.200 A 
ATOM     87  F   UNL A   1      52.472  25.535  27.548  1.00  0.00    -0.200 F 
ATOM     88  F   UNL A   1      53.150  25.929  24.935  1.00  0.00    -0.200 F 
ENDBRANCH  54  78
BRANCH  66  89
ATOM     89  C   UNL A   1      46.079  32.438  28.595  1.00  0.00     0.064 A 
ATOM     90  C   UNL A   1      45.994  33.443  27.620  1.00  0.00     0.173 A 
ATOM     91  C   UNL A   1      46.590  32.786  29.854  1.00  0.00     0.173 A 
ATOM     92  F   UNL A   1      45.527  33.156  26.395  1.00  0.00    -0.203 F 
ATOM     93  C   UNL A   1      46.425  34.739  27.890  1.00  0.00     0.198 A 
ATOM     94  C   UNL A   1      46.992  34.090  30.130  1.00  0.00     0.198 A 
ATOM     95  F   UNL A   1      46.688  31.863  30.824  1.00  0.00    -0.203 F 
ATOM     96  F   UNL A   1      46.378  35.672  26.929  1.00  0.00    -0.200 F 
ATOM     97  C   UNL A   1      46.916  35.063  29.145  1.00  0.00     0.200 A 
ATOM     98  F   UNL A   1      47.453  34.404  31.349  1.00  0.00    -0.200 F 
ATOM     99  F   UNL A   1      47.322  36.314  29.405  1.00  0.00    -0.200 F 
ENDBRANCH  66  89
ENDBRANCH  40  41
ENDBRANCH  32  35
ENDBRANCH  30  31
ENDBRANCH  29  30
ENDBRANCH   1  29
TORSDOF 15
ENDMDL
