MODEL 1
REMARK VINA RESULT:     -12.7      0.000      0.000
REMARK SMILES O=C(NCCCCNC(=O)c1ccc(-c2c3nc(c(-c4c(F)c(F)c(F)c(F)c4F)c4ccc([nH]4)c(-c4c(F)c(F)c(F)c(F)c4F)c4nc(c(-c5c(F)c(F)c(F)c(F)c5F)c5ccc2[nH]5)C=C4)C=C3)cc1)c1ccc(NS(=O)(=O)Cc2c(Cl)cccc2Cl)cc1
REMARK SMILES IDX 4 1 3 2 1 3 2 4 74 6 75 7 92 8 76 9 91 10 77 11 78 12 79 14
REMARK SMILES IDX 80 15 81 16 82 17 83 18 84 19 89 20 85 21 86 22 88 23 90 24
REMARK SMILES IDX 87 25 5 26 6 27 7 28 8 29 9 30 10 32 11 33 12 34 73 35 13 36
REMARK SMILES IDX 72 37 14 38 15 39 16 40 66 41 17 42 71 43 65 44 67 45 18 46
REMARK SMILES IDX 70 47 64 48 63 49 19 51 51 52 31 53 50 54 32 55 35 56 49 57
REMARK SMILES IDX 68 58 33 59 34 60 48 62 69 63 36 64 20 65 21 66 29 67 22 68
REMARK SMILES IDX 23 69 27 70 30 71 24 72 25 73 28 74 26 75 52 76 53 77 61 78
REMARK SMILES IDX 54 79 55 80 59 81 62 82 56 83 57 84 60 85 58 86 37 87 38 88
REMARK SMILES IDX 46 89 39 90 40 91 44 92 47 93 41 94 42 95 45 96 43 97
REMARK H PARENT 3 5 78 13 8 31 67 50 35 61
REMARK Flexibility Score: inf
ROOT
ATOM      1  C   UNL A   1      35.385  20.582  25.032  1.00  0.00     0.116 C 
ENDROOT
BRANCH   1   2
ATOM      2  N   UNL A   1      34.319  19.591  25.007  1.00  0.00    -0.352 N 
ATOM      3  O   UNL A   1      32.156  18.893  24.937  1.00  0.00    -0.269 OA
ATOM      4  C   UNL A   1      32.965  19.809  24.876  1.00  0.00     0.251 C 
ATOM      5  H   UNL A   1      34.599  18.650  25.095  1.00  0.00     0.163 HD
BRANCH   4   6
ATOM      6  C   UNL A   1      32.511  21.198  24.695  1.00  0.00     0.039 A 
ATOM      7  C   UNL A   1      31.950  21.886  25.773  1.00  0.00     0.016 A 
ATOM      8  C   UNL A   1      32.483  21.735  23.410  1.00  0.00     0.016 A 
ATOM      9  C   UNL A   1      31.248  23.066  25.537  1.00  0.00     0.027 A 
ATOM     10  C   UNL A   1      31.765  22.911  23.184  1.00  0.00     0.027 A 
ATOM     11  C   UNL A   1      31.105  23.558  24.238  1.00  0.00     0.049 A 
BRANCH  11  12
ATOM     12  N   UNL A   1      30.126  24.528  23.878  1.00  0.00    -0.283 N 
ATOM     13  H   UNL A   1      29.423  24.251  23.246  1.00  0.00     0.180 HD
BRANCH  12  14
ATOM     14  S   UNL A   1      30.077  26.091  24.440  1.00  0.00     0.237 S 
ATOM     15  O   UNL A   1      29.005  26.799  23.772  1.00  0.00    -0.206 OA
ATOM     16  O   UNL A   1      30.045  25.951  25.884  1.00  0.00    -0.206 OA
BRANCH  14  17
ATOM     17  C   UNL A   1      31.650  26.876  24.011  1.00  0.00     0.198 C 
BRANCH  17  18
ATOM     18  C   UNL A   1      32.254  27.775  25.069  1.00  0.00     0.006 A 
ATOM     19  C   UNL A   1      31.844  29.116  25.221  1.00  0.00     0.046 A 
ATOM     20  C   UNL A   1      33.342  27.352  25.863  1.00  0.00     0.046 A 
ATOM     21  Cl  UNL A   1      30.606  29.819  24.244  1.00  0.00    -0.084 Cl
ATOM     22  C   UNL A   1      32.467  29.973  26.140  1.00  0.00     0.021 A 
ATOM     23  C   UNL A   1      33.971  28.217  26.770  1.00  0.00     0.021 A 
ATOM     24  Cl  UNL A   1      34.023  25.764  25.754  1.00  0.00    -0.084 Cl
ATOM     25  C   UNL A   1      33.532  29.528  26.913  1.00  0.00     0.003 A 
ENDBRANCH  17  18
ENDBRANCH  14  17
ENDBRANCH  12  14
ENDBRANCH  11  12
ENDBRANCH   4   6
ENDBRANCH   1   2
BRANCH   1  26
ATOM     26  C   UNL A   1      36.778  19.958  25.001  1.00  0.00     0.023 C 
BRANCH  26  27
ATOM     27  C   UNL A   1      37.939  20.949  24.984  1.00  0.00     0.023 C 
BRANCH  27  28
ATOM     28  C   UNL A   1      38.952  20.795  26.117  1.00  0.00     0.116 C 
BRANCH  28  29
ATOM     29  N   UNL A   1      39.849  19.661  25.942  1.00  0.00    -0.352 N 
ATOM     30  C   UNL A   1      41.219  19.589  26.046  1.00  0.00     0.251 C 
ATOM     31  H   UNL A   1      39.405  18.812  25.715  1.00  0.00     0.163 HD
ATOM     32  O   UNL A   1      41.796  18.546  25.752  1.00  0.00    -0.269 OA
BRANCH  30  33
ATOM     33  C   UNL A   1      42.003  20.775  26.459  1.00  0.00     0.039 A 
ATOM     34  C   UNL A   1      42.484  21.639  25.470  1.00  0.00     0.014 A 
ATOM     35  C   UNL A   1      42.232  21.061  27.806  1.00  0.00     0.014 A 
ATOM     36  C   UNL A   1      43.086  22.845  25.835  1.00  0.00     0.010 A 
ATOM     37  C   UNL A   1      42.762  22.296  28.170  1.00  0.00     0.010 A 
ATOM     38  C   UNL A   1      43.168  23.213  27.188  1.00  0.00    -0.014 A 
BRANCH  38  39
ATOM     39  C   UNL A   1      43.597  24.577  27.594  1.00  0.00     0.031 A 
ATOM     40  C   UNL A   1      42.588  25.626  27.952  1.00  0.00     0.074 A 
ATOM     41  C   UNL A   1      44.904  24.899  27.529  1.00  0.00     0.049 A 
ATOM     42  N   UNL A   1      42.771  26.894  28.220  1.00  0.00    -0.248 NA
ATOM     43  C   UNL A   1      41.180  25.201  27.984  1.00  0.00     0.031 C 
ATOM     44  C   UNL A   1      45.980  23.989  27.133  1.00  0.00     0.029 A 
ATOM     45  N   UNL A   1      45.548  26.088  27.769  1.00  0.00    -0.354 N 
ATOM     46  C   UNL A   1      41.506  27.421  28.443  1.00  0.00     0.074 A 
ATOM     47  C   UNL A   1      40.560  26.346  28.227  1.00  0.00     0.031 C 
ATOM     48  C   UNL A   1      47.148  24.648  27.161  1.00  0.00     0.029 A 
ATOM     49  C   UNL A   1      46.901  26.036  27.536  1.00  0.00     0.049 A 
ATOM     50  H   UNL A   1      45.085  26.900  28.079  1.00  0.00     0.167 HD
ATOM     51  C   UNL A   1      41.168  28.680  28.813  1.00  0.00     0.037 A 
ATOM     52  C   UNL A   1      47.838  27.002  27.595  1.00  0.00     0.037 A 
ATOM     53  C   UNL A   1      42.112  29.743  29.038  1.00  0.00     0.049 A 
ATOM     54  C   UNL A   1      47.440  28.395  27.993  1.00  0.00     0.074 A 
ATOM     55  C   UNL A   1      41.874  31.028  29.495  1.00  0.00     0.029 A 
ATOM     56  N   UNL A   1      43.478  29.650  28.806  1.00  0.00    -0.354 N 
ATOM     57  N   UNL A   1      46.250  28.860  28.284  1.00  0.00    -0.248 NA
ATOM     58  C   UNL A   1      48.513  29.396  28.071  1.00  0.00     0.031 C 
ATOM     59  C   UNL A   1      43.087  31.726  29.492  1.00  0.00     0.029 A 
ATOM     60  C   UNL A   1      44.090  30.865  29.077  1.00  0.00     0.049 A 
ATOM     61  H   UNL A   1      43.943  28.840  28.495  1.00  0.00     0.167 HD
ATOM     62  C   UNL A   1      46.429  30.203  28.586  1.00  0.00     0.074 A 
ATOM     63  C   UNL A   1      47.846  30.472  28.465  1.00  0.00     0.031 C 
ATOM     64  C   UNL A   1      45.499  31.127  28.930  1.00  0.00     0.037 A 
BRANCH  51  65
ATOM     65  C   UNL A   1      39.706  28.973  28.993  1.00  0.00     0.064 A 
ATOM     66  C   UNL A   1      38.894  29.356  27.914  1.00  0.00     0.173 A 
ATOM     67  C   UNL A   1      39.105  28.857  30.256  1.00  0.00     0.173 A 
ATOM     68  F   UNL A   1      39.422  29.490  26.688  1.00  0.00    -0.203 F 
ATOM     69  C   UNL A   1      37.547  29.650  28.099  1.00  0.00     0.198 A 
ATOM     70  C   UNL A   1      37.750  29.122  30.432  1.00  0.00     0.198 A 
ATOM     71  F   UNL A   1      39.834  28.487  31.320  1.00  0.00    -0.203 F 
ATOM     72  F   UNL A   1      36.806  30.071  27.065  1.00  0.00    -0.200 F 
ATOM     73  C   UNL A   1      36.974  29.528  29.356  1.00  0.00     0.200 A 
ATOM     74  F   UNL A   1      37.195  28.992  31.644  1.00  0.00    -0.200 F 
ATOM     75  F   UNL A   1      35.677  29.813  29.534  1.00  0.00    -0.200 F 
ENDBRANCH  51  65
BRANCH  52  76
ATOM     76  C   UNL A   1      49.248  26.670  27.266  1.00  0.00     0.064 A 
ATOM     77  C   UNL A   1      49.690  26.640  25.937  1.00  0.00     0.173 A 
ATOM     78  C   UNL A   1      50.188  26.413  28.275  1.00  0.00     0.173 A 
ATOM     79  F   UNL A   1      48.822  26.859  24.938  1.00  0.00    -0.203 F 
ATOM     80  C   UNL A   1      51.019  26.362  25.628  1.00  0.00     0.198 A 
ATOM     81  C   UNL A   1      51.522  26.161  27.967  1.00  0.00     0.198 A 
ATOM     82  F   UNL A   1      49.815  26.437  29.563  1.00  0.00    -0.203 F 
ATOM     83  F   UNL A   1      51.412  26.315  24.348  1.00  0.00    -0.200 F 
ATOM     84  C   UNL A   1      51.937  26.132  26.644  1.00  0.00     0.200 A 
ATOM     85  F   UNL A   1      52.408  25.956  28.951  1.00  0.00    -0.200 F 
ATOM     86  F   UNL A   1      53.219  25.882  26.347  1.00  0.00    -0.200 F 
ENDBRANCH  52  76
BRANCH  64  87
ATOM     87  C   UNL A   1      45.986  32.523  29.193  1.00  0.00     0.064 A 
ATOM     88  C   UNL A   1      46.433  32.912  30.465  1.00  0.00     0.173 A 
ATOM     89  C   UNL A   1      46.043  33.468  28.158  1.00  0.00     0.173 A 
ATOM     90  F   UNL A   1      46.381  32.050  31.491  1.00  0.00    -0.203 F 
ATOM     91  C   UNL A   1      46.904  34.203  30.693  1.00  0.00     0.198 A 
ATOM     92  C   UNL A   1      46.540  34.748  28.384  1.00  0.00     0.198 A 
ATOM     93  F   UNL A   1      45.630  33.144  26.924  1.00  0.00    -0.203 F 
ATOM     94  F   UNL A   1      47.289  34.565  31.924  1.00  0.00    -0.200 F 
ATOM     95  C   UNL A   1      46.965  35.116  29.651  1.00  0.00     0.200 A 
ATOM     96  F   UNL A   1      46.608  35.627  27.374  1.00  0.00    -0.200 F 
ATOM     97  F   UNL A   1      47.426  36.355  29.872  1.00  0.00    -0.200 F 
ENDBRANCH  64  87
ENDBRANCH  38  39
ENDBRANCH  30  33
ENDBRANCH  28  29
ENDBRANCH  27  28
ENDBRANCH  26  27
ENDBRANCH   1  26
TORSDOF 15
ENDMDL
MODEL 2
REMARK VINA RESULT:     -12.7      1.305      2.154
REMARK SMILES O=C(NCCCCNC(=O)c1ccc(-c2c3nc(c(-c4c(F)c(F)c(F)c(F)c4F)c4ccc([nH]4)c(-c4c(F)c(F)c(F)c(F)c4F)c4nc(c(-c5c(F)c(F)c(F)c(F)c5F)c5ccc2[nH]5)C=C4)C=C3)cc1)c1ccc(NS(=O)(=O)Cc2c(Cl)cccc2Cl)cc1
REMARK SMILES IDX 4 1 3 2 1 3 2 4 74 6 75 7 92 8 76 9 91 10 77 11 78 12 79 14
REMARK SMILES IDX 80 15 81 16 82 17 83 18 84 19 89 20 85 21 86 22 88 23 90 24
REMARK SMILES IDX 87 25 5 26 6 27 7 28 8 29 9 30 10 32 11 33 12 34 73 35 13 36
REMARK SMILES IDX 72 37 14 38 15 39 16 40 66 41 17 42 71 43 65 44 67 45 18 46
REMARK SMILES IDX 70 47 64 48 63 49 19 51 51 52 31 53 50 54 32 55 35 56 49 57
REMARK SMILES IDX 68 58 33 59 34 60 48 62 69 63 36 64 20 65 21 66 29 67 22 68
REMARK SMILES IDX 23 69 27 70 30 71 24 72 25 73 28 74 26 75 52 76 53 77 61 78
REMARK SMILES IDX 54 79 55 80 59 81 62 82 56 83 57 84 60 85 58 86 37 87 38 88
REMARK SMILES IDX 46 89 39 90 40 91 44 92 47 93 41 94 42 95 45 96 43 97
REMARK H PARENT 3 5 78 13 8 31 67 50 35 61
REMARK Flexibility Score: inf
ROOT
ATOM      1  C   UNL A   1      35.334  20.170  24.799  1.00  0.00     0.116 C 
ENDROOT
BRANCH   1   2
ATOM      2  N   UNL A   1      34.387  19.141  25.203  1.00  0.00    -0.352 N 
ATOM      3  O   UNL A   1      32.317  18.254  25.513  1.00  0.00    -0.269 OA
ATOM      4  C   UNL A   1      33.016  19.155  25.070  1.00  0.00     0.251 C 
ATOM      5  H   UNL A   1      34.773  18.337  25.622  1.00  0.00     0.163 HD
BRANCH   4   6
ATOM      6  C   UNL A   1      32.406  20.319  24.406  1.00  0.00     0.039 A 
ATOM      7  C   UNL A   1      32.205  20.298  23.025  1.00  0.00     0.016 A 
ATOM      8  C   UNL A   1      32.210  21.487  25.141  1.00  0.00     0.016 A 
ATOM      9  C   UNL A   1      31.922  21.489  22.360  1.00  0.00     0.027 A 
ATOM     10  C   UNL A   1      31.941  22.677  24.461  1.00  0.00     0.027 A 
ATOM     11  C   UNL A   1      31.841  22.693  23.063  1.00  0.00     0.049 A 
BRANCH  11  12
ATOM     12  N   UNL A   1      31.917  23.968  22.433  1.00  0.00    -0.283 N 
ATOM     13  H   UNL A   1      31.074  24.455  22.290  1.00  0.00     0.180 HD
BRANCH  12  14
ATOM     14  S   UNL A   1      33.320  24.698  21.920  1.00  0.00     0.237 S 
ATOM     15  O   UNL A   1      34.447  23.873  22.304  1.00  0.00    -0.206 OA
ATOM     16  O   UNL A   1      33.087  24.973  20.515  1.00  0.00    -0.206 OA
BRANCH  14  17
ATOM     17  C   UNL A   1      33.448  26.292  22.766  1.00  0.00     0.198 C 
BRANCH  17  18
ATOM     18  C   UNL A   1      32.606  26.451  24.014  1.00  0.00     0.006 A 
ATOM     19  C   UNL A   1      31.386  27.158  23.998  1.00  0.00     0.046 A 
ATOM     20  C   UNL A   1      33.066  26.011  25.274  1.00  0.00     0.046 A 
ATOM     21  Cl  UNL A   1      30.745  27.859  22.556  1.00  0.00    -0.084 Cl
ATOM     22  C   UNL A   1      30.653  27.381  25.173  1.00  0.00     0.021 A 
ATOM     23  C   UNL A   1      32.337  26.250  26.449  1.00  0.00     0.021 A 
ATOM     24  Cl  UNL A   1      34.578  25.194  25.491  1.00  0.00    -0.084 Cl
ATOM     25  C   UNL A   1      31.127  26.931  26.399  1.00  0.00     0.003 A 
ENDBRANCH  17  18
ENDBRANCH  14  17
ENDBRANCH  12  14
ENDBRANCH  11  12
ENDBRANCH   4   6
ENDBRANCH   1   2
BRANCH   1  26
ATOM     26  C   UNL A   1      36.789  19.751  24.998  1.00  0.00     0.023 C 
BRANCH  26  27
ATOM     27  C   UNL A   1      37.816  20.875  24.884  1.00  0.00     0.023 C 
BRANCH  27  28
ATOM     28  C   UNL A   1      38.922  20.866  25.937  1.00  0.00     0.116 C 
BRANCH  28  29
ATOM     29  N   UNL A   1      39.817  19.723  25.828  1.00  0.00    -0.352 N 
ATOM     30  C   UNL A   1      41.176  19.637  26.028  1.00  0.00     0.251 C 
ATOM     31  H   UNL A   1      39.382  18.878  25.571  1.00  0.00     0.163 HD
ATOM     32  O   UNL A   1      41.762  18.589  25.778  1.00  0.00    -0.269 OA
BRANCH  30  33
ATOM     33  C   UNL A   1      41.940  20.817  26.493  1.00  0.00     0.039 A 
ATOM     34  C   UNL A   1      42.458  21.699  25.539  1.00  0.00     0.014 A 
ATOM     35  C   UNL A   1      42.115  21.079  27.853  1.00  0.00     0.014 A 
ATOM     36  C   UNL A   1      43.043  22.899  25.950  1.00  0.00     0.010 A 
ATOM     37  C   UNL A   1      42.629  22.308  28.260  1.00  0.00     0.010 A 
ATOM     38  C   UNL A   1      43.072  23.243  27.311  1.00  0.00    -0.014 A 
BRANCH  38  39
ATOM     39  C   UNL A   1      43.482  24.600  27.758  1.00  0.00     0.031 A 
ATOM     40  C   UNL A   1      42.457  25.647  28.075  1.00  0.00     0.074 A 
ATOM     41  C   UNL A   1      44.791  24.919  27.769  1.00  0.00     0.049 A 
ATOM     42  N   UNL A   1      42.629  26.911  28.370  1.00  0.00    -0.248 NA
ATOM     43  C   UNL A   1      41.049  25.227  28.025  1.00  0.00     0.031 C 
ATOM     44  C   UNL A   1      45.885  24.010  27.419  1.00  0.00     0.029 A 
ATOM     45  N   UNL A   1      45.425  26.102  28.059  1.00  0.00    -0.354 N 
ATOM     46  C   UNL A   1      41.356  27.440  28.531  1.00  0.00     0.074 A 
ATOM     47  C   UNL A   1      40.419  26.371  28.249  1.00  0.00     0.031 C 
ATOM     48  C   UNL A   1      47.051  24.664  27.519  1.00  0.00     0.029 A 
ATOM     49  C   UNL A   1      46.788  26.049  27.899  1.00  0.00     0.049 A 
ATOM     50  H   UNL A   1      44.947  26.911  28.354  1.00  0.00     0.167 HD
ATOM     51  C   UNL A   1      41.001  28.694  28.899  1.00  0.00     0.037 A 
ATOM     52  C   UNL A   1      47.723  27.010  28.022  1.00  0.00     0.037 A 
ATOM     53  C   UNL A   1      41.935  29.752  29.189  1.00  0.00     0.049 A 
ATOM     54  C   UNL A   1      47.307  28.399  28.416  1.00  0.00     0.074 A 
ATOM     55  C   UNL A   1      41.676  31.031  29.650  1.00  0.00     0.029 A 
ATOM     56  N   UNL A   1      43.311  29.657  29.030  1.00  0.00    -0.354 N 
ATOM     57  N   UNL A   1      46.105  28.865  28.648  1.00  0.00    -0.248 NA
ATOM     58  C   UNL A   1      48.378  29.395  28.565  1.00  0.00     0.031 C 
ATOM     59  C   UNL A   1      42.889  31.725  29.723  1.00  0.00     0.029 A 
ATOM     60  C   UNL A   1      43.910  30.866  29.350  1.00  0.00     0.049 A 
ATOM     61  H   UNL A   1      43.790  28.849  28.734  1.00  0.00     0.167 HD
ATOM     62  C   UNL A   1      46.271  30.202  28.978  1.00  0.00     0.074 A 
ATOM     63  C   UNL A   1      47.694  30.468  28.937  1.00  0.00     0.031 C 
ATOM     64  C   UNL A   1      45.326  31.125  29.284  1.00  0.00     0.037 A 
BRANCH  51  65
ATOM     65  C   UNL A   1      39.533  28.991  29.004  1.00  0.00     0.064 A 
ATOM     66  C   UNL A   1      38.781  29.389  27.887  1.00  0.00     0.173 A 
ATOM     67  C   UNL A   1      38.864  28.860  30.231  1.00  0.00     0.173 A 
ATOM     68  F   UNL A   1      39.374  29.537  26.693  1.00  0.00    -0.203 F 
ATOM     69  C   UNL A   1      37.426  29.686  28.003  1.00  0.00     0.198 A 
ATOM     70  C   UNL A   1      37.502  29.128  30.337  1.00  0.00     0.198 A 
ATOM     71  F   UNL A   1      39.533  28.475  31.328  1.00  0.00    -0.203 F 
ATOM     72  F   UNL A   1      36.744  30.122  26.936  1.00  0.00    -0.200 F 
ATOM     73  C   UNL A   1      36.787  29.550  29.226  1.00  0.00     0.200 A 
ATOM     74  F   UNL A   1      36.882  28.985  31.516  1.00  0.00    -0.200 F 
ATOM     75  F   UNL A   1      35.482  29.837  29.337  1.00  0.00    -0.200 F 
ENDBRANCH  51  65
BRANCH  52  76
ATOM     76  C   UNL A   1      49.148  26.677  27.765  1.00  0.00     0.064 A 
ATOM     77  C   UNL A   1      50.004  26.318  28.814  1.00  0.00     0.173 A 
ATOM     78  C   UNL A   1      49.670  26.674  26.464  1.00  0.00     0.173 A 
ATOM     79  F   UNL A   1      49.553  26.326  30.078  1.00  0.00    -0.203 F 
ATOM     80  C   UNL A   1      51.331  25.971  28.573  1.00  0.00     0.198 A 
ATOM     81  C   UNL A   1      50.990  26.302  26.220  1.00  0.00     0.198 A 
ATOM     82  F   UNL A   1      48.888  27.003  25.425  1.00  0.00    -0.203 F 
ATOM     83  F   UNL A   1      52.136  25.656  29.596  1.00  0.00    -0.200 F 
ATOM     84  C   UNL A   1      51.820  25.955  27.274  1.00  0.00     0.200 A 
ATOM     85  F   UNL A   1      51.454  26.272  24.963  1.00  0.00    -0.200 F 
ATOM     86  F   UNL A   1      53.092  25.605  27.040  1.00  0.00    -0.200 F 
ENDBRANCH  52  76
BRANCH  64  87
ATOM     87  C   UNL A   1      45.802  32.516  29.591  1.00  0.00     0.064 A 
ATOM     88  C   UNL A   1      45.874  33.499  28.593  1.00  0.00     0.173 A 
ATOM     89  C   UNL A   1      46.149  32.880  30.900  1.00  0.00     0.173 A 
ATOM     90  F   UNL A   1      45.569  33.195  27.323  1.00  0.00    -0.203 F 
ATOM     91  C   UNL A   1      46.294  34.793  28.893  1.00  0.00     0.198 A 
ATOM     92  C   UNL A   1      46.542  34.181  31.201  1.00  0.00     0.198 A 
ATOM     93  F   UNL A   1      46.094  31.977  31.890  1.00  0.00    -0.203 F 
ATOM     94  F   UNL A   1      46.394  35.706  27.917  1.00  0.00    -0.200 F 
ATOM     95  C   UNL A   1      46.620  35.134  30.197  1.00  0.00     0.200 A 
ATOM     96  F   UNL A   1      46.847  34.513  32.463  1.00  0.00    -0.200 F 
ATOM     97  F   UNL A   1      47.016  36.382  30.485  1.00  0.00    -0.200 F 
ENDBRANCH  64  87
ENDBRANCH  38  39
ENDBRANCH  30  33
ENDBRANCH  28  29
ENDBRANCH  27  28
ENDBRANCH  26  27
ENDBRANCH   1  26
TORSDOF 15
ENDMDL
MODEL 3
REMARK VINA RESULT:     -12.7      0.576      1.671
REMARK SMILES O=C(NCCCCNC(=O)c1ccc(-c2c3nc(c(-c4c(F)c(F)c(F)c(F)c4F)c4ccc([nH]4)c(-c4c(F)c(F)c(F)c(F)c4F)c4nc(c(-c5c(F)c(F)c(F)c(F)c5F)c5ccc2[nH]5)C=C4)C=C3)cc1)c1ccc(NS(=O)(=O)Cc2c(Cl)cccc2Cl)cc1
REMARK SMILES IDX 4 1 3 2 1 3 2 4 74 6 75 7 92 8 76 9 91 10 77 11 78 12 79 14
REMARK SMILES IDX 80 15 81 16 82 17 83 18 84 19 89 20 85 21 86 22 88 23 90 24
REMARK SMILES IDX 87 25 5 26 6 27 7 28 8 29 9 30 10 32 11 33 12 34 73 35 13 36
REMARK SMILES IDX 72 37 14 38 15 39 16 40 66 41 17 42 71 43 65 44 67 45 18 46
REMARK SMILES IDX 70 47 64 48 63 49 19 51 51 52 31 53 50 54 32 55 35 56 49 57
REMARK SMILES IDX 68 58 33 59 34 60 48 62 69 63 36 64 20 65 21 66 29 67 22 68
REMARK SMILES IDX 23 69 27 70 30 71 24 72 25 73 28 74 26 75 52 76 53 77 61 78
REMARK SMILES IDX 54 79 55 80 59 81 62 82 56 83 57 84 60 85 58 86 37 87 38 88
REMARK SMILES IDX 46 89 39 90 40 91 44 92 47 93 41 94 42 95 45 96 43 97
REMARK H PARENT 3 5 78 13 8 31 67 50 35 61
REMARK Flexibility Score: inf
ROOT
ATOM      1  C   UNL A   1      35.408  20.545  25.035  1.00  0.00     0.116 C 
ENDROOT
BRANCH   1   2
ATOM      2  N   UNL A   1      34.341  19.556  25.008  1.00  0.00    -0.352 N 
ATOM      3  O   UNL A   1      32.177  18.863  24.929  1.00  0.00    -0.269 OA
ATOM      4  C   UNL A   1      32.988  19.777  24.870  1.00  0.00     0.251 C 
ATOM      5  H   UNL A   1      34.618  18.616  25.098  1.00  0.00     0.163 HD
BRANCH   4   6
ATOM      6  C   UNL A   1      32.538  21.167  24.686  1.00  0.00     0.039 A 
ATOM      7  C   UNL A   1      31.956  21.851  25.755  1.00  0.00     0.016 A 
ATOM      8  C   UNL A   1      32.534  21.709  23.402  1.00  0.00     0.016 A 
ATOM      9  C   UNL A   1      31.259  23.032  25.509  1.00  0.00     0.027 A 
ATOM     10  C   UNL A   1      31.821  22.886  23.166  1.00  0.00     0.027 A 
ATOM     11  C   UNL A   1      31.141  23.529  24.209  1.00  0.00     0.049 A 
BRANCH  11  12
ATOM     12  N   UNL A   1      30.169  24.500  23.833  1.00  0.00    -0.283 N 
ATOM     13  H   UNL A   1      29.506  24.239  23.154  1.00  0.00     0.180 HD
BRANCH  12  14
ATOM     14  S   UNL A   1      30.067  26.039  24.452  1.00  0.00     0.237 S 
ATOM     15  O   UNL A   1      28.916  26.703  23.876  1.00  0.00    -0.206 OA
ATOM     16  O   UNL A   1      30.134  25.852  25.889  1.00  0.00    -0.206 OA
BRANCH  14  17
ATOM     17  C   UNL A   1      31.563  26.928  23.956  1.00  0.00     0.198 C 
BRANCH  17  18
ATOM     18  C   UNL A   1      32.196  27.806  25.015  1.00  0.00     0.006 A 
ATOM     19  C   UNL A   1      31.798  29.146  25.200  1.00  0.00     0.046 A 
ATOM     20  C   UNL A   1      33.299  27.363  25.777  1.00  0.00     0.046 A 
ATOM     21  Cl  UNL A   1      30.542  29.873  24.263  1.00  0.00    -0.084 Cl
ATOM     22  C   UNL A   1      32.447  29.983  26.118  1.00  0.00     0.021 A 
ATOM     23  C   UNL A   1      33.954  28.208  26.684  1.00  0.00     0.021 A 
ATOM     24  Cl  UNL A   1      33.968  25.773  25.625  1.00  0.00    -0.084 Cl
ATOM     25  C   UNL A   1      33.526  29.518  26.859  1.00  0.00     0.003 A 
ENDBRANCH  17  18
ENDBRANCH  14  17
ENDBRANCH  12  14
ENDBRANCH  11  12
ENDBRANCH   4   6
ENDBRANCH   1   2
BRANCH   1  26
ATOM     26  C   UNL A   1      36.800  19.920  24.976  1.00  0.00     0.023 C 
BRANCH  26  27
ATOM     27  C   UNL A   1      37.962  20.909  24.964  1.00  0.00     0.023 C 
BRANCH  27  28
ATOM     28  C   UNL A   1      38.947  20.783  26.124  1.00  0.00     0.116 C 
BRANCH  28  29
ATOM     29  N   UNL A   1      39.839  19.637  26.006  1.00  0.00    -0.352 N 
ATOM     30  C   UNL A   1      41.211  19.567  26.092  1.00  0.00     0.251 C 
ATOM     31  H   UNL A   1      39.390  18.777  25.838  1.00  0.00     0.163 HD
ATOM     32  O   UNL A   1      41.781  18.507  25.854  1.00  0.00    -0.269 OA
BRANCH  30  33
ATOM     33  C   UNL A   1      42.003  20.774  26.418  1.00  0.00     0.039 A 
ATOM     34  C   UNL A   1      42.439  21.594  25.372  1.00  0.00     0.014 A 
ATOM     35  C   UNL A   1      42.285  21.122  27.741  1.00  0.00     0.014 A 
ATOM     36  C   UNL A   1      43.048  22.818  25.658  1.00  0.00     0.010 A 
ATOM     37  C   UNL A   1      42.822  22.375  28.026  1.00  0.00     0.010 A 
ATOM     38  C   UNL A   1      43.183  23.248  26.988  1.00  0.00    -0.014 A 
BRANCH  38  39
ATOM     39  C   UNL A   1      43.620  24.630  27.314  1.00  0.00     0.031 A 
ATOM     40  C   UNL A   1      42.631  25.663  27.766  1.00  0.00     0.074 A 
ATOM     41  C   UNL A   1      44.902  24.983  27.091  1.00  0.00     0.049 A 
ATOM     42  N   UNL A   1      42.811  26.941  27.986  1.00  0.00    -0.248 NA
ATOM     43  C   UNL A   1      41.249  25.205  27.970  1.00  0.00     0.031 C 
ATOM     44  C   UNL A   1      45.948  24.089  26.590  1.00  0.00     0.029 A 
ATOM     45  N   UNL A   1      45.537  26.192  27.230  1.00  0.00    -0.354 N 
ATOM     46  C   UNL A   1      41.567  27.443  28.344  1.00  0.00     0.074 A 
ATOM     47  C   UNL A   1      40.631  26.341  28.261  1.00  0.00     0.031 C 
ATOM     48  C   UNL A   1      47.093  24.776  26.468  1.00  0.00     0.029 A 
ATOM     49  C   UNL A   1      46.855  26.167  26.842  1.00  0.00     0.049 A 
ATOM     50  H   UNL A   1      45.092  26.999  27.575  1.00  0.00     0.167 HD
ATOM     51  C   UNL A   1      41.241  28.701  28.726  1.00  0.00     0.037 A 
ATOM     52  C   UNL A   1      47.766  27.156  26.772  1.00  0.00     0.037 A 
ATOM     53  C   UNL A   1      42.176  29.792  28.818  1.00  0.00     0.049 A 
ATOM     54  C   UNL A   1      47.380  28.547  27.186  1.00  0.00     0.074 A 
ATOM     55  C   UNL A   1      41.959  31.080  29.274  1.00  0.00     0.029 A 
ATOM     56  N   UNL A   1      43.508  29.726  28.430  1.00  0.00    -0.354 N 
ATOM     57  N   UNL A   1      46.220  28.991  27.604  1.00  0.00    -0.248 NA
ATOM     58  C   UNL A   1      48.429  29.575  27.117  1.00  0.00     0.031 C 
ATOM     59  C   UNL A   1      43.145  31.807  29.116  1.00  0.00     0.029 A 
ATOM     60  C   UNL A   1      44.115  30.961  28.603  1.00  0.00     0.049 A 
ATOM     61  H   UNL A   1      43.955  28.920  28.083  1.00  0.00     0.167 HD
ATOM     62  C   UNL A   1      46.398  30.344  27.856  1.00  0.00     0.074 A 
ATOM     63  C   UNL A   1      47.784  30.644  27.565  1.00  0.00     0.031 C 
ATOM     64  C   UNL A   1      45.490  31.253  28.288  1.00  0.00     0.037 A 
BRANCH  51  65
ATOM     65  C   UNL A   1      39.803  28.963  29.070  1.00  0.00     0.064 A 
ATOM     66  C   UNL A   1      39.317  28.795  30.376  1.00  0.00     0.173 A 
ATOM     67  C   UNL A   1      38.903  29.404  28.088  1.00  0.00     0.173 A 
ATOM     68  F   UNL A   1      40.134  28.368  31.350  1.00  0.00    -0.203 F 
ATOM     69  C   UNL A   1      37.976  29.017  30.677  1.00  0.00     0.198 A 
ATOM     70  C   UNL A   1      37.569  29.655  28.399  1.00  0.00     0.198 A 
ATOM     71  F   UNL A   1      39.317  29.589  26.825  1.00  0.00    -0.203 F 
ATOM     72  F   UNL A   1      37.523  28.792  31.918  1.00  0.00    -0.200 F 
ATOM     73  C   UNL A   1      37.105  29.452  29.690  1.00  0.00     0.200 A 
ATOM     74  F   UNL A   1      36.730  30.086  27.447  1.00  0.00    -0.200 F 
ATOM     75  F   UNL A   1      35.813  29.664  29.980  1.00  0.00    -0.200 F 
ENDBRANCH  51  65
BRANCH  52  76
ATOM     76  C   UNL A   1      49.137  26.850  26.288  1.00  0.00     0.064 A 
ATOM     77  C   UNL A   1      50.111  26.340  27.156  1.00  0.00     0.173 A 
ATOM     78  C   UNL A   1      49.487  27.025  24.941  1.00  0.00     0.173 A 
ATOM     79  F   UNL A   1      49.826  26.174  28.457  1.00  0.00    -0.203 F 
ATOM     80  C   UNL A   1      51.386  26.018  26.697  1.00  0.00     0.198 A 
ATOM     81  C   UNL A   1      50.755  26.680  24.477  1.00  0.00     0.198 A 
ATOM     82  F   UNL A   1      48.588  27.504  24.069  1.00  0.00    -0.203 F 
ATOM     83  F   UNL A   1      52.307  25.555  27.553  1.00  0.00    -0.200 F 
ATOM     84  C   UNL A   1      51.704  26.180  25.356  1.00  0.00     0.200 A 
ATOM     85  F   UNL A   1      51.053  26.822  23.178  1.00  0.00    -0.200 F 
ATOM     86  F   UNL A   1      52.925  25.856  24.912  1.00  0.00    -0.200 F 
ENDBRANCH  52  76
BRANCH  64  87
ATOM     87  C   UNL A   1      45.967  32.666  28.464  1.00  0.00     0.064 A 
ATOM     88  C   UNL A   1      46.560  33.092  29.663  1.00  0.00     0.173 A 
ATOM     89  C   UNL A   1      45.868  33.591  27.415  1.00  0.00     0.173 A 
ATOM     90  F   UNL A   1      46.661  32.249  30.701  1.00  0.00    -0.203 F 
ATOM     91  C   UNL A   1      47.019  34.398  29.809  1.00  0.00     0.198 A 
ATOM     92  C   UNL A   1      46.353  34.888  27.555  1.00  0.00     0.198 A 
ATOM     93  F   UNL A   1      45.311  33.233  26.248  1.00  0.00    -0.203 F 
ATOM     94  F   UNL A   1      47.546  34.794  30.975  1.00  0.00    -0.200 F 
ATOM     95  C   UNL A   1      46.923  35.292  28.753  1.00  0.00     0.200 A 
ATOM     96  F   UNL A   1      46.269  35.748  26.531  1.00  0.00    -0.200 F 
ATOM     97  F   UNL A   1      47.374  36.547  28.893  1.00  0.00    -0.200 F 
ENDBRANCH  64  87
ENDBRANCH  38  39
ENDBRANCH  30  33
ENDBRANCH  28  29
ENDBRANCH  27  28
ENDBRANCH  26  27
ENDBRANCH   1  26
TORSDOF 15
ENDMDL
