MODEL 1
REMARK VINA RESULT:     -12.8      0.000      0.000
REMARK SMILES C[C@H](NC(=O)c1cc(Br)nn1-c1ncccc1Cl)C(=O)NCCCCNC(=O)c1ccc(-c2c3nc(c(-c4c(F)c(F)c(F)c(F)c4F)c4ccc([nH]4)c(-c4c(F)c(F)c(F)c(F)c4F)c4nc(c(-c5c(F)c(F)c(F)c(F)c5F)c5ccc2[nH]5)C=C4)C=C3)cc1
REMARK SMILES IDX 23 1 22 2 21 3 19 4 20 5 2 7 1 8 3 9 4 10 5 12 6 13 7 14
REMARK SMILES IDX 11 15 8 16 10 17 9 18 12 19 13 20 17 21 14 22 16 23 18 24
REMARK SMILES IDX 15 25 24 26 25 27 26 28 27 29 28 31 29 32 30 33 91 34 31 35
REMARK SMILES IDX 90 36 32 37 33 38 34 39 84 40 35 41 89 42 83 43 85 44 36 45
REMARK SMILES IDX 88 46 82 47 81 48 37 50 69 51 49 52 68 53 50 54 53 55 67 56
REMARK SMILES IDX 86 57 51 58 52 59 66 61 87 62 54 63 38 64 39 65 47 66 40 67
REMARK SMILES IDX 41 68 45 69 48 70 42 71 43 72 46 73 44 74 70 75 71 76 79 77
REMARK SMILES IDX 72 78 73 79 77 80 80 81 74 82 75 83 78 84 76 85 55 86 56 87
REMARK SMILES IDX 64 88 57 89 58 90 62 91 65 92 59 93 60 94 63 95 61 96
REMARK H PARENT 21 6 3 11 26 30 85 49 53 60
REMARK Flexibility Score: inf
ROOT
ATOM      1  C   UNL A   1      40.605  20.688  26.600  1.00  0.00     0.023 C 
ENDROOT
BRANCH   1   2
ATOM      2  C   UNL A   1      39.375  21.100  25.792  1.00  0.00     0.116 C 
BRANCH   2   3
ATOM      3  N   UNL A   1      39.025  22.500  25.967  1.00  0.00    -0.354 N 
ATOM      4  C   UNL A   1      37.817  23.129  25.828  1.00  0.00     0.242 C 
ATOM      5  O   UNL A   1      37.731  24.293  26.226  1.00  0.00    -0.273 OA
ATOM      6  H   UNL A   1      39.773  23.086  26.227  1.00  0.00     0.163 HD
BRANCH   4   7
ATOM      7  C   UNL A   1      36.566  22.362  25.332  1.00  0.00     0.168 C 
ATOM      8  C   UNL A   1      35.955  23.157  24.180  1.00  0.00     0.041 C 
BRANCH   7   9
ATOM      9  N   UNL A   1      35.699  22.089  26.485  1.00  0.00    -0.339 N 
ATOM     10  C   UNL A   1      34.488  21.479  26.651  1.00  0.00     0.270 C 
ATOM     11  H   UNL A   1      36.076  22.421  27.332  1.00  0.00     0.164 HD
ATOM     12  O   UNL A   1      33.975  21.567  27.761  1.00  0.00    -0.267 OA
BRANCH  10  13
ATOM     13  C   UNL A   1      33.860  20.794  25.558  1.00  0.00     0.135 A 
ATOM     14  C   UNL A   1      34.092  19.517  25.075  1.00  0.00     0.072 A 
ATOM     15  N   UNL A   1      32.724  21.249  24.888  1.00  0.00    -0.207 N 
ATOM     16  C   UNL A   1      33.111  19.312  24.104  1.00  0.00     0.129 A 
ATOM     17  N   UNL A   1      32.262  20.324  23.997  1.00  0.00    -0.159 NA
ATOM     18  Br  UNL A   1      33.000  17.750  23.069  1.00  0.00    -0.027 Br
BRANCH  15  19
ATOM     19  C   UNL A   1      32.003  22.472  25.057  1.00  0.00     0.173 A 
ATOM     20  N   UNL A   1      31.218  22.563  26.172  1.00  0.00    -0.236 NA
ATOM     21  C   UNL A   1      32.082  23.502  24.118  1.00  0.00     0.085 A 
ATOM     22  C   UNL A   1      30.573  23.729  26.392  1.00  0.00     0.113 A 
ATOM     23  C   UNL A   1      31.407  24.695  24.384  1.00  0.00     0.026 A 
ATOM     24  Cl  UNL A   1      32.774  23.343  22.550  1.00  0.00    -0.080 Cl
ATOM     25  C   UNL A   1      30.649  24.819  25.544  1.00  0.00     0.022 A 
ENDBRANCH  15  19
ENDBRANCH  10  13
ENDBRANCH   7   9
ENDBRANCH   4   7
ENDBRANCH   2   3
ENDBRANCH   1   2
BRANCH   1  26
ATOM     26  C   UNL A   1      41.292  19.401  26.126  1.00  0.00     0.023 C 
BRANCH  26  27
ATOM     27  C   UNL A   1      42.768  19.295  26.501  1.00  0.00     0.116 C 
BRANCH  27  28
ATOM     28  N   UNL A   1      43.629  19.109  25.340  1.00  0.00    -0.352 N 
ATOM     29  C   UNL A   1      44.205  20.076  24.544  1.00  0.00     0.251 C 
ATOM     30  H   UNL A   1      43.824  18.176  25.094  1.00  0.00     0.163 HD
ATOM     31  O   UNL A   1      44.604  19.806  23.420  1.00  0.00    -0.269 OA
BRANCH  29  32
ATOM     32  C   UNL A   1      44.313  21.455  25.054  1.00  0.00     0.039 A 
ATOM     33  C   UNL A   1      43.343  22.399  24.708  1.00  0.00     0.014 A 
ATOM     34  C   UNL A   1      45.370  21.796  25.897  1.00  0.00     0.014 A 
ATOM     35  C   UNL A   1      43.384  23.662  25.296  1.00  0.00     0.010 A 
ATOM     36  C   UNL A   1      45.367  23.022  26.538  1.00  0.00     0.010 A 
ATOM     37  C   UNL A   1      44.376  23.963  26.243  1.00  0.00    -0.014 A 
BRANCH  37  38
ATOM     38  C   UNL A   1      44.237  25.179  27.062  1.00  0.00     0.031 A 
ATOM     39  C   UNL A   1      45.259  26.239  26.797  1.00  0.00     0.074 A 
ATOM     40  C   UNL A   1      43.151  25.471  27.813  1.00  0.00     0.049 A 
ATOM     41  N   UNL A   1      46.016  26.854  27.648  1.00  0.00    -0.248 NA
ATOM     42  C   UNL A   1      45.512  26.624  25.398  1.00  0.00     0.031 C 
ATOM     43  C   UNL A   1      41.921  24.682  27.916  1.00  0.00     0.029 A 
ATOM     44  N   UNL A   1      42.853  26.600  28.532  1.00  0.00    -0.354 N 
ATOM     45  C   UNL A   1      46.718  27.816  26.921  1.00  0.00     0.074 A 
ATOM     46  C   UNL A   1      46.468  27.543  25.532  1.00  0.00     0.031 C 
ATOM     47  C   UNL A   1      40.940  25.449  28.434  1.00  0.00     0.029 A 
ATOM     48  C   UNL A   1      41.505  26.723  28.844  1.00  0.00     0.049 A 
ATOM     49  H   UNL A   1      43.532  27.261  28.801  1.00  0.00     0.167 HD
ATOM     50  C   UNL A   1      47.246  28.912  27.534  1.00  0.00     0.037 A 
ATOM     51  C   UNL A   1      40.866  27.792  29.375  1.00  0.00     0.037 A 
ATOM     52  C   UNL A   1      47.325  28.724  28.957  1.00  0.00     0.049 A 
ATOM     53  C   UNL A   1      41.862  28.641  30.064  1.00  0.00     0.074 A 
ATOM     54  C   UNL A   1      48.134  28.056  29.848  1.00  0.00     0.029 A 
ATOM     55  N   UNL A   1      46.196  29.093  29.628  1.00  0.00    -0.354 N 
ATOM     56  N   UNL A   1      42.481  28.295  31.156  1.00  0.00    -0.248 NA
ATOM     57  C   UNL A   1      42.382  29.832  29.401  1.00  0.00     0.031 C 
ATOM     58  C   UNL A   1      47.364  27.889  31.037  1.00  0.00     0.029 A 
ATOM     59  C   UNL A   1      46.113  28.468  30.841  1.00  0.00     0.049 A 
ATOM     60  H   UNL A   1      45.526  29.726  29.283  1.00  0.00     0.167 HD
ATOM     61  C   UNL A   1      43.698  28.936  31.069  1.00  0.00     0.074 A 
ATOM     62  C   UNL A   1      43.500  30.009  30.108  1.00  0.00     0.031 C 
ATOM     63  C   UNL A   1      44.835  28.319  31.498  1.00  0.00     0.037 A 
BRANCH  50  64
ATOM     64  C   UNL A   1      47.237  30.320  26.959  1.00  0.00     0.064 A 
ATOM     65  C   UNL A   1      48.415  31.098  27.045  1.00  0.00     0.173 A 
ATOM     66  C   UNL A   1      46.060  31.043  26.669  1.00  0.00     0.173 A 
ATOM     67  F   UNL A   1      49.595  30.523  27.323  1.00  0.00    -0.203 F 
ATOM     68  C   UNL A   1      48.394  32.493  26.944  1.00  0.00     0.198 A 
ATOM     69  C   UNL A   1      46.053  32.431  26.520  1.00  0.00     0.198 A 
ATOM     70  F   UNL A   1      44.856  30.461  26.633  1.00  0.00    -0.203 F 
ATOM     71  F   UNL A   1      49.514  33.194  27.168  1.00  0.00    -0.200 F 
ATOM     72  C   UNL A   1      47.211  33.159  26.693  1.00  0.00     0.200 A 
ATOM     73  F   UNL A   1      44.891  33.061  26.295  1.00  0.00    -0.200 F 
ATOM     74  F   UNL A   1      47.174  34.497  26.666  1.00  0.00    -0.200 F 
ENDBRANCH  50  64
BRANCH  51  75
ATOM     75  C   UNL A   1      39.449  28.204  29.241  1.00  0.00     0.064 A 
ATOM     76  C   UNL A   1      38.607  28.279  30.363  1.00  0.00     0.173 A 
ATOM     77  C   UNL A   1      38.960  28.780  28.053  1.00  0.00     0.173 A 
ATOM     78  F   UNL A   1      39.008  27.788  31.544  1.00  0.00    -0.203 F 
ATOM     79  C   UNL A   1      37.367  28.923  30.310  1.00  0.00     0.198 A 
ATOM     80  C   UNL A   1      37.714  29.409  27.997  1.00  0.00     0.198 A 
ATOM     81  F   UNL A   1      39.717  28.826  26.946  1.00  0.00    -0.203 F 
ATOM     82  F   UNL A   1      36.626  29.037  31.421  1.00  0.00    -0.200 F 
ATOM     83  C   UNL A   1      36.928  29.496  29.129  1.00  0.00     0.200 A 
ATOM     84  F   UNL A   1      37.312  29.983  26.853  1.00  0.00    -0.200 F 
ATOM     85  F   UNL A   1      35.767  30.167  29.092  1.00  0.00    -0.200 F 
ENDBRANCH  51  75
BRANCH  63  86
ATOM     86  C   UNL A   1      44.694  27.290  32.574  1.00  0.00     0.064 A 
ATOM     87  C   UNL A   1      44.627  27.576  33.946  1.00  0.00     0.173 A 
ATOM     88  C   UNL A   1      44.579  25.949  32.182  1.00  0.00     0.173 A 
ATOM     89  F   UNL A   1      44.640  28.839  34.392  1.00  0.00    -0.203 F 
ATOM     90  C   UNL A   1      44.512  26.553  34.886  1.00  0.00     0.198 A 
ATOM     91  C   UNL A   1      44.420  24.935  33.119  1.00  0.00     0.198 A 
ATOM     92  F   UNL A   1      44.594  25.624  30.879  1.00  0.00    -0.203 F 
ATOM     93  F   UNL A   1      44.489  26.843  36.195  1.00  0.00    -0.200 F 
ATOM     94  C   UNL A   1      44.404  25.235  34.471  1.00  0.00     0.200 A 
ATOM     95  F   UNL A   1      44.273  23.667  32.709  1.00  0.00    -0.200 F 
ATOM     96  F   UNL A   1      44.267  24.254  35.373  1.00  0.00    -0.200 F 
ENDBRANCH  63  86
ENDBRANCH  37  38
ENDBRANCH  29  32
ENDBRANCH  27  28
ENDBRANCH  26  27
ENDBRANCH   1  26
TORSDOF 14
ENDMDL
MODEL 2
REMARK VINA RESULT:     -12.1      3.215      8.688
REMARK SMILES C[C@H](NC(=O)c1cc(Br)nn1-c1ncccc1Cl)C(=O)NCCCCNC(=O)c1ccc(-c2c3nc(c(-c4c(F)c(F)c(F)c(F)c4F)c4ccc([nH]4)c(-c4c(F)c(F)c(F)c(F)c4F)c4nc(c(-c5c(F)c(F)c(F)c(F)c5F)c5ccc2[nH]5)C=C4)C=C3)cc1
REMARK SMILES IDX 23 1 22 2 21 3 19 4 20 5 2 7 1 8 3 9 4 10 5 12 6 13 7 14
REMARK SMILES IDX 11 15 8 16 10 17 9 18 12 19 13 20 17 21 14 22 16 23 18 24
REMARK SMILES IDX 15 25 24 26 25 27 26 28 27 29 28 31 29 32 30 33 91 34 31 35
REMARK SMILES IDX 90 36 32 37 33 38 34 39 84 40 35 41 89 42 83 43 85 44 36 45
REMARK SMILES IDX 88 46 82 47 81 48 37 50 69 51 49 52 68 53 50 54 53 55 67 56
REMARK SMILES IDX 86 57 51 58 52 59 66 61 87 62 54 63 38 64 39 65 47 66 40 67
REMARK SMILES IDX 41 68 45 69 48 70 42 71 43 72 46 73 44 74 70 75 71 76 79 77
REMARK SMILES IDX 72 78 73 79 77 80 80 81 74 82 75 83 78 84 76 85 55 86 56 87
REMARK SMILES IDX 64 88 57 89 58 90 62 91 65 92 59 93 60 94 63 95 61 96
REMARK H PARENT 21 6 3 11 26 30 85 49 53 60
REMARK Flexibility Score: inf
ROOT
ATOM      1  C   UNL A   1      32.591  30.945  26.832  1.00  0.00     0.023 C 
ENDROOT
BRANCH   1   2
ATOM      2  C   UNL A   1      32.080  29.986  25.758  1.00  0.00     0.116 C 
BRANCH   2   3
ATOM      3  N   UNL A   1      33.056  29.736  24.711  1.00  0.00    -0.354 N 
ATOM      4  C   UNL A   1      33.505  28.551  24.192  1.00  0.00     0.242 C 
ATOM      5  O   UNL A   1      34.192  28.600  23.168  1.00  0.00    -0.273 OA
ATOM      6  H   UNL A   1      33.455  30.543  24.312  1.00  0.00     0.163 HD
BRANCH   4   7
ATOM      7  C   UNL A   1      33.045  27.193  24.778  1.00  0.00     0.168 C 
ATOM      8  C   UNL A   1      33.843  26.939  26.056  1.00  0.00     0.041 C 
BRANCH   7   9
ATOM      9  N   UNL A   1      33.138  26.175  23.724  1.00  0.00    -0.339 N 
ATOM     10  C   UNL A   1      32.906  24.830  23.667  1.00  0.00     0.270 C 
ATOM     11  H   UNL A   1      33.435  26.546  22.862  1.00  0.00     0.164 HD
ATOM     12  O   UNL A   1      33.241  24.257  22.636  1.00  0.00    -0.267 OA
BRANCH  10  13
ATOM     13  C   UNL A   1      32.316  24.143  24.779  1.00  0.00     0.135 A 
ATOM     14  C   UNL A   1      30.992  24.107  25.184  1.00  0.00     0.072 A 
ATOM     15  N   UNL A   1      32.976  23.198  25.565  1.00  0.00    -0.207 N 
ATOM     16  C   UNL A   1      30.957  23.181  26.228  1.00  0.00     0.129 A 
ATOM     17  N   UNL A   1      32.127  22.601  26.452  1.00  0.00    -0.159 NA
ATOM     18  Br  UNL A   1      29.401  22.786  27.200  1.00  0.00    -0.027 Br
BRANCH  15  19
ATOM     19  C   UNL A   1      34.339  22.772  25.513  1.00  0.00     0.173 A 
ATOM     20  N   UNL A   1      35.278  23.696  25.875  1.00  0.00    -0.236 NA
ATOM     21  C   UNL A   1      34.687  21.487  25.090  1.00  0.00     0.085 A 
ATOM     22  C   UNL A   1      36.570  23.305  25.894  1.00  0.00     0.113 A 
ATOM     23  C   UNL A   1      36.032  21.116  25.131  1.00  0.00     0.026 A 
ATOM     24  Cl  UNL A   1      33.610  20.390  24.316  1.00  0.00    -0.080 Cl
ATOM     25  C   UNL A   1      36.991  22.033  25.551  1.00  0.00     0.022 A 
ENDBRANCH  15  19
ENDBRANCH  10  13
ENDBRANCH   7   9
ENDBRANCH   4   7
ENDBRANCH   2   3
ENDBRANCH   1   2
BRANCH   1  26
ATOM     26  C   UNL A   1      33.953  30.578  27.435  1.00  0.00     0.023 C 
BRANCH  26  27
ATOM     27  C   UNL A   1      34.860  31.772  27.725  1.00  0.00     0.116 C 
BRANCH  27  28
ATOM     28  N   UNL A   1      34.780  32.212  29.112  1.00  0.00    -0.352 N 
ATOM     29  C   UNL A   1      35.478  31.731  30.200  1.00  0.00     0.251 C 
ATOM     30  H   UNL A   1      34.149  32.945  29.295  1.00  0.00     0.163 HD
ATOM     31  O   UNL A   1      35.078  31.930  31.339  1.00  0.00    -0.269 OA
BRANCH  29  32
ATOM     32  C   UNL A   1      36.705  30.946  29.976  1.00  0.00     0.039 A 
ATOM     33  C   UNL A   1      37.924  31.604  29.796  1.00  0.00     0.014 A 
ATOM     34  C   UNL A   1      36.639  29.552  29.970  1.00  0.00     0.014 A 
ATOM     35  C   UNL A   1      39.095  30.853  29.713  1.00  0.00     0.010 A 
ATOM     36  C   UNL A   1      37.807  28.812  29.964  1.00  0.00     0.010 A 
ATOM     37  C   UNL A   1      39.042  29.454  29.835  1.00  0.00    -0.014 A 
BRANCH  37  38
ATOM     38  C   UNL A   1      40.295  28.706  30.037  1.00  0.00     0.031 A 
ATOM     39  C   UNL A   1      40.713  28.547  31.464  1.00  0.00     0.074 A 
ATOM     40  C   UNL A   1      40.912  27.983  29.075  1.00  0.00     0.049 A 
ATOM     41  N   UNL A   1      41.860  28.819  31.999  1.00  0.00    -0.248 NA
ATOM     42  C   UNL A   1      39.707  28.077  32.433  1.00  0.00     0.031 C 
ATOM     43  C   UNL A   1      40.444  27.772  27.703  1.00  0.00     0.029 A 
ATOM     44  N   UNL A   1      42.012  27.168  29.154  1.00  0.00    -0.354 N 
ATOM     45  C   UNL A   1      41.778  28.403  33.328  1.00  0.00     0.074 A 
ATOM     46  C   UNL A   1      40.400  28.078  33.573  1.00  0.00     0.031 C 
ATOM     47  C   UNL A   1      41.093  26.719  27.166  1.00  0.00     0.029 A 
ATOM     48  C   UNL A   1      42.127  26.283  28.089  1.00  0.00     0.049 A 
ATOM     49  H   UNL A   1      42.659  27.207  29.895  1.00  0.00     0.167 HD
ATOM     50  C   UNL A   1      42.901  28.122  34.046  1.00  0.00     0.037 A 
ATOM     51  C   UNL A   1      42.981  25.240  27.961  1.00  0.00     0.037 A 
ATOM     52  C   UNL A   1      44.071  28.674  33.418  1.00  0.00     0.049 A 
ATOM     53  C   UNL A   1      44.131  25.459  28.863  1.00  0.00     0.074 A 
ATOM     54  C   UNL A   1      44.671  29.907  33.298  1.00  0.00     0.029 A 
ATOM     55  N   UNL A   1      44.647  27.847  32.497  1.00  0.00    -0.354 N 
ATOM     56  N   UNL A   1      45.025  26.391  28.689  1.00  0.00    -0.248 NA
ATOM     57  C   UNL A   1      44.182  24.777  30.152  1.00  0.00     0.031 C 
ATOM     58  C   UNL A   1      45.511  29.830  32.146  1.00  0.00     0.029 A 
ATOM     59  C   UNL A   1      45.407  28.551  31.606  1.00  0.00     0.049 A 
ATOM     60  H   UNL A   1      44.530  26.870  32.478  1.00  0.00     0.167 HD
ATOM     61  C   UNL A   1      45.436  26.703  29.966  1.00  0.00     0.074 A 
ATOM     62  C   UNL A   1      45.060  25.561  30.783  1.00  0.00     0.031 C 
ATOM     63  C   UNL A   1      45.709  27.994  30.307  1.00  0.00     0.037 A 
BRANCH  50  64
ATOM     64  C   UNL A   1      43.045  26.964  35.020  1.00  0.00     0.064 A 
ATOM     65  C   UNL A   1      43.286  27.247  36.384  1.00  0.00     0.173 A 
ATOM     66  C   UNL A   1      43.312  25.635  34.627  1.00  0.00     0.173 A 
ATOM     67  F   UNL A   1      43.076  28.478  36.875  1.00  0.00    -0.203 F 
ATOM     68  C   UNL A   1      43.841  26.302  37.254  1.00  0.00     0.198 A 
ATOM     69  C   UNL A   1      43.819  24.681  35.512  1.00  0.00     0.198 A 
ATOM     70  F   UNL A   1      43.209  25.232  33.356  1.00  0.00    -0.203 F 
ATOM     71  F   UNL A   1      44.176  26.659  38.502  1.00  0.00    -0.200 F 
ATOM     72  C   UNL A   1      44.117  25.023  36.814  1.00  0.00     0.200 A 
ATOM     73  F   UNL A   1      44.098  23.449  35.060  1.00  0.00    -0.200 F 
ATOM     74  F   UNL A   1      44.712  24.136  37.622  1.00  0.00    -0.200 F 
ENDBRANCH  50  64
BRANCH  51  75
ATOM     75  C   UNL A   1      42.828  23.988  27.182  1.00  0.00     0.064 A 
ATOM     76  C   UNL A   1      43.338  23.879  25.877  1.00  0.00     0.173 A 
ATOM     77  C   UNL A   1      42.409  22.790  27.791  1.00  0.00     0.173 A 
ATOM     78  F   UNL A   1      43.792  24.965  25.235  1.00  0.00    -0.203 F 
ATOM     79  C   UNL A   1      43.455  22.644  25.235  1.00  0.00     0.198 A 
ATOM     80  C   UNL A   1      42.512  21.558  27.142  1.00  0.00     0.198 A 
ATOM     81  F   UNL A   1      41.976  22.777  29.061  1.00  0.00    -0.203 F 
ATOM     82  F   UNL A   1      44.014  22.574  24.019  1.00  0.00    -0.200 F 
ATOM     83  C   UNL A   1      43.052  21.483  25.872  1.00  0.00     0.200 A 
ATOM     84  F   UNL A   1      42.142  20.439  27.781  1.00  0.00    -0.200 F 
ATOM     85  F   UNL A   1      43.220  20.291  25.282  1.00  0.00    -0.200 F 
ENDBRANCH  51  75
BRANCH  63  86
ATOM     86  C   UNL A   1      46.153  28.914  29.215  1.00  0.00     0.064 A 
ATOM     87  C   UNL A   1      47.471  29.013  28.744  1.00  0.00     0.173 A 
ATOM     88  C   UNL A   1      45.177  29.702  28.589  1.00  0.00     0.173 A 
ATOM     89  F   UNL A   1      48.442  28.229  29.231  1.00  0.00    -0.203 F 
ATOM     90  C   UNL A   1      47.804  29.911  27.731  1.00  0.00     0.198 A 
ATOM     91  C   UNL A   1      45.504  30.564  27.549  1.00  0.00     0.198 A 
ATOM     92  F   UNL A   1      43.893  29.614  28.972  1.00  0.00    -0.203 F 
ATOM     93  F   UNL A   1      49.076  30.019  27.321  1.00  0.00    -0.200 F 
ATOM     94  C   UNL A   1      46.820  30.681  27.132  1.00  0.00     0.200 A 
ATOM     95  F   UNL A   1      44.541  31.274  26.945  1.00  0.00    -0.200 F 
ATOM     96  F   UNL A   1      47.136  31.525  26.139  1.00  0.00    -0.200 F 
ENDBRANCH  63  86
ENDBRANCH  37  38
ENDBRANCH  29  32
ENDBRANCH  27  28
ENDBRANCH  26  27
ENDBRANCH   1  26
TORSDOF 14
ENDMDL
MODEL 3
REMARK VINA RESULT:     -12.0      3.079      8.533
REMARK SMILES C[C@H](NC(=O)c1cc(Br)nn1-c1ncccc1Cl)C(=O)NCCCCNC(=O)c1ccc(-c2c3nc(c(-c4c(F)c(F)c(F)c(F)c4F)c4ccc([nH]4)c(-c4c(F)c(F)c(F)c(F)c4F)c4nc(c(-c5c(F)c(F)c(F)c(F)c5F)c5ccc2[nH]5)C=C4)C=C3)cc1
REMARK SMILES IDX 23 1 22 2 21 3 19 4 20 5 2 7 1 8 3 9 4 10 5 12 6 13 7 14
REMARK SMILES IDX 11 15 8 16 10 17 9 18 12 19 13 20 17 21 14 22 16 23 18 24
REMARK SMILES IDX 15 25 24 26 25 27 26 28 27 29 28 31 29 32 30 33 91 34 31 35
REMARK SMILES IDX 90 36 32 37 33 38 34 39 84 40 35 41 89 42 83 43 85 44 36 45
REMARK SMILES IDX 88 46 82 47 81 48 37 50 69 51 49 52 68 53 50 54 53 55 67 56
REMARK SMILES IDX 86 57 51 58 52 59 66 61 87 62 54 63 38 64 39 65 47 66 40 67
REMARK SMILES IDX 41 68 45 69 48 70 42 71 43 72 46 73 44 74 70 75 71 76 79 77
REMARK SMILES IDX 72 78 73 79 77 80 80 81 74 82 75 83 78 84 76 85 55 86 56 87
REMARK SMILES IDX 64 88 57 89 58 90 62 91 65 92 59 93 60 94 63 95 61 96
REMARK H PARENT 21 6 3 11 26 30 85 49 53 60
REMARK Flexibility Score: inf
ROOT
ATOM      1  C   UNL A   1      34.861  29.347  27.016  1.00  0.00     0.023 C 
ENDROOT
BRANCH   1   2
ATOM      2  C   UNL A   1      34.027  28.446  26.104  1.00  0.00     0.116 C 
BRANCH   2   3
ATOM      3  N   UNL A   1      32.701  28.178  26.634  1.00  0.00    -0.354 N 
ATOM      4  C   UNL A   1      31.910  27.068  26.502  1.00  0.00     0.242 C 
ATOM      5  O   UNL A   1      30.903  26.998  27.211  1.00  0.00    -0.273 OA
ATOM      6  H   UNL A   1      32.312  28.906  27.171  1.00  0.00     0.163 HD
BRANCH   4   7
ATOM      7  C   UNL A   1      32.340  25.877  25.610  1.00  0.00     0.168 C 
ATOM      8  C   UNL A   1      31.720  26.078  24.228  1.00  0.00     0.041 C 
BRANCH   7   9
ATOM      9  N   UNL A   1      32.014  24.629  26.310  1.00  0.00    -0.339 N 
ATOM     10  C   UNL A   1      32.655  23.437  26.494  1.00  0.00     0.270 C 
ATOM     11  H   UNL A   1      31.131  24.656  26.746  1.00  0.00     0.164 HD
ATOM     12  O   UNL A   1      32.007  22.537  27.017  1.00  0.00    -0.267 OA
BRANCH  10  13
ATOM     13  C   UNL A   1      34.014  23.266  26.069  1.00  0.00     0.135 A 
ATOM     14  C   UNL A   1      35.167  23.853  26.565  1.00  0.00     0.072 A 
ATOM     15  N   UNL A   1      34.446  22.291  25.170  1.00  0.00    -0.207 N 
ATOM     16  C   UNL A   1      36.214  23.228  25.886  1.00  0.00     0.129 A 
ATOM     17  N   UNL A   1      35.807  22.268  25.069  1.00  0.00    -0.159 NA
ATOM     18  Br  UNL A   1      38.017  23.692  26.124  1.00  0.00    -0.027 Br
BRANCH  15  19
ATOM     19  C   UNL A   1      33.677  21.338  24.432  1.00  0.00     0.173 A 
ATOM     20  N   UNL A   1      33.727  20.046  24.874  1.00  0.00    -0.236 NA
ATOM     21  C   UNL A   1      32.937  21.710  23.308  1.00  0.00     0.085 A 
ATOM     22  C   UNL A   1      32.963  19.134  24.236  1.00  0.00     0.113 A 
ATOM     23  C   UNL A   1      32.153  20.740  22.679  1.00  0.00     0.026 A 
ATOM     24  Cl  UNL A   1      33.079  23.225  22.503  1.00  0.00    -0.080 Cl
ATOM     25  C   UNL A   1      32.154  19.433  23.155  1.00  0.00     0.022 A 
ENDBRANCH  15  19
ENDBRANCH  10  13
ENDBRANCH   7   9
ENDBRANCH   4   7
ENDBRANCH   2   3
ENDBRANCH   1   2
BRANCH   1  26
ATOM     26  C   UNL A   1      34.102  30.529  27.630  1.00  0.00     0.023 C 
BRANCH  26  27
ATOM     27  C   UNL A   1      34.962  31.759  27.910  1.00  0.00     0.116 C 
BRANCH  27  28
ATOM     28  N   UNL A   1      34.924  32.163  29.310  1.00  0.00    -0.352 N 
ATOM     29  C   UNL A   1      35.605  31.612  30.374  1.00  0.00     0.251 C 
ATOM     30  H   UNL A   1      34.338  32.925  29.522  1.00  0.00     0.163 HD
ATOM     31  O   UNL A   1      35.230  31.801  31.524  1.00  0.00    -0.269 OA
BRANCH  29  32
ATOM     32  C   UNL A   1      36.782  30.764  30.112  1.00  0.00     0.039 A 
ATOM     33  C   UNL A   1      38.011  31.359  29.814  1.00  0.00     0.014 A 
ATOM     34  C   UNL A   1      36.662  29.376  30.189  1.00  0.00     0.014 A 
ATOM     35  C   UNL A   1      39.143  30.555  29.694  1.00  0.00     0.010 A 
ATOM     36  C   UNL A   1      37.797  28.588  30.146  1.00  0.00     0.010 A 
ATOM     37  C   UNL A   1      39.044  29.168  29.898  1.00  0.00    -0.014 A 
BRANCH  37  38
ATOM     38  C   UNL A   1      40.278  28.380  30.056  1.00  0.00     0.031 A 
ATOM     39  C   UNL A   1      40.761  28.238  31.465  1.00  0.00     0.074 A 
ATOM     40  C   UNL A   1      40.820  27.613  29.084  1.00  0.00     0.049 A 
ATOM     41  N   UNL A   1      41.942  28.480  31.936  1.00  0.00    -0.248 NA
ATOM     42  C   UNL A   1      39.789  27.828  32.493  1.00  0.00     0.031 C 
ATOM     43  C   UNL A   1      40.276  27.387  27.742  1.00  0.00     0.029 A 
ATOM     44  N   UNL A   1      41.893  26.760  29.128  1.00  0.00    -0.354 N 
ATOM     45  C   UNL A   1      41.912  28.098  33.277  1.00  0.00     0.074 A 
ATOM     46  C   UNL A   1      40.537  27.830  33.597  1.00  0.00     0.031 C 
ATOM     47  C   UNL A   1      40.860  26.299  27.200  1.00  0.00     0.029 A 
ATOM     48  C   UNL A   1      41.923  25.847  28.081  1.00  0.00     0.049 A 
ATOM     49  H   UNL A   1      42.577  26.792  29.835  1.00  0.00     0.167 HD
ATOM     50  C   UNL A   1      43.059  27.792  33.945  1.00  0.00     0.037 A 
ATOM     51  C   UNL A   1      42.731  24.770  27.937  1.00  0.00     0.037 A 
ATOM     52  C   UNL A   1      44.214  28.286  33.247  1.00  0.00     0.049 A 
ATOM     53  C   UNL A   1      43.932  24.968  28.776  1.00  0.00     0.074 A 
ATOM     54  C   UNL A   1      44.852  29.493  33.067  1.00  0.00     0.029 A 
ATOM     55  N   UNL A   1      44.714  27.418  32.320  1.00  0.00    -0.354 N 
ATOM     56  N   UNL A   1      44.849  25.861  28.536  1.00  0.00    -0.248 NA
ATOM     57  C   UNL A   1      44.023  24.314  30.077  1.00  0.00     0.031 C 
ATOM     58  C   UNL A   1      45.630  29.359  31.878  1.00  0.00     0.029 A 
ATOM     59  C   UNL A   1      45.453  28.072  31.375  1.00  0.00     0.049 A 
ATOM     60  H   UNL A   1      44.562  26.446  32.331  1.00  0.00     0.167 HD
ATOM     61  C   UNL A   1      45.335  26.188  29.783  1.00  0.00     0.074 A 
ATOM     62  C   UNL A   1      44.959  25.079  30.645  1.00  0.00     0.031 C 
ATOM     63  C   UNL A   1      45.670  27.475  30.078  1.00  0.00     0.037 A 
BRANCH  50  64
ATOM     64  C   UNL A   1      43.210  26.652  34.940  1.00  0.00     0.064 A 
ATOM     65  C   UNL A   1      43.536  26.957  36.282  1.00  0.00     0.173 A 
ATOM     66  C   UNL A   1      43.403  25.304  34.567  1.00  0.00     0.173 A 
ATOM     67  F   UNL A   1      43.402  28.207  36.751  1.00  0.00    -0.203 F 
ATOM     68  C   UNL A   1      44.099  26.011  37.144  1.00  0.00     0.198 A 
ATOM     69  C   UNL A   1      43.919  24.351  35.447  1.00  0.00     0.198 A 
ATOM     70  F   UNL A   1      43.214  24.877  33.314  1.00  0.00    -0.203 F 
ATOM     71  F   UNL A   1      44.517  26.383  38.363  1.00  0.00    -0.200 F 
ATOM     72  C   UNL A   1      44.301  24.711  36.723  1.00  0.00     0.200 A 
ATOM     73  F   UNL A   1      44.124  23.099  35.013  1.00  0.00    -0.200 F 
ATOM     74  F   UNL A   1      44.904  23.820  37.520  1.00  0.00    -0.200 F 
ENDBRANCH  50  64
BRANCH  51  75
ATOM     75  C   UNL A   1      42.494  23.507  27.198  1.00  0.00     0.064 A 
ATOM     76  C   UNL A   1      43.320  23.130  26.125  1.00  0.00     0.173 A 
ATOM     77  C   UNL A   1      41.618  22.521  27.689  1.00  0.00     0.173 A 
ATOM     78  F   UNL A   1      44.209  23.996  25.618  1.00  0.00    -0.203 F 
ATOM     79  C   UNL A   1      43.296  21.835  25.600  1.00  0.00     0.198 A 
ATOM     80  C   UNL A   1      41.584  21.232  27.153  1.00  0.00     0.198 A 
ATOM     81  F   UNL A   1      40.843  22.758  28.758  1.00  0.00    -0.203 F 
ATOM     82  F   UNL A   1      44.151  21.494  24.625  1.00  0.00    -0.200 F 
ATOM     83  C   UNL A   1      42.435  20.885  26.122  1.00  0.00     0.200 A 
ATOM     84  F   UNL A   1      40.764  20.314  27.686  1.00  0.00    -0.200 F 
ATOM     85  F   UNL A   1      42.454  19.626  25.660  1.00  0.00    -0.200 F 
ENDBRANCH  51  75
BRANCH  63  86
ATOM     86  C   UNL A   1      46.091  28.352  28.942  1.00  0.00     0.064 A 
ATOM     87  C   UNL A   1      47.385  28.386  28.399  1.00  0.00     0.173 A 
ATOM     88  C   UNL A   1      45.116  29.168  28.352  1.00  0.00     0.173 A 
ATOM     89  F   UNL A   1      48.348  27.571  28.851  1.00  0.00    -0.203 F 
ATOM     90  C   UNL A   1      47.699  29.247  27.349  1.00  0.00     0.198 A 
ATOM     91  C   UNL A   1      45.421  29.994  27.276  1.00  0.00     0.198 A 
ATOM     92  F   UNL A   1      43.852  29.143  28.805  1.00  0.00    -0.203 F 
ATOM     93  F   UNL A   1      48.950  29.294  26.869  1.00  0.00    -0.200 F 
ATOM     94  C   UNL A   1      46.716  30.046  26.787  1.00  0.00     0.200 A 
ATOM     95  F   UNL A   1      44.457  30.732  26.710  1.00  0.00    -0.200 F 
ATOM     96  F   UNL A   1      47.011  30.855  25.760  1.00  0.00    -0.200 F 
ENDBRANCH  63  86
ENDBRANCH  37  38
ENDBRANCH  29  32
ENDBRANCH  27  28
ENDBRANCH  26  27
ENDBRANCH   1  26
TORSDOF 14
ENDMDL
