MODEL 1
REMARK VINA RESULT:     -10.8      0.000      0.000
REMARK SMILES CCN(CCOC)C(=O)c1cccn1CC(=O)NCCCCNC(=O)c1ccc(-c2c3nc(c(-c4c(F)c(F)c(F)c(F)c4F)c4ccc([nH]4)c(-c4c(F)c(F)c(F)c(F)c4F)c4nc(c(-c5c(F)c(F)c(F)c(F)c5F)c5ccc2[nH]5)C=C4)C=C3)cc1
REMARK SMILES IDX 16 1 17 2 18 3 15 5 14 6 10 7 11 8 12 9 13 10 8 11 9 12 3 13
REMARK SMILES IDX 2 14 1 15 4 16 5 17 6 18 7 19 19 20 20 21 21 22 22 23 23 24
REMARK SMILES IDX 24 25 25 27 26 28 27 29 88 30 28 31 87 32 29 33 30 34 31 35
REMARK SMILES IDX 81 36 32 37 86 38 80 39 82 40 33 41 85 42 79 43 78 44 34 46
REMARK SMILES IDX 66 47 46 48 65 49 47 50 50 51 64 52 83 53 48 54 49 55 63 57
REMARK SMILES IDX 84 58 51 59 35 60 36 61 44 62 37 63 38 64 42 65 45 66 39 67
REMARK SMILES IDX 40 68 43 69 41 70 67 71 68 72 76 73 69 74 70 75 74 76 77 77
REMARK SMILES IDX 71 78 72 79 75 80 73 81 52 82 53 83 61 84 54 85 55 86 59 87
REMARK SMILES IDX 62 88 56 89 57 90 60 91 58 92
REMARK H PARENT 18 4 23 26 82 45 50 56
REMARK Flexibility Score: inf
ROOT
ATOM      1  C   UNL A   1      33.332  28.452  23.573  1.00  0.00     0.239 C 
ATOM      2  O   UNL A   1      33.907  28.649  22.500  1.00  0.00    -0.273 OA
ATOM      3  N   UNL A   1      32.556  29.459  24.079  1.00  0.00    -0.355 N 
ATOM      4  H   UNL A   1      32.514  30.279  23.536  1.00  0.00     0.163 HD
ENDROOT
BRANCH   1   5
ATOM      5  C   UNL A   1      33.442  27.124  24.301  1.00  0.00     0.222 C 
BRANCH   5   6
ATOM      6  N   UNL A   1      32.467  26.148  23.829  1.00  0.00    -0.334 N 
ATOM      7  C   UNL A   1      32.716  24.834  23.442  1.00  0.00     0.107 A 
ATOM      8  C   UNL A   1      31.478  24.319  23.075  1.00  0.00     0.033 A 
ATOM      9  C   UNL A   1      30.494  25.323  23.213  1.00  0.00     0.020 A 
ATOM     10  C   UNL A   1      31.128  26.436  23.699  1.00  0.00     0.087 A 
BRANCH   7  11
ATOM     11  C   UNL A   1      34.029  24.196  23.522  1.00  0.00     0.270 C 
ATOM     12  O   UNL A   1      34.687  24.015  22.498  1.00  0.00    -0.267 OA
BRANCH  11  13
ATOM     13  N   UNL A   1      34.501  23.695  24.748  1.00  0.00    -0.335 N 
BRANCH  13  14
ATOM     14  C   UNL A   1      35.572  24.435  25.431  1.00  0.00     0.116 C 
ATOM     15  C   UNL A   1      36.844  23.624  25.641  1.00  0.00     0.027 C 
ENDBRANCH  13  14
BRANCH  13  16
ATOM     16  C   UNL A   1      33.924  22.567  25.490  1.00  0.00     0.148 C 
BRANCH  16  17
ATOM     17  C   UNL A   1      33.400  21.435  24.584  1.00  0.00     0.181 C 
BRANCH  17  18
ATOM     18  O   UNL A   1      32.017  21.148  24.777  1.00  0.00    -0.383 OA
ATOM     19  C   UNL A   1      31.371  21.972  25.740  1.00  0.00     0.194 C 
ENDBRANCH  17  18
ENDBRANCH  16  17
ENDBRANCH  13  16
ENDBRANCH  11  13
ENDBRANCH   7  11
ENDBRANCH   5   6
ENDBRANCH   1   5
BRANCH   3  20
ATOM     20  C   UNL A   1      31.790  29.479  25.307  1.00  0.00     0.116 C 
BRANCH  20  21
ATOM     21  C   UNL A   1      32.610  29.988  26.492  1.00  0.00     0.023 C 
BRANCH  21  22
ATOM     22  C   UNL A   1      33.371  28.897  27.253  1.00  0.00     0.023 C 
BRANCH  22  23
ATOM     23  C   UNL A   1      34.893  29.008  27.146  1.00  0.00     0.116 C 
BRANCH  23  24
ATOM     24  N   UNL A   1      35.350  30.358  27.435  1.00  0.00    -0.352 N 
ATOM     25  C   UNL A   1      36.476  30.766  28.104  1.00  0.00     0.251 C 
ATOM     26  H   UNL A   1      34.770  31.080  27.102  1.00  0.00     0.163 HD
ATOM     27  O   UNL A   1      36.523  31.895  28.578  1.00  0.00    -0.269 OA
BRANCH  25  28
ATOM     28  C   UNL A   1      37.631  29.863  28.276  1.00  0.00     0.039 A 
ATOM     29  C   UNL A   1      38.573  29.796  27.244  1.00  0.00     0.014 A 
ATOM     30  C   UNL A   1      37.742  29.024  29.392  1.00  0.00     0.014 A 
ATOM     31  C   UNL A   1      39.665  28.943  27.362  1.00  0.00     0.010 A 
ATOM     32  C   UNL A   1      38.837  28.170  29.516  1.00  0.00     0.010 A 
ATOM     33  C   UNL A   1      39.816  28.155  28.514  1.00  0.00    -0.014 A 
BRANCH  33  34
ATOM     34  C   UNL A   1      41.144  27.534  28.753  1.00  0.00     0.031 A 
ATOM     35  C   UNL A   1      41.165  26.079  28.212  1.00  0.00     0.074 A 
ATOM     36  C   UNL A   1      42.080  28.273  29.431  1.00  0.00     0.049 A 
ATOM     37  N   UNL A   1      41.849  25.047  28.601  1.00  0.00    -0.248 NA
ATOM     38  C   UNL A   1      40.237  25.701  27.106  1.00  0.00     0.031 C 
ATOM     39  C   UNL A   1      41.930  29.701  29.785  1.00  0.00     0.029 A 
ATOM     40  N   UNL A   1      43.330  28.000  29.964  1.00  0.00    -0.354 N 
ATOM     41  C   UNL A   1      41.588  23.983  27.699  1.00  0.00     0.074 A 
ATOM     42  C   UNL A   1      40.505  24.413  26.873  1.00  0.00     0.031 C 
ATOM     43  C   UNL A   1      42.972  30.135  30.529  1.00  0.00     0.029 A 
ATOM     44  C   UNL A   1      43.909  29.047  30.741  1.00  0.00     0.049 A 
ATOM     45  H   UNL A   1      43.788  27.140  29.816  1.00  0.00     0.167 HD
ATOM     46  C   UNL A   1      42.382  22.872  27.611  1.00  0.00     0.037 A 
ATOM     47  C   UNL A   1      45.031  29.027  31.536  1.00  0.00     0.037 A 
ATOM     48  C   UNL A   1      43.394  22.944  28.606  1.00  0.00     0.049 A 
ATOM     49  C   UNL A   1      45.645  27.723  31.273  1.00  0.00     0.074 A 
ATOM     50  C   UNL A   1      43.355  22.792  29.965  1.00  0.00     0.029 A 
ATOM     51  N   UNL A   1      44.560  23.570  28.246  1.00  0.00    -0.354 N 
ATOM     52  N   UNL A   1      46.317  27.435  30.199  1.00  0.00    -0.248 NA
ATOM     53  C   UNL A   1      45.432  26.634  32.235  1.00  0.00     0.031 C 
ATOM     54  C   UNL A   1      44.263  23.766  30.417  1.00  0.00     0.029 A 
ATOM     55  C   UNL A   1      44.991  24.277  29.336  1.00  0.00     0.049 A 
ATOM     56  H   UNL A   1      45.005  23.520  27.369  1.00  0.00     0.167 HD
ATOM     57  C   UNL A   1      46.288  26.064  30.217  1.00  0.00     0.074 A 
ATOM     58  C   UNL A   1      46.074  25.664  31.590  1.00  0.00     0.031 C 
ATOM     59  C   UNL A   1      45.861  25.403  29.112  1.00  0.00     0.037 A 
BRANCH  46  60
ATOM     60  C   UNL A   1      42.555  21.793  26.571  1.00  0.00     0.064 A 
ATOM     61  C   UNL A   1      42.099  20.485  26.891  1.00  0.00     0.173 A 
ATOM     62  C   UNL A   1      43.463  21.882  25.511  1.00  0.00     0.173 A 
ATOM     63  F   UNL A   1      41.171  20.291  27.843  1.00  0.00    -0.203 F 
ATOM     64  C   UNL A   1      42.656  19.343  26.320  1.00  0.00     0.198 A 
ATOM     65  C   UNL A   1      43.978  20.733  24.899  1.00  0.00     0.198 A 
ATOM     66  F   UNL A   1      43.950  23.063  25.112  1.00  0.00    -0.203 F 
ATOM     67  F   UNL A   1      42.317  18.130  26.780  1.00  0.00    -0.200 F 
ATOM     68  C   UNL A   1      43.616  19.469  25.338  1.00  0.00     0.200 A 
ATOM     69  F   UNL A   1      44.898  20.856  23.933  1.00  0.00    -0.200 F 
ATOM     70  F   UNL A   1      44.217  18.379  24.840  1.00  0.00    -0.200 F 
ENDBRANCH  46  60
BRANCH  47  71
ATOM     71  C   UNL A   1      45.743  29.876  32.578  1.00  0.00     0.064 A 
ATOM     72  C   UNL A   1      45.610  29.772  33.967  1.00  0.00     0.173 A 
ATOM     73  C   UNL A   1      46.694  30.864  32.169  1.00  0.00     0.173 A 
ATOM     74  F   UNL A   1      44.666  28.994  34.509  1.00  0.00    -0.203 F 
ATOM     75  C   UNL A   1      46.437  30.496  34.856  1.00  0.00     0.198 A 
ATOM     76  C   UNL A   1      47.547  31.539  33.042  1.00  0.00     0.198 A 
ATOM     77  F   UNL A   1      46.837  31.226  30.888  1.00  0.00    -0.203 F 
ATOM     78  F   UNL A   1      46.271  30.360  36.178  1.00  0.00    -0.200 F 
ATOM     79  C   UNL A   1      47.432  31.342  34.392  1.00  0.00     0.200 A 
ATOM     80  F   UNL A   1      48.483  32.366  32.549  1.00  0.00    -0.200 F 
ATOM     81  F   UNL A   1      48.258  31.972  35.237  1.00  0.00    -0.200 F 
ENDBRANCH  47  71
BRANCH  59  82
ATOM     82  C   UNL A   1      46.034  26.182  27.822  1.00  0.00     0.064 A 
ATOM     83  C   UNL A   1      47.324  26.543  27.403  1.00  0.00     0.173 A 
ATOM     84  C   UNL A   1      44.973  26.698  27.059  1.00  0.00     0.173 A 
ATOM     85  F   UNL A   1      48.394  26.075  28.062  1.00  0.00    -0.203 F 
ATOM     86  C   UNL A   1      47.535  27.387  26.309  1.00  0.00     0.198 A 
ATOM     87  C   UNL A   1      45.179  27.540  25.963  1.00  0.00     0.198 A 
ATOM     88  F   UNL A   1      43.710  26.398  27.359  1.00  0.00    -0.203 F 
ATOM     89  F   UNL A   1      48.784  27.711  25.949  1.00  0.00    -0.200 F 
ATOM     90  C   UNL A   1      46.463  27.890  25.592  1.00  0.00     0.200 A 
ATOM     91  F   UNL A   1      44.131  28.005  25.264  1.00  0.00    -0.200 F 
ATOM     92  F   UNL A   1      46.666  28.693  24.538  1.00  0.00    -0.200 F 
ENDBRANCH  59  82
ENDBRANCH  33  34
ENDBRANCH  25  28
ENDBRANCH  23  24
ENDBRANCH  22  23
ENDBRANCH  21  22
ENDBRANCH  20  21
ENDBRANCH   3  20
TORSDOF 18
ENDMDL
MODEL 2
REMARK VINA RESULT:     -10.2      1.220      1.727
REMARK SMILES CCN(CCOC)C(=O)c1cccn1CC(=O)NCCCCNC(=O)c1ccc(-c2c3nc(c(-c4c(F)c(F)c(F)c(F)c4F)c4ccc([nH]4)c(-c4c(F)c(F)c(F)c(F)c4F)c4nc(c(-c5c(F)c(F)c(F)c(F)c5F)c5ccc2[nH]5)C=C4)C=C3)cc1
REMARK SMILES IDX 16 1 17 2 18 3 15 5 14 6 10 7 11 8 12 9 13 10 8 11 9 12 3 13
REMARK SMILES IDX 2 14 1 15 4 16 5 17 6 18 7 19 19 20 20 21 21 22 22 23 23 24
REMARK SMILES IDX 24 25 25 27 26 28 27 29 88 30 28 31 87 32 29 33 30 34 31 35
REMARK SMILES IDX 81 36 32 37 86 38 80 39 82 40 33 41 85 42 79 43 78 44 34 46
REMARK SMILES IDX 66 47 46 48 65 49 47 50 50 51 64 52 83 53 48 54 49 55 63 57
REMARK SMILES IDX 84 58 51 59 35 60 36 61 44 62 37 63 38 64 42 65 45 66 39 67
REMARK SMILES IDX 40 68 43 69 41 70 67 71 68 72 76 73 69 74 70 75 74 76 77 77
REMARK SMILES IDX 71 78 72 79 75 80 73 81 52 82 53 83 61 84 54 85 55 86 59 87
REMARK SMILES IDX 62 88 56 89 57 90 60 91 58 92
REMARK H PARENT 18 4 23 26 82 45 50 56
REMARK Flexibility Score: inf
ROOT
ATOM      1  C   UNL A   1      33.221  28.145  23.528  1.00  0.00     0.239 C 
ATOM      2  O   UNL A   1      33.857  28.116  22.471  1.00  0.00    -0.273 OA
ATOM      3  N   UNL A   1      32.630  29.325  23.888  1.00  0.00    -0.355 N 
ATOM      4  H   UNL A   1      32.757  30.074  23.263  1.00  0.00     0.163 HD
ENDROOT
BRANCH   1   5
ATOM      5  C   UNL A   1      33.061  26.907  24.392  1.00  0.00     0.222 C 
BRANCH   5   6
ATOM      6  N   UNL A   1      31.981  26.042  23.931  1.00  0.00    -0.334 N 
ATOM      7  C   UNL A   1      32.100  24.759  23.405  1.00  0.00     0.107 A 
ATOM      8  C   UNL A   1      30.800  24.359  23.115  1.00  0.00     0.033 A 
ATOM      9  C   UNL A   1      29.906  25.403  23.438  1.00  0.00     0.020 A 
ATOM     10  C   UNL A   1      30.659  26.424  23.959  1.00  0.00     0.087 A 
BRANCH   7  11
ATOM     11  C   UNL A   1      33.366  24.037  23.299  1.00  0.00     0.270 C 
ATOM     12  O   UNL A   1      34.280  24.498  22.616  1.00  0.00    -0.267 OA
BRANCH  11  13
ATOM     13  N   UNL A   1      33.513  22.769  23.890  1.00  0.00    -0.335 N 
BRANCH  13  14
ATOM     14  C   UNL A   1      32.393  21.823  23.782  1.00  0.00     0.116 C 
ATOM     15  C   UNL A   1      32.419  20.717  24.831  1.00  0.00     0.027 C 
ENDBRANCH  13  14
BRANCH  13  16
ATOM     16  C   UNL A   1      34.746  22.244  24.489  1.00  0.00     0.148 C 
BRANCH  16  17
ATOM     17  C   UNL A   1      35.065  22.843  25.873  1.00  0.00     0.181 C 
BRANCH  17  18
ATOM     18  O   UNL A   1      36.085  23.838  25.839  1.00  0.00    -0.383 OA
ATOM     19  C   UNL A   1      37.164  23.550  24.956  1.00  0.00     0.194 C 
ENDBRANCH  17  18
ENDBRANCH  16  17
ENDBRANCH  13  16
ENDBRANCH  11  13
ENDBRANCH   7  11
ENDBRANCH   5   6
ENDBRANCH   1   5
BRANCH   3  20
ATOM     20  C   UNL A   1      31.841  29.617  25.067  1.00  0.00     0.116 C 
BRANCH  20  21
ATOM     21  C   UNL A   1      32.699  30.129  26.223  1.00  0.00     0.023 C 
BRANCH  21  22
ATOM     22  C   UNL A   1      33.273  29.030  27.123  1.00  0.00     0.023 C 
BRANCH  22  23
ATOM     23  C   UNL A   1      34.790  29.107  27.310  1.00  0.00     0.116 C 
BRANCH  23  24
ATOM     24  N   UNL A   1      35.210  30.438  27.717  1.00  0.00    -0.352 N 
ATOM     25  C   UNL A   1      36.288  30.811  28.481  1.00  0.00     0.251 C 
ATOM     26  H   UNL A   1      34.640  31.175  27.400  1.00  0.00     0.163 HD
ATOM     27  O   UNL A   1      36.290  31.905  29.032  1.00  0.00    -0.269 OA
BRANCH  25  28
ATOM     28  C   UNL A   1      37.443  29.910  28.659  1.00  0.00     0.039 A 
ATOM     29  C   UNL A   1      38.468  29.956  27.709  1.00  0.00     0.014 A 
ATOM     30  C   UNL A   1      37.480  28.968  29.695  1.00  0.00     0.014 A 
ATOM     31  C   UNL A   1      39.564  29.110  27.834  1.00  0.00     0.010 A 
ATOM     32  C   UNL A   1      38.579  28.120  29.827  1.00  0.00     0.010 A 
ATOM     33  C   UNL A   1      39.636  28.215  28.914  1.00  0.00    -0.014 A 
BRANCH  33  34
ATOM     34  C   UNL A   1      40.953  27.591  29.201  1.00  0.00     0.031 A 
ATOM     35  C   UNL A   1      41.124  26.286  28.377  1.00  0.00     0.074 A 
ATOM     36  C   UNL A   1      41.750  28.190  30.143  1.00  0.00     0.049 A 
ATOM     37  N   UNL A   1      41.806  25.212  28.634  1.00  0.00    -0.248 NA
ATOM     38  C   UNL A   1      40.371  26.131  27.098  1.00  0.00     0.031 C 
ATOM     39  C   UNL A   1      41.477  29.505  30.763  1.00  0.00     0.029 A 
ATOM     40  N   UNL A   1      42.932  27.840  30.777  1.00  0.00    -0.354 N 
ATOM     41  C   UNL A   1      41.723  24.360  27.502  1.00  0.00     0.074 A 
ATOM     42  C   UNL A   1      40.738  24.930  26.641  1.00  0.00     0.031 C 
ATOM     43  C   UNL A   1      42.388  29.795  31.720  1.00  0.00     0.029 A 
ATOM     44  C   UNL A   1      43.346  28.711  31.830  1.00  0.00     0.049 A 
ATOM     45  H   UNL A   1      43.451  27.044  30.519  1.00  0.00     0.167 HD
ATOM     46  C   UNL A   1      42.581  23.314  27.297  1.00  0.00     0.037 A 
ATOM     47  C   UNL A   1      44.353  28.548  32.752  1.00  0.00     0.037 A 
ATOM     48  C   UNL A   1      43.448  23.196  28.417  1.00  0.00     0.049 A 
ATOM     49  C   UNL A   1      45.066  27.348  32.311  1.00  0.00     0.074 A 
ATOM     50  C   UNL A   1      43.238  22.755  29.694  1.00  0.00     0.029 A 
ATOM     51  N   UNL A   1      44.616  23.914  28.362  1.00  0.00    -0.354 N 
ATOM     52  N   UNL A   1      45.888  27.313  31.306  1.00  0.00    -0.248 NA
ATOM     53  C   UNL A   1      44.787  26.073  32.985  1.00  0.00     0.031 C 
ATOM     54  C   UNL A   1      44.025  23.632  30.463  1.00  0.00     0.029 A 
ATOM     55  C   UNL A   1      44.860  24.381  29.625  1.00  0.00     0.049 A 
ATOM     56  H   UNL A   1      45.174  24.063  27.566  1.00  0.00     0.167 HD
ATOM     57  C   UNL A   1      45.932  25.969  31.032  1.00  0.00     0.074 A 
ATOM     58  C   UNL A   1      45.560  25.280  32.248  1.00  0.00     0.031 C 
ATOM     59  C   UNL A   1      45.690  25.550  29.766  1.00  0.00     0.037 A 
BRANCH  46  60
ATOM     60  C   UNL A   1      42.948  22.487  26.089  1.00  0.00     0.064 A 
ATOM     61  C   UNL A   1      42.978  21.073  26.237  1.00  0.00     0.173 A 
ATOM     62  C   UNL A   1      43.631  23.000  24.982  1.00  0.00     0.173 A 
ATOM     63  F   UNL A   1      42.295  20.468  27.224  1.00  0.00    -0.203 F 
ATOM     64  C   UNL A   1      43.787  20.260  25.448  1.00  0.00     0.198 A 
ATOM     65  C   UNL A   1      44.397  22.171  24.154  1.00  0.00     0.198 A 
ATOM     66  F   UNL A   1      43.659  24.315  24.732  1.00  0.00    -0.203 F 
ATOM     67  F   UNL A   1      43.916  18.958  25.739  1.00  0.00    -0.200 F 
ATOM     68  C   UNL A   1      44.518  20.816  24.419  1.00  0.00     0.200 A 
ATOM     69  F   UNL A   1      45.093  22.709  23.143  1.00  0.00    -0.200 F 
ATOM     70  F   UNL A   1      45.361  20.057  23.705  1.00  0.00    -0.200 F 
ENDBRANCH  46  60
BRANCH  47  71
ATOM     71  C   UNL A   1      44.874  29.172  34.038  1.00  0.00     0.064 A 
ATOM     72  C   UNL A   1      44.247  29.147  35.288  1.00  0.00     0.173 A 
ATOM     73  C   UNL A   1      46.149  29.821  34.053  1.00  0.00     0.173 A 
ATOM     74  F   UNL A   1      42.993  28.699  35.417  1.00  0.00    -0.203 F 
ATOM     75  C   UNL A   1      44.888  29.613  36.458  1.00  0.00     0.198 A 
ATOM     76  C   UNL A   1      46.805  30.233  35.214  1.00  0.00     0.198 A 
ATOM     77  F   UNL A   1      46.823  30.093  32.929  1.00  0.00    -0.203 F 
ATOM     78  F   UNL A   1      44.244  29.564  37.633  1.00  0.00    -0.200 F 
ATOM     79  C   UNL A   1      46.180  30.111  36.426  1.00  0.00     0.200 A 
ATOM     80  F   UNL A   1      48.049  30.730  35.133  1.00  0.00    -0.200 F 
ATOM     81  F   UNL A   1      46.809  30.488  37.547  1.00  0.00    -0.200 F 
ENDBRANCH  47  71
BRANCH  59  82
ATOM     82  C   UNL A   1      45.989  26.591  28.704  1.00  0.00     0.064 A 
ATOM     83  C   UNL A   1      47.307  27.044  28.535  1.00  0.00     0.173 A 
ATOM     84  C   UNL A   1      45.009  27.252  27.944  1.00  0.00     0.173 A 
ATOM     85  F   UNL A   1      48.306  26.453  29.206  1.00  0.00    -0.203 F 
ATOM     86  C   UNL A   1      47.618  28.107  27.682  1.00  0.00     0.198 A 
ATOM     87  C   UNL A   1      45.316  28.313  27.087  1.00  0.00     0.198 A 
ATOM     88  F   UNL A   1      43.731  26.885  28.014  1.00  0.00    -0.203 F 
ATOM     89  F   UNL A   1      48.889  28.511  27.557  1.00  0.00    -0.200 F 
ATOM     90  C   UNL A   1      46.623  28.745  26.962  1.00  0.00     0.200 A 
ATOM     91  F   UNL A   1      44.344  28.911  26.380  1.00  0.00    -0.200 F 
ATOM     92  F   UNL A   1      46.923  29.759  26.138  1.00  0.00    -0.200 F 
ENDBRANCH  59  82
ENDBRANCH  33  34
ENDBRANCH  25  28
ENDBRANCH  23  24
ENDBRANCH  22  23
ENDBRANCH  21  22
ENDBRANCH  20  21
ENDBRANCH   3  20
TORSDOF 18
ENDMDL
MODEL 3
REMARK VINA RESULT:     -10.1      2.336      8.426
REMARK SMILES CCN(CCOC)C(=O)c1cccn1CC(=O)NCCCCNC(=O)c1ccc(-c2c3nc(c(-c4c(F)c(F)c(F)c(F)c4F)c4ccc([nH]4)c(-c4c(F)c(F)c(F)c(F)c4F)c4nc(c(-c5c(F)c(F)c(F)c(F)c5F)c5ccc2[nH]5)C=C4)C=C3)cc1
REMARK SMILES IDX 16 1 17 2 18 3 15 5 14 6 10 7 11 8 12 9 13 10 8 11 9 12 3 13
REMARK SMILES IDX 2 14 1 15 4 16 5 17 6 18 7 19 19 20 20 21 21 22 22 23 23 24
REMARK SMILES IDX 24 25 25 27 26 28 27 29 88 30 28 31 87 32 29 33 30 34 31 35
REMARK SMILES IDX 81 36 32 37 86 38 80 39 82 40 33 41 85 42 79 43 78 44 34 46
REMARK SMILES IDX 66 47 46 48 65 49 47 50 50 51 64 52 83 53 48 54 49 55 63 57
REMARK SMILES IDX 84 58 51 59 35 60 36 61 44 62 37 63 38 64 42 65 45 66 39 67
REMARK SMILES IDX 40 68 43 69 41 70 67 71 68 72 76 73 69 74 70 75 74 76 77 77
REMARK SMILES IDX 71 78 72 79 75 80 73 81 52 82 53 83 61 84 54 85 55 86 59 87
REMARK SMILES IDX 62 88 56 89 57 90 60 91 58 92
REMARK H PARENT 18 4 23 26 82 45 50 56
REMARK Flexibility Score: inf
ROOT
ATOM      1  C   UNL A   1      33.166  28.297  24.075  1.00  0.00     0.239 C 
ATOM      2  O   UNL A   1      34.097  28.251  23.267  1.00  0.00    -0.273 OA
ATOM      3  N   UNL A   1      32.430  29.449  24.138  1.00  0.00    -0.355 N 
ATOM      4  H   UNL A   1      32.703  30.165  23.521  1.00  0.00     0.163 HD
ENDROOT
BRANCH   1   5
ATOM      5  C   UNL A   1      32.813  27.108  24.950  1.00  0.00     0.222 C 
BRANCH   5   6
ATOM      6  N   UNL A   1      31.819  26.238  24.333  1.00  0.00    -0.334 N 
ATOM      7  C   UNL A   1      32.058  25.149  23.501  1.00  0.00     0.107 A 
ATOM      8  C   UNL A   1      30.801  24.653  23.174  1.00  0.00     0.033 A 
ATOM      9  C   UNL A   1      29.810  25.455  23.782  1.00  0.00     0.020 A 
ATOM     10  C   UNL A   1      30.465  26.414  24.509  1.00  0.00     0.087 A 
BRANCH   7  11
ATOM     11  C   UNL A   1      33.393  24.657  23.167  1.00  0.00     0.270 C 
ATOM     12  O   UNL A   1      33.983  25.101  22.183  1.00  0.00    -0.267 OA
BRANCH  11  13
ATOM     13  N   UNL A   1      33.967  23.605  23.904  1.00  0.00    -0.335 N 
BRANCH  13  14
ATOM     14  C   UNL A   1      35.365  23.249  23.626  1.00  0.00     0.116 C 
ATOM     15  C   UNL A   1      36.320  23.556  24.773  1.00  0.00     0.027 C 
ENDBRANCH  13  14
BRANCH  13  16
ATOM     16  C   UNL A   1      33.339  22.915  25.038  1.00  0.00     0.148 C 
BRANCH  16  17
ATOM     17  C   UNL A   1      32.583  21.632  24.639  1.00  0.00     0.181 C 
BRANCH  17  18
ATOM     18  O   UNL A   1      31.435  21.376  25.445  1.00  0.00    -0.383 OA
ATOM     19  C   UNL A   1      30.883  22.529  26.071  1.00  0.00     0.194 C 
ENDBRANCH  17  18
ENDBRANCH  16  17
ENDBRANCH  13  16
ENDBRANCH  11  13
ENDBRANCH   7  11
ENDBRANCH   5   6
ENDBRANCH   1   5
BRANCH   3  20
ATOM     20  C   UNL A   1      31.301  29.754  24.993  1.00  0.00     0.116 C 
BRANCH  20  21
ATOM     21  C   UNL A   1      31.674  30.717  26.119  1.00  0.00     0.023 C 
BRANCH  21  22
ATOM     22  C   UNL A   1      32.458  30.077  27.270  1.00  0.00     0.023 C 
BRANCH  22  23
ATOM     23  C   UNL A   1      33.884  30.610  27.425  1.00  0.00     0.116 C 
BRANCH  23  24
ATOM     24  N   UNL A   1      33.949  31.679  28.408  1.00  0.00    -0.352 N 
ATOM     25  C   UNL A   1      34.794  31.820  29.481  1.00  0.00     0.251 C 
ATOM     26  H   UNL A   1      33.295  32.405  28.285  1.00  0.00     0.163 HD
ATOM     27  O   UNL A   1      34.483  32.564  30.403  1.00  0.00    -0.269 OA
BRANCH  25  28
ATOM     28  C   UNL A   1      36.069  31.079  29.548  1.00  0.00     0.039 A 
ATOM     29  C   UNL A   1      37.028  31.328  28.561  1.00  0.00     0.014 A 
ATOM     30  C   UNL A   1      36.286  30.088  30.514  1.00  0.00     0.014 A 
ATOM     31  C   UNL A   1      38.235  30.636  28.582  1.00  0.00     0.010 A 
ATOM     32  C   UNL A   1      37.496  29.395  30.541  1.00  0.00     0.010 A 
ATOM     33  C   UNL A   1      38.483  29.694  29.593  1.00  0.00    -0.014 A 
BRANCH  33  34
ATOM     34  C   UNL A   1      39.885  29.243  29.782  1.00  0.00     0.031 A 
ATOM     35  C   UNL A   1      40.732  30.372  30.432  1.00  0.00     0.074 A 
ATOM     36  C   UNL A   1      40.221  27.995  29.324  1.00  0.00     0.049 A 
ATOM     37  N   UNL A   1      41.999  30.634  30.337  1.00  0.00    -0.248 NA
ATOM     38  C   UNL A   1      40.049  31.401  31.270  1.00  0.00     0.031 C 
ATOM     39  C   UNL A   1      39.254  26.995  28.820  1.00  0.00     0.029 A 
ATOM     40  N   UNL A   1      41.413  27.304  29.179  1.00  0.00    -0.354 N 
ATOM     41  C   UNL A   1      42.293  31.703  31.221  1.00  0.00     0.074 A 
ATOM     42  C   UNL A   1      41.036  32.203  31.679  1.00  0.00     0.031 C 
ATOM     43  C   UNL A   1      39.885  25.893  28.356  1.00  0.00     0.029 A 
ATOM     44  C   UNL A   1      41.319  26.051  28.503  1.00  0.00     0.049 A 
ATOM     45  H   UNL A   1      42.269  27.654  29.521  1.00  0.00     0.167 HD
ATOM     46  C   UNL A   1      43.566  32.009  31.619  1.00  0.00     0.037 A 
ATOM     47  C   UNL A   1      42.323  25.226  28.050  1.00  0.00     0.037 A 
ATOM     48  C   UNL A   1      44.482  31.164  30.936  1.00  0.00     0.049 A 
ATOM     49  C   UNL A   1      43.553  25.815  28.583  1.00  0.00     0.074 A 
ATOM     50  C   UNL A   1      44.909  31.137  29.637  1.00  0.00     0.029 A 
ATOM     51  N   UNL A   1      44.784  29.974  31.546  1.00  0.00    -0.354 N 
ATOM     52  N   UNL A   1      43.935  25.714  29.821  1.00  0.00    -0.248 NA
ATOM     53  C   UNL A   1      44.381  26.643  27.698  1.00  0.00     0.031 C 
ATOM     54  C   UNL A   1      45.010  29.760  29.368  1.00  0.00     0.029 A 
ATOM     55  C   UNL A   1      44.895  29.032  30.559  1.00  0.00     0.049 A 
ATOM     56  H   UNL A   1      44.900  29.824  32.512  1.00  0.00     0.167 HD
ATOM     57  C   UNL A   1      44.836  26.745  29.915  1.00  0.00     0.074 A 
ATOM     58  C   UNL A   1      45.309  27.014  28.575  1.00  0.00     0.031 C 
ATOM     59  C   UNL A   1      44.692  27.652  30.913  1.00  0.00     0.037 A 
BRANCH  46  60
ATOM     60  C   UNL A   1      44.138  32.820  32.755  1.00  0.00     0.064 A 
ATOM     61  C   UNL A   1      43.815  32.422  34.082  1.00  0.00     0.173 A 
ATOM     62  C   UNL A   1      44.613  34.127  32.608  1.00  0.00     0.173 A 
ATOM     63  F   UNL A   1      43.419  31.167  34.349  1.00  0.00    -0.203 F 
ATOM     64  C   UNL A   1      43.789  33.324  35.143  1.00  0.00     0.198 A 
ATOM     65  C   UNL A   1      44.641  35.015  33.690  1.00  0.00     0.198 A 
ATOM     66  F   UNL A   1      44.962  34.606  31.408  1.00  0.00    -0.203 F 
ATOM     67  F   UNL A   1      43.310  32.942  36.336  1.00  0.00    -0.200 F 
ATOM     68  C   UNL A   1      44.180  34.631  34.939  1.00  0.00     0.200 A 
ATOM     69  F   UNL A   1      45.039  36.280  33.495  1.00  0.00    -0.200 F 
ATOM     70  F   UNL A   1      44.083  35.526  35.932  1.00  0.00    -0.200 F 
ENDBRANCH  46  60
BRANCH  47  71
ATOM     71  C   UNL A   1      42.522  23.999  27.173  1.00  0.00     0.064 A 
ATOM     72  C   UNL A   1      42.989  23.987  25.854  1.00  0.00     0.173 A 
ATOM     73  C   UNL A   1      42.275  22.693  27.702  1.00  0.00     0.173 A 
ATOM     74  F   UNL A   1      43.138  25.127  25.169  1.00  0.00    -0.203 F 
ATOM     75  C   UNL A   1      43.296  22.785  25.178  1.00  0.00     0.198 A 
ATOM     76  C   UNL A   1      42.627  21.507  27.057  1.00  0.00     0.198 A 
ATOM     77  F   UNL A   1      41.669  22.505  28.881  1.00  0.00    -0.203 F 
ATOM     78  F   UNL A   1      43.743  22.827  23.916  1.00  0.00    -0.200 F 
ATOM     79  C   UNL A   1      43.158  21.552  25.796  1.00  0.00     0.200 A 
ATOM     80  F   UNL A   1      42.456  20.333  27.685  1.00  0.00    -0.200 F 
ATOM     81  F   UNL A   1      43.516  20.419  25.176  1.00  0.00    -0.200 F 
ENDBRANCH  47  71
BRANCH  59  82
ATOM     82  C   UNL A   1      43.958  27.119  32.129  1.00  0.00     0.064 A 
ATOM     83  C   UNL A   1      42.756  27.726  32.529  1.00  0.00     0.173 A 
ATOM     84  C   UNL A   1      44.460  26.126  32.988  1.00  0.00     0.173 A 
ATOM     85  F   UNL A   1      42.197  28.668  31.756  1.00  0.00    -0.203 F 
ATOM     86  C   UNL A   1      42.117  27.381  33.723  1.00  0.00     0.198 A 
ATOM     87  C   UNL A   1      43.822  25.775  34.180  1.00  0.00     0.198 A 
ATOM     88  F   UNL A   1      45.582  25.474  32.690  1.00  0.00    -0.203 F 
ATOM     89  F   UNL A   1      40.975  27.991  34.068  1.00  0.00    -0.200 F 
ATOM     90  C   UNL A   1      42.652  26.409  34.551  1.00  0.00     0.200 A 
ATOM     91  F   UNL A   1      44.342  24.818  34.965  1.00  0.00    -0.200 F 
ATOM     92  F   UNL A   1      42.034  26.072  35.692  1.00  0.00    -0.200 F 
ENDBRANCH  59  82
ENDBRANCH  33  34
ENDBRANCH  25  28
ENDBRANCH  23  24
ENDBRANCH  22  23
ENDBRANCH  21  22
ENDBRANCH  20  21
ENDBRANCH   3  20
TORSDOF 18
ENDMDL
