MODEL 1
REMARK VINA RESULT:     -14.2      0.000      0.000
REMARK SMILES O=C(NCCCCNC(=O)[C@@H]1CCCN1C(=O)[C@H]1CC[C@@H](Cn2c(O)nc3ccccc3c2=O)CC1)c1ccc(-c2c3nc(c(-c4c(F)c(F)c(F)c(F)c4F)c4ccc([nH]4)c(-c4c(F)c(F)c(F)c(F)c4F)c4nc(c(-c5c(F)c(F)c(F)c(F)c5F)c5ccc2[nH]5)C=C4)C=C3)cc1
REMARK SMILES IDX 7 1 6 2 5 3 4 4 3 5 1 6 2 7 37 9 38 10 99 11 39 12 98 13
REMARK SMILES IDX 40 14 41 15 42 16 92 17 43 18 97 19 91 20 93 21 44 22 96 23
REMARK SMILES IDX 90 24 89 25 45 27 77 28 57 29 76 30 58 31 61 32 75 33 94 34
REMARK SMILES IDX 59 35 60 36 74 38 95 39 62 40 46 41 47 42 55 43 48 44 49 45
REMARK SMILES IDX 53 46 56 47 50 48 51 49 54 50 52 51 78 52 79 53 87 54 80 55
REMARK SMILES IDX 81 56 85 57 88 58 82 59 83 60 86 61 84 62 63 63 64 64 72 65
REMARK SMILES IDX 65 66 66 67 70 68 73 69 67 70 68 71 71 72 69 73 8 74 9 75
REMARK SMILES IDX 10 77 11 78 12 79 15 80 13 81 14 82 16 83 17 84 18 85 36 86
REMARK SMILES IDX 19 87 35 88 20 89 21 90 22 91 23 92 24 93 33 94 26 95 32 96
REMARK SMILES IDX 34 97 27 98 31 99 28 100 30 101 29 102 25 103
REMARK H PARENT 3 8 93 26 61 37 8 76 25 104
REMARK Flexibility Score: inf
ROOT
ATOM      1  C   UNL A   1      32.963  29.847  26.091  1.00  0.00     0.116 C 
ENDROOT
BRANCH   1   2
ATOM      2  C   UNL A   1      31.648  30.660  26.213  1.00  0.00     0.023 C 
BRANCH   2   3
ATOM      3  C   UNL A   1      31.529  32.099  26.737  1.00  0.00     0.023 C 
BRANCH   3   4
ATOM      4  C   UNL A   1      32.713  32.681  27.476  1.00  0.00     0.116 C 
BRANCH   4   5
ATOM      5  N   UNL A   1      32.538  34.113  27.626  1.00  0.00    -0.352 N 
ATOM      6  O   UNL A   1      32.420  35.987  28.856  1.00  0.00    -0.269 OA
ATOM      7  C   UNL A   1      32.996  34.925  28.634  1.00  0.00     0.251 C 
ATOM      8  H   UNL A   1      32.026  34.560  26.914  1.00  0.00     0.163 HD
BRANCH   7   9
ATOM      9  C   UNL A   1      34.198  34.559  29.426  1.00  0.00     0.039 A 
ATOM     10  C   UNL A   1      35.459  34.719  28.845  1.00  0.00     0.014 A 
ATOM     11  C   UNL A   1      34.091  33.942  30.678  1.00  0.00     0.014 A 
ATOM     12  C   UNL A   1      36.589  34.205  29.483  1.00  0.00     0.010 A 
ATOM     13  C   UNL A   1      35.228  33.537  31.366  1.00  0.00     0.010 A 
ATOM     14  C   UNL A   1      36.477  33.587  30.739  1.00  0.00    -0.014 A 
BRANCH  14  15
ATOM     15  C   UNL A   1      37.628  32.864  31.331  1.00  0.00     0.031 A 
ATOM     16  C   UNL A   1      38.131  33.261  32.698  1.00  0.00     0.074 A 
ATOM     17  C   UNL A   1      38.189  31.841  30.660  1.00  0.00     0.049 A 
ATOM     18  N   UNL A   1      39.089  32.729  33.413  1.00  0.00    -0.248 NA
ATOM     19  C   UNL A   1      37.495  34.427  33.342  1.00  0.00     0.031 C 
ATOM     20  C   UNL A   1      37.803  31.405  29.317  1.00  0.00     0.029 A 
ATOM     21  N   UNL A   1      39.181  30.966  31.021  1.00  0.00    -0.354 N 
ATOM     22  C   UNL A   1      39.167  33.495  34.571  1.00  0.00     0.074 A 
ATOM     23  C   UNL A   1      38.223  34.576  34.438  1.00  0.00     0.031 C 
ATOM     24  C   UNL A   1      38.506  30.310  28.992  1.00  0.00     0.029 A 
ATOM     25  C   UNL A   1      39.418  29.988  30.086  1.00  0.00     0.049 A 
ATOM     26  H   UNL A   1      39.676  31.033  31.869  1.00  0.00     0.167 HD
ATOM     27  C   UNL A   1      39.926  33.284  35.669  1.00  0.00     0.037 A 
ATOM     28  C   UNL A   1      40.266  28.942  30.120  1.00  0.00     0.037 A 
ATOM     29  C   UNL A   1      40.819  32.169  35.813  1.00  0.00     0.049 A 
ATOM     30  C   UNL A   1      41.103  28.733  31.356  1.00  0.00     0.074 A 
ATOM     31  C   UNL A   1      41.601  31.829  36.901  1.00  0.00     0.029 A 
ATOM     32  N   UNL A   1      41.037  31.207  34.838  1.00  0.00    -0.354 N 
ATOM     33  N   UNL A   1      41.119  29.429  32.468  1.00  0.00    -0.248 NA
ATOM     34  C   UNL A   1      42.035  27.598  31.347  1.00  0.00     0.031 C 
ATOM     35  C   UNL A   1      42.332  30.690  36.566  1.00  0.00     0.029 A 
ATOM     36  C   UNL A   1      41.960  30.284  35.292  1.00  0.00     0.049 A 
ATOM     37  H   UNL A   1      40.601  31.187  33.956  1.00  0.00     0.167 HD
ATOM     38  C   UNL A   1      42.035  28.801  33.299  1.00  0.00     0.074 A 
ATOM     39  C   UNL A   1      42.548  27.659  32.569  1.00  0.00     0.031 C 
ATOM     40  C   UNL A   1      42.423  29.140  34.551  1.00  0.00     0.037 A 
BRANCH  27  41
ATOM     41  C   UNL A   1      39.803  34.239  36.821  1.00  0.00     0.064 A 
ATOM     42  C   UNL A   1      38.934  33.987  37.892  1.00  0.00     0.173 A 
ATOM     43  C   UNL A   1      40.640  35.363  36.907  1.00  0.00     0.173 A 
ATOM     44  F   UNL A   1      38.103  32.934  37.854  1.00  0.00    -0.203 F 
ATOM     45  C   UNL A   1      38.903  34.824  39.004  1.00  0.00     0.198 A 
ATOM     46  C   UNL A   1      40.628  36.182  38.033  1.00  0.00     0.198 A 
ATOM     47  F   UNL A   1      41.493  35.649  35.912  1.00  0.00    -0.203 F 
ATOM     48  F   UNL A   1      38.046  34.576  40.004  1.00  0.00    -0.200 F 
ATOM     49  C   UNL A   1      39.759  35.911  39.080  1.00  0.00     0.200 A 
ATOM     50  F   UNL A   1      41.468  37.223  38.114  1.00  0.00    -0.200 F 
ATOM     51  F   UNL A   1      39.750  36.698  40.165  1.00  0.00    -0.200 F 
ENDBRANCH  27  41
BRANCH  28  52
ATOM     52  C   UNL A   1      40.328  27.997  28.972  1.00  0.00     0.064 A 
ATOM     53  C   UNL A   1      39.617  26.789  28.991  1.00  0.00     0.173 A 
ATOM     54  C   UNL A   1      41.082  28.288  27.825  1.00  0.00     0.173 A 
ATOM     55  F   UNL A   1      38.891  26.454  30.068  1.00  0.00    -0.203 F 
ATOM     56  C   UNL A   1      39.672  25.901  27.917  1.00  0.00     0.198 A 
ATOM     57  C   UNL A   1      41.109  27.416  26.738  1.00  0.00     0.198 A 
ATOM     58  F   UNL A   1      41.773  29.434  27.749  1.00  0.00    -0.203 F 
ATOM     59  F   UNL A   1      39.016  24.734  27.981  1.00  0.00    -0.200 F 
ATOM     60  C   UNL A   1      40.411  26.219  26.788  1.00  0.00     0.200 A 
ATOM     61  F   UNL A   1      41.808  27.738  25.640  1.00  0.00    -0.200 F 
ATOM     62  F   UNL A   1      40.455  25.372  25.751  1.00  0.00    -0.200 F 
ENDBRANCH  28  52
BRANCH  40  63
ATOM     63  C   UNL A   1      43.423  28.263  35.242  1.00  0.00     0.064 A 
ATOM     64  C   UNL A   1      44.798  28.510  35.141  1.00  0.00     0.173 A 
ATOM     65  C   UNL A   1      42.991  27.268  36.133  1.00  0.00     0.173 A 
ATOM     66  F   UNL A   1      45.256  29.448  34.298  1.00  0.00    -0.203 F 
ATOM     67  C   UNL A   1      45.707  27.794  35.913  1.00  0.00     0.198 A 
ATOM     68  C   UNL A   1      43.901  26.576  36.924  1.00  0.00     0.198 A 
ATOM     69  F   UNL A   1      41.682  27.008  36.274  1.00  0.00    -0.203 F 
ATOM     70  F   UNL A   1      47.021  28.037  35.794  1.00  0.00    -0.200 F 
ATOM     71  C   UNL A   1      45.258  26.841  36.815  1.00  0.00     0.200 A 
ATOM     72  F   UNL A   1      43.463  25.674  37.813  1.00  0.00    -0.200 F 
ATOM     73  F   UNL A   1      46.134  26.181  37.585  1.00  0.00    -0.200 F 
ENDBRANCH  40  63
ENDBRANCH  14  15
ENDBRANCH   7   9
ENDBRANCH   4   5
ENDBRANCH   3   4
ENDBRANCH   2   3
ENDBRANCH   1   2
BRANCH   1  74
ATOM     74  N   UNL A   1      33.614  29.478  24.835  1.00  0.00    -0.354 N 
ATOM     75  C   UNL A   1      33.181  28.878  23.683  1.00  0.00     0.242 C 
ATOM     76  H   UNL A   1      34.570  29.712  24.814  1.00  0.00     0.163 HD
ATOM     77  O   UNL A   1      33.655  29.328  22.631  1.00  0.00    -0.273 OA
BRANCH  75  78
ATOM     78  C   UNL A   1      32.283  27.618  23.619  1.00  0.00     0.174 C 
ATOM     79  C   UNL A   1      31.409  27.681  22.348  1.00  0.00     0.037 C 
ATOM     80  N   UNL A   1      31.371  27.368  24.713  1.00  0.00    -0.330 N 
ATOM     81  C   UNL A   1      29.962  27.588  22.818  1.00  0.00     0.024 C 
ATOM     82  C   UNL A   1      30.025  27.773  24.323  1.00  0.00     0.120 C 
BRANCH  80  83
ATOM     83  C   UNL A   1      31.620  26.726  25.904  1.00  0.00     0.226 C 
ATOM     84  O   UNL A   1      30.919  26.999  26.889  1.00  0.00    -0.275 OA
BRANCH  83  85
ATOM     85  C   UNL A   1      32.769  25.695  26.126  1.00  0.00     0.078 C 
ATOM     86  C   UNL A   1      32.270  24.255  26.233  1.00  0.00     0.014 C 
ATOM     87  C   UNL A   1      34.030  25.716  25.267  1.00  0.00     0.014 C 
ATOM     88  C   UNL A   1      33.404  23.316  26.695  1.00  0.00     0.006 C 
ATOM     89  C   UNL A   1      35.152  24.808  25.751  1.00  0.00     0.006 C 
ATOM     90  C   UNL A   1      34.681  23.367  25.821  1.00  0.00     0.009 C 
BRANCH  90  91
ATOM     91  C   UNL A   1      34.453  22.747  24.420  1.00  0.00     0.134 C 
BRANCH  91  92
ATOM     92  N   UNL A   1      33.855  21.399  24.394  1.00  0.00    -0.262 N 
ATOM     93  C   UNL A   1      32.612  21.101  23.878  1.00  0.00     0.297 A 
ATOM     94  C   UNL A   1      34.654  20.350  24.844  1.00  0.00     0.264 A 
ATOM     95  N   UNL A   1      32.154  19.915  23.668  1.00  0.00    -0.197 NA
ATOM     96  C   UNL A   1      34.254  18.987  24.477  1.00  0.00     0.066 A 
ATOM     97  O   UNL A   1      35.684  20.497  25.501  1.00  0.00    -0.268 OA
ATOM     98  C   UNL A   1      33.006  18.828  23.890  1.00  0.00     0.081 A 
ATOM     99  C   UNL A   1      35.140  17.909  24.621  1.00  0.00     0.016 A 
ATOM    100  C   UNL A   1      32.633  17.556  23.453  1.00  0.00     0.029 A 
ATOM    101  C   UNL A   1      34.770  16.652  24.150  1.00  0.00     0.001 A 
ATOM    102  C   UNL A   1      33.514  16.473  23.570  1.00  0.00     0.002 A 
BRANCH  93 103
ATOM    103  O   UNL A   1      31.804  22.128  23.558  1.00  0.00    -0.480 OA
ATOM    104  H   UNL A   1      32.124  23.007  23.604  1.00  0.00     0.296 HD
ENDBRANCH  93 103
ENDBRANCH  91  92
ENDBRANCH  90  91
ENDBRANCH  83  85
ENDBRANCH  80  83
ENDBRANCH  75  78
ENDBRANCH   1  74
TORSDOF 16
ENDMDL
MODEL 2
REMARK VINA RESULT:     -13.9      0.926      2.018
REMARK SMILES O=C(NCCCCNC(=O)[C@@H]1CCCN1C(=O)[C@H]1CC[C@@H](Cn2c(O)nc3ccccc3c2=O)CC1)c1ccc(-c2c3nc(c(-c4c(F)c(F)c(F)c(F)c4F)c4ccc([nH]4)c(-c4c(F)c(F)c(F)c(F)c4F)c4nc(c(-c5c(F)c(F)c(F)c(F)c5F)c5ccc2[nH]5)C=C4)C=C3)cc1
REMARK SMILES IDX 7 1 6 2 5 3 4 4 3 5 1 6 2 7 37 9 38 10 99 11 39 12 98 13
REMARK SMILES IDX 40 14 41 15 42 16 92 17 43 18 97 19 91 20 93 21 44 22 96 23
REMARK SMILES IDX 90 24 89 25 45 27 77 28 57 29 76 30 58 31 61 32 75 33 94 34
REMARK SMILES IDX 59 35 60 36 74 38 95 39 62 40 46 41 47 42 55 43 48 44 49 45
REMARK SMILES IDX 53 46 56 47 50 48 51 49 54 50 52 51 78 52 79 53 87 54 80 55
REMARK SMILES IDX 81 56 85 57 88 58 82 59 83 60 86 61 84 62 63 63 64 64 72 65
REMARK SMILES IDX 65 66 66 67 70 68 73 69 67 70 68 71 71 72 69 73 8 74 9 75
REMARK SMILES IDX 10 77 11 78 12 79 15 80 13 81 14 82 16 83 17 84 18 85 36 86
REMARK SMILES IDX 19 87 35 88 20 89 21 90 22 91 23 92 24 93 33 94 26 95 32 96
REMARK SMILES IDX 34 97 27 98 31 99 28 100 30 101 29 102 25 103
REMARK H PARENT 3 8 93 26 61 37 8 76 25 104
REMARK Flexibility Score: inf
ROOT
ATOM      1  C   UNL A   1      32.905  29.477  26.136  1.00  0.00     0.116 C 
ENDROOT
BRANCH   1   2
ATOM      2  C   UNL A   1      31.628  30.353  26.208  1.00  0.00     0.023 C 
BRANCH   2   3
ATOM      3  C   UNL A   1      31.587  31.851  26.547  1.00  0.00     0.023 C 
BRANCH   3   4
ATOM      4  C   UNL A   1      32.693  32.409  27.412  1.00  0.00     0.116 C 
BRANCH   4   5
ATOM      5  N   UNL A   1      32.527  33.843  27.552  1.00  0.00    -0.352 N 
ATOM      6  O   UNL A   1      32.439  35.730  28.766  1.00  0.00    -0.269 OA
ATOM      7  C   UNL A   1      33.006  34.663  28.544  1.00  0.00     0.251 C 
ATOM      8  H   UNL A   1      32.004  34.286  26.845  1.00  0.00     0.163 HD
BRANCH   7   9
ATOM      9  C   UNL A   1      34.221  34.300  29.317  1.00  0.00     0.039 A 
ATOM     10  C   UNL A   1      35.476  34.560  28.757  1.00  0.00     0.014 A 
ATOM     11  C   UNL A   1      34.139  33.593  30.521  1.00  0.00     0.014 A 
ATOM     12  C   UNL A   1      36.627  34.056  29.366  1.00  0.00     0.010 A 
ATOM     13  C   UNL A   1      35.291  33.194  31.189  1.00  0.00     0.010 A 
ATOM     14  C   UNL A   1      36.539  33.347  30.575  1.00  0.00    -0.014 A 
BRANCH  14  15
ATOM     15  C   UNL A   1      37.721  32.639  31.124  1.00  0.00     0.031 A 
ATOM     16  C   UNL A   1      38.213  32.981  32.509  1.00  0.00     0.074 A 
ATOM     17  C   UNL A   1      38.319  31.678  30.396  1.00  0.00     0.049 A 
ATOM     18  N   UNL A   1      39.195  32.449  33.192  1.00  0.00    -0.248 NA
ATOM     19  C   UNL A   1      37.534  34.083  33.219  1.00  0.00     0.031 C 
ATOM     20  C   UNL A   1      37.945  31.302  29.032  1.00  0.00     0.029 A 
ATOM     21  N   UNL A   1      39.347  30.826  30.706  1.00  0.00    -0.354 N 
ATOM     22  C   UNL A   1      39.248  33.152  34.390  1.00  0.00     0.074 A 
ATOM     23  C   UNL A   1      38.260  34.200  34.319  1.00  0.00     0.031 C 
ATOM     24  C   UNL A   1      38.691  30.256  28.645  1.00  0.00     0.029 A 
ATOM     25  C   UNL A   1      39.619  29.911  29.718  1.00  0.00     0.049 A 
ATOM     26  H   UNL A   1      39.844  30.866  31.555  1.00  0.00     0.167 HD
ATOM     27  C   UNL A   1      40.019  32.912  35.474  1.00  0.00     0.037 A 
ATOM     28  C   UNL A   1      40.509  28.900  29.692  1.00  0.00     0.037 A 
ATOM     29  C   UNL A   1      40.957  31.828  35.553  1.00  0.00     0.049 A 
ATOM     30  C   UNL A   1      41.359  28.658  30.912  1.00  0.00     0.074 A 
ATOM     31  C   UNL A   1      41.757  31.460  36.619  1.00  0.00     0.029 A 
ATOM     32  N   UNL A   1      41.209  30.931  34.526  1.00  0.00    -0.354 N 
ATOM     33  N   UNL A   1      41.352  29.291  32.061  1.00  0.00    -0.248 NA
ATOM     34  C   UNL A   1      42.336  27.563  30.839  1.00  0.00     0.031 C 
ATOM     35  C   UNL A   1      42.531  30.371  36.220  1.00  0.00     0.029 A 
ATOM     36  C   UNL A   1      42.170  30.022  34.927  1.00  0.00     0.049 A 
ATOM     37  H   UNL A   1      40.770  30.941  33.645  1.00  0.00     0.167 HD
ATOM     38  C   UNL A   1      42.296  28.655  32.854  1.00  0.00     0.074 A 
ATOM     39  C   UNL A   1      42.851  27.577  32.061  1.00  0.00     0.031 C 
ATOM     40  C   UNL A   1      42.676  28.940  34.123  1.00  0.00     0.037 A 
BRANCH  27  41
ATOM     41  C   UNL A   1      39.863  33.797  36.677  1.00  0.00     0.064 A 
ATOM     42  C   UNL A   1      40.500  35.044  36.755  1.00  0.00     0.173 A 
ATOM     43  C   UNL A   1      38.985  33.443  37.713  1.00  0.00     0.173 A 
ATOM     44  F   UNL A   1      41.359  35.425  35.798  1.00  0.00    -0.203 F 
ATOM     45  C   UNL A   1      40.267  35.902  37.826  1.00  0.00     0.198 A 
ATOM     46  C   UNL A   1      38.732  34.316  38.768  1.00  0.00     0.198 A 
ATOM     47  F   UNL A   1      38.348  32.263  37.687  1.00  0.00    -0.203 F 
ATOM     48  F   UNL A   1      40.905  37.079  37.891  1.00  0.00    -0.200 F 
ATOM     49  C   UNL A   1      39.373  35.544  38.823  1.00  0.00     0.200 A 
ATOM     50  F   UNL A   1      37.854  33.976  39.722  1.00  0.00    -0.200 F 
ATOM     51  F   UNL A   1      39.126  36.385  39.837  1.00  0.00    -0.200 F 
ENDBRANCH  27  41
BRANCH  28  52
ATOM     52  C   UNL A   1      40.604  28.023  28.493  1.00  0.00     0.064 A 
ATOM     53  C   UNL A   1      39.920  26.801  28.436  1.00  0.00     0.173 A 
ATOM     54  C   UNL A   1      41.363  28.395  27.373  1.00  0.00     0.173 A 
ATOM     55  F   UNL A   1      39.191  26.390  29.485  1.00  0.00    -0.203 F 
ATOM     56  C   UNL A   1      40.006  25.977  27.314  1.00  0.00     0.198 A 
ATOM     57  C   UNL A   1      41.420  27.587  26.239  1.00  0.00     0.198 A 
ATOM     58  F   UNL A   1      42.029  29.559  27.370  1.00  0.00    -0.203 F 
ATOM     59  F   UNL A   1      39.376  24.794  27.305  1.00  0.00    -0.200 F 
ATOM     60  C   UNL A   1      40.750  26.374  26.214  1.00  0.00     0.200 A 
ATOM     61  F   UNL A   1      42.123  27.986  25.169  1.00  0.00    -0.200 F 
ATOM     62  F   UNL A   1      40.823  25.589  25.131  1.00  0.00    -0.200 F 
ENDBRANCH  28  52
BRANCH  40  63
ATOM     63  C   UNL A   1      43.714  28.068  34.762  1.00  0.00     0.064 A 
ATOM     64  C   UNL A   1      43.360  26.886  35.424  1.00  0.00     0.173 A 
ATOM     65  C   UNL A   1      45.077  28.341  34.573  1.00  0.00     0.173 A 
ATOM     66  F   UNL A   1      42.069  26.587  35.632  1.00  0.00    -0.203 F 
ATOM     67  C   UNL A   1      44.338  26.003  35.872  1.00  0.00     0.198 A 
ATOM     68  C   UNL A   1      46.049  27.442  34.996  1.00  0.00     0.198 A 
ATOM     69  F   UNL A   1      45.461  29.455  33.930  1.00  0.00    -0.203 F 
ATOM     70  F   UNL A   1      43.980  24.881  36.514  1.00  0.00    -0.200 F 
ATOM     71  C   UNL A   1      45.679  26.273  35.643  1.00  0.00     0.200 A 
ATOM     72  F   UNL A   1      47.343  27.692  34.750  1.00  0.00    -0.200 F 
ATOM     73  F   UNL A   1      46.616  25.401  36.041  1.00  0.00    -0.200 F 
ENDBRANCH  40  63
ENDBRANCH  14  15
ENDBRANCH   7   9
ENDBRANCH   4   5
ENDBRANCH   3   4
ENDBRANCH   2   3
ENDBRANCH   1   2
BRANCH   1  74
ATOM     74  N   UNL A   1      33.648  29.165  24.916  1.00  0.00    -0.354 N 
ATOM     75  C   UNL A   1      33.280  28.852  23.635  1.00  0.00     0.242 C 
ATOM     76  H   UNL A   1      34.624  29.185  25.044  1.00  0.00     0.163 HD
ATOM     77  O   UNL A   1      33.984  29.339  22.739  1.00  0.00    -0.273 OA
BRANCH  75  78
ATOM     78  C   UNL A   1      32.170  27.844  23.249  1.00  0.00     0.174 C 
ATOM     79  C   UNL A   1      31.080  28.574  22.437  1.00  0.00     0.037 C 
ATOM     80  N   UNL A   1      31.475  27.149  24.309  1.00  0.00    -0.330 N 
ATOM     81  C   UNL A   1      29.770  28.354  23.184  1.00  0.00     0.024 C 
ATOM     82  C   UNL A   1      30.176  27.776  24.527  1.00  0.00     0.120 C 
BRANCH  80  83
ATOM     83  C   UNL A   1      31.842  25.993  24.958  1.00  0.00     0.226 C 
ATOM     84  O   UNL A   1      31.163  25.606  25.921  1.00  0.00    -0.275 OA
BRANCH  83  85
ATOM     85  C   UNL A   1      33.096  25.139  24.597  1.00  0.00     0.078 C 
ATOM     86  C   UNL A   1      34.121  25.073  25.728  1.00  0.00     0.014 C 
ATOM     87  C   UNL A   1      32.958  23.752  23.977  1.00  0.00     0.014 C 
ATOM     88  C   UNL A   1      35.436  24.432  25.237  1.00  0.00     0.006 C 
ATOM     89  C   UNL A   1      34.258  23.144  23.469  1.00  0.00     0.006 C 
ATOM     90  C   UNL A   1      35.272  23.033  24.593  1.00  0.00     0.009 C 
BRANCH  90  91
ATOM     91  C   UNL A   1      34.889  21.954  25.635  1.00  0.00     0.134 C 
BRANCH  91  92
ATOM     92  N   UNL A   1      34.872  20.560  25.154  1.00  0.00    -0.262 N 
ATOM     93  C   UNL A   1      35.995  19.816  24.862  1.00  0.00     0.297 A 
ATOM     94  C   UNL A   1      33.628  19.937  25.080  1.00  0.00     0.264 A 
ATOM     95  N   UNL A   1      36.014  18.549  24.630  1.00  0.00    -0.197 NA
ATOM     96  C   UNL A   1      33.607  18.474  24.987  1.00  0.00     0.066 A 
ATOM     97  O   UNL A   1      32.553  20.533  25.119  1.00  0.00    -0.268 OA
ATOM     98  C   UNL A   1      34.820  17.834  24.770  1.00  0.00     0.081 A 
ATOM     99  C   UNL A   1      32.426  17.751  25.210  1.00  0.00     0.016 A 
ATOM    100  C   UNL A   1      34.844  16.438  24.760  1.00  0.00     0.029 A 
ATOM    101  C   UNL A   1      32.469  16.359  25.233  1.00  0.00     0.001 A 
ATOM    102  C   UNL A   1      33.678  15.702  25.003  1.00  0.00     0.002 A 
BRANCH  93 103
ATOM    103  O   UNL A   1      37.178  20.456  24.820  1.00  0.00    -0.480 OA
ATOM    104  H   UNL A   1      37.696  20.431  24.040  1.00  0.00     0.296 HD
ENDBRANCH  93 103
ENDBRANCH  91  92
ENDBRANCH  90  91
ENDBRANCH  83  85
ENDBRANCH  80  83
ENDBRANCH  75  78
ENDBRANCH   1  74
TORSDOF 16
ENDMDL
MODEL 3
REMARK VINA RESULT:     -13.6      5.089     11.018
REMARK SMILES O=C(NCCCCNC(=O)[C@@H]1CCCN1C(=O)[C@H]1CC[C@@H](Cn2c(O)nc3ccccc3c2=O)CC1)c1ccc(-c2c3nc(c(-c4c(F)c(F)c(F)c(F)c4F)c4ccc([nH]4)c(-c4c(F)c(F)c(F)c(F)c4F)c4nc(c(-c5c(F)c(F)c(F)c(F)c5F)c5ccc2[nH]5)C=C4)C=C3)cc1
REMARK SMILES IDX 7 1 6 2 5 3 4 4 3 5 1 6 2 7 37 9 38 10 99 11 39 12 98 13
REMARK SMILES IDX 40 14 41 15 42 16 92 17 43 18 97 19 91 20 93 21 44 22 96 23
REMARK SMILES IDX 90 24 89 25 45 27 77 28 57 29 76 30 58 31 61 32 75 33 94 34
REMARK SMILES IDX 59 35 60 36 74 38 95 39 62 40 46 41 47 42 55 43 48 44 49 45
REMARK SMILES IDX 53 46 56 47 50 48 51 49 54 50 52 51 78 52 79 53 87 54 80 55
REMARK SMILES IDX 81 56 85 57 88 58 82 59 83 60 86 61 84 62 63 63 64 64 72 65
REMARK SMILES IDX 65 66 66 67 70 68 73 69 67 70 68 71 71 72 69 73 8 74 9 75
REMARK SMILES IDX 10 77 11 78 12 79 15 80 13 81 14 82 16 83 17 84 18 85 36 86
REMARK SMILES IDX 19 87 35 88 20 89 21 90 22 91 23 92 24 93 33 94 26 95 32 96
REMARK SMILES IDX 34 97 27 98 31 99 28 100 30 101 29 102 25 103
REMARK H PARENT 3 8 93 26 61 37 8 76 25 104
REMARK Flexibility Score: inf
ROOT
ATOM      1  C   UNL A   1      35.514  20.017  24.483  1.00  0.00     0.116 C 
ENDROOT
BRANCH   1   2
ATOM      2  C   UNL A   1      36.934  19.676  25.006  1.00  0.00     0.023 C 
BRANCH   2   3
ATOM      3  C   UNL A   1      38.182  20.559  24.851  1.00  0.00     0.023 C 
BRANCH   3   4
ATOM      4  C   UNL A   1      39.083  20.725  26.053  1.00  0.00     0.116 C 
BRANCH   4   5
ATOM      5  N   UNL A   1      40.048  19.643  26.093  1.00  0.00    -0.352 N 
ATOM      6  O   UNL A   1      42.053  18.745  25.633  1.00  0.00    -0.269 OA
ATOM      7  C   UNL A   1      41.417  19.722  26.021  1.00  0.00     0.251 C 
ATOM      8  H   UNL A   1      39.674  18.738  26.184  1.00  0.00     0.163 HD
BRANCH   7   9
ATOM      9  C   UNL A   1      42.137  20.949  26.447  1.00  0.00     0.039 A 
ATOM     10  C   UNL A   1      42.353  21.162  27.812  1.00  0.00     0.014 A 
ATOM     11  C   UNL A   1      42.485  21.948  25.531  1.00  0.00     0.014 A 
ATOM     12  C   UNL A   1      42.848  22.390  28.254  1.00  0.00     0.010 A 
ATOM     13  C   UNL A   1      43.089  23.124  25.963  1.00  0.00     0.010 A 
ATOM     14  C   UNL A   1      43.197  23.389  27.331  1.00  0.00    -0.014 A 
BRANCH  14  15
ATOM     15  C   UNL A   1      43.532  24.759  27.792  1.00  0.00     0.031 A 
ATOM     16  C   UNL A   1      44.973  25.207  27.800  1.00  0.00     0.074 A 
ATOM     17  C   UNL A   1      42.546  25.597  28.163  1.00  0.00     0.049 A 
ATOM     18  N   UNL A   1      45.474  26.374  28.118  1.00  0.00    -0.248 NA
ATOM     19  C   UNL A   1      45.996  24.211  27.429  1.00  0.00     0.031 C 
ATOM     20  C   UNL A   1      41.126  25.247  28.229  1.00  0.00     0.029 A 
ATOM     21  N   UNL A   1      42.580  26.918  28.529  1.00  0.00    -0.354 N 
ATOM     22  C   UNL A   1      46.852  26.242  27.990  1.00  0.00     0.074 A 
ATOM     23  C   UNL A   1      47.124  24.869  27.646  1.00  0.00     0.031 C 
ATOM     24  C   UNL A   1      40.419  26.340  28.553  1.00  0.00     0.029 A 
ATOM     25  C   UNL A   1      41.337  27.458  28.753  1.00  0.00     0.049 A 
ATOM     26  H   UNL A   1      43.416  27.430  28.623  1.00  0.00     0.167 HD
ATOM     27  C   UNL A   1      47.802  27.196  28.101  1.00  0.00     0.037 A 
ATOM     28  C   UNL A   1      40.983  28.718  29.070  1.00  0.00     0.037 A 
ATOM     29  C   UNL A   1      47.512  28.573  28.387  1.00  0.00     0.049 A 
ATOM     30  C   UNL A   1      42.064  29.761  29.192  1.00  0.00     0.074 A 
ATOM     31  C   UNL A   1      48.392  29.636  28.475  1.00  0.00     0.029 A 
ATOM     32  N   UNL A   1      46.241  29.076  28.616  1.00  0.00    -0.354 N 
ATOM     33  N   UNL A   1      43.356  29.635  29.005  1.00  0.00    -0.248 NA
ATOM     34  C   UNL A   1      41.643  31.118  29.564  1.00  0.00     0.031 C 
ATOM     35  C   UNL A   1      47.659  30.774  28.809  1.00  0.00     0.029 A 
ATOM     36  C   UNL A   1      46.315  30.433  28.869  1.00  0.00     0.049 A 
ATOM     37  H   UNL A   1      45.412  28.546  28.603  1.00  0.00     0.167 HD
ATOM     38  C   UNL A   1      43.897  30.896  29.206  1.00  0.00     0.074 A 
ATOM     39  C   UNL A   1      42.792  31.780  29.518  1.00  0.00     0.031 C 
ATOM     40  C   UNL A   1      45.191  31.290  29.144  1.00  0.00     0.037 A 
BRANCH  27  41
ATOM     41  C   UNL A   1      49.236  26.811  27.877  1.00  0.00     0.064 A 
ATOM     42  C   UNL A   1      50.099  26.542  28.950  1.00  0.00     0.173 A 
ATOM     43  C   UNL A   1      49.724  26.606  26.577  1.00  0.00     0.173 A 
ATOM     44  F   UNL A   1      49.686  26.734  30.212  1.00  0.00    -0.203 F 
ATOM     45  C   UNL A   1      51.395  26.085  28.730  1.00  0.00     0.198 A 
ATOM     46  C   UNL A   1      51.011  26.121  26.362  1.00  0.00     0.198 A 
ATOM     47  F   UNL A   1      48.941  26.846  25.514  1.00  0.00    -0.203 F 
ATOM     48  F   UNL A   1      52.208  25.857  29.771  1.00  0.00    -0.200 F 
ATOM     49  C   UNL A   1      51.845  25.861  27.439  1.00  0.00     0.200 A 
ATOM     50  F   UNL A   1      51.440  25.888  25.113  1.00  0.00    -0.200 F 
ATOM     51  F   UNL A   1      53.083  25.391  27.231  1.00  0.00    -0.200 F 
ENDBRANCH  27  41
BRANCH  28  52
ATOM     52  C   UNL A   1      39.547  29.065  29.247  1.00  0.00     0.064 A 
ATOM     53  C   UNL A   1      38.942  29.019  30.511  1.00  0.00     0.173 A 
ATOM     54  C   UNL A   1      38.753  29.468  28.163  1.00  0.00     0.173 A 
ATOM     55  F   UNL A   1      39.652  28.628  31.581  1.00  0.00    -0.203 F 
ATOM     56  C   UNL A   1      37.597  29.345  30.681  1.00  0.00     0.198 A 
ATOM     57  C   UNL A   1      37.417  29.826  28.339  1.00  0.00     0.198 A 
ATOM     58  F   UNL A   1      39.282  29.540  26.933  1.00  0.00    -0.203 F 
ATOM     59  F   UNL A   1      37.035  29.250  31.894  1.00  0.00    -0.200 F 
ATOM     60  C   UNL A   1      36.837  29.755  29.596  1.00  0.00     0.200 A 
ATOM     61  F   UNL A   1      36.693  30.243  27.290  1.00  0.00    -0.200 F 
ATOM     62  F   UNL A   1      35.548  30.079  29.761  1.00  0.00    -0.200 F 
ENDBRANCH  28  52
BRANCH  40  63
ATOM     63  C   UNL A   1      45.502  32.736  29.381  1.00  0.00     0.064 A 
ATOM     64  C   UNL A   1      45.440  33.673  28.342  1.00  0.00     0.173 A 
ATOM     65  C   UNL A   1      45.711  33.206  30.687  1.00  0.00     0.173 A 
ATOM     66  F   UNL A   1      45.248  33.267  27.077  1.00  0.00    -0.203 F 
ATOM     67  C   UNL A   1      45.571  35.033  28.602  1.00  0.00     0.198 A 
ATOM     68  C   UNL A   1      45.811  34.568  30.947  1.00  0.00     0.198 A 
ATOM     69  F   UNL A   1      45.762  32.347  31.716  1.00  0.00    -0.203 F 
ATOM     70  F   UNL A   1      45.520  35.914  27.592  1.00  0.00    -0.200 F 
ATOM     71  C   UNL A   1      45.739  35.481  29.904  1.00  0.00     0.200 A 
ATOM     72  F   UNL A   1      45.947  35.000  32.208  1.00  0.00    -0.200 F 
ATOM     73  F   UNL A   1      45.825  36.794  30.156  1.00  0.00    -0.200 F 
ENDBRANCH  40  63
ENDBRANCH  14  15
ENDBRANCH   7   9
ENDBRANCH   4   5
ENDBRANCH   3   4
ENDBRANCH   2   3
ENDBRANCH   1   2
BRANCH   1  74
ATOM     74  N   UNL A   1      34.307  20.092  25.304  1.00  0.00    -0.354 N 
ATOM     75  C   UNL A   1      33.062  20.629  25.114  1.00  0.00     0.242 C 
ATOM     76  H   UNL A   1      34.414  19.663  26.184  1.00  0.00     0.163 HD
ATOM     77  O   UNL A   1      32.117  19.969  25.568  1.00  0.00    -0.273 OA
BRANCH  75  78
ATOM     78  C   UNL A   1      32.778  22.031  24.523  1.00  0.00     0.174 C 
ATOM     79  C   UNL A   1      32.044  21.875  23.174  1.00  0.00     0.037 C 
ATOM     80  N   UNL A   1      33.900  22.906  24.262  1.00  0.00    -0.330 N 
ATOM     81  C   UNL A   1      32.894  22.597  22.137  1.00  0.00     0.024 C 
ATOM     82  C   UNL A   1      34.210  22.883  22.837  1.00  0.00     0.120 C 
BRANCH  80  83
ATOM     83  C   UNL A   1      34.534  23.763  25.131  1.00  0.00     0.226 C 
ATOM     84  O   UNL A   1      35.470  23.332  25.821  1.00  0.00    -0.275 OA
BRANCH  83  85
ATOM     85  C   UNL A   1      34.131  25.253  25.351  1.00  0.00     0.078 C 
ATOM     86  C   UNL A   1      33.948  26.025  24.045  1.00  0.00     0.014 C 
ATOM     87  C   UNL A   1      33.007  25.636  26.310  1.00  0.00     0.014 C 
ATOM     88  C   UNL A   1      33.795  27.536  24.319  1.00  0.00     0.006 C 
ATOM     89  C   UNL A   1      32.886  27.127  26.595  1.00  0.00     0.006 C 
ATOM     90  C   UNL A   1      32.662  27.901  25.309  1.00  0.00     0.009 C 
BRANCH  90  91
ATOM     91  C   UNL A   1      31.258  27.655  24.704  1.00  0.00     0.134 C 
BRANCH  91  92
ATOM     92  N   UNL A   1      30.796  28.640  23.709  1.00  0.00    -0.262 N 
ATOM     93  C   UNL A   1      30.550  28.362  22.382  1.00  0.00     0.297 A 
ATOM     94  C   UNL A   1      30.504  29.919  24.181  1.00  0.00     0.264 A 
ATOM     95  N   UNL A   1      29.965  29.150  21.547  1.00  0.00    -0.197 NA
ATOM     96  C   UNL A   1      29.690  30.789  23.326  1.00  0.00     0.066 A 
ATOM     97  O   UNL A   1      30.859  30.348  25.278  1.00  0.00    -0.268 OA
ATOM     98  C   UNL A   1      29.447  30.356  22.030  1.00  0.00     0.081 A 
ATOM     99  C   UNL A   1      29.101  31.956  23.833  1.00  0.00     0.016 A 
ATOM    100  C   UNL A   1      28.607  31.122  21.219  1.00  0.00     0.029 A 
ATOM    101  C   UNL A   1      28.237  32.693  23.026  1.00  0.00     0.001 A 
ATOM    102  C   UNL A   1      27.994  32.279  21.716  1.00  0.00     0.002 A 
BRANCH  93 103
ATOM    103  O   UNL A   1      30.946  27.166  21.909  1.00  0.00    -0.480 OA
ATOM    104  H   UNL A   1      31.528  26.633  22.414  1.00  0.00     0.296 HD
ENDBRANCH  93 103
ENDBRANCH  91  92
ENDBRANCH  90  91
ENDBRANCH  83  85
ENDBRANCH  80  83
ENDBRANCH  75  78
ENDBRANCH   1  74
TORSDOF 16
ENDMDL
