MODEL 1
REMARK VINA RESULT:     -10.4      0.000      0.000
REMARK SMILES CCC(CC)(C[C@H](O)COC)C(=O)NCCCCNC(=O)c1ccc(-c2c3nc(c(-c4c(F)c(F)c(F)c(F)c4F)c4ccc([nH]4)c(-c4c(F)c(F)c(F)c(F)c4F)c4nc(c(-c5c(F)c(F)c(F)c(F)c5F)c5ccc2[nH]5)C=C4)C=C3)cc1
REMARK SMILES IDX 15 1 14 2 12 3 13 4 3 6 2 7 1 8 4 9 5 10 6 11 7 12 9 13
REMARK SMILES IDX 10 14 11 15 8 16 16 18 17 19 18 20 19 21 20 22 21 24 22 25
REMARK SMILES IDX 23 26 84 27 24 28 83 29 25 30 26 31 27 32 77 33 28 34 82 35
REMARK SMILES IDX 76 36 78 37 29 38 81 39 75 40 74 41 30 43 62 44 42 45 61 46
REMARK SMILES IDX 43 47 46 48 60 49 79 50 44 51 45 52 59 54 80 55 47 56 31 57
REMARK SMILES IDX 32 58 40 59 33 60 34 61 38 62 41 63 35 64 36 65 39 66 37 67
REMARK SMILES IDX 63 68 64 69 72 70 65 71 66 72 70 73 73 74 67 75 68 76 71 77
REMARK SMILES IDX 69 78 48 79 49 80 57 81 50 82 51 83 55 84 58 85 52 86 53 87
REMARK SMILES IDX 56 88 54 89
REMARK H PARENT 14 5 8 17 19 23 78 42 46 53
REMARK Flexibility Score: inf
ROOT
ATOM      1  C   UNL A   1      32.170  29.704  25.803  1.00  0.00     0.116 C 
ENDROOT
BRANCH   1   2
ATOM      2  N   UNL A   1      31.595  28.369  25.836  1.00  0.00    -0.356 N 
ATOM      3  C   UNL A   1      31.443  27.391  24.900  1.00  0.00     0.226 C 
ATOM      4  O   UNL A   1      30.882  26.365  25.292  1.00  0.00    -0.274 OA
ATOM      5  H   UNL A   1      31.241  28.119  26.721  1.00  0.00     0.163 HD
BRANCH   3   6
ATOM      6  C   UNL A   1      31.907  27.557  23.436  1.00  0.00     0.051 C 
BRANCH   6   7
ATOM      7  C   UNL A   1      31.248  26.446  22.541  1.00  0.00     0.013 C 
ATOM      8  C   UNL A   1      32.061  25.928  21.355  1.00  0.00     0.005 C 
ENDBRANCH   6   7
BRANCH   6   9
ATOM      9  C   UNL A   1      33.464  27.386  23.409  1.00  0.00     0.013 C 
ATOM     10  C   UNL A   1      34.268  28.586  22.928  1.00  0.00     0.005 C 
ENDBRANCH   6   9
BRANCH   6  11
ATOM     11  C   UNL A   1      31.439  28.942  22.870  1.00  0.00     0.051 C 
BRANCH  11  12
ATOM     12  C   UNL A   1      30.060  29.045  22.166  1.00  0.00     0.141 C 
BRANCH  12  13
ATOM     13  C   UNL A   1      28.881  29.471  23.065  1.00  0.00     0.191 C 
BRANCH  13  14
ATOM     14  O   UNL A   1      28.410  30.801  22.812  1.00  0.00    -0.382 OA
ATOM     15  C   UNL A   1      28.801  31.753  23.789  1.00  0.00     0.195 C 
ENDBRANCH  13  14
ENDBRANCH  12  13
BRANCH  12  16
ATOM     16  O   UNL A   1      30.227  30.038  21.130  1.00  0.00    -0.391 OA
ATOM     17  H   UNL A   1      30.701  29.645  20.379  1.00  0.00     0.211 HD
ENDBRANCH  12  16
ENDBRANCH  11  12
ENDBRANCH   6  11
ENDBRANCH   3   6
ENDBRANCH   1   2
BRANCH   1  18
ATOM     18  C   UNL A   1      31.730  30.559  26.987  1.00  0.00     0.023 C 
BRANCH  18  19
ATOM     19  C   UNL A   1      31.665  32.057  26.709  1.00  0.00     0.023 C 
BRANCH  19  20
ATOM     20  C   UNL A   1      32.858  32.845  27.233  1.00  0.00     0.116 C 
BRANCH  20  21
ATOM     21  N   UNL A   1      32.505  34.206  27.613  1.00  0.00    -0.352 N 
ATOM     22  C   UNL A   1      33.007  34.978  28.631  1.00  0.00     0.251 C 
ATOM     23  H   UNL A   1      31.810  34.632  27.062  1.00  0.00     0.163 HD
ATOM     24  O   UNL A   1      32.481  36.049  28.914  1.00  0.00    -0.269 OA
BRANCH  22  25
ATOM     25  C   UNL A   1      34.167  34.493  29.401  1.00  0.00     0.039 A 
ATOM     26  C   UNL A   1      33.952  33.878  30.635  1.00  0.00     0.014 A 
ATOM     27  C   UNL A   1      35.460  34.617  28.885  1.00  0.00     0.014 A 
ATOM     28  C   UNL A   1      35.032  33.325  31.324  1.00  0.00     0.010 A 
ATOM     29  C   UNL A   1      36.520  33.992  29.529  1.00  0.00     0.010 A 
ATOM     30  C   UNL A   1      36.317  33.344  30.757  1.00  0.00    -0.014 A 
BRANCH  30  31
ATOM     31  C   UNL A   1      37.468  32.697  31.434  1.00  0.00     0.031 A 
ATOM     32  C   UNL A   1      38.177  31.550  30.773  1.00  0.00     0.074 A 
ATOM     33  C   UNL A   1      37.824  33.097  32.670  1.00  0.00     0.049 A 
ATOM     34  N   UNL A   1      39.152  30.804  31.231  1.00  0.00    -0.248 NA
ATOM     35  C   UNL A   1      37.710  31.167  29.432  1.00  0.00     0.031 C 
ATOM     36  C   UNL A   1      37.174  34.164  33.434  1.00  0.00     0.029 A 
ATOM     37  N   UNL A   1      38.812  32.645  33.506  1.00  0.00    -0.354 N 
ATOM     38  C   UNL A   1      39.400  29.862  30.242  1.00  0.00     0.074 A 
ATOM     39  C   UNL A   1      38.436  30.088  29.189  1.00  0.00     0.031 C 
ATOM     40  C   UNL A   1      37.797  34.299  34.616  1.00  0.00     0.029 A 
ATOM     41  C   UNL A   1      38.861  33.304  34.710  1.00  0.00     0.049 A 
ATOM     42  H   UNL A   1      39.429  31.915  33.266  1.00  0.00     0.167 HD
ATOM     43  C   UNL A   1      40.363  28.910  30.207  1.00  0.00     0.037 A 
ATOM     44  C   UNL A   1      39.668  33.120  35.772  1.00  0.00     0.037 A 
ATOM     45  C   UNL A   1      41.334  28.707  31.249  1.00  0.00     0.049 A 
ATOM     46  C   UNL A   1      40.727  32.052  35.708  1.00  0.00     0.074 A 
ATOM     47  C   UNL A   1      42.388  27.811  31.284  1.00  0.00     0.029 A 
ATOM     48  N   UNL A   1      41.365  29.410  32.446  1.00  0.00    -0.354 N 
ATOM     49  N   UNL A   1      41.001  31.215  34.737  1.00  0.00    -0.248 NA
ATOM     50  C   UNL A   1      41.593  31.910  36.886  1.00  0.00     0.031 C 
ATOM     51  C   UNL A   1      43.027  27.937  32.522  1.00  0.00     0.029 A 
ATOM     52  C   UNL A   1      42.408  28.951  33.235  1.00  0.00     0.049 A 
ATOM     53  H   UNL A   1      40.740  30.127  32.696  1.00  0.00     0.167 HD
ATOM     54  C   UNL A   1      42.088  30.468  35.174  1.00  0.00     0.074 A 
ATOM     55  C   UNL A   1      42.432  30.963  36.490  1.00  0.00     0.031 C 
ATOM     56  C   UNL A   1      42.740  29.462  34.541  1.00  0.00     0.037 A 
BRANCH  43  57
ATOM     57  C   UNL A   1      40.417  28.022  28.997  1.00  0.00     0.064 A 
ATOM     58  C   UNL A   1      39.707  26.814  28.938  1.00  0.00     0.173 A 
ATOM     59  C   UNL A   1      41.165  28.398  27.870  1.00  0.00     0.173 A 
ATOM     60  F   UNL A   1      38.987  26.400  29.993  1.00  0.00    -0.203 F 
ATOM     61  C   UNL A   1      39.768  25.999  27.810  1.00  0.00     0.198 A 
ATOM     62  C   UNL A   1      41.196  27.598  26.731  1.00  0.00     0.198 A 
ATOM     63  F   UNL A   1      41.858  29.545  27.870  1.00  0.00    -0.203 F 
ATOM     64  F   UNL A   1      39.125  24.823  27.800  1.00  0.00    -0.200 F 
ATOM     65  C   UNL A   1      40.506  26.395  26.705  1.00  0.00     0.200 A 
ATOM     66  F   UNL A   1      41.899  27.988  25.658  1.00  0.00    -0.200 F 
ATOM     67  F   UNL A   1      40.557  25.614  25.618  1.00  0.00    -0.200 F 
ENDBRANCH  43  57
BRANCH  44  68
ATOM     68  C   UNL A   1      39.523  33.981  36.975  1.00  0.00     0.064 A 
ATOM     69  C   UNL A   1      40.135  35.241  37.036  1.00  0.00     0.173 A 
ATOM     70  C   UNL A   1      38.776  33.564  38.086  1.00  0.00     0.173 A 
ATOM     71  F   UNL A   1      40.874  35.676  36.005  1.00  0.00    -0.203 F 
ATOM     72  C   UNL A   1      40.025  36.040  38.172  1.00  0.00     0.198 A 
ATOM     73  C   UNL A   1      38.642  34.377  39.210  1.00  0.00     0.198 A 
ATOM     74  F   UNL A   1      38.165  32.370  38.076  1.00  0.00    -0.203 F 
ATOM     75  F   UNL A   1      40.661  37.218  38.223  1.00  0.00    -0.200 F 
ATOM     76  C   UNL A   1      39.275  35.610  39.256  1.00  0.00     0.200 A 
ATOM     77  F   UNL A   1      37.903  33.965  40.249  1.00  0.00    -0.200 F 
ATOM     78  F   UNL A   1      39.167  36.381  40.347  1.00  0.00    -0.200 F 
ENDBRANCH  44  68
BRANCH  56  79
ATOM     79  C   UNL A   1      43.918  28.856  35.247  1.00  0.00     0.064 A 
ATOM     80  C   UNL A   1      45.219  29.346  35.066  1.00  0.00     0.173 A 
ATOM     81  C   UNL A   1      43.734  27.797  36.150  1.00  0.00     0.173 A 
ATOM     82  F   UNL A   1      45.450  30.347  34.203  1.00  0.00    -0.203 F 
ATOM     83  C   UNL A   1      46.297  28.780  35.742  1.00  0.00     0.198 A 
ATOM     84  C   UNL A   1      44.810  27.255  36.848  1.00  0.00     0.198 A 
ATOM     85  F   UNL A   1      42.509  27.296  36.365  1.00  0.00    -0.203 F 
ATOM     86  F   UNL A   1      47.539  29.232  35.515  1.00  0.00    -0.200 F 
ATOM     87  C   UNL A   1      46.091  27.742  36.638  1.00  0.00     0.200 A 
ATOM     88  F   UNL A   1      44.606  26.263  37.726  1.00  0.00    -0.200 F 
ATOM     89  F   UNL A   1      47.129  27.205  37.294  1.00  0.00    -0.200 F 
ENDBRANCH  56  79
ENDBRANCH  30  31
ENDBRANCH  22  25
ENDBRANCH  20  21
ENDBRANCH  19  20
ENDBRANCH  18  19
ENDBRANCH   1  18
TORSDOF 18
ENDMDL
MODEL 2
REMARK VINA RESULT:     -10.4      1.007      2.889
REMARK SMILES CCC(CC)(C[C@H](O)COC)C(=O)NCCCCNC(=O)c1ccc(-c2c3nc(c(-c4c(F)c(F)c(F)c(F)c4F)c4ccc([nH]4)c(-c4c(F)c(F)c(F)c(F)c4F)c4nc(c(-c5c(F)c(F)c(F)c(F)c5F)c5ccc2[nH]5)C=C4)C=C3)cc1
REMARK SMILES IDX 15 1 14 2 12 3 13 4 3 6 2 7 1 8 4 9 5 10 6 11 7 12 9 13
REMARK SMILES IDX 10 14 11 15 8 16 16 18 17 19 18 20 19 21 20 22 21 24 22 25
REMARK SMILES IDX 23 26 84 27 24 28 83 29 25 30 26 31 27 32 77 33 28 34 82 35
REMARK SMILES IDX 76 36 78 37 29 38 81 39 75 40 74 41 30 43 62 44 42 45 61 46
REMARK SMILES IDX 43 47 46 48 60 49 79 50 44 51 45 52 59 54 80 55 47 56 31 57
REMARK SMILES IDX 32 58 40 59 33 60 34 61 38 62 41 63 35 64 36 65 39 66 37 67
REMARK SMILES IDX 63 68 64 69 72 70 65 71 66 72 70 73 73 74 67 75 68 76 71 77
REMARK SMILES IDX 69 78 48 79 49 80 57 81 50 82 51 83 55 84 58 85 52 86 53 87
REMARK SMILES IDX 56 88 54 89
REMARK H PARENT 14 5 8 17 19 23 78 42 46 53
REMARK Flexibility Score: inf
ROOT
ATOM      1  C   UNL A   1      32.835  29.796  26.378  1.00  0.00     0.116 C 
ENDROOT
BRANCH   1   2
ATOM      2  N   UNL A   1      33.285  29.830  24.996  1.00  0.00    -0.356 N 
ATOM      3  C   UNL A   1      33.007  29.069  23.902  1.00  0.00     0.226 C 
ATOM      4  O   UNL A   1      33.599  29.391  22.869  1.00  0.00    -0.274 OA
ATOM      5  H   UNL A   1      33.925  30.557  24.813  1.00  0.00     0.163 HD
BRANCH   3   6
ATOM      6  C   UNL A   1      32.043  27.863  23.946  1.00  0.00     0.051 C 
BRANCH   6   7
ATOM      7  C   UNL A   1      32.260  26.963  22.676  1.00  0.00     0.013 C 
ATOM      8  C   UNL A   1      33.231  25.791  22.806  1.00  0.00     0.005 C 
ENDBRANCH   6   7
BRANCH   6   9
ATOM      9  C   UNL A   1      30.580  28.423  23.938  1.00  0.00     0.013 C 
ATOM     10  C   UNL A   1      30.208  29.328  22.773  1.00  0.00     0.005 C 
ENDBRANCH   6   9
BRANCH   6  11
ATOM     11  C   UNL A   1      32.344  26.971  25.199  1.00  0.00     0.051 C 
BRANCH  11  12
ATOM     12  C   UNL A   1      31.166  26.284  25.940  1.00  0.00     0.141 C 
BRANCH  12  13
ATOM     13  C   UNL A   1      31.181  24.742  25.936  1.00  0.00     0.191 C 
BRANCH  13  14
ATOM     14  O   UNL A   1      31.374  24.160  27.231  1.00  0.00    -0.382 OA
ATOM     15  C   UNL A   1      32.224  23.023  27.238  1.00  0.00     0.195 C 
ENDBRANCH  13  14
ENDBRANCH  12  13
BRANCH  12  16
ATOM     16  O   UNL A   1      31.252  26.738  27.308  1.00  0.00    -0.391 OA
ATOM     17  H   UNL A   1      30.371  26.705  27.716  1.00  0.00     0.211 HD
ENDBRANCH  12  16
ENDBRANCH  11  12
ENDBRANCH   6  11
ENDBRANCH   3   6
ENDBRANCH   1   2
BRANCH   1  18
ATOM     18  C   UNL A   1      31.494  30.496  26.575  1.00  0.00     0.023 C 
BRANCH  18  19
ATOM     19  C   UNL A   1      31.544  32.017  26.481  1.00  0.00     0.023 C 
BRANCH  19  20
ATOM     20  C   UNL A   1      32.640  32.662  27.319  1.00  0.00     0.116 C 
BRANCH  20  21
ATOM     21  N   UNL A   1      32.384  34.072  27.583  1.00  0.00    -0.352 N 
ATOM     22  C   UNL A   1      32.977  34.900  28.503  1.00  0.00     0.251 C 
ATOM     23  H   UNL A   1      31.691  34.488  27.023  1.00  0.00     0.163 HD
ATOM     24  O   UNL A   1      32.528  36.024  28.705  1.00  0.00    -0.269 OA
BRANCH  22  25
ATOM     25  C   UNL A   1      34.141  34.416  29.268  1.00  0.00     0.039 A 
ATOM     26  C   UNL A   1      33.929  33.757  30.479  1.00  0.00     0.014 A 
ATOM     27  C   UNL A   1      35.435  34.586  28.769  1.00  0.00     0.014 A 
ATOM     28  C   UNL A   1      35.015  33.206  31.160  1.00  0.00     0.010 A 
ATOM     29  C   UNL A   1      36.503  33.964  29.401  1.00  0.00     0.010 A 
ATOM     30  C   UNL A   1      36.305  33.272  30.606  1.00  0.00    -0.014 A 
BRANCH  30  31
ATOM     31  C   UNL A   1      37.463  32.628  31.272  1.00  0.00     0.031 A 
ATOM     32  C   UNL A   1      38.182  31.496  30.596  1.00  0.00     0.074 A 
ATOM     33  C   UNL A   1      37.819  33.018  32.512  1.00  0.00     0.049 A 
ATOM     34  N   UNL A   1      39.166  30.755  31.042  1.00  0.00    -0.248 NA
ATOM     35  C   UNL A   1      37.715  31.124  29.252  1.00  0.00     0.031 C 
ATOM     36  C   UNL A   1      37.161  34.069  33.290  1.00  0.00     0.029 A 
ATOM     37  N   UNL A   1      38.814  32.566  33.340  1.00  0.00    -0.354 N 
ATOM     38  C   UNL A   1      39.421  29.827  30.042  1.00  0.00     0.074 A 
ATOM     39  C   UNL A   1      38.452  30.055  28.994  1.00  0.00     0.031 C 
ATOM     40  C   UNL A   1      37.785  34.197  34.472  1.00  0.00     0.029 A 
ATOM     41  C   UNL A   1      38.859  33.211  34.551  1.00  0.00     0.049 A 
ATOM     42  H   UNL A   1      39.438  31.845  33.090  1.00  0.00     0.167 HD
ATOM     43  C   UNL A   1      40.394  28.886  29.993  1.00  0.00     0.037 A 
ATOM     44  C   UNL A   1      39.671  33.023  35.609  1.00  0.00     0.037 A 
ATOM     45  C   UNL A   1      41.369  28.680  31.030  1.00  0.00     0.049 A 
ATOM     46  C   UNL A   1      40.740  31.967  35.530  1.00  0.00     0.074 A 
ATOM     47  C   UNL A   1      42.433  27.795  31.052  1.00  0.00     0.029 A 
ATOM     48  N   UNL A   1      41.397  29.370  32.235  1.00  0.00    -0.354 N 
ATOM     49  N   UNL A   1      41.021  31.144  34.549  1.00  0.00    -0.248 NA
ATOM     50  C   UNL A   1      41.612  31.820  36.703  1.00  0.00     0.031 C 
ATOM     51  C   UNL A   1      43.073  27.913  32.290  1.00  0.00     0.029 A 
ATOM     52  C   UNL A   1      42.446  28.912  33.016  1.00  0.00     0.049 A 
ATOM     53  H   UNL A   1      40.765  30.077  32.495  1.00  0.00     0.167 HD
ATOM     54  C   UNL A   1      42.116  30.403  34.973  1.00  0.00     0.074 A 
ATOM     55  C   UNL A   1      42.459  30.886  36.294  1.00  0.00     0.031 C 
ATOM     56  C   UNL A   1      42.777  29.411  34.327  1.00  0.00     0.037 A 
BRANCH  43  57
ATOM     57  C   UNL A   1      40.453  28.013  28.773  1.00  0.00     0.064 A 
ATOM     58  C   UNL A   1      41.216  28.367  27.650  1.00  0.00     0.173 A 
ATOM     59  C   UNL A   1      39.761  26.792  28.736  1.00  0.00     0.173 A 
ATOM     60  F   UNL A   1      41.886  29.530  27.627  1.00  0.00    -0.203 F 
ATOM     61  C   UNL A   1      41.259  27.549  26.524  1.00  0.00     0.198 A 
ATOM     62  C   UNL A   1      39.834  25.961  27.621  1.00  0.00     0.198 A 
ATOM     63  F   UNL A   1      39.021  26.402  29.783  1.00  0.00    -0.203 F 
ATOM     64  F   UNL A   1      41.951  27.936  25.442  1.00  0.00    -0.200 F 
ATOM     65  C   UNL A   1      40.575  26.343  26.513  1.00  0.00     0.200 A 
ATOM     66  F   UNL A   1      39.184  24.788  27.618  1.00  0.00    -0.200 F 
ATOM     67  F   UNL A   1      40.625  25.553  25.432  1.00  0.00    -0.200 F 
ENDBRANCH  43  57
BRANCH  44  68
ATOM     68  C   UNL A   1      39.521  33.868  36.822  1.00  0.00     0.064 A 
ATOM     69  C   UNL A   1      38.744  33.438  37.907  1.00  0.00     0.173 A 
ATOM     70  C   UNL A   1      40.144  35.120  36.923  1.00  0.00     0.173 A 
ATOM     71  F   UNL A   1      38.114  32.256  37.852  1.00  0.00    -0.203 F 
ATOM     72  C   UNL A   1      38.577  34.238  39.035  1.00  0.00     0.198 A 
ATOM     73  C   UNL A   1      40.001  35.907  38.064  1.00  0.00     0.198 A 
ATOM     74  F   UNL A   1      40.903  35.576  35.916  1.00  0.00    -0.203 F 
ATOM     75  F   UNL A   1      37.790  33.823  40.037  1.00  0.00    -0.200 F 
ATOM     76  C   UNL A   1      39.210  35.469  39.115  1.00  0.00     0.200 A 
ATOM     77  F   UNL A   1      40.627  37.089  38.144  1.00  0.00    -0.200 F 
ATOM     78  F   UNL A   1      39.052  36.237  40.203  1.00  0.00    -0.200 F 
ENDBRANCH  44  68
BRANCH  56  79
ATOM     79  C   UNL A   1      43.963  28.809  35.023  1.00  0.00     0.064 A 
ATOM     80  C   UNL A   1      43.844  27.667  35.828  1.00  0.00     0.173 A 
ATOM     81  C   UNL A   1      45.243  29.358  34.845  1.00  0.00     0.173 A 
ATOM     82  F   UNL A   1      42.641  27.112  36.041  1.00  0.00    -0.203 F 
ATOM     83  C   UNL A   1      44.959  27.113  36.453  1.00  0.00     0.198 A 
ATOM     84  C   UNL A   1      46.359  28.783  35.445  1.00  0.00     0.198 A 
ATOM     85  F   UNL A   1      45.411  30.446  34.079  1.00  0.00    -0.203 F 
ATOM     86  F   UNL A   1      44.815  26.052  37.258  1.00  0.00    -0.200 F 
ATOM     87  C   UNL A   1      46.215  27.666  36.254  1.00  0.00     0.200 A 
ATOM     88  F   UNL A   1      47.575  29.309  35.239  1.00  0.00    -0.200 F 
ATOM     89  F   UNL A   1      47.288  27.126  36.849  1.00  0.00    -0.200 F 
ENDBRANCH  56  79
ENDBRANCH  30  31
ENDBRANCH  22  25
ENDBRANCH  20  21
ENDBRANCH  19  20
ENDBRANCH  18  19
ENDBRANCH   1  18
TORSDOF 18
ENDMDL
MODEL 3
REMARK VINA RESULT:     -10.4      0.971      7.800
REMARK SMILES CCC(CC)(C[C@H](O)COC)C(=O)NCCCCNC(=O)c1ccc(-c2c3nc(c(-c4c(F)c(F)c(F)c(F)c4F)c4ccc([nH]4)c(-c4c(F)c(F)c(F)c(F)c4F)c4nc(c(-c5c(F)c(F)c(F)c(F)c5F)c5ccc2[nH]5)C=C4)C=C3)cc1
REMARK SMILES IDX 15 1 14 2 12 3 13 4 3 6 2 7 1 8 4 9 5 10 6 11 7 12 9 13
REMARK SMILES IDX 10 14 11 15 8 16 16 18 17 19 18 20 19 21 20 22 21 24 22 25
REMARK SMILES IDX 23 26 84 27 24 28 83 29 25 30 26 31 27 32 77 33 28 34 82 35
REMARK SMILES IDX 76 36 78 37 29 38 81 39 75 40 74 41 30 43 62 44 42 45 61 46
REMARK SMILES IDX 43 47 46 48 60 49 79 50 44 51 45 52 59 54 80 55 47 56 31 57
REMARK SMILES IDX 32 58 40 59 33 60 34 61 38 62 41 63 35 64 36 65 39 66 37 67
REMARK SMILES IDX 63 68 64 69 72 70 65 71 66 72 70 73 73 74 67 75 68 76 71 77
REMARK SMILES IDX 69 78 48 79 49 80 57 81 50 82 51 83 55 84 58 85 52 86 53 87
REMARK SMILES IDX 56 88 54 89
REMARK H PARENT 14 5 8 17 19 23 78 42 46 53
REMARK Flexibility Score: inf
ROOT
ATOM      1  C   UNL A   1      32.680  29.978  26.018  1.00  0.00     0.116 C 
ENDROOT
BRANCH   1   2
ATOM      2  N   UNL A   1      33.431  29.738  24.796  1.00  0.00    -0.356 N 
ATOM      3  C   UNL A   1      33.298  28.848  23.775  1.00  0.00     0.226 C 
ATOM      4  O   UNL A   1      34.150  28.929  22.887  1.00  0.00    -0.274 OA
ATOM      5  H   UNL A   1      34.197  30.347  24.685  1.00  0.00     0.163 HD
BRANCH   3   6
ATOM      6  C   UNL A   1      32.180  27.783  23.734  1.00  0.00     0.051 C 
BRANCH   6   7
ATOM      7  C   UNL A   1      32.246  26.892  25.028  1.00  0.00     0.013 C 
ATOM      8  C   UNL A   1      30.949  26.694  25.809  1.00  0.00     0.005 C 
ENDBRANCH   6   7
BRANCH   6   9
ATOM      9  C   UNL A   1      32.424  26.884  22.475  1.00  0.00     0.013 C 
ATOM     10  C   UNL A   1      31.794  25.498  22.500  1.00  0.00     0.005 C 
ENDBRANCH   6   9
BRANCH   6  11
ATOM     11  C   UNL A   1      30.771  28.472  23.723  1.00  0.00     0.051 C 
BRANCH  11  12
ATOM     12  C   UNL A   1      30.117  28.833  22.363  1.00  0.00     0.141 C 
BRANCH  12  13
ATOM     13  C   UNL A   1      28.608  29.153  22.411  1.00  0.00     0.191 C 
BRANCH  13  14
ATOM     14  O   UNL A   1      28.266  30.196  23.331  1.00  0.00    -0.382 OA
ATOM     15  C   UNL A   1      27.975  31.442  22.716  1.00  0.00     0.195 C 
ENDBRANCH  13  14
ENDBRANCH  12  13
BRANCH  12  16
ATOM     16  O   UNL A   1      30.817  30.006  21.895  1.00  0.00    -0.391 OA
ATOM     17  H   UNL A   1      31.251  29.808  21.050  1.00  0.00     0.211 HD
ENDBRANCH  12  16
ENDBRANCH  11  12
ENDBRANCH   6  11
ENDBRANCH   3   6
ENDBRANCH   1   2
BRANCH   1  18
ATOM     18  C   UNL A   1      31.507  30.929  25.805  1.00  0.00     0.023 C 
BRANCH  18  19
ATOM     19  C   UNL A   1      31.364  32.019  26.862  1.00  0.00     0.023 C 
BRANCH  19  20
ATOM     20  C   UNL A   1      32.659  32.754  27.185  1.00  0.00     0.116 C 
BRANCH  20  21
ATOM     21  N   UNL A   1      32.432  34.137  27.581  1.00  0.00    -0.352 N 
ATOM     22  C   UNL A   1      33.035  34.861  28.579  1.00  0.00     0.251 C 
ATOM     23  H   UNL A   1      31.752  34.621  27.060  1.00  0.00     0.163 HD
ATOM     24  O   UNL A   1      32.609  35.970  28.885  1.00  0.00    -0.269 OA
BRANCH  22  25
ATOM     25  C   UNL A   1      34.183  34.281  29.301  1.00  0.00     0.039 A 
ATOM     26  C   UNL A   1      33.945  33.461  30.404  1.00  0.00     0.014 A 
ATOM     27  C   UNL A   1      35.488  34.521  28.864  1.00  0.00     0.014 A 
ATOM     28  C   UNL A   1      35.017  32.825  31.032  1.00  0.00     0.010 A 
ATOM     29  C   UNL A   1      36.544  33.822  29.433  1.00  0.00     0.010 A 
ATOM     30  C   UNL A   1      36.319  32.971  30.526  1.00  0.00    -0.014 A 
BRANCH  30  31
ATOM     31  C   UNL A   1      37.465  32.246  31.128  1.00  0.00     0.031 A 
ATOM     32  C   UNL A   1      37.956  32.623  32.496  1.00  0.00     0.074 A 
ATOM     33  C   UNL A   1      38.103  31.298  30.412  1.00  0.00     0.049 A 
ATOM     34  N   UNL A   1      38.985  32.164  33.164  1.00  0.00    -0.248 NA
ATOM     35  C   UNL A   1      37.211  33.680  33.197  1.00  0.00     0.031 C 
ATOM     36  C   UNL A   1      37.752  30.885  29.053  1.00  0.00     0.029 A 
ATOM     37  N   UNL A   1      39.190  30.522  30.725  1.00  0.00    -0.354 N 
ATOM     38  C   UNL A   1      39.015  32.884  34.349  1.00  0.00     0.074 A 
ATOM     39  C   UNL A   1      37.943  33.853  34.286  1.00  0.00     0.031 C 
ATOM     40  C   UNL A   1      38.591  29.913  28.659  1.00  0.00     0.029 A 
ATOM     41  C   UNL A   1      39.563  29.665  29.719  1.00  0.00     0.049 A 
ATOM     42  H   UNL A   1      39.658  30.574  31.591  1.00  0.00     0.167 HD
ATOM     43  C   UNL A   1      39.848  32.733  35.407  1.00  0.00     0.037 A 
ATOM     44  C   UNL A   1      40.580  28.786  29.657  1.00  0.00     0.037 A 
ATOM     45  C   UNL A   1      40.898  31.751  35.472  1.00  0.00     0.049 A 
ATOM     46  C   UNL A   1      41.494  28.641  30.844  1.00  0.00     0.074 A 
ATOM     47  C   UNL A   1      41.758  31.476  36.520  1.00  0.00     0.029 A 
ATOM     48  N   UNL A   1      41.233  30.885  34.440  1.00  0.00    -0.354 N 
ATOM     49  N   UNL A   1      41.469  29.276  31.992  1.00  0.00    -0.248 NA
ATOM     50  C   UNL A   1      42.573  27.651  30.731  1.00  0.00     0.031 C 
ATOM     51  C   UNL A   1      42.645  30.477  36.106  1.00  0.00     0.029 A 
ATOM     52  C   UNL A   1      42.302  30.090  34.820  1.00  0.00     0.049 A 
ATOM     53  H   UNL A   1      40.778  30.843  33.569  1.00  0.00     0.167 HD
ATOM     54  C   UNL A   1      42.506  28.743  32.746  1.00  0.00     0.074 A 
ATOM     55  C   UNL A   1      43.131  27.721  31.932  1.00  0.00     0.031 C 
ATOM     56  C   UNL A   1      42.906  29.072  33.998  1.00  0.00     0.037 A 
BRANCH  43  57
ATOM     57  C   UNL A   1      39.650  33.647  36.582  1.00  0.00     0.064 A 
ATOM     58  C   UNL A   1      40.263  34.908  36.645  1.00  0.00     0.173 A 
ATOM     59  C   UNL A   1      38.815  33.271  37.644  1.00  0.00     0.173 A 
ATOM     60  F   UNL A   1      41.083  35.312  35.663  1.00  0.00    -0.203 F 
ATOM     61  C   UNL A   1      40.073  35.744  37.742  1.00  0.00     0.198 A 
ATOM     62  C   UNL A   1      38.600  34.124  38.724  1.00  0.00     0.198 A 
ATOM     63  F   UNL A   1      38.200  32.080  37.633  1.00  0.00    -0.203 F 
ATOM     64  F   UNL A   1      40.713  36.921  37.805  1.00  0.00    -0.200 F 
ATOM     65  C   UNL A   1      39.236  35.356  38.777  1.00  0.00     0.200 A 
ATOM     66  F   UNL A   1      37.778  33.753  39.716  1.00  0.00    -0.200 F 
ATOM     67  F   UNL A   1      39.047  36.165  39.828  1.00  0.00    -0.200 F 
ENDBRANCH  43  57
BRANCH  44  68
ATOM     68  C   UNL A   1      40.774  27.956  28.439  1.00  0.00     0.064 A 
ATOM     69  C   UNL A   1      40.179  26.692  28.327  1.00  0.00     0.173 A 
ATOM     70  C   UNL A   1      41.557  28.405  27.366  1.00  0.00     0.173 A 
ATOM     71  F   UNL A   1      39.435  26.211  29.334  1.00  0.00    -0.203 F 
ATOM     72  C   UNL A   1      40.380  25.899  27.200  1.00  0.00     0.198 A 
ATOM     73  C   UNL A   1      41.733  27.624  26.226  1.00  0.00     0.198 A 
ATOM     74  F   UNL A   1      42.144  29.610  27.420  1.00  0.00    -0.203 F 
ATOM     75  F   UNL A   1      39.839  24.674  27.140  1.00  0.00    -0.200 F 
ATOM     76  C   UNL A   1      41.152  26.367  26.148  1.00  0.00     0.200 A 
ATOM     77  F   UNL A   1      42.467  28.086  25.205  1.00  0.00    -0.200 F 
ATOM     78  F   UNL A   1      41.342  25.605  25.062  1.00  0.00    -0.200 F 
ENDBRANCH  44  68
BRANCH  56  79
ATOM     79  C   UNL A   1      44.048  28.292  34.582  1.00  0.00     0.064 A 
ATOM     80  C   UNL A   1      43.844  27.086  35.268  1.00  0.00     0.173 A 
ATOM     81  C   UNL A   1      45.369  28.738  34.415  1.00  0.00     0.173 A 
ATOM     82  F   UNL A   1      42.600  26.624  35.467  1.00  0.00    -0.203 F 
ATOM     83  C   UNL A   1      44.918  26.369  35.789  1.00  0.00     0.198 A 
ATOM     84  C   UNL A   1      46.442  28.002  34.909  1.00  0.00     0.198 A 
ATOM     85  F   UNL A   1      45.619  29.882  33.761  1.00  0.00    -0.203 F 
ATOM     86  F   UNL A   1      44.696  25.245  36.484  1.00  0.00    -0.200 F 
ATOM     87  C   UNL A   1      46.215  26.823  35.602  1.00  0.00     0.200 A 
ATOM     88  F   UNL A   1      47.696  28.434  34.713  1.00  0.00    -0.200 F 
ATOM     89  F   UNL A   1      47.248  26.127  36.097  1.00  0.00    -0.200 F 
ENDBRANCH  56  79
ENDBRANCH  30  31
ENDBRANCH  22  25
ENDBRANCH  20  21
ENDBRANCH  19  20
ENDBRANCH  18  19
ENDBRANCH   1  18
TORSDOF 18
ENDMDL
