MODEL 1
REMARK VINA RESULT:     -12.2      0.000      0.000
REMARK SMILES O=C(CCC1CC[NH+]([C@H]2CCO[C@]3(CCSC3)C2)CC1)NCCCCNC(=O)c1ccc(-c2c3nc(c(-c4c(F)c(F)c(F)c(F)c4F)c4ccc([nH]4)c(-c4c(F)c(F)c(F)c(F)c4F)c4nc(c(-c5c(F)c(F)c(F)c(F)c5F)c5ccc2[nH]5)C=C4)C=C3)cc1
REMARK SMILES IDX 23 1 22 2 21 3 1 4 2 5 3 7 4 8 5 9 6 10 20 11 7 12 19 13
REMARK SMILES IDX 8 14 9 16 10 17 18 18 11 19 13 20 12 21 14 22 17 23 15 24
REMARK SMILES IDX 16 25 24 26 25 27 26 28 27 29 28 31 29 32 30 33 91 34 31 35
REMARK SMILES IDX 90 36 32 37 33 38 34 39 84 40 35 41 89 42 83 43 85 44 36 45
REMARK SMILES IDX 88 46 82 47 81 48 37 50 69 51 49 52 68 53 50 54 53 55 67 56
REMARK SMILES IDX 86 57 51 58 52 59 66 61 87 62 54 63 38 64 39 65 47 66 40 67
REMARK SMILES IDX 41 68 45 69 48 70 42 71 43 72 46 73 44 74 70 75 71 76 79 77
REMARK SMILES IDX 72 78 73 79 77 80 80 81 74 82 75 83 78 84 76 85 55 86 56 87
REMARK SMILES IDX 64 88 57 89 58 90 62 91 65 92 59 93 60 94 63 95 61 96
REMARK H PARENT 21 6 8 15 26 30 85 49 53 60
REMARK Flexibility Score: inf
ROOT
ATOM      1  C   UNL A   1      34.410  33.527  29.109  1.00  0.00     0.023 C 
ENDROOT
BRANCH   1   2
ATOM      2  C   UNL A   1      34.891  32.688  27.925  1.00  0.00     0.116 C 
BRANCH   2   3
ATOM      3  N   UNL A   1      34.181  31.429  27.817  1.00  0.00    -0.356 N 
ATOM      4  O   UNL A   1      36.032  30.157  27.341  1.00  0.00    -0.275 OA
ATOM      5  C   UNL A   1      34.828  30.240  27.565  1.00  0.00     0.220 C 
ATOM      6  H   UNL A   1      33.203  31.424  27.928  1.00  0.00     0.163 HD
BRANCH   5   7
ATOM      7  C   UNL A   1      33.937  29.011  27.644  1.00  0.00     0.100 C 
BRANCH   7   8
ATOM      8  C   UNL A   1      33.696  28.415  26.250  1.00  0.00     0.014 C 
BRANCH   8   9
ATOM      9  C   UNL A   1      32.302  28.789  25.691  1.00  0.00     0.000 C 
ATOM     10  C   UNL A   1      31.325  27.601  25.739  1.00  0.00     0.065 C 
ATOM     11  C   UNL A   1      32.400  29.490  24.323  1.00  0.00     0.065 C 
ATOM     12  C   UNL A   1      31.123  26.853  24.421  1.00  0.00     0.262 C 
ATOM     13  C   UNL A   1      32.195  28.562  23.133  1.00  0.00     0.262 C 
ATOM     14  N   UNL A   1      31.017  27.707  23.238  1.00  0.00    -0.332 N 
ATOM     15  H   UNL A   1      31.057  27.122  22.404  1.00  0.00     0.348 HD
BRANCH  14  16
ATOM     16  C   UNL A   1      29.674  28.261  22.945  1.00  0.00     0.189 C 
ATOM     17  C   UNL A   1      28.463  27.492  23.495  1.00  0.00     0.093 C 
ATOM     18  C   UNL A   1      29.558  29.761  23.304  1.00  0.00     0.101 C 
ATOM     19  C   UNL A   1      27.152  28.188  23.180  1.00  0.00     0.167 C 
ATOM     20  C   UNL A   1      28.163  30.357  23.012  1.00  0.00     0.084 C 
ATOM     21  O   UNL A   1      27.165  29.531  23.637  1.00  0.00    -0.374 OA
ATOM     22  C   UNL A   1      27.828  30.548  21.521  1.00  0.00     0.047 C 
ATOM     23  C   UNL A   1      28.016  31.756  23.636  1.00  0.00     0.105 C 
ATOM     24  C   UNL A   1      28.389  31.862  21.000  1.00  0.00     0.072 C 
ATOM     25  S   UNL A   1      28.681  32.926  22.429  1.00  0.00    -0.159 SA
ENDBRANCH  14  16
ENDBRANCH   8   9
ENDBRANCH   7   8
ENDBRANCH   5   7
ENDBRANCH   2   3
ENDBRANCH   1   2
BRANCH   1  26
ATOM     26  C   UNL A   1      33.233  34.463  28.816  1.00  0.00     0.023 C 
BRANCH  26  27
ATOM     27  C   UNL A   1      33.372  35.886  29.349  1.00  0.00     0.116 C 
BRANCH  27  28
ATOM     28  N   UNL A   1      32.517  36.140  30.498  1.00  0.00    -0.352 N 
ATOM     29  C   UNL A   1      32.634  35.719  31.798  1.00  0.00     0.251 C 
ATOM     30  H   UNL A   1      31.732  36.703  30.314  1.00  0.00     0.163 HD
ATOM     31  O   UNL A   1      31.702  35.907  32.585  1.00  0.00    -0.269 OA
BRANCH  29  32
ATOM     32  C   UNL A   1      33.850  35.021  32.271  1.00  0.00     0.039 A 
ATOM     33  C   UNL A   1      33.721  33.735  32.808  1.00  0.00     0.014 A 
ATOM     34  C   UNL A   1      35.106  35.632  32.228  1.00  0.00     0.014 A 
ATOM     35  C   UNL A   1      34.855  33.038  33.236  1.00  0.00     0.010 A 
ATOM     36  C   UNL A   1      36.244  34.911  32.593  1.00  0.00     0.010 A 
ATOM     37  C   UNL A   1      36.132  33.606  33.098  1.00  0.00    -0.014 A 
BRANCH  37  38
ATOM     38  C   UNL A   1      37.357  32.847  33.465  1.00  0.00     0.031 A 
ATOM     39  C   UNL A   1      38.086  33.146  34.745  1.00  0.00     0.074 A 
ATOM     40  C   UNL A   1      37.850  31.929  32.610  1.00  0.00     0.049 A 
ATOM     41  N   UNL A   1      39.210  32.645  35.195  1.00  0.00    -0.248 NA
ATOM     42  C   UNL A   1      37.486  34.160  35.626  1.00  0.00     0.031 C 
ATOM     43  C   UNL A   1      37.260  31.572  31.319  1.00  0.00     0.029 A 
ATOM     44  N   UNL A   1      38.969  31.137  32.693  1.00  0.00    -0.354 N 
ATOM     45  C   UNL A   1      39.459  33.293  36.398  1.00  0.00     0.074 A 
ATOM     46  C   UNL A   1      38.394  34.256  36.587  1.00  0.00     0.031 C 
ATOM     47  C   UNL A   1      38.009  30.619  30.742  1.00  0.00     0.029 A 
ATOM     48  C   UNL A   1      39.154  30.327  31.599  1.00  0.00     0.049 A 
ATOM     49  H   UNL A   1      39.582  31.148  33.465  1.00  0.00     0.167 HD
ATOM     50  C   UNL A   1      40.472  33.090  37.274  1.00  0.00     0.037 A 
ATOM     51  C   UNL A   1      40.140  29.455  31.313  1.00  0.00     0.037 A 
ATOM     52  C   UNL A   1      41.514  32.111  37.101  1.00  0.00     0.049 A 
ATOM     53  C   UNL A   1      41.259  29.259  32.300  1.00  0.00     0.074 A 
ATOM     54  C   UNL A   1      42.543  31.785  37.967  1.00  0.00     0.029 A 
ATOM     55  N   UNL A   1      41.661  31.302  35.983  1.00  0.00    -0.354 N 
ATOM     56  N   UNL A   1      41.446  29.827  33.465  1.00  0.00    -0.248 NA
ATOM     57  C   UNL A   1      42.305  28.293  31.930  1.00  0.00     0.031 C 
ATOM     58  C   UNL A   1      43.341  30.813  37.353  1.00  0.00     0.029 A 
ATOM     59  C   UNL A   1      42.780  30.495  36.128  1.00  0.00     0.049 A 
ATOM     60  H   UNL A   1      41.060  31.301  35.204  1.00  0.00     0.167 HD
ATOM     61  C   UNL A   1      42.608  29.269  33.981  1.00  0.00     0.074 A 
ATOM     62  C   UNL A   1      43.076  28.305  33.008  1.00  0.00     0.031 C 
ATOM     63  C   UNL A   1      43.229  29.530  35.157  1.00  0.00     0.037 A 
BRANCH  50  64
ATOM     64  C   UNL A   1      40.508  33.944  38.508  1.00  0.00     0.064 A 
ATOM     65  C   UNL A   1      39.822  33.581  39.678  1.00  0.00     0.173 A 
ATOM     66  C   UNL A   1      41.276  35.118  38.538  1.00  0.00     0.173 A 
ATOM     67  F   UNL A   1      39.064  32.475  39.699  1.00  0.00    -0.203 F 
ATOM     68  C   UNL A   1      39.882  34.375  40.820  1.00  0.00     0.198 A 
ATOM     69  C   UNL A   1      41.359  35.893  39.692  1.00  0.00     0.198 A 
ATOM     70  F   UNL A   1      41.956  35.510  37.450  1.00  0.00    -0.203 F 
ATOM     71  F   UNL A   1      39.179  34.033  41.910  1.00  0.00    -0.200 F 
ATOM     72  C   UNL A   1      40.655  35.526  40.829  1.00  0.00     0.200 A 
ATOM     73  F   UNL A   1      42.117  36.999  39.702  1.00  0.00    -0.200 F 
ATOM     74  F   UNL A   1      40.718  36.284  41.932  1.00  0.00    -0.200 F 
ENDBRANCH  50  64
BRANCH  51  75
ATOM     75  C   UNL A   1      40.104  28.682  30.044  1.00  0.00     0.064 A 
ATOM     76  C   UNL A   1      39.493  27.421  29.990  1.00  0.00     0.173 A 
ATOM     77  C   UNL A   1      40.688  29.176  28.869  1.00  0.00     0.173 A 
ATOM     78  F   UNL A   1      38.941  26.897  31.094  1.00  0.00    -0.203 F 
ATOM     79  C   UNL A   1      39.485  26.674  28.813  1.00  0.00     0.198 A 
ATOM     80  C   UNL A   1      40.653  28.441  27.685  1.00  0.00     0.198 A 
ATOM     81  F   UNL A   1      41.280  30.379  28.867  1.00  0.00    -0.203 F 
ATOM     82  F   UNL A   1      38.936  25.453  28.802  1.00  0.00    -0.200 F 
ATOM     83  C   UNL A   1      40.060  27.188  27.661  1.00  0.00     0.200 A 
ATOM     84  F   UNL A   1      41.197  28.947  26.569  1.00  0.00    -0.200 F 
ATOM     85  F   UNL A   1      40.050  26.471  26.528  1.00  0.00    -0.200 F 
ENDBRANCH  51  75
BRANCH  63  86
ATOM     86  C   UNL A   1      44.462  28.735  35.478  1.00  0.00     0.064 A 
ATOM     87  C   UNL A   1      45.741  29.176  35.108  1.00  0.00     0.173 A 
ATOM     88  C   UNL A   1      44.363  27.535  36.198  1.00  0.00     0.173 A 
ATOM     89  F   UNL A   1      45.888  30.309  34.405  1.00  0.00    -0.203 F 
ATOM     90  C   UNL A   1      46.874  28.430  35.426  1.00  0.00     0.198 A 
ATOM     91  C   UNL A   1      45.499  26.808  36.540  1.00  0.00     0.198 A 
ATOM     92  F   UNL A   1      43.163  27.073  36.581  1.00  0.00    -0.203 F 
ATOM     93  F   UNL A   1      48.082  28.845  35.020  1.00  0.00    -0.200 F 
ATOM     94  C   UNL A   1      46.753  27.252  36.148  1.00  0.00     0.200 A 
ATOM     95  F   UNL A   1      45.382  25.677  37.250  1.00  0.00    -0.200 F 
ATOM     96  F   UNL A   1      47.845  26.540  36.458  1.00  0.00    -0.200 F 
ENDBRANCH  63  86
ENDBRANCH  37  38
ENDBRANCH  29  32
ENDBRANCH  27  28
ENDBRANCH  26  27
ENDBRANCH   1  26
TORSDOF 14
ENDMDL
MODEL 2
REMARK VINA RESULT:     -12.1      7.155     12.463
REMARK SMILES O=C(CCC1CC[NH+]([C@H]2CCO[C@]3(CCSC3)C2)CC1)NCCCCNC(=O)c1ccc(-c2c3nc(c(-c4c(F)c(F)c(F)c(F)c4F)c4ccc([nH]4)c(-c4c(F)c(F)c(F)c(F)c4F)c4nc(c(-c5c(F)c(F)c(F)c(F)c5F)c5ccc2[nH]5)C=C4)C=C3)cc1
REMARK SMILES IDX 23 1 22 2 21 3 1 4 2 5 3 7 4 8 5 9 6 10 20 11 7 12 19 13
REMARK SMILES IDX 8 14 9 16 10 17 18 18 11 19 13 20 12 21 14 22 17 23 15 24
REMARK SMILES IDX 16 25 24 26 25 27 26 28 27 29 28 31 29 32 30 33 91 34 31 35
REMARK SMILES IDX 90 36 32 37 33 38 34 39 84 40 35 41 89 42 83 43 85 44 36 45
REMARK SMILES IDX 88 46 82 47 81 48 37 50 69 51 49 52 68 53 50 54 53 55 67 56
REMARK SMILES IDX 86 57 51 58 52 59 66 61 87 62 54 63 38 64 39 65 47 66 40 67
REMARK SMILES IDX 41 68 45 69 48 70 42 71 43 72 46 73 44 74 70 75 71 76 79 77
REMARK SMILES IDX 72 78 73 79 77 80 80 81 74 82 75 83 78 84 76 85 55 86 56 87
REMARK SMILES IDX 64 88 57 89 58 90 62 91 65 92 59 93 60 94 63 95 61 96
REMARK H PARENT 21 6 8 15 26 30 85 49 53 60
REMARK Flexibility Score: inf
ROOT
ATOM      1  C   UNL A   1      41.779  21.119  26.541  1.00  0.00     0.023 C 
ENDROOT
BRANCH   1   2
ATOM      2  C   UNL A   1      40.396  21.620  26.952  1.00  0.00     0.116 C 
BRANCH   2   3
ATOM      3  N   UNL A   1      39.364  21.222  26.016  1.00  0.00    -0.356 N 
ATOM      4  O   UNL A   1      38.143  23.160  26.175  1.00  0.00    -0.275 OA
ATOM      5  C   UNL A   1      38.323  22.056  25.671  1.00  0.00     0.220 C 
ATOM      6  H   UNL A   1      39.409  20.326  25.612  1.00  0.00     0.163 HD
BRANCH   5   7
ATOM      7  C   UNL A   1      37.434  21.523  24.560  1.00  0.00     0.100 C 
BRANCH   7   8
ATOM      8  C   UNL A   1      36.235  20.754  25.134  1.00  0.00     0.014 C 
BRANCH   8   9
ATOM      9  C   UNL A   1      34.902  21.509  24.913  1.00  0.00     0.000 C 
ATOM     10  C   UNL A   1      35.098  22.792  24.083  1.00  0.00     0.065 C 
ATOM     11  C   UNL A   1      34.126  21.704  26.229  1.00  0.00     0.065 C 
ATOM     12  C   UNL A   1      35.151  24.096  24.880  1.00  0.00     0.262 C 
ATOM     13  C   UNL A   1      34.336  23.064  26.880  1.00  0.00     0.262 C 
ATOM     14  N   UNL A   1      34.179  24.194  25.969  1.00  0.00    -0.332 N 
ATOM     15  H   UNL A   1      34.402  25.008  26.540  1.00  0.00     0.348 HD
BRANCH  14  16
ATOM     16  C   UNL A   1      32.822  24.661  25.599  1.00  0.00     0.189 C 
ATOM     17  C   UNL A   1      31.679  24.340  26.575  1.00  0.00     0.093 C 
ATOM     18  C   UNL A   1      32.791  26.160  25.220  1.00  0.00     0.101 C 
ATOM     19  C   UNL A   1      30.354  24.918  26.116  1.00  0.00     0.167 C 
ATOM     20  C   UNL A   1      31.383  26.668  24.837  1.00  0.00     0.084 C 
ATOM     21  O   UNL A   1      30.461  26.314  25.883  1.00  0.00    -0.374 OA
ATOM     22  C   UNL A   1      30.852  26.174  23.479  1.00  0.00     0.047 C 
ATOM     23  C   UNL A   1      31.356  28.204  24.741  1.00  0.00     0.105 C 
ATOM     24  C   UNL A   1      31.367  27.045  22.343  1.00  0.00     0.072 C 
ATOM     25  S   UNL A   1      31.877  28.620  23.061  1.00  0.00    -0.159 SA
ENDBRANCH  14  16
ENDBRANCH   8   9
ENDBRANCH   7   8
ENDBRANCH   5   7
ENDBRANCH   2   3
ENDBRANCH   1   2
BRANCH   1  26
ATOM     26  C   UNL A   1      41.821  19.694  25.978  1.00  0.00     0.023 C 
BRANCH  26  27
ATOM     27  C   UNL A   1      43.110  18.919  26.240  1.00  0.00     0.116 C 
BRANCH  27  28
ATOM     28  N   UNL A   1      43.857  18.648  25.021  1.00  0.00    -0.352 N 
ATOM     29  C   UNL A   1      44.591  19.492  24.227  1.00  0.00     0.251 C 
ATOM     30  H   UNL A   1      43.833  17.711  24.720  1.00  0.00     0.163 HD
ATOM     31  O   UNL A   1      45.009  19.091  23.137  1.00  0.00    -0.269 OA
BRANCH  29  32
ATOM     32  C   UNL A   1      44.873  20.883  24.642  1.00  0.00     0.039 A 
ATOM     33  C   UNL A   1      44.473  21.929  23.803  1.00  0.00     0.014 A 
ATOM     34  C   UNL A   1      45.558  21.168  25.827  1.00  0.00     0.014 A 
ATOM     35  C   UNL A   1      44.699  23.256  24.182  1.00  0.00     0.010 A 
ATOM     36  C   UNL A   1      45.723  22.491  26.236  1.00  0.00     0.010 A 
ATOM     37  C   UNL A   1      45.293  23.550  25.419  1.00  0.00    -0.014 A 
BRANCH  37  38
ATOM     38  C   UNL A   1      45.461  24.954  25.880  1.00  0.00     0.031 A 
ATOM     39  C   UNL A   1      46.808  25.620  25.826  1.00  0.00     0.074 A 
ATOM     40  C   UNL A   1      44.410  25.610  26.409  1.00  0.00     0.049 A 
ATOM     41  N   UNL A   1      47.164  26.806  26.253  1.00  0.00    -0.248 NA
ATOM     42  C   UNL A   1      47.907  24.840  25.236  1.00  0.00     0.031 C 
ATOM     43  C   UNL A   1      43.058  25.065  26.554  1.00  0.00     0.029 A 
ATOM     44  N   UNL A   1      44.314  26.875  26.935  1.00  0.00    -0.354 N 
ATOM     45  C   UNL A   1      48.526  26.907  26.000  1.00  0.00     0.074 A 
ATOM     46  C   UNL A   1      48.942  25.646  25.423  1.00  0.00     0.031 C 
ATOM     47  C   UNL A   1      42.267  25.995  27.110  1.00  0.00     0.029 A 
ATOM     48  C   UNL A   1      43.059  27.186  27.400  1.00  0.00     0.049 A 
ATOM     49  H   UNL A   1      45.074  27.501  26.975  1.00  0.00     0.167 HD
ATOM     50  C   UNL A   1      49.349  27.963  26.210  1.00  0.00     0.037 A 
ATOM     51  C   UNL A   1      42.601  28.300  28.002  1.00  0.00     0.037 A 
ATOM     52  C   UNL A   1      48.928  29.227  26.755  1.00  0.00     0.049 A 
ATOM     53  C   UNL A   1      43.542  29.452  28.234  1.00  0.00     0.074 A 
ATOM     54  C   UNL A   1      49.675  30.377  26.941  1.00  0.00     0.029 A 
ATOM     55  N   UNL A   1      47.646  29.507  27.206  1.00  0.00    -0.354 N 
ATOM     56  N   UNL A   1      44.810  29.561  27.927  1.00  0.00    -0.248 NA
ATOM     57  C   UNL A   1      42.982  30.640  28.895  1.00  0.00     0.031 C 
ATOM     58  C   UNL A   1      48.858  31.338  27.548  1.00  0.00     0.029 A 
ATOM     59  C   UNL A   1      47.588  30.804  27.692  1.00  0.00     0.049 A 
ATOM     60  H   UNL A   1      46.889  28.878  27.182  1.00  0.00     0.167 HD
ATOM     61  C   UNL A   1      45.193  30.835  28.326  1.00  0.00     0.074 A 
ATOM     62  C   UNL A   1      44.017  31.468  28.886  1.00  0.00     0.031 C 
ATOM     63  C   UNL A   1      46.408  31.427  28.235  1.00  0.00     0.037 A 
BRANCH  50  64
ATOM     64  C   UNL A   1      50.798  27.799  25.850  1.00  0.00     0.064 A 
ATOM     65  C   UNL A   1      51.259  28.002  24.540  1.00  0.00     0.173 A 
ATOM     66  C   UNL A   1      51.744  27.481  26.836  1.00  0.00     0.173 A 
ATOM     67  F   UNL A   1      50.395  28.297  23.558  1.00  0.00    -0.203 F 
ATOM     68  C   UNL A   1      52.609  27.866  24.227  1.00  0.00     0.198 A 
ATOM     69  C   UNL A   1      53.097  27.376  26.525  1.00  0.00     0.198 A 
ATOM     70  F   UNL A   1      51.358  27.281  28.105  1.00  0.00    -0.203 F 
ATOM     71  F   UNL A   1      53.020  28.017  22.959  1.00  0.00    -0.200 F 
ATOM     72  C   UNL A   1      53.528  27.560  25.220  1.00  0.00     0.200 A 
ATOM     73  F   UNL A   1      53.985  27.092  27.489  1.00  0.00    -0.200 F 
ATOM     74  F   UNL A   1      54.827  27.438  24.918  1.00  0.00    -0.200 F 
ENDBRANCH  50  64
BRANCH  51  75
ATOM     75  C   UNL A   1      41.175  28.393  28.410  1.00  0.00     0.064 A 
ATOM     76  C   UNL A   1      40.214  28.930  27.542  1.00  0.00     0.173 A 
ATOM     77  C   UNL A   1      40.745  27.961  29.673  1.00  0.00     0.173 A 
ATOM     78  F   UNL A   1      40.581  29.377  26.331  1.00  0.00    -0.203 F 
ATOM     79  C   UNL A   1      38.881  29.052  27.929  1.00  0.00     0.198 A 
ATOM     80  C   UNL A   1      39.406  28.057  30.049  1.00  0.00     0.198 A 
ATOM     81  F   UNL A   1      41.624  27.435  30.539  1.00  0.00    -0.203 F 
ATOM     82  F   UNL A   1      37.993  29.613  27.098  1.00  0.00    -0.200 F 
ATOM     83  C   UNL A   1      38.478  28.609  29.180  1.00  0.00     0.200 A 
ATOM     84  F   UNL A   1      39.017  27.615  31.253  1.00  0.00    -0.200 F 
ATOM     85  F   UNL A   1      37.195  28.724  29.552  1.00  0.00    -0.200 F 
ENDBRANCH  51  75
BRANCH  63  86
ATOM     86  C   UNL A   1      46.523  32.846  28.714  1.00  0.00     0.064 A 
ATOM     87  C   UNL A   1      46.886  33.152  30.034  1.00  0.00     0.173 A 
ATOM     88  C   UNL A   1      46.302  33.912  27.830  1.00  0.00     0.173 A 
ATOM     89  F   UNL A   1      47.092  32.168  30.924  1.00  0.00    -0.203 F 
ATOM     90  C   UNL A   1      46.999  34.474  30.457  1.00  0.00     0.198 A 
ATOM     91  C   UNL A   1      46.445  35.232  28.247  1.00  0.00     0.198 A 
ATOM     92  F   UNL A   1      45.958  33.673  26.555  1.00  0.00    -0.203 F 
ATOM     93  F   UNL A   1      47.298  34.744  31.735  1.00  0.00    -0.200 F 
ATOM     94  C   UNL A   1      46.786  35.512  29.562  1.00  0.00     0.200 A 
ATOM     95  F   UNL A   1      46.253  36.234  27.378  1.00  0.00    -0.200 F 
ATOM     96  F   UNL A   1      46.902  36.784  29.969  1.00  0.00    -0.200 F 
ENDBRANCH  63  86
ENDBRANCH  37  38
ENDBRANCH  29  32
ENDBRANCH  27  28
ENDBRANCH  26  27
ENDBRANCH   1  26
TORSDOF 14
ENDMDL
MODEL 3
REMARK VINA RESULT:     -12.0      2.164      3.028
REMARK SMILES O=C(CCC1CC[NH+]([C@H]2CCO[C@]3(CCSC3)C2)CC1)NCCCCNC(=O)c1ccc(-c2c3nc(c(-c4c(F)c(F)c(F)c(F)c4F)c4ccc([nH]4)c(-c4c(F)c(F)c(F)c(F)c4F)c4nc(c(-c5c(F)c(F)c(F)c(F)c5F)c5ccc2[nH]5)C=C4)C=C3)cc1
REMARK SMILES IDX 23 1 22 2 21 3 1 4 2 5 3 7 4 8 5 9 6 10 20 11 7 12 19 13
REMARK SMILES IDX 8 14 9 16 10 17 18 18 11 19 13 20 12 21 14 22 17 23 15 24
REMARK SMILES IDX 16 25 24 26 25 27 26 28 27 29 28 31 29 32 30 33 91 34 31 35
REMARK SMILES IDX 90 36 32 37 33 38 34 39 84 40 35 41 89 42 83 43 85 44 36 45
REMARK SMILES IDX 88 46 82 47 81 48 37 50 69 51 49 52 68 53 50 54 53 55 67 56
REMARK SMILES IDX 86 57 51 58 52 59 66 61 87 62 54 63 38 64 39 65 47 66 40 67
REMARK SMILES IDX 41 68 45 69 48 70 42 71 43 72 46 73 44 74 70 75 71 76 79 77
REMARK SMILES IDX 72 78 73 79 77 80 80 81 74 82 75 83 78 84 76 85 55 86 56 87
REMARK SMILES IDX 64 88 57 89 58 90 62 91 65 92 59 93 60 94 63 95 61 96
REMARK H PARENT 21 6 8 15 26 30 85 49 53 60
REMARK Flexibility Score: inf
ROOT
ATOM      1  C   UNL A   1      34.468  33.658  29.230  1.00  0.00     0.023 C 
ENDROOT
BRANCH   1   2
ATOM      2  C   UNL A   1      35.249  33.217  27.993  1.00  0.00     0.116 C 
BRANCH   2   3
ATOM      3  N   UNL A   1      35.387  31.777  27.912  1.00  0.00    -0.356 N 
ATOM      4  O   UNL A   1      33.215  31.367  27.293  1.00  0.00    -0.275 OA
ATOM      5  C   UNL A   1      34.348  30.959  27.527  1.00  0.00     0.220 C 
ATOM      6  H   UNL A   1      36.254  31.369  28.141  1.00  0.00     0.163 HD
BRANCH   5   7
ATOM      7  C   UNL A   1      34.731  29.499  27.351  1.00  0.00     0.100 C 
BRANCH   7   8
ATOM      8  C   UNL A   1      33.484  28.606  27.284  1.00  0.00     0.014 C 
BRANCH   8   9
ATOM      9  C   UNL A   1      33.605  27.520  26.188  1.00  0.00     0.000 C 
ATOM     10  C   UNL A   1      33.495  28.117  24.772  1.00  0.00     0.065 C 
ATOM     11  C   UNL A   1      32.675  26.323  26.458  1.00  0.00     0.065 C 
ATOM     12  C   UNL A   1      32.132  27.969  24.094  1.00  0.00     0.262 C 
ATOM     13  C   UNL A   1      31.353  26.379  25.706  1.00  0.00     0.262 C 
ATOM     14  N   UNL A   1      31.488  26.668  24.281  1.00  0.00    -0.332 N 
ATOM     15  H   UNL A   1      30.527  26.724  23.945  1.00  0.00     0.348 HD
BRANCH  14  16
ATOM     16  C   UNL A   1      31.893  25.594  23.345  1.00  0.00     0.189 C 
ATOM     17  C   UNL A   1      32.304  26.017  21.926  1.00  0.00     0.093 C 
ATOM     18  C   UNL A   1      32.960  24.650  23.948  1.00  0.00     0.101 C 
ATOM     19  C   UNL A   1      32.751  24.837  21.084  1.00  0.00     0.167 C 
ATOM     20  C   UNL A   1      33.400  23.525  22.984  1.00  0.00     0.084 C 
ATOM     21  O   UNL A   1      33.786  24.113  21.729  1.00  0.00    -0.374 OA
ATOM     22  C   UNL A   1      32.358  22.417  22.746  1.00  0.00     0.047 C 
ATOM     23  C   UNL A   1      34.644  22.794  23.518  1.00  0.00     0.105 C 
ATOM     24  C   UNL A   1      32.420  21.365  23.844  1.00  0.00     0.072 C 
ATOM     25  S   UNL A   1      34.041  21.500  24.626  1.00  0.00    -0.159 SA
ENDBRANCH  14  16
ENDBRANCH   8   9
ENDBRANCH   7   8
ENDBRANCH   5   7
ENDBRANCH   2   3
ENDBRANCH   1   2
BRANCH   1  26
ATOM     26  C   UNL A   1      33.256  34.556  28.958  1.00  0.00     0.023 C 
BRANCH  26  27
ATOM     27  C   UNL A   1      33.343  35.971  29.522  1.00  0.00     0.116 C 
BRANCH  27  28
ATOM     28  N   UNL A   1      32.475  36.168  30.674  1.00  0.00    -0.352 N 
ATOM     29  C   UNL A   1      32.590  35.702  31.958  1.00  0.00     0.251 C 
ATOM     30  H   UNL A   1      31.682  36.725  30.504  1.00  0.00     0.163 HD
ATOM     31  O   UNL A   1      31.649  35.846  32.744  1.00  0.00    -0.269 OA
BRANCH  29  32
ATOM     32  C   UNL A   1      33.814  35.008  32.415  1.00  0.00     0.039 A 
ATOM     33  C   UNL A   1      33.699  33.711  32.928  1.00  0.00     0.014 A 
ATOM     34  C   UNL A   1      35.064  35.632  32.380  1.00  0.00     0.014 A 
ATOM     35  C   UNL A   1      34.841  33.018  33.341  1.00  0.00     0.010 A 
ATOM     36  C   UNL A   1      36.210  34.916  32.729  1.00  0.00     0.010 A 
ATOM     37  C   UNL A   1      36.112  33.601  33.210  1.00  0.00    -0.014 A 
BRANCH  37  38
ATOM     38  C   UNL A   1      37.345  32.847  33.559  1.00  0.00     0.031 A 
ATOM     39  C   UNL A   1      38.083  33.140  34.836  1.00  0.00     0.074 A 
ATOM     40  C   UNL A   1      37.838  31.941  32.693  1.00  0.00     0.049 A 
ATOM     41  N   UNL A   1      39.214  32.643  35.273  1.00  0.00    -0.248 NA
ATOM     42  C   UNL A   1      37.483  34.141  35.731  1.00  0.00     0.031 C 
ATOM     43  C   UNL A   1      37.239  31.591  31.403  1.00  0.00     0.029 A 
ATOM     44  N   UNL A   1      38.963  31.156  32.759  1.00  0.00    -0.354 N 
ATOM     45  C   UNL A   1      39.468  33.282  36.479  1.00  0.00     0.074 A 
ATOM     46  C   UNL A   1      38.399  34.235  36.685  1.00  0.00     0.031 C 
ATOM     47  C   UNL A   1      37.991  30.649  30.811  1.00  0.00     0.029 A 
ATOM     48  C   UNL A   1      39.144  30.357  31.656  1.00  0.00     0.049 A 
ATOM     49  H   UNL A   1      39.582  31.164  33.526  1.00  0.00     0.167 HD
ATOM     50  C   UNL A   1      40.490  33.078  37.345  1.00  0.00     0.037 A 
ATOM     51  C   UNL A   1      40.134  29.495  31.354  1.00  0.00     0.037 A 
ATOM     52  C   UNL A   1      41.538  32.108  37.154  1.00  0.00     0.049 A 
ATOM     53  C   UNL A   1      41.263  29.298  32.329  1.00  0.00     0.074 A 
ATOM     54  C   UNL A   1      42.576  31.781  38.008  1.00  0.00     0.029 A 
ATOM     55  N   UNL A   1      41.681  31.310  36.028  1.00  0.00    -0.354 N 
ATOM     56  N   UNL A   1      41.455  29.857  33.498  1.00  0.00    -0.248 NA
ATOM     57  C   UNL A   1      42.312  28.343  31.942  1.00  0.00     0.031 C 
ATOM     58  C   UNL A   1      43.376  30.821  37.379  1.00  0.00     0.029 A 
ATOM     59  C   UNL A   1      42.807  30.510  36.156  1.00  0.00     0.049 A 
ATOM     60  H   UNL A   1      41.074  31.312  35.253  1.00  0.00     0.167 HD
ATOM     61  C   UNL A   1      42.626  29.302  34.000  1.00  0.00     0.074 A 
ATOM     62  C   UNL A   1      43.093  28.351  33.013  1.00  0.00     0.031 C 
ATOM     63  C   UNL A   1      43.255  29.557  35.172  1.00  0.00     0.037 A 
BRANCH  50  64
ATOM     64  C   UNL A   1      40.531  33.921  38.587  1.00  0.00     0.064 A 
ATOM     65  C   UNL A   1      39.860  33.540  39.759  1.00  0.00     0.173 A 
ATOM     66  C   UNL A   1      41.288  35.102  38.620  1.00  0.00     0.173 A 
ATOM     67  F   UNL A   1      39.113  32.427  39.778  1.00  0.00    -0.203 F 
ATOM     68  C   UNL A   1      39.924  34.325  40.908  1.00  0.00     0.198 A 
ATOM     69  C   UNL A   1      41.375  35.867  39.780  1.00  0.00     0.198 A 
ATOM     70  F   UNL A   1      41.953  35.510  37.528  1.00  0.00    -0.203 F 
ATOM     71  F   UNL A   1      39.235  33.966  42.002  1.00  0.00    -0.200 F 
ATOM     72  C   UNL A   1      40.686  35.483  40.920  1.00  0.00     0.200 A 
ATOM     73  F   UNL A   1      42.122  36.980  39.792  1.00  0.00    -0.200 F 
ATOM     74  F   UNL A   1      40.753  36.232  42.029  1.00  0.00    -0.200 F 
ENDBRANCH  50  64
BRANCH  51  75
ATOM     75  C   UNL A   1      40.093  28.733  30.079  1.00  0.00     0.064 A 
ATOM     76  C   UNL A   1      39.480  27.474  30.014  1.00  0.00     0.173 A 
ATOM     77  C   UNL A   1      40.674  29.236  28.906  1.00  0.00     0.173 A 
ATOM     78  F   UNL A   1      38.929  26.941  31.116  1.00  0.00    -0.203 F 
ATOM     79  C   UNL A   1      39.467  26.738  28.831  1.00  0.00     0.198 A 
ATOM     80  C   UNL A   1      40.635  28.512  27.715  1.00  0.00     0.198 A 
ATOM     81  F   UNL A   1      41.269  30.438  28.912  1.00  0.00    -0.203 F 
ATOM     82  F   UNL A   1      38.915  25.517  28.811  1.00  0.00    -0.200 F 
ATOM     83  C   UNL A   1      40.039  27.261  27.682  1.00  0.00     0.200 A 
ATOM     84  F   UNL A   1      41.177  29.026  26.603  1.00  0.00    -0.200 F 
ATOM     85  F   UNL A   1      40.025  26.554  26.543  1.00  0.00    -0.200 F 
ENDBRANCH  51  75
BRANCH  63  86
ATOM     86  C   UNL A   1      44.496  28.768  35.476  1.00  0.00     0.064 A 
ATOM     87  C   UNL A   1      45.770  29.228  35.113  1.00  0.00     0.173 A 
ATOM     88  C   UNL A   1      44.410  27.554  36.172  1.00  0.00     0.173 A 
ATOM     89  F   UNL A   1      45.905  30.376  34.431  1.00  0.00    -0.203 F 
ATOM     90  C   UNL A   1      46.911  28.488  35.414  1.00  0.00     0.198 A 
ATOM     91  C   UNL A   1      45.554  26.831  36.499  1.00  0.00     0.198 A 
ATOM     92  F   UNL A   1      43.216  27.072  36.548  1.00  0.00    -0.203 F 
ATOM     93  F   UNL A   1      48.114  28.922  35.014  1.00  0.00    -0.200 F 
ATOM     94  C   UNL A   1      46.802  27.295  36.113  1.00  0.00     0.200 A 
ATOM     95  F   UNL A   1      45.449  25.685  37.186  1.00  0.00    -0.200 F 
ATOM     96  F   UNL A   1      47.902  26.587  36.408  1.00  0.00    -0.200 F 
ENDBRANCH  63  86
ENDBRANCH  37  38
ENDBRANCH  29  32
ENDBRANCH  27  28
ENDBRANCH  26  27
ENDBRANCH   1  26
TORSDOF 14
ENDMDL
