MODEL 1
REMARK VINA RESULT:     -11.7      0.000      0.000
REMARK SMILES C[N@H+](C[C@H]1CCC[N@@H+]1C)C[C@]([NH3+])(C(=O)NCCCCNC(=O)c1ccc(-c2c3nc(c(-c4c(F)c(F)c(F)c(F)c4F)c4ccc([nH]4)c(-c4c(F)c(F)c(F)c(F)c4F)c4nc(c(-c5c(F)c(F)c(F)c(F)c5F)c5ccc2[nH]5)C=C4)C=C3)cc1)c1ccccc1
REMARK SMILES IDX 16 1 15 2 13 3 14 4 11 6 10 7 2 8 1 9 3 11 4 12 5 13 8 14
REMARK SMILES IDX 6 15 7 16 9 17 86 19 87 20 91 21 88 22 90 23 89 24 12 25
REMARK SMILES IDX 17 29 18 30 19 31 20 32 21 33 22 35 23 36 24 37 85 38 25 39
REMARK SMILES IDX 84 40 26 41 27 42 28 43 78 44 29 45 83 46 77 47 79 48 30 49
REMARK SMILES IDX 82 50 76 51 75 52 31 54 63 55 43 56 62 57 44 58 47 59 61 60
REMARK SMILES IDX 80 61 45 62 46 63 60 65 81 66 48 67 32 68 33 69 41 70 34 71
REMARK SMILES IDX 35 72 39 73 42 74 36 75 37 76 40 77 38 78 64 79 65 80 73 81
REMARK SMILES IDX 66 82 67 83 71 84 74 85 68 86 69 87 72 88 70 89 49 90 50 91
REMARK SMILES IDX 58 92 51 93 52 94 56 95 59 96 53 97 54 98 57 99 55 100
REMARK H PARENT 15 5 2 10 8 18 12 26 12 27 12 28 20 34 79 53 47 64
REMARK Flexibility Score: inf
ROOT
ATOM      1  C   UNL A   1      32.926  29.469  25.945  1.00  0.00     0.116 C 
ENDROOT
BRANCH   1   2
ATOM      2  N   UNL A   1      33.860  29.209  24.856  1.00  0.00    -0.350 N 
ATOM      3  C   UNL A   1      33.654  28.618  23.608  1.00  0.00     0.292 C 
ATOM      4  O   UNL A   1      34.464  28.915  22.724  1.00  0.00    -0.267 OA
ATOM      5  H   UNL A   1      34.787  29.495  25.029  1.00  0.00     0.163 HD
BRANCH   3   6
ATOM      6  C   UNL A   1      32.604  27.440  23.435  1.00  0.00     0.248 C 
BRANCH   6   7
ATOM      7  C   UNL A   1      32.610  26.304  24.548  1.00  0.00     0.347 C 
BRANCH   7   8
ATOM      8  N   UNL A   1      33.038  24.951  24.082  1.00  0.00    -0.326 N 
ATOM      9  C   UNL A   1      32.003  24.028  23.690  1.00  0.00     0.333 C 
ATOM     10  H   UNL A   1      33.389  25.319  23.197  1.00  0.00     0.348 HD
BRANCH   8  11
ATOM     11  C   UNL A   1      34.367  24.408  24.393  1.00  0.00     0.327 C 
BRANCH  11  12
ATOM     12  C   UNL A   1      34.825  22.949  23.913  1.00  0.00     0.239 C 
ATOM     13  C   UNL A   1      36.239  22.941  23.340  1.00  0.00     0.077 C 
ATOM     14  N   UNL A   1      34.857  21.863  24.908  1.00  0.00    -0.330 N 
ATOM     15  C   UNL A   1      37.124  22.302  24.391  1.00  0.00     0.068 C 
ATOM     16  C   UNL A   1      36.209  21.452  25.235  1.00  0.00     0.262 C 
ATOM     17  C   UNL A   1      33.929  20.748  24.750  1.00  0.00     0.333 C 
ATOM     18  H   UNL A   1      34.454  22.318  25.727  1.00  0.00     0.348 HD
ENDBRANCH  11  12
ENDBRANCH   8  11
ENDBRANCH   7   8
ENDBRANCH   6   7
BRANCH   6  19
ATOM     19  C   UNL A   1      31.142  27.909  23.107  1.00  0.00     0.028 A 
ATOM     20  C   UNL A   1      30.007  27.192  23.565  1.00  0.00     0.011 A 
ATOM     21  C   UNL A   1      30.870  29.106  22.415  1.00  0.00     0.011 A 
ATOM     22  C   UNL A   1      28.706  27.688  23.450  1.00  0.00     0.001 A 
ATOM     23  C   UNL A   1      29.560  29.603  22.293  1.00  0.00     0.001 A 
ATOM     24  C   UNL A   1      28.482  28.907  22.831  1.00  0.00     0.000 A 
ENDBRANCH   6  19
BRANCH   6  25
ATOM     25  N   UNL A   1      33.154  26.814  22.247  1.00  0.00    -0.336 N 
ATOM     26  H   UNL A   1      32.394  26.493  21.648  1.00  0.00     0.345 HD
ATOM     27  H   UNL A   1      33.733  26.018  22.519  1.00  0.00     0.345 HD
ATOM     28  H   UNL A   1      33.725  27.491  21.739  1.00  0.00     0.345 HD
ENDBRANCH   6  25
ENDBRANCH   3   6
ENDBRANCH   1   2
BRANCH   1  29
ATOM     29  C   UNL A   1      31.846  30.538  25.754  1.00  0.00     0.023 C 
BRANCH  29  30
ATOM     30  C   UNL A   1      31.595  31.488  26.915  1.00  0.00     0.023 C 
BRANCH  30  31
ATOM     31  C   UNL A   1      32.774  32.394  27.231  1.00  0.00     0.116 C 
BRANCH  31  32
ATOM     32  N   UNL A   1      32.400  33.782  27.468  1.00  0.00    -0.352 N 
ATOM     33  C   UNL A   1      32.950  34.683  28.359  1.00  0.00     0.251 C 
ATOM     34  H   UNL A   1      31.656  34.124  26.921  1.00  0.00     0.163 HD
ATOM     35  O   UNL A   1      32.468  35.782  28.516  1.00  0.00    -0.269 OA
BRANCH  33  36
ATOM     36  C   UNL A   1      34.120  34.252  29.158  1.00  0.00     0.039 A 
ATOM     37  C   UNL A   1      33.903  33.520  30.327  1.00  0.00     0.014 A 
ATOM     38  C   UNL A   1      35.417  34.515  28.716  1.00  0.00     0.014 A 
ATOM     39  C   UNL A   1      34.995  32.984  31.011  1.00  0.00     0.010 A 
ATOM     40  C   UNL A   1      36.492  33.898  29.338  1.00  0.00     0.010 A 
ATOM     41  C   UNL A   1      36.293  33.133  30.496  1.00  0.00    -0.014 A 
BRANCH  41  42
ATOM     42  C   UNL A   1      37.464  32.506  31.156  1.00  0.00     0.031 A 
ATOM     43  C   UNL A   1      38.190  31.380  30.475  1.00  0.00     0.074 A 
ATOM     44  C   UNL A   1      37.820  32.897  32.395  1.00  0.00     0.049 A 
ATOM     45  N   UNL A   1      39.182  30.649  30.914  1.00  0.00    -0.248 NA
ATOM     46  C   UNL A   1      37.715  31.001  29.134  1.00  0.00     0.031 C 
ATOM     47  C   UNL A   1      37.149  33.935  33.181  1.00  0.00     0.029 A 
ATOM     48  N   UNL A   1      38.826  32.459  33.217  1.00  0.00    -0.354 N 
ATOM     49  C   UNL A   1      39.432  29.717  29.917  1.00  0.00     0.074 A 
ATOM     50  C   UNL A   1      38.451  29.930  28.878  1.00  0.00     0.031 C 
ATOM     51  C   UNL A   1      37.779  34.071  34.358  1.00  0.00     0.029 A 
ATOM     52  C   UNL A   1      38.870  33.104  34.428  1.00  0.00     0.049 A 
ATOM     53  H   UNL A   1      39.459  31.748  32.962  1.00  0.00     0.167 HD
ATOM     54  C   UNL A   1      40.411  28.784  29.862  1.00  0.00     0.037 A 
ATOM     55  C   UNL A   1      39.695  32.930  35.478  1.00  0.00     0.037 A 
ATOM     56  C   UNL A   1      41.404  28.600  30.886  1.00  0.00     0.049 A 
ATOM     57  C   UNL A   1      40.783  31.894  35.386  1.00  0.00     0.074 A 
ATOM     58  C   UNL A   1      42.484  27.735  30.895  1.00  0.00     0.029 A 
ATOM     59  N   UNL A   1      41.436  29.294  32.087  1.00  0.00    -0.354 N 
ATOM     60  N   UNL A   1      41.062  31.072  34.403  1.00  0.00    -0.248 NA
ATOM     61  C   UNL A   1      41.677  31.769  36.544  1.00  0.00     0.031 C 
ATOM     62  C   UNL A   1      43.137  27.867  32.124  1.00  0.00     0.029 A 
ATOM     63  C   UNL A   1      42.502  28.859  32.856  1.00  0.00     0.049 A 
ATOM     64  H   UNL A   1      40.796  29.993  32.353  1.00  0.00     0.167 HD
ATOM     65  C   UNL A   1      42.177  30.352  34.812  1.00  0.00     0.074 A 
ATOM     66  C   UNL A   1      42.533  30.848  36.125  1.00  0.00     0.031 C 
ATOM     67  C   UNL A   1      42.845  29.370  34.159  1.00  0.00     0.037 A 
BRANCH  54  68
ATOM     68  C   UNL A   1      40.459  27.895  28.652  1.00  0.00     0.064 A 
ATOM     69  C   UNL A   1      41.194  28.244  27.507  1.00  0.00     0.173 A 
ATOM     70  C   UNL A   1      39.790  26.662  28.648  1.00  0.00     0.173 A 
ATOM     71  F   UNL A   1      41.841  29.418  27.452  1.00  0.00    -0.203 F 
ATOM     72  C   UNL A   1      41.230  27.406  26.396  1.00  0.00     0.198 A 
ATOM     73  C   UNL A   1      39.856  25.812  27.548  1.00  0.00     0.198 A 
ATOM     74  F   UNL A   1      39.075  26.277  29.717  1.00  0.00    -0.203 F 
ATOM     75  F   UNL A   1      41.894  27.787  25.296  1.00  0.00    -0.200 F 
ATOM     76  C   UNL A   1      40.569  26.188  26.420  1.00  0.00     0.200 A 
ATOM     77  F   UNL A   1      39.229  24.629  27.578  1.00  0.00    -0.200 F 
ATOM     78  F   UNL A   1      40.614  25.380  25.352  1.00  0.00    -0.200 F 
ENDBRANCH  54  68
BRANCH  55  79
ATOM     79  C   UNL A   1      39.540  33.772  36.693  1.00  0.00     0.064 A 
ATOM     80  C   UNL A   1      38.777  33.331  37.783  1.00  0.00     0.173 A 
ATOM     81  C   UNL A   1      40.148  35.032  36.791  1.00  0.00     0.173 A 
ATOM     82  F   UNL A   1      38.160  32.141  37.731  1.00  0.00    -0.203 F 
ATOM     83  C   UNL A   1      38.610  34.127  38.915  1.00  0.00     0.198 A 
ATOM     84  C   UNL A   1      40.006  35.814  37.936  1.00  0.00     0.198 A 
ATOM     85  F   UNL A   1      40.895  35.499  35.780  1.00  0.00    -0.203 F 
ATOM     86  F   UNL A   1      37.836  33.699  39.923  1.00  0.00    -0.200 F 
ATOM     87  C   UNL A   1      39.229  35.364  38.993  1.00  0.00     0.200 A 
ATOM     88  F   UNL A   1      40.620  37.002  38.014  1.00  0.00    -0.200 F 
ATOM     89  F   UNL A   1      39.072  36.127  40.084  1.00  0.00    -0.200 F 
ENDBRANCH  55  79
BRANCH  67  90
ATOM     90  C   UNL A   1      44.052  28.789  34.838  1.00  0.00     0.064 A 
ATOM     91  C   UNL A   1      45.327  29.353  34.684  1.00  0.00     0.173 A 
ATOM     92  C   UNL A   1      43.921  27.683  35.691  1.00  0.00     0.173 A 
ATOM     93  F   UNL A   1      45.507  30.404  33.869  1.00  0.00    -0.203 F 
ATOM     94  C   UNL A   1      46.431  28.812  35.337  1.00  0.00     0.198 A 
ATOM     95  C   UNL A   1      45.021  27.166  36.368  1.00  0.00     0.198 A 
ATOM     96  F   UNL A   1      42.721  27.112  35.879  1.00  0.00    -0.203 F 
ATOM     97  F   UNL A   1      47.648  29.335  35.136  1.00  0.00    -0.200 F 
ATOM     98  C   UNL A   1      46.276  27.726  36.185  1.00  0.00     0.200 A 
ATOM     99  F   UNL A   1      44.866  26.127  37.201  1.00  0.00    -0.200 F 
ATOM    100  F   UNL A   1      47.339  27.213  36.820  1.00  0.00    -0.200 F 
ENDBRANCH  67  90
ENDBRANCH  41  42
ENDBRANCH  33  36
ENDBRANCH  31  32
ENDBRANCH  30  31
ENDBRANCH  29  30
ENDBRANCH   1  29
TORSDOF 17
ENDMDL
MODEL 2
REMARK VINA RESULT:     -11.7      0.759      7.378
REMARK SMILES C[N@H+](C[C@H]1CCC[N@@H+]1C)C[C@]([NH3+])(C(=O)NCCCCNC(=O)c1ccc(-c2c3nc(c(-c4c(F)c(F)c(F)c(F)c4F)c4ccc([nH]4)c(-c4c(F)c(F)c(F)c(F)c4F)c4nc(c(-c5c(F)c(F)c(F)c(F)c5F)c5ccc2[nH]5)C=C4)C=C3)cc1)c1ccccc1
REMARK SMILES IDX 16 1 15 2 13 3 14 4 11 6 10 7 2 8 1 9 3 11 4 12 5 13 8 14
REMARK SMILES IDX 6 15 7 16 9 17 86 19 87 20 91 21 88 22 90 23 89 24 12 25
REMARK SMILES IDX 17 29 18 30 19 31 20 32 21 33 22 35 23 36 24 37 85 38 25 39
REMARK SMILES IDX 84 40 26 41 27 42 28 43 78 44 29 45 83 46 77 47 79 48 30 49
REMARK SMILES IDX 82 50 76 51 75 52 31 54 63 55 43 56 62 57 44 58 47 59 61 60
REMARK SMILES IDX 80 61 45 62 46 63 60 65 81 66 48 67 32 68 33 69 41 70 34 71
REMARK SMILES IDX 35 72 39 73 42 74 36 75 37 76 40 77 38 78 64 79 65 80 73 81
REMARK SMILES IDX 66 82 67 83 71 84 74 85 68 86 69 87 72 88 70 89 49 90 50 91
REMARK SMILES IDX 58 92 51 93 52 94 56 95 59 96 53 97 54 98 57 99 55 100
REMARK H PARENT 15 5 2 10 8 18 12 26 12 27 12 28 20 34 79 53 47 64
REMARK Flexibility Score: inf
ROOT
ATOM      1  C   UNL A   1      31.576  30.115  25.289  1.00  0.00     0.116 C 
ENDROOT
BRANCH   1   2
ATOM      2  N   UNL A   1      32.680  29.517  24.547  1.00  0.00    -0.350 N 
ATOM      3  C   UNL A   1      32.680  28.785  23.358  1.00  0.00     0.292 C 
ATOM      4  O   UNL A   1      33.738  28.783  22.720  1.00  0.00    -0.267 OA
ATOM      5  H   UNL A   1      33.568  29.649  24.951  1.00  0.00     0.163 HD
BRANCH   3   6
ATOM      6  C   UNL A   1      31.477  27.811  23.008  1.00  0.00     0.248 C 
BRANCH   6   7
ATOM      7  C   UNL A   1      31.225  26.595  24.002  1.00  0.00     0.347 C 
BRANCH   7   8
ATOM      8  N   UNL A   1      32.450  26.012  24.627  1.00  0.00    -0.326 N 
ATOM      9  C   UNL A   1      32.811  26.482  25.941  1.00  0.00     0.333 C 
ATOM     10  H   UNL A   1      31.989  25.119  24.802  1.00  0.00     0.348 HD
BRANCH   8  11
ATOM     11  C   UNL A   1      33.480  25.333  23.828  1.00  0.00     0.327 C 
BRANCH  11  12
ATOM     12  C   UNL A   1      33.506  23.741  23.648  1.00  0.00     0.239 C 
ATOM     13  C   UNL A   1      34.841  23.237  23.106  1.00  0.00     0.077 C 
ATOM     14  N   UNL A   1      33.285  22.899  24.837  1.00  0.00    -0.330 N 
ATOM     15  C   UNL A   1      35.563  22.594  24.273  1.00  0.00     0.068 C 
ATOM     16  C   UNL A   1      34.488  22.206  25.255  1.00  0.00     0.262 C 
ATOM     17  C   UNL A   1      32.084  22.071  24.889  1.00  0.00     0.333 C 
ATOM     18  H   UNL A   1      33.054  23.595  25.546  1.00  0.00     0.348 HD
ENDBRANCH  11  12
ENDBRANCH   8  11
ENDBRANCH   7   8
ENDBRANCH   6   7
BRANCH   6  19
ATOM     19  C   UNL A   1      30.133  28.535  22.642  1.00  0.00     0.028 A 
ATOM     20  C   UNL A   1      28.881  28.073  23.122  1.00  0.00     0.011 A 
ATOM     21  C   UNL A   1      30.098  29.725  21.889  1.00  0.00     0.011 A 
ATOM     22  C   UNL A   1      27.699  28.804  22.968  1.00  0.00     0.001 A 
ATOM     23  C   UNL A   1      28.908  30.458  21.729  1.00  0.00     0.001 A 
ATOM     24  C   UNL A   1      27.715  30.011  22.289  1.00  0.00     0.000 A 
ENDBRANCH   6  19
BRANCH   6  25
ATOM     25  N   UNL A   1      32.011  27.211  21.799  1.00  0.00    -0.336 N 
ATOM     26  H   UNL A   1      31.716  26.236  21.743  1.00  0.00     0.345 HD
ATOM     27  H   UNL A   1      33.030  27.259  21.817  1.00  0.00     0.345 HD
ATOM     28  H   UNL A   1      31.662  27.719  20.985  1.00  0.00     0.345 HD
ENDBRANCH   6  25
ENDBRANCH   3   6
ENDBRANCH   1   2
BRANCH   1  29
ATOM     29  C   UNL A   1      31.854  30.728  26.665  1.00  0.00     0.023 C 
BRANCH  29  30
ATOM     30  C   UNL A   1      31.598  32.219  26.826  1.00  0.00     0.023 C 
BRANCH  30  31
ATOM     31  C   UNL A   1      32.791  32.991  27.365  1.00  0.00     0.116 C 
BRANCH  31  32
ATOM     32  N   UNL A   1      32.475  34.356  27.765  1.00  0.00    -0.352 N 
ATOM     33  C   UNL A   1      33.066  35.124  28.749  1.00  0.00     0.251 C 
ATOM     34  H   UNL A   1      31.743  34.788  27.268  1.00  0.00     0.163 HD
ATOM     35  O   UNL A   1      32.630  36.216  29.037  1.00  0.00    -0.269 OA
BRANCH  33  36
ATOM     36  C   UNL A   1      34.222  34.557  29.481  1.00  0.00     0.039 A 
ATOM     37  C   UNL A   1      33.986  33.833  30.651  1.00  0.00     0.014 A 
ATOM     38  C   UNL A   1      35.515  34.687  28.974  1.00  0.00     0.014 A 
ATOM     39  C   UNL A   1      35.048  33.172  31.271  1.00  0.00     0.010 A 
ATOM     40  C   UNL A   1      36.548  33.949  29.532  1.00  0.00     0.010 A 
ATOM     41  C   UNL A   1      36.326  33.190  30.691  1.00  0.00    -0.014 A 
BRANCH  41  42
ATOM     42  C   UNL A   1      37.455  32.430  31.281  1.00  0.00     0.031 A 
ATOM     43  C   UNL A   1      37.972  32.800  32.643  1.00  0.00     0.074 A 
ATOM     44  C   UNL A   1      38.059  31.465  30.561  1.00  0.00     0.049 A 
ATOM     45  N   UNL A   1      38.995  32.315  33.300  1.00  0.00    -0.248 NA
ATOM     46  C   UNL A   1      37.269  33.885  33.347  1.00  0.00     0.031 C 
ATOM     47  C   UNL A   1      37.685  31.063  29.203  1.00  0.00     0.029 A 
ATOM     48  N   UNL A   1      39.123  30.655  30.864  1.00  0.00    -0.354 N 
ATOM     49  C   UNL A   1      39.067  33.047  34.477  1.00  0.00     0.074 A 
ATOM     50  C   UNL A   1      38.027  34.050  34.419  1.00  0.00     0.031 C 
ATOM     51  C   UNL A   1      38.490  30.066  28.803  1.00  0.00     0.029 A 
ATOM     52  C   UNL A   1      39.460  29.787  29.856  1.00  0.00     0.049 A 
ATOM     53  H   UNL A   1      39.600  30.693  31.725  1.00  0.00     0.167 HD
ATOM     54  C   UNL A   1      39.907  32.879  35.524  1.00  0.00     0.037 A 
ATOM     55  C   UNL A   1      40.446  28.871  29.789  1.00  0.00     0.037 A 
ATOM     56  C   UNL A   1      40.918  31.858  35.587  1.00  0.00     0.049 A 
ATOM     57  C   UNL A   1      41.359  28.696  30.972  1.00  0.00     0.074 A 
ATOM     58  C   UNL A   1      41.772  31.552  36.631  1.00  0.00     0.029 A 
ATOM     59  N   UNL A   1      41.210  30.973  34.558  1.00  0.00    -0.354 N 
ATOM     60  N   UNL A   1      41.367  29.340  32.115  1.00  0.00    -0.248 NA
ATOM     61  C   UNL A   1      42.395  27.661  30.861  1.00  0.00     0.031 C 
ATOM     62  C   UNL A   1      42.618  30.520  36.215  1.00  0.00     0.029 A 
ATOM     63  C   UNL A   1      42.250  30.139  34.934  1.00  0.00     0.049 A 
ATOM     64  H   UNL A   1      40.746  30.943  33.690  1.00  0.00     0.167 HD
ATOM     65  C   UNL A   1      42.386  28.771  32.867  1.00  0.00     0.074 A 
ATOM     66  C   UNL A   1      42.963  27.718  32.057  1.00  0.00     0.031 C 
ATOM     67  C   UNL A   1      42.806  29.092  34.115  1.00  0.00     0.037 A 
BRANCH  54  68
ATOM     68  C   UNL A   1      39.766  33.818  36.688  1.00  0.00     0.064 A 
ATOM     69  C   UNL A   1      40.445  35.046  36.733  1.00  0.00     0.173 A 
ATOM     70  C   UNL A   1      38.915  33.502  37.758  1.00  0.00     0.173 A 
ATOM     71  F   UNL A   1      41.282  35.391  35.743  1.00  0.00    -0.203 F 
ATOM     72  C   UNL A   1      40.301  35.906  37.818  1.00  0.00     0.198 A 
ATOM     73  C   UNL A   1      38.748  34.380  38.825  1.00  0.00     0.198 A 
ATOM     74  F   UNL A   1      38.239  32.343  37.765  1.00  0.00    -0.203 F 
ATOM     75  F   UNL A   1      41.001  37.048  37.861  1.00  0.00    -0.200 F 
ATOM     76  C   UNL A   1      39.446  35.578  38.858  1.00  0.00     0.200 A 
ATOM     77  F   UNL A   1      37.910  34.067  39.823  1.00  0.00    -0.200 F 
ATOM     78  F   UNL A   1      39.301  36.412  39.897  1.00  0.00    -0.200 F 
ENDBRANCH  54  68
BRANCH  55  79
ATOM     79  C   UNL A   1      40.602  28.035  28.570  1.00  0.00     0.064 A 
ATOM     80  C   UNL A   1      41.386  28.471  27.492  1.00  0.00     0.173 A 
ATOM     81  C   UNL A   1      39.974  26.786  28.455  1.00  0.00     0.173 A 
ATOM     82  F   UNL A   1      41.992  29.666  27.546  1.00  0.00    -0.203 F 
ATOM     83  C   UNL A   1      41.517  27.701  26.338  1.00  0.00     0.198 A 
ATOM     84  C   UNL A   1      40.131  26.003  27.313  1.00  0.00     0.198 A 
ATOM     85  F   UNL A   1      39.219  26.319  29.459  1.00  0.00    -0.203 F 
ATOM     86  F   UNL A   1      42.234  28.164  25.305  1.00  0.00    -0.200 F 
ATOM     87  C   UNL A   1      40.894  26.466  26.252  1.00  0.00     0.200 A 
ATOM     88  F   UNL A   1      39.541  24.802  27.241  1.00  0.00    -0.200 F 
ATOM     89  F   UNL A   1      41.025  25.723  25.144  1.00  0.00    -0.200 F 
ENDBRANCH  55  79
BRANCH  67  90
ATOM     90  C   UNL A   1      43.921  28.272  34.698  1.00  0.00     0.064 A 
ATOM     91  C   UNL A   1      43.673  27.079  35.393  1.00  0.00     0.173 A 
ATOM     92  C   UNL A   1      45.256  28.663  34.519  1.00  0.00     0.173 A 
ATOM     93  F   UNL A   1      42.413  26.668  35.603  1.00  0.00    -0.203 F 
ATOM     94  C   UNL A   1      44.721  26.322  35.910  1.00  0.00     0.198 A 
ATOM     95  C   UNL A   1      46.303  27.887  35.007  1.00  0.00     0.198 A 
ATOM     96  F   UNL A   1      45.547  29.791  33.854  1.00  0.00    -0.203 F 
ATOM     97  F   UNL A   1      44.460  25.212  36.613  1.00  0.00    -0.200 F 
ATOM     98  C   UNL A   1      46.034  26.721  35.709  1.00  0.00     0.200 A 
ATOM     99  F   UNL A   1      47.571  28.265  34.797  1.00  0.00    -0.200 F 
ATOM    100  F   UNL A   1      47.042  25.986  36.199  1.00  0.00    -0.200 F 
ENDBRANCH  67  90
ENDBRANCH  41  42
ENDBRANCH  33  36
ENDBRANCH  31  32
ENDBRANCH  30  31
ENDBRANCH  29  30
ENDBRANCH   1  29
TORSDOF 17
ENDMDL
MODEL 3
REMARK VINA RESULT:     -11.6      5.232     10.598
REMARK SMILES C[N@H+](C[C@H]1CCC[N@@H+]1C)C[C@]([NH3+])(C(=O)NCCCCNC(=O)c1ccc(-c2c3nc(c(-c4c(F)c(F)c(F)c(F)c4F)c4ccc([nH]4)c(-c4c(F)c(F)c(F)c(F)c4F)c4nc(c(-c5c(F)c(F)c(F)c(F)c5F)c5ccc2[nH]5)C=C4)C=C3)cc1)c1ccccc1
REMARK SMILES IDX 16 1 15 2 13 3 14 4 11 6 10 7 2 8 1 9 3 11 4 12 5 13 8 14
REMARK SMILES IDX 6 15 7 16 9 17 86 19 87 20 91 21 88 22 90 23 89 24 12 25
REMARK SMILES IDX 17 29 18 30 19 31 20 32 21 33 22 35 23 36 24 37 85 38 25 39
REMARK SMILES IDX 84 40 26 41 27 42 28 43 78 44 29 45 83 46 77 47 79 48 30 49
REMARK SMILES IDX 82 50 76 51 75 52 31 54 63 55 43 56 62 57 44 58 47 59 61 60
REMARK SMILES IDX 80 61 45 62 46 63 60 65 81 66 48 67 32 68 33 69 41 70 34 71
REMARK SMILES IDX 35 72 39 73 42 74 36 75 37 76 40 77 38 78 64 79 65 80 73 81
REMARK SMILES IDX 66 82 67 83 71 84 74 85 68 86 69 87 72 88 70 89 49 90 50 91
REMARK SMILES IDX 58 92 51 93 52 94 56 95 59 96 53 97 54 98 57 99 55 100
REMARK H PARENT 15 5 2 10 8 18 12 26 12 27 12 28 20 34 79 53 47 64
REMARK Flexibility Score: inf
ROOT
ATOM      1  C   UNL A   1      35.937  22.137  25.523  1.00  0.00     0.116 C 
ENDROOT
BRANCH   1   2
ATOM      2  N   UNL A   1      35.053  22.374  26.658  1.00  0.00    -0.350 N 
ATOM      3  C   UNL A   1      33.733  21.974  26.878  1.00  0.00     0.292 C 
ATOM      4  O   UNL A   1      33.373  21.908  28.058  1.00  0.00    -0.267 OA
ATOM      5  H   UNL A   1      35.450  22.904  27.388  1.00  0.00     0.163 HD
BRANCH   3   6
ATOM      6  C   UNL A   1      32.706  21.877  25.672  1.00  0.00     0.248 C 
BRANCH   6   7
ATOM      7  C   UNL A   1      32.744  23.053  24.600  1.00  0.00     0.347 C 
BRANCH   7   8
ATOM      8  N   UNL A   1      31.974  24.279  24.965  1.00  0.00    -0.326 N 
ATOM      9  C   UNL A   1      30.868  24.643  24.116  1.00  0.00     0.333 C 
ATOM     10  H   UNL A   1      31.533  23.818  25.761  1.00  0.00     0.348 HD
BRANCH   8  11
ATOM     11  C   UNL A   1      32.529  25.306  25.858  1.00  0.00     0.327 C 
BRANCH  11  12
ATOM     12  C   UNL A   1      32.348  26.872  25.570  1.00  0.00     0.239 C 
ATOM     13  C   UNL A   1      31.753  27.619  26.761  1.00  0.00     0.077 C 
ATOM     14  N   UNL A   1      33.544  27.666  25.236  1.00  0.00    -0.330 N 
ATOM     15  C   UNL A   1      32.890  28.398  27.390  1.00  0.00     0.068 C 
ATOM     16  C   UNL A   1      33.914  28.581  26.298  1.00  0.00     0.262 C 
ATOM     17  C   UNL A   1      33.642  28.248  23.902  1.00  0.00     0.333 C 
ATOM     18  H   UNL A   1      34.261  26.944  25.171  1.00  0.00     0.348 HD
ENDBRANCH  11  12
ENDBRANCH   8  11
ENDBRANCH   7   8
ENDBRANCH   6   7
BRANCH   6  19
ATOM     19  C   UNL A   1      32.647  20.472  24.973  1.00  0.00     0.028 A 
ATOM     20  C   UNL A   1      32.373  20.337  23.589  1.00  0.00     0.011 A 
ATOM     21  C   UNL A   1      32.941  19.276  25.658  1.00  0.00     0.011 A 
ATOM     22  C   UNL A   1      32.502  19.121  22.910  1.00  0.00     0.001 A 
ATOM     23  C   UNL A   1      33.064  18.052  24.977  1.00  0.00     0.001 A 
ATOM     24  C   UNL A   1      32.869  17.979  23.602  1.00  0.00     0.000 A 
ENDBRANCH   6  19
BRANCH   6  25
ATOM     25  N   UNL A   1      31.469  22.069  26.406  1.00  0.00    -0.336 N 
ATOM     26  H   UNL A   1      30.842  22.665  25.866  1.00  0.00     0.345 HD
ATOM     27  H   UNL A   1      31.672  22.512  27.303  1.00  0.00     0.345 HD
ATOM     28  H   UNL A   1      31.026  21.165  26.567  1.00  0.00     0.345 HD
ENDBRANCH   6  25
ENDBRANCH   3   6
ENDBRANCH   1   2
BRANCH   1  29
ATOM     29  C   UNL A   1      36.481  20.724  25.292  1.00  0.00     0.023 C 
BRANCH  29  30
ATOM     30  C   UNL A   1      37.910  20.605  24.785  1.00  0.00     0.023 C 
BRANCH  30  31
ATOM     31  C   UNL A   1      38.954  20.602  25.890  1.00  0.00     0.116 C 
BRANCH  31  32
ATOM     32  N   UNL A   1      39.859  19.461  25.839  1.00  0.00    -0.352 N 
ATOM     33  C   UNL A   1      41.222  19.430  26.064  1.00  0.00     0.251 C 
ATOM     34  H   UNL A   1      39.445  18.596  25.615  1.00  0.00     0.163 HD
ATOM     35  O   UNL A   1      41.863  18.419  25.890  1.00  0.00    -0.269 OA
BRANCH  33  36
ATOM     36  C   UNL A   1      41.891  20.685  26.479  1.00  0.00     0.039 A 
ATOM     37  C   UNL A   1      42.290  21.591  25.495  1.00  0.00     0.014 A 
ATOM     38  C   UNL A   1      42.059  20.986  27.831  1.00  0.00     0.014 A 
ATOM     39  C   UNL A   1      42.789  22.838  25.875  1.00  0.00     0.010 A 
ATOM     40  C   UNL A   1      42.459  22.260  28.206  1.00  0.00     0.010 A 
ATOM     41  C   UNL A   1      42.835  23.196  27.232  1.00  0.00    -0.014 A 
BRANCH  41  42
ATOM     42  C   UNL A   1      43.282  24.543  27.662  1.00  0.00     0.031 A 
ATOM     43  C   UNL A   1      42.265  25.593  28.005  1.00  0.00     0.074 A 
ATOM     44  C   UNL A   1      44.597  24.839  27.666  1.00  0.00     0.049 A 
ATOM     45  N   UNL A   1      42.446  26.850  28.325  1.00  0.00    -0.248 NA
ATOM     46  C   UNL A   1      40.850  25.190  27.947  1.00  0.00     0.031 C 
ATOM     47  C   UNL A   1      45.673  23.919  27.290  1.00  0.00     0.029 A 
ATOM     48  N   UNL A   1      45.252  26.001  27.986  1.00  0.00    -0.354 N 
ATOM     49  C   UNL A   1      41.176  27.384  28.483  1.00  0.00     0.074 A 
ATOM     50  C   UNL A   1      40.230  26.339  28.164  1.00  0.00     0.031 C 
ATOM     51  C   UNL A   1      46.853  24.545  27.427  1.00  0.00     0.029 A 
ATOM     52  C   UNL A   1      46.616  25.918  27.859  1.00  0.00     0.049 A 
ATOM     53  H   UNL A   1      44.786  26.818  28.280  1.00  0.00     0.167 HD
ATOM     54  C   UNL A   1      40.829  28.629  28.886  1.00  0.00     0.037 A 
ATOM     55  C   UNL A   1      47.567  26.849  28.065  1.00  0.00     0.037 A 
ATOM     56  C   UNL A   1      41.777  29.654  29.233  1.00  0.00     0.049 A 
ATOM     57  C   UNL A   1      47.156  28.222  28.524  1.00  0.00     0.074 A 
ATOM     58  C   UNL A   1      41.534  30.924  29.724  1.00  0.00     0.029 A 
ATOM     59  N   UNL A   1      43.155  29.524  29.123  1.00  0.00    -0.354 N 
ATOM     60  N   UNL A   1      45.954  28.694  28.750  1.00  0.00    -0.248 NA
ATOM     61  C   UNL A   1      48.235  29.189  28.767  1.00  0.00     0.031 C 
ATOM     62  C   UNL A   1      42.760  31.581  29.860  1.00  0.00     0.029 A 
ATOM     63  C   UNL A   1      43.773  30.701  29.512  1.00  0.00     0.049 A 
ATOM     64  H   UNL A   1      43.623  28.715  28.814  1.00  0.00     0.167 HD
ATOM     65  C   UNL A   1      46.131  30.000  29.187  1.00  0.00     0.074 A 
ATOM     66  C   UNL A   1      47.559  30.240  29.210  1.00  0.00     0.031 C 
ATOM     67  C   UNL A   1      45.197  30.918  29.535  1.00  0.00     0.037 A 
BRANCH  54  68
ATOM     68  C   UNL A   1      39.365  28.950  28.978  1.00  0.00     0.064 A 
ATOM     69  C   UNL A   1      38.662  28.850  30.189  1.00  0.00     0.173 A 
ATOM     70  C   UNL A   1      38.662  29.395  27.849  1.00  0.00     0.173 A 
ATOM     71  F   UNL A   1      39.282  28.416  31.297  1.00  0.00    -0.203 F 
ATOM     72  C   UNL A   1      37.305  29.154  30.258  1.00  0.00     0.198 A 
ATOM     73  C   UNL A   1      37.313  29.730  27.929  1.00  0.00     0.198 A 
ATOM     74  F   UNL A   1      39.286  29.512  26.666  1.00  0.00    -0.203 F 
ATOM     75  F   UNL A   1      36.644  29.000  31.414  1.00  0.00    -0.200 F 
ATOM     76  C   UNL A   1      36.634  29.602  29.131  1.00  0.00     0.200 A 
ATOM     77  F   UNL A   1      36.670  30.177  26.842  1.00  0.00    -0.200 F 
ATOM     78  F   UNL A   1      35.330  29.904  29.201  1.00  0.00    -0.200 F 
ENDBRANCH  54  68
BRANCH  55  79
ATOM     79  C   UNL A   1      49.000  26.505  27.862  1.00  0.00     0.064 A 
ATOM     80  C   UNL A   1      49.834  26.220  28.953  1.00  0.00     0.173 A 
ATOM     81  C   UNL A   1      49.564  26.454  26.579  1.00  0.00     0.173 A 
ATOM     82  F   UNL A   1      49.346  26.273  30.201  1.00  0.00    -0.203 F 
ATOM     83  C   UNL A   1      51.182  25.919  28.769  1.00  0.00     0.198 A 
ATOM     84  C   UNL A   1      50.905  26.123  26.395  1.00  0.00     0.198 A 
ATOM     85  F   UNL A   1      48.809  26.712  25.502  1.00  0.00    -0.203 F 
ATOM     86  F   UNL A   1      51.967  25.697  29.833  1.00  0.00    -0.200 F 
ATOM     87  C   UNL A   1      51.715  25.866  27.491  1.00  0.00     0.200 A 
ATOM     88  F   UNL A   1      51.412  26.056  25.157  1.00  0.00    -0.200 F 
ATOM     89  F   UNL A   1      53.011  25.571  27.315  1.00  0.00    -0.200 F 
ENDBRANCH  55  79
BRANCH  67  90
ATOM     90  C   UNL A   1      45.689  32.256  30.008  1.00  0.00     0.064 A 
ATOM     91  C   UNL A   1      46.006  32.491  31.354  1.00  0.00     0.173 A 
ATOM     92  C   UNL A   1      45.889  33.300  29.093  1.00  0.00     0.173 A 
ATOM     93  F   UNL A   1      45.819  31.528  32.270  1.00  0.00    -0.203 F 
ATOM     94  C   UNL A   1      46.478  33.732  31.771  1.00  0.00     0.198 A 
ATOM     95  C   UNL A   1      46.393  34.529  29.507  1.00  0.00     0.198 A 
ATOM     96  F   UNL A   1      45.610  33.123  27.793  1.00  0.00    -0.203 F 
ATOM     97  F   UNL A   1      46.727  33.951  33.069  1.00  0.00    -0.200 F 
ATOM     98  C   UNL A   1      46.680  34.746  30.846  1.00  0.00     0.200 A 
ATOM     99  F   UNL A   1      46.604  35.502  28.610  1.00  0.00    -0.200 F 
ATOM    100  F   UNL A   1      47.145  35.937  31.248  1.00  0.00    -0.200 F 
ENDBRANCH  67  90
ENDBRANCH  41  42
ENDBRANCH  33  36
ENDBRANCH  31  32
ENDBRANCH  30  31
ENDBRANCH  29  30
ENDBRANCH   1  29
TORSDOF 17
ENDMDL
