MODEL 1
REMARK VINA RESULT:     -12.9      0.000      0.000
REMARK SMILES O=C(NCCCCNC(=O)c1cc(NC(=O)c2ccccc2Cl)ccc1N1CCC[C@H](C[NH+]2CCCC2)C1)c1ccc(-c2c3nc(c(-c4c(F)c(F)c(F)c(F)c4F)c4ccc([nH]4)c(-c4c(F)c(F)c(F)c(F)c4F)c4nc(c(-c5c(F)c(F)c(F)c(F)c5F)c5ccc2[nH]5)C=C4)C=C3)cc1
REMARK SMILES IDX 6 1 5 2 4 3 3 4 1 5 2 6 39 8 40 9 101 10 41 11 100 12 42 13
REMARK SMILES IDX 43 14 44 15 94 16 45 17 99 18 93 19 95 20 46 21 98 22 92 23
REMARK SMILES IDX 91 24 47 26 79 27 59 28 78 29 60 30 63 31 77 32 96 33 61 34
REMARK SMILES IDX 62 35 76 37 97 38 64 39 48 40 49 41 57 42 50 43 51 44 55 45
REMARK SMILES IDX 58 46 52 47 53 48 56 49 54 50 80 51 81 52 89 53 82 54 83 55
REMARK SMILES IDX 87 56 90 57 84 58 85 59 88 60 86 61 65 62 66 63 74 64 67 65
REMARK SMILES IDX 68 66 72 67 75 68 69 69 70 70 73 71 71 72 7 73 8 74 9 75
REMARK SMILES IDX 10 77 11 78 12 79 26 80 13 81 25 82 24 83 27 84 28 85 38 86
REMARK SMILES IDX 29 87 31 88 30 89 32 90 33 91 34 92 37 93 35 95 36 96 14 97
REMARK SMILES IDX 15 98 16 100 17 101 18 102 22 103 19 104 21 105 23 106
REMARK SMILES IDX 20 107
REMARK H PARENT 3 7 95 25 63 36 8 76 33 94 14 99
REMARK Flexibility Score: inf
ROOT
ATOM      1  C   UNL A   1      32.336  28.206  27.621  1.00  0.00     0.023 C 
ENDROOT
BRANCH   1   2
ATOM      2  C   UNL A   1      31.861  29.493  26.947  1.00  0.00     0.023 C 
BRANCH   2   3
ATOM      3  C   UNL A   1      32.949  30.402  26.383  1.00  0.00     0.116 C 
BRANCH   3   4
ATOM      4  N   UNL A   1      32.786  31.803  26.742  1.00  0.00    -0.352 N 
ATOM      5  O   UNL A   1      33.185  33.740  27.830  1.00  0.00    -0.269 OA
ATOM      6  C   UNL A   1      33.547  32.599  27.572  1.00  0.00     0.251 C 
ATOM      7  H   UNL A   1      32.013  32.252  26.329  1.00  0.00     0.163 HD
BRANCH   6   8
ATOM      8  C   UNL A   1      34.785  32.064  28.184  1.00  0.00     0.039 A 
ATOM      9  C   UNL A   1      34.824  30.772  28.709  1.00  0.00     0.014 A 
ATOM     10  C   UNL A   1      35.927  32.870  28.232  1.00  0.00     0.014 A 
ATOM     11  C   UNL A   1      35.934  30.355  29.435  1.00  0.00     0.010 A 
ATOM     12  C   UNL A   1      37.079  32.412  28.881  1.00  0.00     0.010 A 
ATOM     13  C   UNL A   1      37.078  31.165  29.524  1.00  0.00    -0.014 A 
BRANCH  13  14
ATOM     14  C   UNL A   1      38.273  30.655  30.247  1.00  0.00     0.031 A 
ATOM     15  C   UNL A   1      38.541  31.031  31.680  1.00  0.00     0.074 A 
ATOM     16  C   UNL A   1      39.104  29.812  29.605  1.00  0.00     0.049 A 
ATOM     17  N   UNL A   1      39.524  30.651  32.460  1.00  0.00    -0.248 NA
ATOM     18  C   UNL A   1      37.592  31.953  32.322  1.00  0.00     0.031 C 
ATOM     19  C   UNL A   1      38.956  29.388  28.210  1.00  0.00     0.029 A 
ATOM     20  N   UNL A   1      40.223  29.147  30.036  1.00  0.00    -0.354 N 
ATOM     21  C   UNL A   1      39.324  31.300  33.671  1.00  0.00     0.074 A 
ATOM     22  C   UNL A   1      38.137  32.114  33.522  1.00  0.00     0.031 C 
ATOM     23  C   UNL A   1      39.917  28.502  27.915  1.00  0.00     0.029 A 
ATOM     24  C   UNL A   1      40.785  28.342  29.076  1.00  0.00     0.049 A 
ATOM     25  H   UNL A   1      40.587  29.237  30.946  1.00  0.00     0.167 HD
ATOM     26  C   UNL A   1      40.062  31.216  34.805  1.00  0.00     0.037 A 
ATOM     27  C   UNL A   1      41.890  27.575  29.115  1.00  0.00     0.037 A 
ATOM     28  C   UNL A   1      41.229  30.384  34.959  1.00  0.00     0.049 A 
ATOM     29  C   UNL A   1      42.692  27.514  30.383  1.00  0.00     0.074 A 
ATOM     30  C   UNL A   1      42.011  30.195  36.086  1.00  0.00     0.029 A 
ATOM     31  N   UNL A   1      41.782  29.603  33.955  1.00  0.00    -0.354 N 
ATOM     32  N   UNL A   1      42.467  28.101  31.533  1.00  0.00    -0.248 NA
ATOM     33  C   UNL A   1      43.905  26.686  30.358  1.00  0.00     0.031 C 
ATOM     34  C   UNL A   1      43.063  29.336  35.752  1.00  0.00     0.029 A 
ATOM     35  C   UNL A   1      42.910  28.952  34.431  1.00  0.00     0.049 A 
ATOM     36  H   UNL A   1      41.426  29.524  33.040  1.00  0.00     0.167 HD
ATOM     37  C   UNL A   1      43.499  27.705  32.370  1.00  0.00     0.074 A 
ATOM     38  C   UNL A   1      44.338  26.807  31.604  1.00  0.00     0.031 C 
ATOM     39  C   UNL A   1      43.734  28.061  33.656  1.00  0.00     0.037 A 
BRANCH  26  40
ATOM     40  C   UNL A   1      39.647  32.051  35.982  1.00  0.00     0.064 A 
ATOM     41  C   UNL A   1      40.245  33.290  36.253  1.00  0.00     0.173 A 
ATOM     42  C   UNL A   1      38.577  31.646  36.796  1.00  0.00     0.173 A 
ATOM     43  F   UNL A   1      41.277  33.719  35.510  1.00  0.00    -0.203 F 
ATOM     44  C   UNL A   1      39.794  34.089  37.302  1.00  0.00     0.198 A 
ATOM     45  C   UNL A   1      38.114  32.457  37.828  1.00  0.00     0.198 A 
ATOM     46  F   UNL A   1      37.965  30.473  36.574  1.00  0.00    -0.203 F 
ATOM     47  F   UNL A   1      40.396  35.260  37.558  1.00  0.00    -0.200 F 
ATOM     48  C   UNL A   1      38.723  33.677  38.082  1.00  0.00     0.200 A 
ATOM     49  F   UNL A   1      37.071  32.063  38.572  1.00  0.00    -0.200 F 
ATOM     50  F   UNL A   1      38.280  34.455  39.079  1.00  0.00    -0.200 F 
ENDBRANCH  26  40
BRANCH  27  51
ATOM     51  C   UNL A   1      42.306  26.817  27.908  1.00  0.00     0.064 A 
ATOM     52  C   UNL A   1      43.163  27.385  26.956  1.00  0.00     0.173 A 
ATOM     53  C   UNL A   1      41.857  25.507  27.684  1.00  0.00     0.173 A 
ATOM     54  F   UNL A   1      43.604  28.641  27.117  1.00  0.00    -0.203 F 
ATOM     55  C   UNL A   1      43.540  26.677  25.816  1.00  0.00     0.198 A 
ATOM     56  C   UNL A   1      42.259  24.789  26.560  1.00  0.00     0.198 A 
ATOM     57  F   UNL A   1      41.040  24.917  28.569  1.00  0.00    -0.203 F 
ATOM     58  F   UNL A   1      44.324  27.259  24.898  1.00  0.00    -0.200 F 
ATOM     59  C   UNL A   1      43.093  25.378  25.623  1.00  0.00     0.200 A 
ATOM     60  F   UNL A   1      41.840  23.529  26.388  1.00  0.00    -0.200 F 
ATOM     61  F   UNL A   1      43.461  24.697  24.530  1.00  0.00    -0.200 F 
ENDBRANCH  27  51
BRANCH  39  62
ATOM     62  C   UNL A   1      44.937  27.459  34.318  1.00  0.00     0.064 A 
ATOM     63  C   UNL A   1      46.179  28.110  34.313  1.00  0.00     0.173 A 
ATOM     64  C   UNL A   1      44.843  26.227  34.981  1.00  0.00     0.173 A 
ATOM     65  F   UNL A   1      46.324  29.283  33.675  1.00  0.00    -0.203 F 
ATOM     66  C   UNL A   1      47.290  27.537  34.925  1.00  0.00     0.198 A 
ATOM     67  C   UNL A   1      45.948  25.670  35.616  1.00  0.00     0.198 A 
ATOM     68  F   UNL A   1      43.675  25.567  35.018  1.00  0.00    -0.203 F 
ATOM     69  F   UNL A   1      48.478  28.153  34.865  1.00  0.00    -0.200 F 
ATOM     70  C   UNL A   1      47.172  26.321  35.581  1.00  0.00     0.200 A 
ATOM     71  F   UNL A   1      45.830  24.499  36.259  1.00  0.00    -0.200 F 
ATOM     72  F   UNL A   1      48.242  25.770  36.171  1.00  0.00    -0.200 F 
ENDBRANCH  39  62
ENDBRANCH  13  14
ENDBRANCH   6   8
ENDBRANCH   3   4
ENDBRANCH   2   3
ENDBRANCH   1   2
BRANCH   1  73
ATOM     73  C   UNL A   1      32.006  26.916  26.882  1.00  0.00     0.116 C 
BRANCH  73  74
ATOM     74  N   UNL A   1      30.638  26.779  26.439  1.00  0.00    -0.352 N 
ATOM     75  C   UNL A   1      30.131  25.781  25.633  1.00  0.00     0.253 C 
ATOM     76  H   UNL A   1      30.003  27.468  26.741  1.00  0.00     0.163 HD
ATOM     77  O   UNL A   1      28.916  25.688  25.475  1.00  0.00    -0.269 OA
BRANCH  75  78
ATOM     78  C   UNL A   1      31.047  24.906  24.856  1.00  0.00     0.065 A 
ATOM     79  C   UNL A   1      31.088  23.588  25.348  1.00  0.00     0.042 A 
ATOM     80  C   UNL A   1      31.767  25.274  23.702  1.00  0.00     0.050 A 
ATOM     81  C   UNL A   1      31.712  22.566  24.644  1.00  0.00     0.042 A 
ATOM     82  C   UNL A   1      32.445  24.235  23.038  1.00  0.00     0.029 A 
ATOM     83  C   UNL A   1      32.412  22.908  23.490  1.00  0.00     0.028 A 
BRANCH  80  84
ATOM     84  N   UNL A   1      31.928  26.575  23.230  1.00  0.00    -0.370 N 
ATOM     85  C   UNL A   1      33.176  27.296  23.514  1.00  0.00     0.116 C 
ATOM     86  C   UNL A   1      31.029  27.037  22.169  1.00  0.00     0.126 C 
ATOM     87  C   UNL A   1      33.053  28.808  23.356  1.00  0.00     0.022 C 
ATOM     88  C   UNL A   1      30.779  28.547  22.286  1.00  0.00     0.064 C 
ATOM     89  C   UNL A   1      32.151  29.226  22.201  1.00  0.00     0.013 C 
BRANCH  88  90
ATOM     90  C   UNL A   1      29.949  28.841  23.567  1.00  0.00     0.267 C 
BRANCH  90  91
ATOM     91  N   UNL A   1      28.810  29.762  23.514  1.00  0.00    -0.335 N 
ATOM     92  C   UNL A   1      27.851  29.503  22.445  1.00  0.00     0.262 C 
ATOM     93  C   UNL A   1      29.110  31.189  23.508  1.00  0.00     0.262 C 
ATOM     94  H   UNL A   1      28.391  29.538  24.416  1.00  0.00     0.348 HD
ATOM     95  C   UNL A   1      28.159  30.532  21.378  1.00  0.00     0.067 C 
ATOM     96  C   UNL A   1      28.653  31.736  22.160  1.00  0.00     0.067 C 
ENDBRANCH  90  91
ENDBRANCH  88  90
ENDBRANCH  80  84
BRANCH  81  97
ATOM     97  N   UNL A   1      31.679  21.205  25.008  1.00  0.00    -0.322 N 
ATOM     98  C   UNL A   1      32.666  20.324  25.399  1.00  0.00     0.257 C 
ATOM     99  H   UNL A   1      30.779  20.807  24.976  1.00  0.00     0.170 HD
ATOM    100  O   UNL A   1      32.405  19.133  25.556  1.00  0.00    -0.269 OA
BRANCH  98 101
ATOM    101  C   UNL A   1      34.047  20.770  25.637  1.00  0.00     0.058 A 
ATOM    102  C   UNL A   1      35.021  20.335  24.727  1.00  0.00     0.015 A 
ATOM    103  C   UNL A   1      34.388  21.652  26.671  1.00  0.00     0.053 A 
ATOM    104  C   UNL A   1      36.316  20.848  24.801  1.00  0.00     0.001 A 
ATOM    105  C   UNL A   1      35.686  22.168  26.730  1.00  0.00     0.021 A 
ATOM    106  Cl  UNL A   1      33.254  22.177  27.863  1.00  0.00    -0.083 Cl
ATOM    107  C   UNL A   1      36.642  21.778  25.789  1.00  0.00     0.002 A 
ENDBRANCH  98 101
ENDBRANCH  81  97
ENDBRANCH  75  78
ENDBRANCH  73  74
ENDBRANCH   1  73
TORSDOF 16
ENDMDL
MODEL 2
REMARK VINA RESULT:     -12.7      0.347      6.868
REMARK SMILES O=C(NCCCCNC(=O)c1cc(NC(=O)c2ccccc2Cl)ccc1N1CCC[C@H](C[NH+]2CCCC2)C1)c1ccc(-c2c3nc(c(-c4c(F)c(F)c(F)c(F)c4F)c4ccc([nH]4)c(-c4c(F)c(F)c(F)c(F)c4F)c4nc(c(-c5c(F)c(F)c(F)c(F)c5F)c5ccc2[nH]5)C=C4)C=C3)cc1
REMARK SMILES IDX 6 1 5 2 4 3 3 4 1 5 2 6 39 8 40 9 101 10 41 11 100 12 42 13
REMARK SMILES IDX 43 14 44 15 94 16 45 17 99 18 93 19 95 20 46 21 98 22 92 23
REMARK SMILES IDX 91 24 47 26 79 27 59 28 78 29 60 30 63 31 77 32 96 33 61 34
REMARK SMILES IDX 62 35 76 37 97 38 64 39 48 40 49 41 57 42 50 43 51 44 55 45
REMARK SMILES IDX 58 46 52 47 53 48 56 49 54 50 80 51 81 52 89 53 82 54 83 55
REMARK SMILES IDX 87 56 90 57 84 58 85 59 88 60 86 61 65 62 66 63 74 64 67 65
REMARK SMILES IDX 68 66 72 67 75 68 69 69 70 70 73 71 71 72 7 73 8 74 9 75
REMARK SMILES IDX 10 77 11 78 12 79 26 80 13 81 25 82 24 83 27 84 28 85 38 86
REMARK SMILES IDX 29 87 31 88 30 89 32 90 33 91 34 92 37 93 35 95 36 96 14 97
REMARK SMILES IDX 15 98 16 100 17 101 18 102 22 103 19 104 21 105 23 106
REMARK SMILES IDX 20 107
REMARK H PARENT 3 7 95 25 63 36 8 76 33 94 14 99
REMARK Flexibility Score: inf
ROOT
ATOM      1  C   UNL A   1      32.316  28.186  27.571  1.00  0.00     0.023 C 
ENDROOT
BRANCH   1   2
ATOM      2  C   UNL A   1      31.738  29.444  26.922  1.00  0.00     0.023 C 
BRANCH   2   3
ATOM      3  C   UNL A   1      32.738  30.372  26.238  1.00  0.00     0.116 C 
BRANCH   3   4
ATOM      4  N   UNL A   1      32.576  31.774  26.595  1.00  0.00    -0.352 N 
ATOM      5  O   UNL A   1      32.968  33.708  27.691  1.00  0.00    -0.269 OA
ATOM      6  C   UNL A   1      33.328  32.565  27.438  1.00  0.00     0.251 C 
ATOM      7  H   UNL A   1      31.813  32.227  26.171  1.00  0.00     0.163 HD
BRANCH   6   8
ATOM      8  C   UNL A   1      34.554  32.024  28.069  1.00  0.00     0.039 A 
ATOM      9  C   UNL A   1      34.577  30.733  28.596  1.00  0.00     0.014 A 
ATOM     10  C   UNL A   1      35.700  32.823  28.132  1.00  0.00     0.014 A 
ATOM     11  C   UNL A   1      35.674  30.310  29.338  1.00  0.00     0.010 A 
ATOM     12  C   UNL A   1      36.839  32.359  28.799  1.00  0.00     0.010 A 
ATOM     13  C   UNL A   1      36.822  31.113  29.444  1.00  0.00    -0.014 A 
BRANCH  13  14
ATOM     14  C   UNL A   1      38.003  30.597  30.185  1.00  0.00     0.031 A 
ATOM     15  C   UNL A   1      38.989  29.665  29.537  1.00  0.00     0.074 A 
ATOM     16  C   UNL A   1      38.199  31.012  31.452  1.00  0.00     0.049 A 
ATOM     17  N   UNL A   1      40.084  29.145  30.038  1.00  0.00    -0.248 NA
ATOM     18  C   UNL A   1      38.716  29.254  28.151  1.00  0.00     0.031 C 
ATOM     19  C   UNL A   1      37.302  31.903  32.192  1.00  0.00     0.029 A 
ATOM     20  N   UNL A   1      39.217  30.757  32.335  1.00  0.00    -0.354 N 
ATOM     21  C   UNL A   1      40.615  28.337  29.043  1.00  0.00     0.074 A 
ATOM     22  C   UNL A   1      39.716  28.416  27.911  1.00  0.00     0.031 C 
ATOM     23  C   UNL A   1      37.831  32.157  33.397  1.00  0.00     0.029 A 
ATOM     24  C   UNL A   1      39.069  31.400  33.540  1.00  0.00     0.049 A 
ATOM     25  H   UNL A   1      39.980  30.173  32.126  1.00  0.00     0.167 HD
ATOM     26  C   UNL A   1      41.754  27.602  29.071  1.00  0.00     0.037 A 
ATOM     27  C   UNL A   1      39.832  31.369  34.647  1.00  0.00     0.037 A 
ATOM     28  C   UNL A   1      42.661  27.547  30.190  1.00  0.00     0.049 A 
ATOM     29  C   UNL A   1      41.082  30.535  34.650  1.00  0.00     0.074 A 
ATOM     30  C   UNL A   1      43.865  26.870  30.291  1.00  0.00     0.029 A 
ATOM     31  N   UNL A   1      42.463  28.190  31.402  1.00  0.00    -0.354 N 
ATOM     32  N   UNL A   1      41.592  29.809  33.686  1.00  0.00    -0.248 NA
ATOM     33  C   UNL A   1      41.859  30.514  35.896  1.00  0.00     0.031 C 
ATOM     34  C   UNL A   1      44.373  27.068  31.579  1.00  0.00     0.029 A 
ATOM     35  C   UNL A   1      43.510  27.906  32.265  1.00  0.00     0.049 A 
ATOM     36  H   UNL A   1      41.693  28.765  31.617  1.00  0.00     0.167 HD
ATOM     37  C   UNL A   1      42.754  29.255  34.203  1.00  0.00     0.074 A 
ATOM     38  C   UNL A   1      42.887  29.750  35.557  1.00  0.00     0.031 C 
ATOM     39  C   UNL A   1      43.628  28.407  33.610  1.00  0.00     0.037 A 
BRANCH  26  40
ATOM     40  C   UNL A   1      42.096  26.780  27.861  1.00  0.00     0.064 A 
ATOM     41  C   UNL A   1      42.990  27.243  26.886  1.00  0.00     0.173 A 
ATOM     42  C   UNL A   1      41.591  25.478  27.725  1.00  0.00     0.173 A 
ATOM     43  F   UNL A   1      43.494  28.484  26.965  1.00  0.00    -0.203 F 
ATOM     44  C   UNL A   1      43.358  26.435  25.811  1.00  0.00     0.198 A 
ATOM     45  C   UNL A   1      41.979  24.665  26.663  1.00  0.00     0.198 A 
ATOM     46  F   UNL A   1      40.739  24.984  28.636  1.00  0.00    -0.203 F 
ATOM     47  F   UNL A   1      44.195  26.906  24.876  1.00  0.00    -0.200 F 
ATOM     48  C   UNL A   1      42.860  25.144  25.706  1.00  0.00     0.200 A 
ATOM     49  F   UNL A   1      41.507  23.414  26.571  1.00  0.00    -0.200 F 
ATOM     50  F   UNL A   1      43.229  24.364  24.681  1.00  0.00    -0.200 F 
ENDBRANCH  26  40
BRANCH  27  51
ATOM     51  C   UNL A   1      39.425  32.141  35.848  1.00  0.00     0.064 A 
ATOM     52  C   UNL A   1      39.955  33.413  36.105  1.00  0.00     0.173 A 
ATOM     53  C   UNL A   1      38.493  31.624  36.761  1.00  0.00     0.173 A 
ATOM     54  F   UNL A   1      40.862  33.941  35.272  1.00  0.00    -0.203 F 
ATOM     55  C   UNL A   1      39.583  34.129  37.242  1.00  0.00     0.198 A 
ATOM     56  C   UNL A   1      38.099  32.354  37.879  1.00  0.00     0.198 A 
ATOM     57  F   UNL A   1      37.953  30.414  36.556  1.00  0.00    -0.203 F 
ATOM     58  F   UNL A   1      40.138  35.323  37.489  1.00  0.00    -0.200 F 
ATOM     59  C   UNL A   1      38.650  33.602  38.123  1.00  0.00     0.200 A 
ATOM     60  F   UNL A   1      37.184  31.849  38.718  1.00  0.00    -0.200 F 
ATOM     61  F   UNL A   1      38.288  34.294  39.211  1.00  0.00    -0.200 F 
ENDBRANCH  27  51
BRANCH  39  62
ATOM     62  C   UNL A   1      44.815  27.978  34.420  1.00  0.00     0.064 A 
ATOM     63  C   UNL A   1      44.790  26.809  35.195  1.00  0.00     0.173 A 
ATOM     64  C   UNL A   1      45.996  28.734  34.407  1.00  0.00     0.173 A 
ATOM     65  F   UNL A   1      43.676  26.062  35.254  1.00  0.00    -0.203 F 
ATOM     66  C   UNL A   1      45.896  26.427  35.948  1.00  0.00     0.198 A 
ATOM     67  C   UNL A   1      47.110  28.334  35.139  1.00  0.00     0.198 A 
ATOM     68  F   UNL A   1      46.071  29.858  33.678  1.00  0.00    -0.203 F 
ATOM     69  F   UNL A   1      45.833  25.333  36.720  1.00  0.00    -0.200 F 
ATOM     70  C   UNL A   1      47.056  27.186  35.915  1.00  0.00     0.200 A 
ATOM     71  F   UNL A   1      48.234  29.064  35.098  1.00  0.00    -0.200 F 
ATOM     72  F   UNL A   1      48.121  26.816  36.640  1.00  0.00    -0.200 F 
ENDBRANCH  39  62
ENDBRANCH  13  14
ENDBRANCH   6   8
ENDBRANCH   3   4
ENDBRANCH   2   3
ENDBRANCH   1   2
BRANCH   1  73
ATOM     73  C   UNL A   1      31.981  26.874  26.873  1.00  0.00     0.116 C 
BRANCH  73  74
ATOM     74  N   UNL A   1      30.616  26.738  26.417  1.00  0.00    -0.352 N 
ATOM     75  C   UNL A   1      30.118  25.741  25.604  1.00  0.00     0.253 C 
ATOM     76  H   UNL A   1      29.978  27.424  26.716  1.00  0.00     0.163 HD
ATOM     77  O   UNL A   1      28.905  25.647  25.434  1.00  0.00    -0.269 OA
BRANCH  75  78
ATOM     78  C   UNL A   1      31.042  24.869  24.833  1.00  0.00     0.065 A 
ATOM     79  C   UNL A   1      31.089  23.553  25.328  1.00  0.00     0.042 A 
ATOM     80  C   UNL A   1      31.766  25.239  23.682  1.00  0.00     0.050 A 
ATOM     81  C   UNL A   1      31.721  22.532  24.629  1.00  0.00     0.042 A 
ATOM     82  C   UNL A   1      32.452  24.202  23.023  1.00  0.00     0.029 A 
ATOM     83  C   UNL A   1      32.425  22.875  23.477  1.00  0.00     0.028 A 
BRANCH  80  84
ATOM     84  N   UNL A   1      31.922  26.539  23.207  1.00  0.00    -0.370 N 
ATOM     85  C   UNL A   1      33.169  27.264  23.488  1.00  0.00     0.116 C 
ATOM     86  C   UNL A   1      31.019  26.998  22.148  1.00  0.00     0.126 C 
ATOM     87  C   UNL A   1      33.042  28.776  23.328  1.00  0.00     0.022 C 
ATOM     88  C   UNL A   1      30.765  28.507  22.264  1.00  0.00     0.064 C 
ATOM     89  C   UNL A   1      32.135  29.190  22.175  1.00  0.00     0.013 C 
BRANCH  88  90
ATOM     90  C   UNL A   1      29.938  28.800  23.546  1.00  0.00     0.267 C 
BRANCH  90  91
ATOM     91  N   UNL A   1      28.839  29.769  23.510  1.00  0.00    -0.335 N 
ATOM     92  C   UNL A   1      27.827  29.523  22.488  1.00  0.00     0.262 C 
ATOM     93  C   UNL A   1      29.200  31.181  23.450  1.00  0.00     0.262 C 
ATOM     94  H   UNL A   1      28.447  29.589  24.434  1.00  0.00     0.348 HD
ATOM     95  C   UNL A   1      28.136  30.508  21.380  1.00  0.00     0.067 C 
ATOM     96  C   UNL A   1      28.713  31.710  22.106  1.00  0.00     0.067 C 
ENDBRANCH  90  91
ENDBRANCH  88  90
ENDBRANCH  80  84
BRANCH  81  97
ATOM     97  N   UNL A   1      31.693  21.172  24.995  1.00  0.00    -0.322 N 
ATOM     98  C   UNL A   1      32.682  20.297  25.394  1.00  0.00     0.257 C 
ATOM     99  H   UNL A   1      30.796  20.768  24.959  1.00  0.00     0.170 HD
ATOM    100  O   UNL A   1      32.428  19.105  25.552  1.00  0.00    -0.269 OA
BRANCH  98 101
ATOM    101  C   UNL A   1      34.060  20.752  25.641  1.00  0.00     0.058 A 
ATOM    102  C   UNL A   1      35.043  20.317  24.741  1.00  0.00     0.015 A 
ATOM    103  C   UNL A   1      34.388  21.641  26.673  1.00  0.00     0.053 A 
ATOM    104  C   UNL A   1      36.335  20.837  24.823  1.00  0.00     0.001 A 
ATOM    105  C   UNL A   1      35.682  22.164  26.739  1.00  0.00     0.021 A 
ATOM    106  Cl  UNL A   1      33.242  22.167  27.852  1.00  0.00    -0.083 Cl
ATOM    107  C   UNL A   1      36.648  21.774  25.808  1.00  0.00     0.002 A 
ENDBRANCH  98 101
ENDBRANCH  81  97
ENDBRANCH  75  78
ENDBRANCH  73  74
ENDBRANCH   1  73
TORSDOF 16
ENDMDL
MODEL 3
REMARK VINA RESULT:     -12.0      1.642      7.058
REMARK SMILES O=C(NCCCCNC(=O)c1cc(NC(=O)c2ccccc2Cl)ccc1N1CCC[C@H](C[NH+]2CCCC2)C1)c1ccc(-c2c3nc(c(-c4c(F)c(F)c(F)c(F)c4F)c4ccc([nH]4)c(-c4c(F)c(F)c(F)c(F)c4F)c4nc(c(-c5c(F)c(F)c(F)c(F)c5F)c5ccc2[nH]5)C=C4)C=C3)cc1
REMARK SMILES IDX 6 1 5 2 4 3 3 4 1 5 2 6 39 8 40 9 101 10 41 11 100 12 42 13
REMARK SMILES IDX 43 14 44 15 94 16 45 17 99 18 93 19 95 20 46 21 98 22 92 23
REMARK SMILES IDX 91 24 47 26 79 27 59 28 78 29 60 30 63 31 77 32 96 33 61 34
REMARK SMILES IDX 62 35 76 37 97 38 64 39 48 40 49 41 57 42 50 43 51 44 55 45
REMARK SMILES IDX 58 46 52 47 53 48 56 49 54 50 80 51 81 52 89 53 82 54 83 55
REMARK SMILES IDX 87 56 90 57 84 58 85 59 88 60 86 61 65 62 66 63 74 64 67 65
REMARK SMILES IDX 68 66 72 67 75 68 69 69 70 70 73 71 71 72 7 73 8 74 9 75
REMARK SMILES IDX 10 77 11 78 12 79 26 80 13 81 25 82 24 83 27 84 28 85 38 86
REMARK SMILES IDX 29 87 31 88 30 89 32 90 33 91 34 92 37 93 35 95 36 96 14 97
REMARK SMILES IDX 15 98 16 100 17 101 18 102 22 103 19 104 21 105 23 106
REMARK SMILES IDX 20 107
REMARK H PARENT 3 7 95 25 63 36 8 76 33 94 14 99
REMARK Flexibility Score: inf
ROOT
ATOM      1  C   UNL A   1      32.255  28.161  27.631  1.00  0.00     0.023 C 
ENDROOT
BRANCH   1   2
ATOM      2  C   UNL A   1      32.626  29.333  26.723  1.00  0.00     0.023 C 
BRANCH   2   3
ATOM      3  C   UNL A   1      33.946  30.035  27.031  1.00  0.00     0.116 C 
BRANCH   3   4
ATOM      4  N   UNL A   1      33.786  31.320  27.696  1.00  0.00    -0.352 N 
ATOM      5  O   UNL A   1      34.234  32.991  29.145  1.00  0.00    -0.269 OA
ATOM      6  C   UNL A   1      34.595  31.945  28.620  1.00  0.00     0.251 C 
ATOM      7  H   UNL A   1      32.975  31.819  27.448  1.00  0.00     0.163 HD
BRANCH   6   8
ATOM      8  C   UNL A   1      35.888  31.336  29.009  1.00  0.00     0.039 A 
ATOM      9  C   UNL A   1      35.930  30.122  29.695  1.00  0.00     0.014 A 
ATOM     10  C   UNL A   1      37.079  31.992  28.680  1.00  0.00     0.014 A 
ATOM     11  C   UNL A   1      37.138  29.658  30.205  1.00  0.00     0.010 A 
ATOM     12  C   UNL A   1      38.304  31.474  29.113  1.00  0.00     0.010 A 
ATOM     13  C   UNL A   1      38.341  30.323  29.915  1.00  0.00    -0.014 A 
BRANCH  13  14
ATOM     14  C   UNL A   1      39.621  29.757  30.417  1.00  0.00     0.031 A 
ATOM     15  C   UNL A   1      40.306  28.620  29.710  1.00  0.00     0.074 A 
ATOM     16  C   UNL A   1      40.185  30.310  31.508  1.00  0.00     0.049 A 
ATOM     17  N   UNL A   1      41.439  28.029  30.005  1.00  0.00    -0.248 NA
ATOM     18  C   UNL A   1      39.636  28.065  28.523  1.00  0.00     0.031 C 
ATOM     19  C   UNL A   1      39.607  31.408  32.288  1.00  0.00     0.029 A 
ATOM     20  N   UNL A   1      41.372  30.043  32.142  1.00  0.00    -0.354 N 
ATOM     21  C   UNL A   1      41.607  27.028  29.058  1.00  0.00     0.074 A 
ATOM     22  C   UNL A   1      40.452  27.073  28.187  1.00  0.00     0.031 C 
ATOM     23  C   UNL A   1      40.458  31.749  33.264  1.00  0.00     0.029 A 
ATOM     24  C   UNL A   1      41.611  30.858  33.222  1.00  0.00     0.049 A 
ATOM     25  H   UNL A   1      41.992  29.336  31.851  1.00  0.00     0.167 HD
ATOM     26  C   UNL A   1      42.637  26.156  28.926  1.00  0.00     0.037 A 
ATOM     27  C   UNL A   1      42.634  30.874  34.095  1.00  0.00     0.037 A 
ATOM     28  C   UNL A   1      43.798  26.131  29.780  1.00  0.00     0.049 A 
ATOM     29  C   UNL A   1      43.753  29.887  33.928  1.00  0.00     0.074 A 
ATOM     30  C   UNL A   1      44.916  25.317  29.692  1.00  0.00     0.029 A 
ATOM     31  N   UNL A   1      43.992  26.955  30.878  1.00  0.00    -0.354 N 
ATOM     32  N   UNL A   1      43.918  28.973  33.003  1.00  0.00    -0.248 NA
ATOM     33  C   UNL A   1      44.827  29.930  34.929  1.00  0.00     0.031 C 
ATOM     34  C   UNL A   1      45.763  25.618  30.762  1.00  0.00     0.029 A 
ATOM     35  C   UNL A   1      45.198  26.651  31.491  1.00  0.00     0.049 A 
ATOM     36  H   UNL A   1      43.365  27.653  31.178  1.00  0.00     0.167 HD
ATOM     37  C   UNL A   1      45.116  28.342  33.302  1.00  0.00     0.074 A 
ATOM     38  C   UNL A   1      45.650  28.995  34.479  1.00  0.00     0.031 C 
ATOM     39  C   UNL A   1      45.715  27.310  32.661  1.00  0.00     0.037 A 
BRANCH  26  40
ATOM     40  C   UNL A   1      42.565  25.138  27.825  1.00  0.00     0.064 A 
ATOM     41  C   UNL A   1      43.119  25.381  26.560  1.00  0.00     0.173 A 
ATOM     42  C   UNL A   1      42.013  23.870  28.068  1.00  0.00     0.173 A 
ATOM     43  F   UNL A   1      43.651  26.579  26.275  1.00  0.00    -0.203 F 
ATOM     44  C   UNL A   1      43.114  24.395  25.575  1.00  0.00     0.198 A 
ATOM     45  C   UNL A   1      42.031  22.880  27.088  1.00  0.00     0.198 A 
ATOM     46  F   UNL A   1      41.478  23.583  29.264  1.00  0.00    -0.203 F 
ATOM     47  F   UNL A   1      43.628  24.657  24.364  1.00  0.00    -0.200 F 
ATOM     48  C   UNL A   1      42.580  23.143  25.843  1.00  0.00     0.200 A 
ATOM     49  F   UNL A   1      41.526  21.667  27.354  1.00  0.00    -0.200 F 
ATOM     50  F   UNL A   1      42.593  22.192  24.899  1.00  0.00    -0.200 F 
ENDBRANCH  26  40
BRANCH  27  51
ATOM     51  C   UNL A   1      42.636  31.852  35.213  1.00  0.00     0.064 A 
ATOM     52  C   UNL A   1      42.158  31.501  36.482  1.00  0.00     0.173 A 
ATOM     53  C   UNL A   1      43.119  33.157  35.033  1.00  0.00     0.173 A 
ATOM     54  F   UNL A   1      41.668  30.271  36.696  1.00  0.00    -0.203 F 
ATOM     55  C   UNL A   1      42.145  32.425  37.525  1.00  0.00     0.198 A 
ATOM     56  C   UNL A   1      43.136  34.070  36.085  1.00  0.00     0.198 A 
ATOM     57  F   UNL A   1      43.593  33.539  33.839  1.00  0.00    -0.203 F 
ATOM     58  F   UNL A   1      41.641  32.078  38.717  1.00  0.00    -0.200 F 
ATOM     59  C   UNL A   1      42.641  33.706  37.328  1.00  0.00     0.200 A 
ATOM     60  F   UNL A   1      43.632  35.299  35.894  1.00  0.00    -0.200 F 
ATOM     61  F   UNL A   1      42.635  34.590  38.333  1.00  0.00    -0.200 F 
ENDBRANCH  27  51
BRANCH  39  62
ATOM     62  C   UNL A   1      47.028  26.839  33.213  1.00  0.00     0.064 A 
ATOM     63  C   UNL A   1      47.096  25.810  34.164  1.00  0.00     0.173 A 
ATOM     64  C   UNL A   1      48.231  27.408  32.772  1.00  0.00     0.173 A 
ATOM     65  F   UNL A   1      45.971  25.246  34.630  1.00  0.00    -0.203 F 
ATOM     66  C   UNL A   1      48.321  25.387  34.673  1.00  0.00     0.198 A 
ATOM     67  C   UNL A   1      49.455  26.964  33.262  1.00  0.00     0.198 A 
ATOM     68  F   UNL A   1      48.219  28.392  31.859  1.00  0.00    -0.203 F 
ATOM     69  F   UNL A   1      48.359  24.437  35.617  1.00  0.00    -0.200 F 
ATOM     70  C   UNL A   1      49.498  25.960  34.218  1.00  0.00     0.200 A 
ATOM     71  F   UNL A   1      50.594  27.511  32.813  1.00  0.00    -0.200 F 
ATOM     72  F   UNL A   1      50.677  25.551  34.708  1.00  0.00    -0.200 F 
ENDBRANCH  39  62
ENDBRANCH  13  14
ENDBRANCH   6   8
ENDBRANCH   3   4
ENDBRANCH   2   3
ENDBRANCH   1   2
BRANCH   1  73
ATOM     73  C   UNL A   1      31.912  26.860  26.918  1.00  0.00     0.116 C 
BRANCH  73  74
ATOM     74  N   UNL A   1      30.570  26.769  26.391  1.00  0.00    -0.352 N 
ATOM     75  C   UNL A   1      30.091  25.810  25.523  1.00  0.00     0.253 C 
ATOM     76  H   UNL A   1      29.933  27.461  26.679  1.00  0.00     0.163 HD
ATOM     77  O   UNL A   1      28.887  25.750  25.289  1.00  0.00    -0.269 OA
BRANCH  75  78
ATOM     78  C   UNL A   1      31.034  24.940  24.771  1.00  0.00     0.065 A 
ATOM     79  C   UNL A   1      31.061  23.620  25.256  1.00  0.00     0.042 A 
ATOM     80  C   UNL A   1      31.792  25.317  23.644  1.00  0.00     0.050 A 
ATOM     81  C   UNL A   1      31.709  22.602  24.566  1.00  0.00     0.042 A 
ATOM     82  C   UNL A   1      32.494  24.283  22.997  1.00  0.00     0.029 A 
ATOM     83  C   UNL A   1      32.447  22.952  23.438  1.00  0.00     0.028 A 
BRANCH  80  84
ATOM     84  N   UNL A   1      31.968  26.621  23.186  1.00  0.00    -0.370 N 
ATOM     85  C   UNL A   1      33.227  27.322  23.472  1.00  0.00     0.116 C 
ATOM     86  C   UNL A   1      31.069  27.107  22.136  1.00  0.00     0.126 C 
ATOM     87  C   UNL A   1      33.123  28.838  23.332  1.00  0.00     0.022 C 
ATOM     88  C   UNL A   1      30.839  28.619  22.272  1.00  0.00     0.064 C 
ATOM     89  C   UNL A   1      32.220  29.281  22.187  1.00  0.00     0.013 C 
BRANCH  88  90
ATOM     90  C   UNL A   1      30.021  28.909  23.560  1.00  0.00     0.267 C 
BRANCH  90  91
ATOM     91  N   UNL A   1      28.850  29.788  23.509  1.00  0.00    -0.335 N 
ATOM     92  C   UNL A   1      27.892  29.487  22.450  1.00  0.00     0.262 C 
ATOM     93  C   UNL A   1      29.099  31.225  23.490  1.00  0.00     0.262 C 
ATOM     94  H   UNL A   1      28.445  29.557  24.416  1.00  0.00     0.348 HD
ATOM     95  C   UNL A   1      28.156  30.518  21.373  1.00  0.00     0.067 C 
ATOM     96  C   UNL A   1      28.613  31.745  22.142  1.00  0.00     0.067 C 
ENDBRANCH  90  91
ENDBRANCH  88  90
ENDBRANCH  80  84
BRANCH  81  97
ATOM     97  N   UNL A   1      31.665  21.240  24.919  1.00  0.00    -0.322 N 
ATOM     98  C   UNL A   1      32.640  20.354  25.329  1.00  0.00     0.257 C 
ATOM     99  H   UNL A   1      30.765  20.842  24.862  1.00  0.00     0.170 HD
ATOM    100  O   UNL A   1      32.375  19.162  25.471  1.00  0.00    -0.269 OA
BRANCH  98 101
ATOM    101  C   UNL A   1      34.016  20.797  25.606  1.00  0.00     0.058 A 
ATOM    102  C   UNL A   1      35.011  20.373  24.714  1.00  0.00     0.015 A 
ATOM    103  C   UNL A   1      34.332  21.665  26.659  1.00  0.00     0.053 A 
ATOM    104  C   UNL A   1      36.304  20.885  24.825  1.00  0.00     0.001 A 
ATOM    105  C   UNL A   1      35.628  22.180  26.756  1.00  0.00     0.021 A 
ATOM    106  Cl  UNL A   1      33.170  22.175  27.830  1.00  0.00    -0.083 Cl
ATOM    107  C   UNL A   1      36.606  21.802  25.832  1.00  0.00     0.002 A 
ENDBRANCH  98 101
ENDBRANCH  81  97
ENDBRANCH  75  78
ENDBRANCH  73  74
ENDBRANCH   1  73
TORSDOF 16
ENDMDL
