MODEL 1
REMARK VINA RESULT:     -12.0      0.000      0.000
REMARK SMILES C[C@H]1[C@@H](C(=O)NCCCCNC(=O)c2ccc(-c3c4nc(c(-c5c(F)c(F)c(F)c(F)c5F)c5ccc([nH]5)c(-c5c(F)c(F)c(F)c(F)c5F)c5nc(c(-c6c(F)c(F)c(F)c(F)c6F)c6ccc3[nH]6)C=C5)C=C4)cc2)CCN1C(=O)c1n[nH]c(N)n1
REMARK SMILES IDX 8 1 7 2 6 3 4 4 5 5 3 7 1 8 2 9 79 10 77 11 78 12 80 13
REMARK SMILES IDX 81 14 82 15 83 16 87 17 84 18 85 19 86 21 9 24 10 25 11 26
REMARK SMILES IDX 12 27 13 29 14 30 15 31 76 32 16 33 75 34 17 35 18 36 19 37
REMARK SMILES IDX 69 38 20 39 74 40 68 41 70 42 21 43 73 44 67 45 66 46 22 48
REMARK SMILES IDX 54 49 34 50 53 51 35 52 38 53 52 54 71 55 36 56 37 57 51 59
REMARK SMILES IDX 72 60 39 61 23 62 24 63 32 64 25 65 26 66 30 67 33 68 27 69
REMARK SMILES IDX 28 70 31 71 29 72 55 73 56 74 64 75 57 76 58 77 62 78 65 79
REMARK SMILES IDX 59 80 60 81 63 82 61 83 40 84 41 85 49 86 42 87 43 88 47 89
REMARK SMILES IDX 50 90 44 91 45 92 48 93 46 94
REMARK H PARENT 6 6 84 20 86 22 86 23 11 28 70 47 38 58
REMARK Flexibility Score: inf
ROOT
ATOM      1  C   UNL A   1      34.472  30.851  27.980  1.00  0.00     0.023 C 
ENDROOT
BRANCH   1   2
ATOM      2  C   UNL A   1      34.361  29.420  27.430  1.00  0.00     0.116 C 
BRANCH   2   3
ATOM      3  N   UNL A   1      33.130  28.816  27.905  1.00  0.00    -0.356 N 
ATOM      4  C   UNL A   1      32.194  28.047  27.278  1.00  0.00     0.225 C 
ATOM      5  O   UNL A   1      31.112  27.950  27.864  1.00  0.00    -0.275 OA
ATOM      6  H   UNL A   1      32.935  28.994  28.853  1.00  0.00     0.163 HD
BRANCH   4   7
ATOM      7  C   UNL A   1      32.496  27.245  25.999  1.00  0.00     0.102 C 
ATOM      8  C   UNL A   1      32.348  29.397  24.554  1.00  0.00     0.032 C 
ATOM      9  C   UNL A   1      32.347  27.888  24.592  1.00  0.00     0.095 C 
ATOM     10  N   UNL A   1      31.098  27.369  24.034  1.00  0.00    -0.332 N 
ATOM     11  C   UNL A   1      31.510  26.052  25.896  1.00  0.00     0.037 C 
ATOM     12  C   UNL A   1      30.387  26.590  25.019  1.00  0.00     0.121 C 
BRANCH  10  13
ATOM     13  C   UNL A   1      30.609  27.569  22.735  1.00  0.00     0.293 C 
ATOM     14  O   UNL A   1      31.028  26.909  21.783  1.00  0.00    -0.265 OA
BRANCH  13  15
ATOM     15  C   UNL A   1      29.527  28.578  22.571  1.00  0.00     0.241 A 
ATOM     16  N   UNL A   1      28.253  28.381  22.982  1.00  0.00    -0.147 NA
ATOM     17  N   UNL A   1      29.675  29.701  21.767  1.00  0.00    -0.187 NA
ATOM     18  N   UNL A   1      27.618  29.418  22.410  1.00  0.00    -0.245 N 
ATOM     19  C   UNL A   1      28.459  30.158  21.632  1.00  0.00     0.216 A 
ATOM     20  H   UNL A   1      26.663  29.619  22.538  1.00  0.00     0.193 HD
BRANCH  19  21
ATOM     21  N   UNL A   1      28.028  31.135  20.828  1.00  0.00    -0.368 N 
ATOM     22  H   UNL A   1      28.538  31.366  20.019  1.00  0.00     0.159 HD
ATOM     23  H   UNL A   1      27.200  31.622  21.045  1.00  0.00     0.159 HD
ENDBRANCH  19  21
ENDBRANCH  13  15
ENDBRANCH  10  13
ENDBRANCH   4   7
ENDBRANCH   2   3
ENDBRANCH   1   2
BRANCH   1  24
ATOM     24  C   UNL A   1      33.255  31.735  27.812  1.00  0.00     0.023 C 
BRANCH  24  25
ATOM     25  C   UNL A   1      33.535  33.019  27.058  1.00  0.00     0.116 C 
BRANCH  25  26
ATOM     26  N   UNL A   1      32.892  34.203  27.626  1.00  0.00    -0.352 N 
ATOM     27  C   UNL A   1      33.202  34.879  28.785  1.00  0.00     0.251 C 
ATOM     28  H   UNL A   1      32.135  34.566  27.111  1.00  0.00     0.163 HD
ATOM     29  O   UNL A   1      32.528  35.831  29.161  1.00  0.00    -0.269 OA
BRANCH  27  30
ATOM     30  C   UNL A   1      34.334  34.392  29.595  1.00  0.00     0.039 A 
ATOM     31  C   UNL A   1      34.077  33.631  30.736  1.00  0.00     0.014 A 
ATOM     32  C   UNL A   1      35.638  34.570  29.132  1.00  0.00     0.014 A 
ATOM     33  C   UNL A   1      35.128  32.952  31.352  1.00  0.00     0.010 A 
ATOM     34  C   UNL A   1      36.654  33.795  29.667  1.00  0.00     0.010 A 
ATOM     35  C   UNL A   1      36.412  32.981  30.785  1.00  0.00    -0.014 A 
BRANCH  35  36
ATOM     36  C   UNL A   1      37.534  32.190  31.343  1.00  0.00     0.031 A 
ATOM     37  C   UNL A   1      38.029  32.493  32.730  1.00  0.00     0.074 A 
ATOM     38  C   UNL A   1      38.167  31.280  30.576  1.00  0.00     0.049 A 
ATOM     39  N   UNL A   1      39.074  32.021  33.359  1.00  0.00    -0.248 NA
ATOM     40  C   UNL A   1      37.277  33.503  33.492  1.00  0.00     0.031 C 
ATOM     41  C   UNL A   1      37.833  30.953  29.189  1.00  0.00     0.029 A 
ATOM     42  N   UNL A   1      39.240  30.470  30.857  1.00  0.00    -0.354 N 
ATOM     43  C   UNL A   1      39.125  32.707  34.564  1.00  0.00     0.074 A 
ATOM     44  C   UNL A   1      38.048  33.671  34.554  1.00  0.00     0.031 C 
ATOM     45  C   UNL A   1      38.658  29.987  28.752  1.00  0.00     0.029 A 
ATOM     46  C   UNL A   1      39.601  29.652  29.814  1.00  0.00     0.049 A 
ATOM     47  H   UNL A   1      39.705  30.474  31.724  1.00  0.00     0.167 HD
ATOM     48  C   UNL A   1      39.972  32.526  35.604  1.00  0.00     0.037 A 
ATOM     49  C   UNL A   1      40.582  28.733  29.732  1.00  0.00     0.037 A 
ATOM     50  C   UNL A   1      40.993  31.518  35.639  1.00  0.00     0.049 A 
ATOM     51  C   UNL A   1      41.466  28.502  30.927  1.00  0.00     0.074 A 
ATOM     52  C   UNL A   1      41.847  31.189  36.675  1.00  0.00     0.029 A 
ATOM     53  N   UNL A   1      41.285  30.662  34.587  1.00  0.00    -0.354 N 
ATOM     54  N   UNL A   1      41.461  29.108  32.089  1.00  0.00    -0.248 NA
ATOM     55  C   UNL A   1      42.488  27.453  30.801  1.00  0.00     0.031 C 
ATOM     56  C   UNL A   1      42.674  30.145  36.242  1.00  0.00     0.029 A 
ATOM     57  C   UNL A   1      42.311  29.805  34.949  1.00  0.00     0.049 A 
ATOM     58  H   UNL A   1      40.831  30.663  33.714  1.00  0.00     0.167 HD
ATOM     59  C   UNL A   1      42.457  28.500  32.840  1.00  0.00     0.074 A 
ATOM     60  C   UNL A   1      43.038  27.468  32.006  1.00  0.00     0.031 C 
ATOM     61  C   UNL A   1      42.859  28.775  34.105  1.00  0.00     0.037 A 
BRANCH  48  62
ATOM     62  C   UNL A   1      39.805  33.426  36.792  1.00  0.00     0.064 A 
ATOM     63  C   UNL A   1      38.908  33.118  37.827  1.00  0.00     0.173 A 
ATOM     64  C   UNL A   1      40.554  34.607  36.902  1.00  0.00     0.173 A 
ATOM     65  F   UNL A   1      38.155  32.010  37.758  1.00  0.00    -0.203 F 
ATOM     66  C   UNL A   1      38.739  33.976  38.909  1.00  0.00     0.198 A 
ATOM     67  C   UNL A   1      40.405  35.448  38.001  1.00  0.00     0.198 A 
ATOM     68  F   UNL A   1      41.425  34.948  35.941  1.00  0.00    -0.203 F 
ATOM     69  F   UNL A   1      37.833  33.691  39.852  1.00  0.00    -0.200 F 
ATOM     70  C   UNL A   1      39.492  35.137  38.998  1.00  0.00     0.200 A 
ATOM     71  F   UNL A   1      41.138  36.567  38.091  1.00  0.00    -0.200 F 
ATOM     72  F   UNL A   1      39.329  35.963  40.041  1.00  0.00    -0.200 F 
ENDBRANCH  48  62
BRANCH  49  73
ATOM     73  C   UNL A   1      40.747  27.929  28.494  1.00  0.00     0.064 A 
ATOM     74  C   UNL A   1      41.557  28.390  27.446  1.00  0.00     0.173 A 
ATOM     75  C   UNL A   1      40.104  26.695  28.328  1.00  0.00     0.173 A 
ATOM     76  F   UNL A   1      42.177  29.575  27.553  1.00  0.00    -0.203 F 
ATOM     77  C   UNL A   1      41.702  27.657  26.271  1.00  0.00     0.198 A 
ATOM     78  C   UNL A   1      40.268  25.951  27.161  1.00  0.00     0.198 A 
ATOM     79  F   UNL A   1      39.324  26.208  29.303  1.00  0.00    -0.203 F 
ATOM     80  F   UNL A   1      42.450  28.141  25.270  1.00  0.00    -0.200 F 
ATOM     81  C   UNL A   1      41.061  26.435  26.131  1.00  0.00     0.200 A 
ATOM     82  F   UNL A   1      39.657  24.765  27.032  1.00  0.00    -0.200 F 
ATOM     83  F   UNL A   1      41.202  25.729  25.001  1.00  0.00    -0.200 F 
ENDBRANCH  49  73
BRANCH  61  84
ATOM     84  C   UNL A   1      43.954  27.925  34.676  1.00  0.00     0.064 A 
ATOM     85  C   UNL A   1      45.297  28.318  34.606  1.00  0.00     0.173 A 
ATOM     86  C   UNL A   1      43.647  26.732  35.345  1.00  0.00     0.173 A 
ATOM     87  F   UNL A   1      45.637  29.445  33.962  1.00  0.00    -0.203 F 
ATOM     88  C   UNL A   1      46.299  27.536  35.170  1.00  0.00     0.198 A 
ATOM     89  C   UNL A   1      44.648  25.964  35.931  1.00  0.00     0.198 A 
ATOM     90  F   UNL A   1      42.374  26.318  35.443  1.00  0.00    -0.203 F 
ATOM     91  F   UNL A   1      47.580  27.911  35.061  1.00  0.00    -0.200 F 
ATOM     92  C   UNL A   1      45.974  26.365  35.838  1.00  0.00     0.200 A 
ATOM     93  F   UNL A   1      44.333  24.839  36.585  1.00  0.00    -0.200 F 
ATOM     94  F   UNL A   1      46.939  25.616  36.390  1.00  0.00    -0.200 F 
ENDBRANCH  61  84
ENDBRANCH  35  36
ENDBRANCH  27  30
ENDBRANCH  25  26
ENDBRANCH  24  25
ENDBRANCH   1  24
TORSDOF 14
ENDMDL
MODEL 2
REMARK VINA RESULT:     -11.9      1.739      2.803
REMARK SMILES C[C@H]1[C@@H](C(=O)NCCCCNC(=O)c2ccc(-c3c4nc(c(-c5c(F)c(F)c(F)c(F)c5F)c5ccc([nH]5)c(-c5c(F)c(F)c(F)c(F)c5F)c5nc(c(-c6c(F)c(F)c(F)c(F)c6F)c6ccc3[nH]6)C=C5)C=C4)cc2)CCN1C(=O)c1n[nH]c(N)n1
REMARK SMILES IDX 8 1 7 2 6 3 4 4 5 5 3 7 1 8 2 9 79 10 77 11 78 12 80 13
REMARK SMILES IDX 81 14 82 15 83 16 87 17 84 18 85 19 86 21 9 24 10 25 11 26
REMARK SMILES IDX 12 27 13 29 14 30 15 31 76 32 16 33 75 34 17 35 18 36 19 37
REMARK SMILES IDX 69 38 20 39 74 40 68 41 70 42 21 43 73 44 67 45 66 46 22 48
REMARK SMILES IDX 54 49 34 50 53 51 35 52 38 53 52 54 71 55 36 56 37 57 51 59
REMARK SMILES IDX 72 60 39 61 23 62 24 63 32 64 25 65 26 66 30 67 33 68 27 69
REMARK SMILES IDX 28 70 31 71 29 72 55 73 56 74 64 75 57 76 58 77 62 78 65 79
REMARK SMILES IDX 59 80 60 81 63 82 61 83 40 84 41 85 49 86 42 87 43 88 47 89
REMARK SMILES IDX 50 90 44 91 45 92 48 93 46 94
REMARK H PARENT 6 6 84 20 86 22 86 23 11 28 70 47 38 58
REMARK Flexibility Score: inf
ROOT
ATOM      1  C   UNL A   1      32.108  30.556  26.517  1.00  0.00     0.023 C 
ENDROOT
BRANCH   1   2
ATOM      2  C   UNL A   1      31.586  30.023  25.173  1.00  0.00     0.116 C 
BRANCH   2   3
ATOM      3  N   UNL A   1      32.711  29.657  24.332  1.00  0.00    -0.356 N 
ATOM      4  C   UNL A   1      33.237  28.444  23.996  1.00  0.00     0.225 C 
ATOM      5  O   UNL A   1      34.375  28.476  23.519  1.00  0.00    -0.275 OA
ATOM      6  H   UNL A   1      33.178  30.424  23.930  1.00  0.00     0.163 HD
BRANCH   4   7
ATOM      7  C   UNL A   1      32.431  27.135  24.079  1.00  0.00     0.102 C 
ATOM      8  C   UNL A   1      32.780  27.023  26.649  1.00  0.00     0.032 C 
ATOM      9  C   UNL A   1      32.395  26.294  25.385  1.00  0.00     0.095 C 
ATOM     10  N   UNL A   1      33.287  25.156  25.166  1.00  0.00    -0.332 N 
ATOM     11  C   UNL A   1      33.013  26.110  23.072  1.00  0.00     0.037 C 
ATOM     12  C   UNL A   1      33.988  25.294  23.912  1.00  0.00     0.121 C 
BRANCH  10  13
ATOM     13  C   UNL A   1      33.478  24.058  26.018  1.00  0.00     0.293 C 
ATOM     14  O   UNL A   1      34.557  23.860  26.577  1.00  0.00    -0.265 OA
BRANCH  13  15
ATOM     15  C   UNL A   1      32.302  23.175  26.251  1.00  0.00     0.241 A 
ATOM     16  N   UNL A   1      31.957  22.158  25.428  1.00  0.00    -0.147 NA
ATOM     17  N   UNL A   1      31.325  23.474  27.192  1.00  0.00    -0.187 NA
ATOM     18  N   UNL A   1      30.739  21.833  25.891  1.00  0.00    -0.245 N 
ATOM     19  C   UNL A   1      30.341  22.667  26.895  1.00  0.00     0.216 A 
ATOM     20  H   UNL A   1      30.198  21.085  25.548  1.00  0.00     0.193 HD
BRANCH  19  21
ATOM     21  N   UNL A   1      29.103  22.654  27.397  1.00  0.00    -0.368 N 
ATOM     22  H   UNL A   1      28.963  22.777  28.364  1.00  0.00     0.159 HD
ATOM     23  H   UNL A   1      28.330  22.523  26.801  1.00  0.00     0.159 HD
ENDBRANCH  19  21
ENDBRANCH  13  15
ENDBRANCH  10  13
ENDBRANCH   4   7
ENDBRANCH   2   3
ENDBRANCH   1   2
BRANCH   1  24
ATOM     24  C   UNL A   1      31.679  31.956  26.901  1.00  0.00     0.023 C 
BRANCH  24  25
ATOM     25  C   UNL A   1      32.807  32.814  27.436  1.00  0.00     0.116 C 
BRANCH  25  26
ATOM     26  N   UNL A   1      32.429  34.197  27.720  1.00  0.00    -0.352 N 
ATOM     27  C   UNL A   1      32.991  35.075  28.619  1.00  0.00     0.251 C 
ATOM     28  H   UNL A   1      31.670  34.547  27.200  1.00  0.00     0.163 HD
ATOM     29  O   UNL A   1      32.522  36.196  28.785  1.00  0.00    -0.269 OA
BRANCH  27  30
ATOM     30  C   UNL A   1      34.140  34.615  29.420  1.00  0.00     0.039 A 
ATOM     31  C   UNL A   1      33.908  33.989  30.646  1.00  0.00     0.014 A 
ATOM     32  C   UNL A   1      35.425  34.675  28.879  1.00  0.00     0.014 A 
ATOM     33  C   UNL A   1      34.957  33.322  31.278  1.00  0.00     0.010 A 
ATOM     34  C   UNL A   1      36.430  33.906  29.443  1.00  0.00     0.010 A 
ATOM     35  C   UNL A   1      36.209  33.225  30.649  1.00  0.00    -0.014 A 
BRANCH  35  36
ATOM     36  C   UNL A   1      37.320  32.435  31.233  1.00  0.00     0.031 A 
ATOM     37  C   UNL A   1      37.811  32.767  32.615  1.00  0.00     0.074 A 
ATOM     38  C   UNL A   1      37.947  31.501  30.492  1.00  0.00     0.049 A 
ATOM     39  N   UNL A   1      38.848  32.301  33.260  1.00  0.00    -0.248 NA
ATOM     40  C   UNL A   1      37.066  33.804  33.347  1.00  0.00     0.031 C 
ATOM     41  C   UNL A   1      37.617  31.143  29.112  1.00  0.00     0.029 A 
ATOM     42  N   UNL A   1      39.010  30.687  30.798  1.00  0.00    -0.354 N 
ATOM     43  C   UNL A   1      38.900  33.016  34.448  1.00  0.00     0.074 A 
ATOM     44  C   UNL A   1      37.833  33.990  34.409  1.00  0.00     0.031 C 
ATOM     45  C   UNL A   1      38.434  30.158  28.703  1.00  0.00     0.029 A 
ATOM     46  C   UNL A   1      39.368  29.840  29.778  1.00  0.00     0.049 A 
ATOM     47  H   UNL A   1      39.471  30.708  31.667  1.00  0.00     0.167 HD
ATOM     48  C   UNL A   1      39.740  32.852  35.497  1.00  0.00     0.037 A 
ATOM     49  C   UNL A   1      40.340  28.909  29.724  1.00  0.00     0.037 A 
ATOM     50  C   UNL A   1      40.751  31.834  35.562  1.00  0.00     0.049 A 
ATOM     51  C   UNL A   1      41.216  28.699  30.928  1.00  0.00     0.074 A 
ATOM     52  C   UNL A   1      41.596  31.523  36.610  1.00  0.00     0.029 A 
ATOM     53  N   UNL A   1      41.039  30.950  34.533  1.00  0.00    -0.354 N 
ATOM     54  N   UNL A   1      41.211  29.333  32.075  1.00  0.00    -0.248 NA
ATOM     55  C   UNL A   1      42.227  27.637  30.833  1.00  0.00     0.031 C 
ATOM     56  C   UNL A   1      42.414  30.460  36.208  1.00  0.00     0.029 A 
ATOM     57  C   UNL A   1      42.054  30.092  34.922  1.00  0.00     0.049 A 
ATOM     58  H   UNL A   1      40.589  30.934  33.658  1.00  0.00     0.167 HD
ATOM     59  C   UNL A   1      42.198  28.734  32.846  1.00  0.00     0.074 A 
ATOM     60  C   UNL A   1      42.772  27.675  32.041  1.00  0.00     0.031 C 
ATOM     61  C   UNL A   1      42.596  29.036  34.106  1.00  0.00     0.037 A 
BRANCH  48  62
ATOM     62  C   UNL A   1      39.577  33.783  36.661  1.00  0.00     0.064 A 
ATOM     63  C   UNL A   1      38.790  33.439  37.772  1.00  0.00     0.173 A 
ATOM     64  C   UNL A   1      40.218  35.030  36.672  1.00  0.00     0.173 A 
ATOM     65  F   UNL A   1      38.140  32.266  37.800  1.00  0.00    -0.203 F 
ATOM     66  C   UNL A   1      38.621  34.324  38.832  1.00  0.00     0.198 A 
ATOM     67  C   UNL A   1      40.072  35.900  37.749  1.00  0.00     0.198 A 
ATOM     68  F   UNL A   1      40.983  35.407  35.636  1.00  0.00    -0.203 F 
ATOM     69  F   UNL A   1      37.815  33.998  39.852  1.00  0.00    -0.200 F 
ATOM     70  C   UNL A   1      39.267  35.550  38.823  1.00  0.00     0.200 A 
ATOM     71  F   UNL A   1      40.702  37.083  37.744  1.00  0.00    -0.200 F 
ATOM     72  F   UNL A   1      39.103  36.402  39.845  1.00  0.00    -0.200 F 
ENDBRANCH  48  62
BRANCH  49  73
ATOM     73  C   UNL A   1      40.502  28.073  28.507  1.00  0.00     0.064 A 
ATOM     74  C   UNL A   1      41.287  28.520  27.433  1.00  0.00     0.173 A 
ATOM     75  C   UNL A   1      39.883  26.822  28.386  1.00  0.00     0.173 A 
ATOM     76  F   UNL A   1      41.883  29.719  27.496  1.00  0.00    -0.203 F 
ATOM     77  C   UNL A   1      41.429  27.756  26.278  1.00  0.00     0.198 A 
ATOM     78  C   UNL A   1      40.045  26.048  27.238  1.00  0.00     0.198 A 
ATOM     79  F   UNL A   1      39.128  26.347  29.387  1.00  0.00    -0.203 F 
ATOM     80  F   UNL A   1      42.151  28.226  25.251  1.00  0.00    -0.200 F 
ATOM     81  C   UNL A   1      40.812  26.518  26.182  1.00  0.00     0.200 A 
ATOM     82  F   UNL A   1      39.457  24.846  27.153  1.00  0.00    -0.200 F 
ATOM     83  F   UNL A   1      40.950  25.782  25.072  1.00  0.00    -0.200 F 
ENDBRANCH  49  73
BRANCH  61  84
ATOM     84  C   UNL A   1      43.679  28.189  34.703  1.00  0.00     0.064 A 
ATOM     85  C   UNL A   1      45.028  28.558  34.614  1.00  0.00     0.173 A 
ATOM     86  C   UNL A   1      43.355  27.026  35.416  1.00  0.00     0.173 A 
ATOM     87  F   UNL A   1      45.383  29.655  33.929  1.00  0.00    -0.203 F 
ATOM     88  C   UNL A   1      46.019  27.779  35.203  1.00  0.00     0.198 A 
ATOM     89  C   UNL A   1      44.346  26.263  36.026  1.00  0.00     0.198 A 
ATOM     90  F   UNL A   1      42.076  26.637  35.534  1.00  0.00    -0.203 F 
ATOM     91  F   UNL A   1      47.306  28.129  35.076  1.00  0.00    -0.200 F 
ATOM     92  C   UNL A   1      45.678  26.639  35.914  1.00  0.00     0.200 A 
ATOM     93  F   UNL A   1      44.015  25.168  36.721  1.00  0.00    -0.200 F 
ATOM     94  F   UNL A   1      46.633  25.895  36.489  1.00  0.00    -0.200 F 
ENDBRANCH  61  84
ENDBRANCH  35  36
ENDBRANCH  27  30
ENDBRANCH  25  26
ENDBRANCH  24  25
ENDBRANCH   1  24
TORSDOF 14
ENDMDL
MODEL 3
REMARK VINA RESULT:     -11.8      3.336      4.691
REMARK SMILES C[C@H]1[C@@H](C(=O)NCCCCNC(=O)c2ccc(-c3c4nc(c(-c5c(F)c(F)c(F)c(F)c5F)c5ccc([nH]5)c(-c5c(F)c(F)c(F)c(F)c5F)c5nc(c(-c6c(F)c(F)c(F)c(F)c6F)c6ccc3[nH]6)C=C5)C=C4)cc2)CCN1C(=O)c1n[nH]c(N)n1
REMARK SMILES IDX 8 1 7 2 6 3 4 4 5 5 3 7 1 8 2 9 79 10 77 11 78 12 80 13
REMARK SMILES IDX 81 14 82 15 83 16 87 17 84 18 85 19 86 21 9 24 10 25 11 26
REMARK SMILES IDX 12 27 13 29 14 30 15 31 76 32 16 33 75 34 17 35 18 36 19 37
REMARK SMILES IDX 69 38 20 39 74 40 68 41 70 42 21 43 73 44 67 45 66 46 22 48
REMARK SMILES IDX 54 49 34 50 53 51 35 52 38 53 52 54 71 55 36 56 37 57 51 59
REMARK SMILES IDX 72 60 39 61 23 62 24 63 32 64 25 65 26 66 30 67 33 68 27 69
REMARK SMILES IDX 28 70 31 71 29 72 55 73 56 74 64 75 57 76 58 77 62 78 65 79
REMARK SMILES IDX 59 80 60 81 63 82 61 83 40 84 41 85 49 86 42 87 43 88 47 89
REMARK SMILES IDX 50 90 44 91 45 92 48 93 46 94
REMARK H PARENT 6 6 84 20 86 22 86 23 11 28 70 47 38 58
REMARK Flexibility Score: inf
ROOT
ATOM      1  C   UNL A   1      31.438  27.462  26.555  1.00  0.00     0.023 C 
ENDROOT
BRANCH   1   2
ATOM      2  C   UNL A   1      31.502  26.162  25.737  1.00  0.00     0.116 C 
BRANCH   2   3
ATOM      3  N   UNL A   1      31.060  25.053  26.561  1.00  0.00    -0.356 N 
ATOM      4  C   UNL A   1      31.642  23.859  26.866  1.00  0.00     0.225 C 
ATOM      5  O   UNL A   1      30.884  23.006  27.337  1.00  0.00    -0.275 OA
ATOM      6  H   UNL A   1      30.178  25.189  26.977  1.00  0.00     0.163 HD
BRANCH   4   7
ATOM      7  C   UNL A   1      33.160  23.621  26.760  1.00  0.00     0.102 C 
ATOM      8  C   UNL A   1      32.953  23.107  24.224  1.00  0.00     0.032 C 
ATOM      9  C   UNL A   1      33.791  23.016  25.476  1.00  0.00     0.095 C 
ATOM     10  N   UNL A   1      34.091  21.618  25.784  1.00  0.00    -0.332 N 
ATOM     11  C   UNL A   1      33.593  22.587  27.831  1.00  0.00     0.037 C 
ATOM     12  C   UNL A   1      33.565  21.260  27.080  1.00  0.00     0.121 C 
BRANCH  10  13
ATOM     13  C   UNL A   1      34.783  20.706  24.975  1.00  0.00     0.293 C 
ATOM     14  O   UNL A   1      35.962  20.886  24.670  1.00  0.00    -0.265 OA
BRANCH  13  15
ATOM     15  C   UNL A   1      34.040  19.489  24.545  1.00  0.00     0.241 A 
ATOM     16  N   UNL A   1      34.542  18.236  24.638  1.00  0.00    -0.147 NA
ATOM     17  N   UNL A   1      32.876  19.559  23.789  1.00  0.00    -0.187 NA
ATOM     18  N   UNL A   1      33.652  17.532  23.920  1.00  0.00    -0.245 N 
ATOM     19  C   UNL A   1      32.703  18.337  23.361  1.00  0.00     0.216 A 
ATOM     20  H   UNL A   1      33.679  16.554  23.810  1.00  0.00     0.193 HD
BRANCH  19  21
ATOM     21  N   UNL A   1      31.814  17.894  22.467  1.00  0.00    -0.368 N 
ATOM     22  H   UNL A   1      30.858  18.101  22.579  1.00  0.00     0.159 HD
ATOM     23  H   UNL A   1      32.115  17.362  21.695  1.00  0.00     0.159 HD
ENDBRANCH  19  21
ENDBRANCH  13  15
ENDBRANCH  10  13
ENDBRANCH   4   7
ENDBRANCH   2   3
ENDBRANCH   1   2
BRANCH   1  24
ATOM     24  C   UNL A   1      31.677  28.750  25.796  1.00  0.00     0.023 C 
BRANCH  24  25
ATOM     25  C   UNL A   1      32.922  29.493  26.235  1.00  0.00     0.116 C 
BRANCH  25  26
ATOM     26  N   UNL A   1      32.679  30.861  26.690  1.00  0.00    -0.352 N 
ATOM     27  C   UNL A   1      33.512  31.689  27.407  1.00  0.00     0.251 C 
ATOM     28  H   UNL A   1      31.802  31.240  26.452  1.00  0.00     0.163 HD
ATOM     29  O   UNL A   1      33.140  32.801  27.766  1.00  0.00    -0.269 OA
BRANCH  27  30
ATOM     30  C   UNL A   1      34.845  31.184  27.784  1.00  0.00     0.039 A 
ATOM     31  C   UNL A   1      35.888  32.091  27.975  1.00  0.00     0.014 A 
ATOM     32  C   UNL A   1      35.008  29.832  28.088  1.00  0.00     0.014 A 
ATOM     33  C   UNL A   1      37.066  31.655  28.581  1.00  0.00     0.010 A 
ATOM     34  C   UNL A   1      36.125  29.432  28.803  1.00  0.00     0.010 A 
ATOM     35  C   UNL A   1      37.167  30.337  29.053  1.00  0.00    -0.014 A 
BRANCH  35  36
ATOM     36  C   UNL A   1      38.358  29.860  29.798  1.00  0.00     0.031 A 
ATOM     37  C   UNL A   1      38.591  30.348  31.201  1.00  0.00     0.074 A 
ATOM     38  C   UNL A   1      39.270  29.080  29.186  1.00  0.00     0.049 A 
ATOM     39  N   UNL A   1      39.627  30.168  31.979  1.00  0.00    -0.248 NA
ATOM     40  C   UNL A   1      37.542  31.198  31.786  1.00  0.00     0.031 C 
ATOM     41  C   UNL A   1      39.197  28.606  27.803  1.00  0.00     0.029 A 
ATOM     42  N   UNL A   1      40.452  28.558  29.652  1.00  0.00    -0.354 N 
ATOM     43  C   UNL A   1      39.368  30.915  33.121  1.00  0.00     0.074 A 
ATOM     44  C   UNL A   1      38.114  31.601  32.909  1.00  0.00     0.031 C 
ATOM     45  C   UNL A   1      40.266  27.835  27.543  1.00  0.00     0.029 A 
ATOM     46  C   UNL A   1      41.117  27.788  28.728  1.00  0.00     0.049 A 
ATOM     47  H   UNL A   1      40.790  28.720  30.561  1.00  0.00     0.167 HD
ATOM     48  C   UNL A   1      40.094  30.995  34.260  1.00  0.00     0.037 A 
ATOM     49  C   UNL A   1      42.280  27.119  28.834  1.00  0.00     0.037 A 
ATOM     50  C   UNL A   1      41.303  30.254  34.494  1.00  0.00     0.049 A 
ATOM     51  C   UNL A   1      43.034  27.167  30.135  1.00  0.00     0.074 A 
ATOM     52  C   UNL A   1      42.069  30.192  35.642  1.00  0.00     0.029 A 
ATOM     53  N   UNL A   1      41.910  29.431  33.557  1.00  0.00    -0.354 N 
ATOM     54  N   UNL A   1      42.746  27.821  31.234  1.00  0.00    -0.248 NA
ATOM     55  C   UNL A   1      44.272  26.378  30.213  1.00  0.00     0.031 C 
ATOM     56  C   UNL A   1      43.156  29.346  35.394  1.00  0.00     0.029 A 
ATOM     57  C   UNL A   1      43.047  28.857  34.102  1.00  0.00     0.049 A 
ATOM     58  H   UNL A   1      41.582  29.277  32.641  1.00  0.00     0.167 HD
ATOM     59  C   UNL A   1      43.748  27.505  32.140  1.00  0.00     0.074 A 
ATOM     60  C   UNL A   1      44.646  26.589  31.466  1.00  0.00     0.031 C 
ATOM     61  C   UNL A   1      43.914  27.937  33.414  1.00  0.00     0.037 A 
BRANCH  48  62
ATOM     62  C   UNL A   1      39.581  31.898  35.341  1.00  0.00     0.064 A 
ATOM     63  C   UNL A   1      38.673  31.441  36.310  1.00  0.00     0.173 A 
ATOM     64  C   UNL A   1      40.005  33.232  35.416  1.00  0.00     0.173 A 
ATOM     65  F   UNL A   1      38.222  30.178  36.269  1.00  0.00    -0.203 F 
ATOM     66  C   UNL A   1      38.179  32.297  37.289  1.00  0.00     0.198 A 
ATOM     67  C   UNL A   1      39.533  34.078  36.417  1.00  0.00     0.198 A 
ATOM     68  F   UNL A   1      40.872  33.719  34.516  1.00  0.00    -0.203 F 
ATOM     69  F   UNL A   1      37.267  31.855  38.164  1.00  0.00    -0.200 F 
ATOM     70  C   UNL A   1      38.614  33.612  37.346  1.00  0.00     0.200 A 
ATOM     71  F   UNL A   1      39.959  35.347  36.476  1.00  0.00    -0.200 F 
ATOM     72  F   UNL A   1      38.139  34.435  38.291  1.00  0.00    -0.200 F 
ENDBRANCH  48  62
BRANCH  49  73
ATOM     73  C   UNL A   1      42.777  26.306  27.695  1.00  0.00     0.064 A 
ATOM     74  C   UNL A   1      43.703  26.840  26.787  1.00  0.00     0.173 A 
ATOM     75  C   UNL A   1      42.342  24.990  27.486  1.00  0.00     0.173 A 
ATOM     76  F   UNL A   1      44.134  28.101  26.937  1.00  0.00    -0.203 F 
ATOM     77  C   UNL A   1      44.160  26.096  25.702  1.00  0.00     0.198 A 
ATOM     78  C   UNL A   1      42.817  24.238  26.412  1.00  0.00     0.198 A 
ATOM     79  F   UNL A   1      41.462  24.432  28.328  1.00  0.00    -0.203 F 
ATOM     80  F   UNL A   1      45.013  26.646  24.827  1.00  0.00    -0.200 F 
ATOM     81  C   UNL A   1      43.720  24.794  25.517  1.00  0.00     0.200 A 
ATOM     82  F   UNL A   1      42.399  22.976  26.242  1.00  0.00    -0.200 F 
ATOM     83  F   UNL A   1      44.160  24.078  24.474  1.00  0.00    -0.200 F 
ENDBRANCH  49  73
BRANCH  61  84
ATOM     84  C   UNL A   1      45.088  27.398  34.172  1.00  0.00     0.064 A 
ATOM     85  C   UNL A   1      45.004  26.201  34.896  1.00  0.00     0.173 A 
ATOM     86  C   UNL A   1      46.323  28.060  34.129  1.00  0.00     0.173 A 
ATOM     87  F   UNL A   1      43.839  25.542  34.977  1.00  0.00    -0.203 F 
ATOM     88  C   UNL A   1      46.113  25.694  35.567  1.00  0.00     0.198 A 
ATOM     89  C   UNL A   1      47.437  27.539  34.780  1.00  0.00     0.198 A 
ATOM     90  F   UNL A   1      46.453  29.206  33.442  1.00  0.00    -0.203 F 
ATOM     91  F   UNL A   1      46.003  24.568  36.284  1.00  0.00    -0.200 F 
ATOM     92  C   UNL A   1      47.329  26.359  35.502  1.00  0.00     0.200 A 
ATOM     93  F   UNL A   1      48.613  28.175  34.707  1.00  0.00    -0.200 F 
ATOM     94  F   UNL A   1      48.398  25.865  36.141  1.00  0.00    -0.200 F 
ENDBRANCH  61  84
ENDBRANCH  35  36
ENDBRANCH  27  30
ENDBRANCH  25  26
ENDBRANCH  24  25
ENDBRANCH   1  24
TORSDOF 14
ENDMDL
