MODEL 1
REMARK VINA RESULT:     -14.6      0.000      0.000
REMARK SMILES O=C(NCCCCNC(=O)c1ccc(-c2c3nc(c(-c4c(F)c(F)c(F)c(F)c4F)c4ccc([nH]4)c(-c4c(F)c(F)c(F)c(F)c4F)c4nc(c(-c5c(F)c(F)c(F)c(F)c5F)c5ccc2[nH]5)C=C4)C=C3)cc1)C1=Cc2cc(Cl)cc(-c3ccc(Cl)cc3)c2O[C@@H]1C(F)(F)F
REMARK SMILES IDX 6 1 5 2 4 3 3 4 1 5 2 6 74 8 75 9 91 10 76 11 90 12 77 13
REMARK SMILES IDX 89 14 78 15 81 16 79 17 80 18 92 19 93 20 94 21 95 22 82 23
REMARK SMILES IDX 83 24 88 25 84 26 87 27 85 28 86 29 7 30 8 31 9 32 10 34
REMARK SMILES IDX 11 35 12 36 73 37 13 38 72 39 14 40 15 41 16 42 66 43 17 44
REMARK SMILES IDX 71 45 65 46 67 47 18 48 70 49 64 50 63 51 19 53 51 54 31 55
REMARK SMILES IDX 50 56 32 57 35 58 49 59 68 60 33 61 34 62 48 64 69 65 36 66
REMARK SMILES IDX 20 67 21 68 29 69 22 70 23 71 27 72 30 73 24 74 25 75 28 76
REMARK SMILES IDX 26 77 52 78 53 79 61 80 54 81 55 82 59 83 62 84 56 85 57 86
REMARK SMILES IDX 60 87 58 88 37 89 38 90 46 91 39 92 40 93 44 94 47 95 41 96
REMARK SMILES IDX 42 97 45 98 43 99
REMARK H PARENT 3 7 8 33 67 52 35 63
REMARK Flexibility Score: inf
ROOT
ATOM      1  C   UNL A   1      31.780  29.100  26.890  1.00  0.00     0.023 C 
ENDROOT
BRANCH   1   2
ATOM      2  C   UNL A   1      32.364  27.691  26.819  1.00  0.00     0.023 C 
BRANCH   2   3
ATOM      3  C   UNL A   1      31.449  26.586  26.301  1.00  0.00     0.116 C 
BRANCH   3   4
ATOM      4  N   UNL A   1      31.667  25.260  26.851  1.00  0.00    -0.352 N 
ATOM      5  O   UNL A   1      32.559  23.219  27.069  1.00  0.00    -0.270 OA
ATOM      6  C   UNL A   1      32.436  24.230  26.379  1.00  0.00     0.251 C 
ATOM      7  H   UNL A   1      31.189  25.073  27.691  1.00  0.00     0.163 HD
BRANCH   6   8
ATOM      8  C   UNL A   1      33.202  24.294  25.089  1.00  0.00     0.067 C 
ATOM      9  C   UNL A   1      34.526  24.521  25.025  1.00  0.00     0.025 C 
ATOM     10  C   UNL A   1      32.618  23.366  24.041  1.00  0.00     0.314 C 
ATOM     11  C   UNL A   1      35.268  23.240  24.850  1.00  0.00     0.019 A 
ATOM     12  O   UNL A   1      33.251  22.059  24.140  1.00  0.00    -0.475 OA
ATOM     13  C   UNL A   1      36.604  23.199  25.258  1.00  0.00     0.032 A 
ATOM     14  C   UNL A   1      34.569  22.050  24.549  1.00  0.00     0.135 A 
ATOM     15  C   UNL A   1      37.213  21.967  25.460  1.00  0.00     0.042 A 
ATOM     16  C   UNL A   1      35.172  20.804  24.792  1.00  0.00     0.026 A 
ATOM     17  Cl  UNL A   1      38.799  21.906  26.121  1.00  0.00    -0.084 Cl
ATOM     18  C   UNL A   1      36.506  20.784  25.245  1.00  0.00     0.033 A 
BRANCH  10  19
ATOM     19  C   UNL A   1      32.682  23.935  22.611  1.00  0.00     0.429 C 
ATOM     20  F   UNL A   1      31.530  24.562  22.273  1.00  0.00    -0.167 F 
ATOM     21  F   UNL A   1      33.678  24.846  22.487  1.00  0.00    -0.167 F 
ATOM     22  F   UNL A   1      32.904  22.979  21.677  1.00  0.00    -0.167 F 
ENDBRANCH  10  19
BRANCH  16  23
ATOM     23  C   UNL A   1      34.422  19.539  24.785  1.00  0.00    -0.015 A 
ATOM     24  C   UNL A   1      33.175  19.461  25.432  1.00  0.00     0.010 A 
ATOM     25  C   UNL A   1      34.972  18.365  24.255  1.00  0.00     0.010 A 
ATOM     26  C   UNL A   1      32.529  18.236  25.610  1.00  0.00     0.021 A 
ATOM     27  C   UNL A   1      34.319  17.139  24.413  1.00  0.00     0.021 A 
ATOM     28  C   UNL A   1      33.114  17.076  25.111  1.00  0.00     0.041 A 
ATOM     29  Cl  UNL A   1      32.352  15.557  25.380  1.00  0.00    -0.084 Cl
ENDBRANCH  16  23
ENDBRANCH   6   8
ENDBRANCH   3   4
ENDBRANCH   2   3
ENDBRANCH   1   2
BRANCH   1  30
ATOM     30  C   UNL A   1      32.572  30.236  26.242  1.00  0.00     0.116 C 
BRANCH  30  31
ATOM     31  N   UNL A   1      32.470  31.538  26.884  1.00  0.00    -0.352 N 
ATOM     32  C   UNL A   1      33.444  32.241  27.572  1.00  0.00     0.251 C 
ATOM     33  H   UNL A   1      31.592  31.979  26.819  1.00  0.00     0.163 HD
ATOM     34  O   UNL A   1      33.213  33.353  28.023  1.00  0.00    -0.269 OA
BRANCH  32  35
ATOM     35  C   UNL A   1      34.754  31.598  27.835  1.00  0.00     0.039 A 
ATOM     36  C   UNL A   1      35.872  32.419  28.001  1.00  0.00     0.014 A 
ATOM     37  C   UNL A   1      34.855  30.218  28.032  1.00  0.00     0.014 A 
ATOM     38  C   UNL A   1      37.053  31.878  28.516  1.00  0.00     0.010 A 
ATOM     39  C   UNL A   1      36.013  29.692  28.608  1.00  0.00     0.010 A 
ATOM     40  C   UNL A   1      37.102  30.527  28.903  1.00  0.00    -0.014 A 
BRANCH  40  41
ATOM     41  C   UNL A   1      38.226  30.023  29.737  1.00  0.00     0.031 A 
ATOM     42  C   UNL A   1      38.434  30.500  31.143  1.00  0.00     0.074 A 
ATOM     43  C   UNL A   1      39.124  29.185  29.178  1.00  0.00     0.049 A 
ATOM     44  N   UNL A   1      39.377  30.176  31.992  1.00  0.00    -0.248 NA
ATOM     45  C   UNL A   1      37.474  31.485  31.656  1.00  0.00     0.031 C 
ATOM     46  C   UNL A   1      39.086  28.708  27.793  1.00  0.00     0.029 A 
ATOM     47  N   UNL A   1      40.252  28.597  29.697  1.00  0.00    -0.354 N 
ATOM     48  C   UNL A   1      39.128  30.917  33.137  1.00  0.00     0.074 A 
ATOM     49  C   UNL A   1      37.972  31.745  32.858  1.00  0.00     0.031 C 
ATOM     50  C   UNL A   1      40.127  27.890  27.579  1.00  0.00     0.029 A 
ATOM     51  C   UNL A   1      40.925  27.806  28.798  1.00  0.00     0.049 A 
ATOM     52  H   UNL A   1      40.550  28.730  30.626  1.00  0.00     0.167 HD
ATOM     53  C   UNL A   1      39.789  30.893  34.320  1.00  0.00     0.037 A 
ATOM     54  C   UNL A   1      42.061  27.093  28.932  1.00  0.00     0.037 A 
ATOM     55  C   UNL A   1      40.929  30.061  34.604  1.00  0.00     0.049 A 
ATOM     56  C   UNL A   1      42.771  27.078  30.257  1.00  0.00     0.074 A 
ATOM     57  C   UNL A   1      41.607  29.904  35.801  1.00  0.00     0.029 A 
ATOM     58  N   UNL A   1      41.572  29.257  33.674  1.00  0.00    -0.354 N 
ATOM     59  N   UNL A   1      42.460  27.702  31.367  1.00  0.00    -0.248 NA
ATOM     60  C   UNL A   1      43.988  26.258  30.349  1.00  0.00     0.031 C 
ATOM     61  C   UNL A   1      42.687  29.041  35.585  1.00  0.00     0.029 A 
ATOM     62  C   UNL A   1      42.658  28.626  34.263  1.00  0.00     0.049 A 
ATOM     63  H   UNL A   1      41.298  29.149  32.735  1.00  0.00     0.167 HD
ATOM     64  C   UNL A   1      43.427  27.337  32.292  1.00  0.00     0.074 A 
ATOM     65  C   UNL A   1      44.329  26.425  31.620  1.00  0.00     0.031 C 
ATOM     66  C   UNL A   1      43.555  27.726  33.584  1.00  0.00     0.037 A 
BRANCH  53  67
ATOM     67  C   UNL A   1      39.286  31.796  35.409  1.00  0.00     0.064 A 
ATOM     68  C   UNL A   1      38.386  31.336  36.382  1.00  0.00     0.173 A 
ATOM     69  C   UNL A   1      39.737  33.120  35.504  1.00  0.00     0.173 A 
ATOM     70  F   UNL A   1      37.920  30.079  36.331  1.00  0.00    -0.203 F 
ATOM     71  C   UNL A   1      37.933  32.179  37.393  1.00  0.00     0.198 A 
ATOM     72  C   UNL A   1      39.303  33.952  36.532  1.00  0.00     0.198 A 
ATOM     73  F   UNL A   1      40.606  33.605  34.603  1.00  0.00    -0.203 F 
ATOM     74  F   UNL A   1      37.039  31.732  38.286  1.00  0.00    -0.200 F 
ATOM     75  C   UNL A   1      38.396  33.483  37.471  1.00  0.00     0.200 A 
ATOM     76  F   UNL A   1      39.761  35.209  36.614  1.00  0.00    -0.200 F 
ATOM     77  F   UNL A   1      37.963  34.293  38.448  1.00  0.00    -0.200 F 
ENDBRANCH  53  67
BRANCH  54  78
ATOM     78  C   UNL A   1      42.584  26.317  27.779  1.00  0.00     0.064 A 
ATOM     79  C   UNL A   1      42.114  25.024  27.509  1.00  0.00     0.173 A 
ATOM     80  C   UNL A   1      43.550  26.856  26.918  1.00  0.00     0.173 A 
ATOM     81  F   UNL A   1      41.205  24.461  28.317  1.00  0.00    -0.203 F 
ATOM     82  C   UNL A   1      42.602  24.295  26.426  1.00  0.00     0.198 A 
ATOM     83  C   UNL A   1      44.018  26.135  25.822  1.00  0.00     0.198 A 
ATOM     84  F   UNL A   1      44.025  28.092  27.131  1.00  0.00    -0.203 F 
ATOM     85  F   UNL A   1      42.161  23.048  26.209  1.00  0.00    -0.200 F 
ATOM     86  C   UNL A   1      43.548  24.852  25.580  1.00  0.00     0.200 A 
ATOM     87  F   UNL A   1      44.921  26.684  24.998  1.00  0.00    -0.200 F 
ATOM     88  F   UNL A   1      44.009  24.154  24.534  1.00  0.00    -0.200 F 
ENDBRANCH  54  78
BRANCH  66  89
ATOM     89  C   UNL A   1      44.708  27.164  34.361  1.00  0.00     0.064 A 
ATOM     90  C   UNL A   1      45.935  27.838  34.442  1.00  0.00     0.173 A 
ATOM     91  C   UNL A   1      44.573  25.958  35.066  1.00  0.00     0.173 A 
ATOM     92  F   UNL A   1      46.119  28.986  33.771  1.00  0.00    -0.203 F 
ATOM     93  C   UNL A   1      46.989  27.319  35.188  1.00  0.00     0.198 A 
ATOM     94  C   UNL A   1      45.621  25.454  35.831  1.00  0.00     0.198 A 
ATOM     95  F   UNL A   1      43.419  25.276  35.022  1.00  0.00    -0.203 F 
ATOM     96  F   UNL A   1      48.165  27.962  35.220  1.00  0.00    -0.200 F 
ATOM     97  C   UNL A   1      46.829  26.132  35.887  1.00  0.00     0.200 A 
ATOM     98  F   UNL A   1      45.461  24.312  36.515  1.00  0.00    -0.200 F 
ATOM     99  F   UNL A   1      47.843  25.638  36.612  1.00  0.00    -0.200 F 
ENDBRANCH  66  89
ENDBRANCH  40  41
ENDBRANCH  32  35
ENDBRANCH  30  31
ENDBRANCH   1  30
TORSDOF 13
ENDMDL
MODEL 2
REMARK VINA RESULT:     -14.6      0.223      1.605
REMARK SMILES O=C(NCCCCNC(=O)c1ccc(-c2c3nc(c(-c4c(F)c(F)c(F)c(F)c4F)c4ccc([nH]4)c(-c4c(F)c(F)c(F)c(F)c4F)c4nc(c(-c5c(F)c(F)c(F)c(F)c5F)c5ccc2[nH]5)C=C4)C=C3)cc1)C1=Cc2cc(Cl)cc(-c3ccc(Cl)cc3)c2O[C@@H]1C(F)(F)F
REMARK SMILES IDX 6 1 5 2 4 3 3 4 1 5 2 6 74 8 75 9 91 10 76 11 90 12 77 13
REMARK SMILES IDX 89 14 78 15 81 16 79 17 80 18 92 19 93 20 94 21 95 22 82 23
REMARK SMILES IDX 83 24 88 25 84 26 87 27 85 28 86 29 7 30 8 31 9 32 10 34
REMARK SMILES IDX 11 35 12 36 73 37 13 38 72 39 14 40 15 41 16 42 66 43 17 44
REMARK SMILES IDX 71 45 65 46 67 47 18 48 70 49 64 50 63 51 19 53 51 54 31 55
REMARK SMILES IDX 50 56 32 57 35 58 49 59 68 60 33 61 34 62 48 64 69 65 36 66
REMARK SMILES IDX 20 67 21 68 29 69 22 70 23 71 27 72 30 73 24 74 25 75 28 76
REMARK SMILES IDX 26 77 52 78 53 79 61 80 54 81 55 82 59 83 62 84 56 85 57 86
REMARK SMILES IDX 60 87 58 88 37 89 38 90 46 91 39 92 40 93 44 94 47 95 41 96
REMARK SMILES IDX 42 97 45 98 43 99
REMARK H PARENT 3 7 8 33 67 52 35 63
REMARK Flexibility Score: inf
ROOT
ATOM      1  C   UNL A   1      31.824  29.005  26.919  1.00  0.00     0.023 C 
ENDROOT
BRANCH   1   2
ATOM      2  C   UNL A   1      32.386  27.597  26.744  1.00  0.00     0.023 C 
BRANCH   2   3
ATOM      3  C   UNL A   1      31.403  26.502  26.343  1.00  0.00     0.116 C 
BRANCH   3   4
ATOM      4  N   UNL A   1      31.652  25.181  26.890  1.00  0.00    -0.352 N 
ATOM      5  O   UNL A   1      32.601  23.165  27.111  1.00  0.00    -0.270 OA
ATOM      6  C   UNL A   1      32.457  24.175  26.423  1.00  0.00     0.251 C 
ATOM      7  H   UNL A   1      31.170  24.975  27.723  1.00  0.00     0.163 HD
BRANCH   6   8
ATOM      8  C   UNL A   1      33.235  24.267  25.143  1.00  0.00     0.067 C 
ATOM      9  C   UNL A   1      34.554  24.523  25.096  1.00  0.00     0.025 C 
ATOM     10  C   UNL A   1      32.684  23.335  24.081  1.00  0.00     0.314 C 
ATOM     11  C   UNL A   1      35.326  23.260  24.919  1.00  0.00     0.019 A 
ATOM     12  O   UNL A   1      33.344  22.042  24.176  1.00  0.00    -0.475 OA
ATOM     13  C   UNL A   1      36.659  23.246  25.342  1.00  0.00     0.032 A 
ATOM     14  C   UNL A   1      34.657  22.058  24.600  1.00  0.00     0.135 A 
ATOM     15  C   UNL A   1      37.292  22.025  25.540  1.00  0.00     0.042 A 
ATOM     16  C   UNL A   1      35.285  20.824  24.840  1.00  0.00     0.026 A 
ATOM     17  Cl  UNL A   1      38.871  21.994  26.219  1.00  0.00    -0.084 Cl
ATOM     18  C   UNL A   1      36.614  20.829  25.308  1.00  0.00     0.033 A 
BRANCH  10  19
ATOM     19  C   UNL A   1      32.752  23.918  22.657  1.00  0.00     0.429 C 
ATOM     20  F   UNL A   1      33.015  22.958  21.739  1.00  0.00    -0.167 F 
ATOM     21  F   UNL A   1      31.576  24.491  22.301  1.00  0.00    -0.167 F 
ATOM     22  F   UNL A   1      33.709  24.868  22.525  1.00  0.00    -0.167 F 
ENDBRANCH  10  19
BRANCH  16  23
ATOM     23  C   UNL A   1      34.563  19.543  24.814  1.00  0.00    -0.015 A 
ATOM     24  C   UNL A   1      33.277  19.452  25.378  1.00  0.00     0.010 A 
ATOM     25  C   UNL A   1      35.171  18.370  24.349  1.00  0.00     0.010 A 
ATOM     26  C   UNL A   1      32.646  18.217  25.542  1.00  0.00     0.021 A 
ATOM     27  C   UNL A   1      34.534  17.133  24.493  1.00  0.00     0.021 A 
ATOM     28  C   UNL A   1      33.286  17.060  25.111  1.00  0.00     0.041 A 
ATOM     29  Cl  UNL A   1      32.540  15.531  25.366  1.00  0.00    -0.084 Cl
ENDBRANCH  16  23
ENDBRANCH   6   8
ENDBRANCH   3   4
ENDBRANCH   2   3
ENDBRANCH   1   2
BRANCH   1  30
ATOM     30  C   UNL A   1      32.576  30.161  26.259  1.00  0.00     0.116 C 
BRANCH  30  31
ATOM     31  N   UNL A   1      32.463  31.458  26.911  1.00  0.00    -0.352 N 
ATOM     32  C   UNL A   1      33.436  32.171  27.589  1.00  0.00     0.251 C 
ATOM     33  H   UNL A   1      31.577  31.884  26.863  1.00  0.00     0.163 HD
ATOM     34  O   UNL A   1      33.194  33.276  28.052  1.00  0.00    -0.269 OA
BRANCH  32  35
ATOM     35  C   UNL A   1      34.760  31.548  27.826  1.00  0.00     0.039 A 
ATOM     36  C   UNL A   1      35.869  32.386  27.968  1.00  0.00     0.014 A 
ATOM     37  C   UNL A   1      34.886  30.171  28.024  1.00  0.00     0.014 A 
ATOM     38  C   UNL A   1      37.068  31.864  28.460  1.00  0.00     0.010 A 
ATOM     39  C   UNL A   1      36.063  29.663  28.577  1.00  0.00     0.010 A 
ATOM     40  C   UNL A   1      37.146  30.515  28.849  1.00  0.00    -0.014 A 
BRANCH  40  41
ATOM     41  C   UNL A   1      38.294  30.029  29.661  1.00  0.00     0.031 A 
ATOM     42  C   UNL A   1      38.534  30.528  31.054  1.00  0.00     0.074 A 
ATOM     43  C   UNL A   1      39.182  29.188  29.091  1.00  0.00     0.049 A 
ATOM     44  N   UNL A   1      39.501  30.221  31.883  1.00  0.00    -0.248 NA
ATOM     45  C   UNL A   1      37.582  31.515  31.578  1.00  0.00     0.031 C 
ATOM     46  C   UNL A   1      39.111  28.690  27.715  1.00  0.00     0.029 A 
ATOM     47  N   UNL A   1      40.326  28.614  29.590  1.00  0.00    -0.354 N 
ATOM     48  C   UNL A   1      39.277  30.978  33.024  1.00  0.00     0.074 A 
ATOM     49  C   UNL A   1      38.109  31.795  32.762  1.00  0.00     0.031 C 
ATOM     50  C   UNL A   1      40.151  27.875  27.487  1.00  0.00     0.029 A 
ATOM     51  C   UNL A   1      40.980  27.813  28.685  1.00  0.00     0.049 A 
ATOM     52  H   UNL A   1      40.647  28.763  30.508  1.00  0.00     0.167 HD
ATOM     53  C   UNL A   1      39.968  30.975  34.189  1.00  0.00     0.037 A 
ATOM     54  C   UNL A   1      42.123  27.109  28.801  1.00  0.00     0.037 A 
ATOM     55  C   UNL A   1      41.120  30.154  34.456  1.00  0.00     0.049 A 
ATOM     56  C   UNL A   1      42.867  27.117  30.107  1.00  0.00     0.074 A 
ATOM     57  C   UNL A   1      41.829  30.018  35.638  1.00  0.00     0.029 A 
ATOM     58  N   UNL A   1      41.743  29.340  33.522  1.00  0.00    -0.354 N 
ATOM     59  N   UNL A   1      42.581  27.755  31.215  1.00  0.00    -0.248 NA
ATOM     60  C   UNL A   1      44.091  26.306  30.180  1.00  0.00     0.031 C 
ATOM     61  C   UNL A   1      42.908  29.158  35.406  1.00  0.00     0.029 A 
ATOM     62  C   UNL A   1      42.848  28.723  34.092  1.00  0.00     0.049 A 
ATOM     63  H   UNL A   1      41.446  29.216  32.592  1.00  0.00     0.167 HD
ATOM     64  C   UNL A   1      43.574  27.409  32.121  1.00  0.00     0.074 A 
ATOM     65  C   UNL A   1      44.463  26.493  31.439  1.00  0.00     0.031 C 
ATOM     66  C   UNL A   1      43.732  27.819  33.403  1.00  0.00     0.037 A 
BRANCH  53  67
ATOM     67  C   UNL A   1      39.487  31.891  35.277  1.00  0.00     0.064 A 
ATOM     68  C   UNL A   1      38.568  31.459  36.244  1.00  0.00     0.173 A 
ATOM     69  C   UNL A   1      39.981  33.200  35.378  1.00  0.00     0.173 A 
ATOM     70  F   UNL A   1      38.062  30.217  36.187  1.00  0.00    -0.203 F 
ATOM     71  C   UNL A   1      38.136  32.313  37.255  1.00  0.00     0.198 A 
ATOM     72  C   UNL A   1      39.567  34.043  36.406  1.00  0.00     0.198 A 
ATOM     73  F   UNL A   1      40.870  33.659  34.484  1.00  0.00    -0.203 F 
ATOM     74  F   UNL A   1      37.223  31.893  38.141  1.00  0.00    -0.200 F 
ATOM     75  C   UNL A   1      38.640  33.602  37.339  1.00  0.00     0.200 A 
ATOM     76  F   UNL A   1      40.065  35.285  36.493  1.00  0.00    -0.200 F 
ATOM     77  F   UNL A   1      38.227  34.422  38.314  1.00  0.00    -0.200 F 
ENDBRANCH  53  67
BRANCH  54  78
ATOM     78  C   UNL A   1      42.621  26.319  27.646  1.00  0.00     0.064 A 
ATOM     79  C   UNL A   1      43.554  26.862  26.751  1.00  0.00     0.173 A 
ATOM     80  C   UNL A   1      42.184  25.006  27.421  1.00  0.00     0.173 A 
ATOM     81  F   UNL A   1      43.984  28.120  26.915  1.00  0.00    -0.203 F 
ATOM     82  C   UNL A   1      44.023  26.122  25.667  1.00  0.00     0.198 A 
ATOM     83  C   UNL A   1      42.673  24.260  26.350  1.00  0.00     0.198 A 
ATOM     84  F   UNL A   1      41.297  24.442  28.252  1.00  0.00    -0.203 F 
ATOM     85  F   UNL A   1      44.890  26.675  24.807  1.00  0.00    -0.200 F 
ATOM     86  C   UNL A   1      43.588  24.820  25.471  1.00  0.00     0.200 A 
ATOM     87  F   UNL A   1      42.261  22.997  26.173  1.00  0.00    -0.200 F 
ATOM     88  F   UNL A   1      44.046  24.107  24.434  1.00  0.00    -0.200 F 
ENDBRANCH  54  78
BRANCH  66  89
ATOM     89  C   UNL A   1      44.908  27.274  34.158  1.00  0.00     0.064 A 
ATOM     90  C   UNL A   1      44.828  26.064  34.863  1.00  0.00     0.173 A 
ATOM     91  C   UNL A   1      46.139  27.946  34.143  1.00  0.00     0.173 A 
ATOM     92  F   UNL A   1      43.667  25.393  34.922  1.00  0.00    -0.203 F 
ATOM     93  C   UNL A   1      45.934  25.554  35.539  1.00  0.00     0.198 A 
ATOM     94  C   UNL A   1      47.249  27.421  34.799  1.00  0.00     0.198 A 
ATOM     95  F   UNL A   1      46.268  29.105  33.482  1.00  0.00    -0.203 F 
ATOM     96  F   UNL A   1      45.824  24.416  36.238  1.00  0.00    -0.200 F 
ATOM     97  C   UNL A   1      47.144  26.229  35.500  1.00  0.00     0.200 A 
ATOM     98  F   UNL A   1      48.422  28.070  34.753  1.00  0.00    -0.200 F 
ATOM     99  F   UNL A   1      48.210  25.734  36.144  1.00  0.00    -0.200 F 
ENDBRANCH  66  89
ENDBRANCH  40  41
ENDBRANCH  32  35
ENDBRANCH  30  31
ENDBRANCH   1  30
TORSDOF 13
ENDMDL
MODEL 3
REMARK VINA RESULT:     -14.5      2.886      4.120
REMARK SMILES O=C(NCCCCNC(=O)c1ccc(-c2c3nc(c(-c4c(F)c(F)c(F)c(F)c4F)c4ccc([nH]4)c(-c4c(F)c(F)c(F)c(F)c4F)c4nc(c(-c5c(F)c(F)c(F)c(F)c5F)c5ccc2[nH]5)C=C4)C=C3)cc1)C1=Cc2cc(Cl)cc(-c3ccc(Cl)cc3)c2O[C@@H]1C(F)(F)F
REMARK SMILES IDX 6 1 5 2 4 3 3 4 1 5 2 6 74 8 75 9 91 10 76 11 90 12 77 13
REMARK SMILES IDX 89 14 78 15 81 16 79 17 80 18 92 19 93 20 94 21 95 22 82 23
REMARK SMILES IDX 83 24 88 25 84 26 87 27 85 28 86 29 7 30 8 31 9 32 10 34
REMARK SMILES IDX 11 35 12 36 73 37 13 38 72 39 14 40 15 41 16 42 66 43 17 44
REMARK SMILES IDX 71 45 65 46 67 47 18 48 70 49 64 50 63 51 19 53 51 54 31 55
REMARK SMILES IDX 50 56 32 57 35 58 49 59 68 60 33 61 34 62 48 64 69 65 36 66
REMARK SMILES IDX 20 67 21 68 29 69 22 70 23 71 27 72 30 73 24 74 25 75 28 76
REMARK SMILES IDX 26 77 52 78 53 79 61 80 54 81 55 82 59 83 62 84 56 85 57 86
REMARK SMILES IDX 60 87 58 88 37 89 38 90 46 91 39 92 40 93 44 94 47 95 41 96
REMARK SMILES IDX 42 97 45 98 43 99
REMARK H PARENT 3 7 8 33 67 52 35 63
REMARK Flexibility Score: inf
ROOT
ATOM      1  C   UNL A   1      33.176  28.249  27.233  1.00  0.00     0.023 C 
ENDROOT
BRANCH   1   2
ATOM      2  C   UNL A   1      31.691  27.932  27.079  1.00  0.00     0.023 C 
BRANCH   2   3
ATOM      3  C   UNL A   1      31.324  26.728  26.217  1.00  0.00     0.116 C 
BRANCH   3   4
ATOM      4  N   UNL A   1      31.592  25.421  26.788  1.00  0.00    -0.352 N 
ATOM      5  O   UNL A   1      32.584  23.433  27.061  1.00  0.00    -0.270 OA
ATOM      6  C   UNL A   1      32.433  24.431  26.356  1.00  0.00     0.251 C 
ATOM      7  H   UNL A   1      31.093  25.215  27.611  1.00  0.00     0.163 HD
BRANCH   6   8
ATOM      8  C   UNL A   1      33.242  24.525  25.096  1.00  0.00     0.067 C 
ATOM      9  C   UNL A   1      34.560  24.795  25.080  1.00  0.00     0.025 C 
ATOM     10  C   UNL A   1      32.727  23.583  24.024  1.00  0.00     0.314 C 
ATOM     11  C   UNL A   1      35.349  23.539  24.928  1.00  0.00     0.019 A 
ATOM     12  O   UNL A   1      33.398  22.297  24.142  1.00  0.00    -0.475 OA
ATOM     13  C   UNL A   1      36.670  23.540  25.384  1.00  0.00     0.032 A 
ATOM     14  C   UNL A   1      34.700  22.328  24.598  1.00  0.00     0.135 A 
ATOM     15  C   UNL A   1      37.311  22.327  25.604  1.00  0.00     0.042 A 
ATOM     16  C   UNL A   1      35.334  21.102  24.858  1.00  0.00     0.026 A 
ATOM     17  Cl  UNL A   1      38.872  22.314  26.322  1.00  0.00    -0.084 Cl
ATOM     18  C   UNL A   1      36.651  21.123  25.360  1.00  0.00     0.033 A 
BRANCH  10  19
ATOM     19  C   UNL A   1      32.825  24.161  22.599  1.00  0.00     0.429 C 
ATOM     20  F   UNL A   1      33.051  23.189  21.684  1.00  0.00    -0.167 F 
ATOM     21  F   UNL A   1      31.676  24.783  22.239  1.00  0.00    -0.167 F 
ATOM     22  F   UNL A   1      33.822  25.069  22.470  1.00  0.00    -0.167 F 
ENDBRANCH  10  19
BRANCH  16  23
ATOM     23  C   UNL A   1      34.626  19.813  24.820  1.00  0.00    -0.015 A 
ATOM     24  C   UNL A   1      33.320  19.716  25.334  1.00  0.00     0.010 A 
ATOM     25  C   UNL A   1      35.264  18.641  24.395  1.00  0.00     0.010 A 
ATOM     26  C   UNL A   1      32.695  18.477  25.489  1.00  0.00     0.021 A 
ATOM     27  C   UNL A   1      34.633  17.400  24.530  1.00  0.00     0.021 A 
ATOM     28  C   UNL A   1      33.363  17.321  25.098  1.00  0.00     0.041 A 
ATOM     29  Cl  UNL A   1      32.622  15.788  25.342  1.00  0.00    -0.084 Cl
ENDBRANCH  16  23
ENDBRANCH   6   8
ENDBRANCH   3   4
ENDBRANCH   2   3
ENDBRANCH   1   2
BRANCH   1  30
ATOM     30  C   UNL A   1      33.678  29.593  26.705  1.00  0.00     0.116 C 
BRANCH  30  31
ATOM     31  N   UNL A   1      33.715  30.688  27.663  1.00  0.00    -0.352 N 
ATOM     32  C   UNL A   1      34.746  31.065  28.505  1.00  0.00     0.251 C 
ATOM     33  H   UNL A   1      32.897  31.234  27.719  1.00  0.00     0.163 HD
ATOM     34  O   UNL A   1      34.637  32.042  29.232  1.00  0.00    -0.269 OA
BRANCH  32  35
ATOM     35  C   UNL A   1      35.962  30.221  28.586  1.00  0.00     0.039 A 
ATOM     36  C   UNL A   1      36.881  30.283  27.535  1.00  0.00     0.014 A 
ATOM     37  C   UNL A   1      36.249  29.474  29.732  1.00  0.00     0.014 A 
ATOM     38  C   UNL A   1      38.151  29.724  27.697  1.00  0.00     0.010 A 
ATOM     39  C   UNL A   1      37.539  28.974  29.918  1.00  0.00     0.010 A 
ATOM     40  C   UNL A   1      38.516  29.141  28.923  1.00  0.00    -0.014 A 
BRANCH  40  41
ATOM     41  C   UNL A   1      39.942  28.836  29.218  1.00  0.00     0.031 A 
ATOM     42  C   UNL A   1      40.825  29.822  29.921  1.00  0.00     0.074 A 
ATOM     43  C   UNL A   1      40.467  27.680  28.760  1.00  0.00     0.049 A 
ATOM     44  N   UNL A   1      42.094  29.719  30.231  1.00  0.00    -0.248 NA
ATOM     45  C   UNL A   1      40.214  31.101  30.306  1.00  0.00     0.031 C 
ATOM     46  C   UNL A   1      39.739  26.669  27.990  1.00  0.00     0.029 A 
ATOM     47  N   UNL A   1      41.736  27.165  28.862  1.00  0.00    -0.354 N 
ATOM     48  C   UNL A   1      42.434  30.916  30.843  1.00  0.00     0.074 A 
ATOM     49  C   UNL A   1      41.251  31.751  30.818  1.00  0.00     0.031 C 
ATOM     50  C   UNL A   1      40.565  25.651  27.706  1.00  0.00     0.029 A 
ATOM     51  C   UNL A   1      41.888  25.947  28.245  1.00  0.00     0.049 A 
ATOM     52  H   UNL A   1      42.468  27.625  29.333  1.00  0.00     0.167 HD
ATOM     53  C   UNL A   1      43.618  31.276  31.395  1.00  0.00     0.037 A 
ATOM     54  C   UNL A   1      42.971  25.154  28.119  1.00  0.00     0.037 A 
ATOM     55  C   UNL A   1      44.791  30.442  31.433  1.00  0.00     0.049 A 
ATOM     56  C   UNL A   1      44.270  25.574  28.747  1.00  0.00     0.074 A 
ATOM     57  C   UNL A   1      46.006  30.687  32.050  1.00  0.00     0.029 A 
ATOM     58  N   UNL A   1      44.902  29.205  30.814  1.00  0.00    -0.354 N 
ATOM     59  N   UNL A   1      44.547  26.663  29.419  1.00  0.00    -0.248 NA
ATOM     60  C   UNL A   1      45.406  24.652  28.601  1.00  0.00     0.031 C 
ATOM     61  C   UNL A   1      46.866  29.621  31.766  1.00  0.00     0.029 A 
ATOM     62  C   UNL A   1      46.176  28.691  31.008  1.00  0.00     0.049 A 
ATOM     63  H   UNL A   1      44.183  28.758  30.312  1.00  0.00     0.167 HD
ATOM     64  C   UNL A   1      45.879  26.552  29.793  1.00  0.00     0.074 A 
ATOM     65  C   UNL A   1      46.352  25.281  29.285  1.00  0.00     0.031 C 
ATOM     66  C   UNL A   1      46.640  27.428  30.492  1.00  0.00     0.037 A 
BRANCH  53  67
ATOM     67  C   UNL A   1      43.702  32.640  32.016  1.00  0.00     0.064 A 
ATOM     68  C   UNL A   1      44.084  33.762  31.266  1.00  0.00     0.173 A 
ATOM     69  C   UNL A   1      43.361  32.834  33.362  1.00  0.00     0.173 A 
ATOM     70  F   UNL A   1      44.425  33.628  29.975  1.00  0.00    -0.203 F 
ATOM     71  C   UNL A   1      44.149  35.025  31.849  1.00  0.00     0.198 A 
ATOM     72  C   UNL A   1      43.402  34.102  33.935  1.00  0.00     0.198 A 
ATOM     73  F   UNL A   1      42.980  31.794  34.120  1.00  0.00    -0.203 F 
ATOM     74  F   UNL A   1      44.559  36.075  31.125  1.00  0.00    -0.200 F 
ATOM     75  C   UNL A   1      43.803  35.195  33.180  1.00  0.00     0.200 A 
ATOM     76  F   UNL A   1      43.055  34.267  35.219  1.00  0.00    -0.200 F 
ATOM     77  F   UNL A   1      43.863  36.411  33.740  1.00  0.00    -0.200 F 
ENDBRANCH  53  67
BRANCH  54  78
ATOM     78  C   UNL A   1      42.860  23.869  27.382  1.00  0.00     0.064 A 
ATOM     79  C   UNL A   1      43.208  23.785  26.027  1.00  0.00     0.173 A 
ATOM     80  C   UNL A   1      42.417  22.702  28.019  1.00  0.00     0.173 A 
ATOM     81  F   UNL A   1      43.617  24.880  25.372  1.00  0.00    -0.203 F 
ATOM     82  C   UNL A   1      43.107  22.580  25.333  1.00  0.00     0.198 A 
ATOM     83  C   UNL A   1      42.339  21.493  27.330  1.00  0.00     0.198 A 
ATOM     84  F   UNL A   1      42.078  22.731  29.316  1.00  0.00    -0.203 F 
ATOM     85  F   UNL A   1      43.414  22.533  24.029  1.00  0.00    -0.200 F 
ATOM     86  C   UNL A   1      42.679  21.434  25.986  1.00  0.00     0.200 A 
ATOM     87  F   UNL A   1      41.940  20.385  27.969  1.00  0.00    -0.200 F 
ATOM     88  F   UNL A   1      42.590  20.275  25.321  1.00  0.00    -0.200 F 
ENDBRANCH  54  78
BRANCH  66  89
ATOM     89  C   UNL A   1      48.065  27.042  30.758  1.00  0.00     0.064 A 
ATOM     90  C   UNL A   1      48.408  26.206  31.832  1.00  0.00     0.173 A 
ATOM     91  C   UNL A   1      49.093  27.476  29.909  1.00  0.00     0.173 A 
ATOM     92  F   UNL A   1      47.463  25.779  32.683  1.00  0.00    -0.203 F 
ATOM     93  C   UNL A   1      49.731  25.832  32.053  1.00  0.00     0.198 A 
ATOM     94  C   UNL A   1      50.411  27.081  30.119  1.00  0.00     0.198 A 
ATOM     95  F   UNL A   1      48.816  28.275  28.867  1.00  0.00    -0.203 F 
ATOM     96  F   UNL A   1      50.041  25.065  33.107  1.00  0.00    -0.200 F 
ATOM     97  C   UNL A   1      50.730  26.264  31.193  1.00  0.00     0.200 A 
ATOM     98  F   UNL A   1      51.374  27.491  29.280  1.00  0.00    -0.200 F 
ATOM     99  F   UNL A   1      52.001  25.898  31.403  1.00  0.00    -0.200 F 
ENDBRANCH  66  89
ENDBRANCH  40  41
ENDBRANCH  32  35
ENDBRANCH  30  31
ENDBRANCH   1  30
TORSDOF 13
ENDMDL
