MODEL 1
REMARK VINA RESULT:     -12.0      0.000      0.000
REMARK SMILES C[C@@H]1CN(C(=O)C[N@H+]2CCO[C@H](CC(=O)NCCCCNC(=O)c3ccc(-c4c5nc(c(-c6c(F)c(F)c(F)c(F)c6F)c6ccc([nH]6)c(-c6c(F)c(F)c(F)c(F)c6F)c6nc(c(-c7c(F)c(F)c(F)c(F)c7F)c7ccc4[nH]7)C=C6)C=C5)cc3)C2)C[C@H](C)O1
REMARK SMILES IDX 17 1 16 2 14 3 15 4 13 6 12 7 8 8 9 9 87 10 10 12 11 13 7 14
REMARK SMILES IDX 5 15 6 16 4 17 1 18 2 19 3 20 91 21 89 22 88 23 90 24 18 25
REMARK SMILES IDX 19 26 20 27 21 28 22 29 23 31 24 32 25 33 86 34 26 35 85 36
REMARK SMILES IDX 27 37 28 38 29 39 79 40 30 41 84 42 78 43 80 44 31 45 83 46
REMARK SMILES IDX 77 47 76 48 32 50 64 51 44 52 63 53 45 54 48 55 62 56 81 57
REMARK SMILES IDX 46 58 47 59 61 61 82 62 49 63 33 64 34 65 42 66 35 67 36 68
REMARK SMILES IDX 40 69 43 70 37 71 38 72 41 73 39 74 65 75 66 76 74 77 67 78
REMARK SMILES IDX 68 79 72 80 75 81 69 82 70 83 73 84 71 85 50 86 51 87 59 88
REMARK SMILES IDX 52 89 53 90 57 91 60 92 54 93 55 94 58 95 56 96
REMARK H PARENT 16 5 8 11 21 30 80 49 48 60
REMARK Flexibility Score: inf
ROOT
ATOM      1  C   UNL A   1      33.660  29.309  26.496  1.00  0.00     0.116 C 
ENDROOT
BRANCH   1   2
ATOM      2  N   UNL A   1      33.581  29.503  25.063  1.00  0.00    -0.356 N 
ATOM      3  C   UNL A   1      33.712  28.625  24.032  1.00  0.00     0.222 C 
ATOM      4  O   UNL A   1      33.643  29.089  22.891  1.00  0.00    -0.275 OA
ATOM      5  H   UNL A   1      33.401  30.431  24.787  1.00  0.00     0.163 HD
BRANCH   3   6
ATOM      6  C   UNL A   1      33.810  27.126  24.246  1.00  0.00     0.138 C 
BRANCH   6   7
ATOM      7  C   UNL A   1      32.526  26.312  24.471  1.00  0.00     0.182 C 
ATOM      8  N   UNL A   1      31.098  24.484  23.375  1.00  0.00    -0.323 N 
ATOM      9  C   UNL A   1      29.940  25.302  23.791  1.00  0.00     0.291 C 
ATOM     10  C   UNL A   1      32.291  25.338  23.315  1.00  0.00     0.295 C 
ATOM     11  H   UNL A   1      30.920  24.118  22.440  1.00  0.00     0.348 HD
ATOM     12  C   UNL A   1      30.220  26.314  24.926  1.00  0.00     0.222 C 
ATOM     13  O   UNL A   1      31.371  27.132  24.655  1.00  0.00    -0.366 OA
BRANCH   8  14
ATOM     14  C   UNL A   1      31.279  23.268  24.191  1.00  0.00     0.363 C 
BRANCH  14  15
ATOM     15  C   UNL A   1      32.318  22.302  23.580  1.00  0.00     0.277 C 
ATOM     16  O   UNL A   1      32.079  21.788  22.481  1.00  0.00    -0.268 OA
BRANCH  15  17
ATOM     17  N   UNL A   1      33.447  21.956  24.311  1.00  0.00    -0.333 N 
ATOM     18  C   UNL A   1      35.731  24.061  25.575  1.00  0.00     0.040 C 
ATOM     19  C   UNL A   1      35.723  22.592  25.173  1.00  0.00     0.135 C 
ATOM     20  C   UNL A   1      34.827  22.278  23.956  1.00  0.00     0.151 C 
ATOM     21  O   UNL A   1      35.512  21.738  26.305  1.00  0.00    -0.372 OA
ATOM     22  C   UNL A   1      34.153  21.412  26.635  1.00  0.00     0.135 C 
ATOM     23  C   UNL A   1      33.323  21.000  25.408  1.00  0.00     0.151 C 
ATOM     24  C   UNL A   1      33.487  22.487  27.492  1.00  0.00     0.040 C 
ENDBRANCH  15  17
ENDBRANCH  14  15
ENDBRANCH   8  14
ENDBRANCH   6   7
ENDBRANCH   3   6
ENDBRANCH   1   2
BRANCH   1  25
ATOM     25  C   UNL A   1      32.398  29.847  27.186  1.00  0.00     0.023 C 
BRANCH  25  26
ATOM     26  C   UNL A   1      32.076  31.303  26.874  1.00  0.00     0.023 C 
BRANCH  26  27
ATOM     27  C   UNL A   1      33.082  32.284  27.463  1.00  0.00     0.116 C 
BRANCH  27  28
ATOM     28  N   UNL A   1      32.561  33.634  27.654  1.00  0.00    -0.352 N 
ATOM     29  C   UNL A   1      33.043  34.622  28.485  1.00  0.00     0.251 C 
ATOM     30  H   UNL A   1      31.766  33.869  27.122  1.00  0.00     0.163 HD
ATOM     31  O   UNL A   1      32.480  35.708  28.569  1.00  0.00    -0.269 OA
BRANCH  29  32
ATOM     32  C   UNL A   1      34.207  34.312  29.339  1.00  0.00     0.039 A 
ATOM     33  C   UNL A   1      33.984  33.701  30.576  1.00  0.00     0.014 A 
ATOM     34  C   UNL A   1      35.504  34.478  28.850  1.00  0.00     0.014 A 
ATOM     35  C   UNL A   1      35.059  33.141  31.265  1.00  0.00     0.010 A 
ATOM     36  C   UNL A   1      36.560  33.847  29.496  1.00  0.00     0.010 A 
ATOM     37  C   UNL A   1      36.342  33.148  30.693  1.00  0.00    -0.014 A 
BRANCH  37  38
ATOM     38  C   UNL A   1      37.459  32.380  31.301  1.00  0.00     0.031 A 
ATOM     39  C   UNL A   1      37.972  32.743  32.664  1.00  0.00     0.074 A 
ATOM     40  C   UNL A   1      38.075  31.423  30.578  1.00  0.00     0.049 A 
ATOM     41  N   UNL A   1      38.993  32.253  33.319  1.00  0.00    -0.248 NA
ATOM     42  C   UNL A   1      37.266  33.824  33.368  1.00  0.00     0.031 C 
ATOM     43  C   UNL A   1      37.723  31.033  29.211  1.00  0.00     0.029 A 
ATOM     44  N   UNL A   1      39.140  30.613  30.887  1.00  0.00    -0.354 N 
ATOM     45  C   UNL A   1      39.067  32.982  34.497  1.00  0.00     0.074 A 
ATOM     46  C   UNL A   1      38.018  33.977  34.448  1.00  0.00     0.031 C 
ATOM     47  C   UNL A   1      38.537  30.043  28.810  1.00  0.00     0.029 A 
ATOM     48  C   UNL A   1      39.489  29.749  29.876  1.00  0.00     0.049 A 
ATOM     49  H   UNL A   1      39.609  30.647  31.752  1.00  0.00     0.167 HD
ATOM     50  C   UNL A   1      39.918  32.819  35.538  1.00  0.00     0.037 A 
ATOM     51  C   UNL A   1      40.467  28.826  29.818  1.00  0.00     0.037 A 
ATOM     52  C   UNL A   1      40.930  31.800  35.605  1.00  0.00     0.049 A 
ATOM     53  C   UNL A   1      41.364  28.632  31.009  1.00  0.00     0.074 A 
ATOM     54  C   UNL A   1      41.790  31.506  36.648  1.00  0.00     0.029 A 
ATOM     55  N   UNL A   1      41.213  30.903  34.586  1.00  0.00    -0.354 N 
ATOM     56  N   UNL A   1      41.372  29.274  32.151  1.00  0.00    -0.248 NA
ATOM     57  C   UNL A   1      42.384  27.577  30.906  1.00  0.00     0.031 C 
ATOM     58  C   UNL A   1      42.612  30.446  36.250  1.00  0.00     0.029 A 
ATOM     59  C   UNL A   1      42.241  30.060  34.973  1.00  0.00     0.049 A 
ATOM     60  H   UNL A   1      40.751  30.870  33.717  1.00  0.00     0.167 HD
ATOM     61  C   UNL A   1      42.375  28.688  32.911  1.00  0.00     0.074 A 
ATOM     62  C   UNL A   1      42.946  27.629  32.105  1.00  0.00     0.031 C 
ATOM     63  C   UNL A   1      42.785  29.000  34.164  1.00  0.00     0.037 A 
BRANCH  50  64
ATOM     64  C   UNL A   1      39.778  33.760  36.697  1.00  0.00     0.064 A 
ATOM     65  C   UNL A   1      40.447  34.992  36.723  1.00  0.00     0.173 A 
ATOM     66  C   UNL A   1      38.943  33.441  37.777  1.00  0.00     0.173 A 
ATOM     67  F   UNL A   1      41.269  35.335  35.720  1.00  0.00    -0.203 F 
ATOM     68  C   UNL A   1      40.306  35.860  37.802  1.00  0.00     0.198 A 
ATOM     69  C   UNL A   1      38.784  34.323  38.843  1.00  0.00     0.198 A 
ATOM     70  F   UNL A   1      38.279  32.275  37.798  1.00  0.00    -0.203 F 
ATOM     71  F   UNL A   1      40.992  37.012  37.827  1.00  0.00    -0.200 F 
ATOM     72  C   UNL A   1      39.470  35.528  38.858  1.00  0.00     0.200 A 
ATOM     73  F   UNL A   1      37.969  34.005  39.858  1.00  0.00    -0.200 F 
ATOM     74  F   UNL A   1      39.332  36.366  39.893  1.00  0.00    -0.200 F 
ENDBRANCH  50  64
BRANCH  51  75
ATOM     75  C   UNL A   1      40.625  27.986  28.603  1.00  0.00     0.064 A 
ATOM     76  C   UNL A   1      41.421  28.420  27.533  1.00  0.00     0.173 A 
ATOM     77  C   UNL A   1      39.983  26.747  28.480  1.00  0.00     0.173 A 
ATOM     78  F   UNL A   1      42.038  29.609  27.597  1.00  0.00    -0.203 F 
ATOM     79  C   UNL A   1      41.552  27.655  26.376  1.00  0.00     0.198 A 
ATOM     80  C   UNL A   1      40.133  25.971  27.331  1.00  0.00     0.198 A 
ATOM     81  F   UNL A   1      39.216  26.286  29.479  1.00  0.00    -0.203 F 
ATOM     82  F   UNL A   1      42.283  28.113  25.352  1.00  0.00    -0.200 F 
ATOM     83  C   UNL A   1      40.911  26.429  26.279  1.00  0.00     0.200 A 
ATOM     84  F   UNL A   1      39.523  24.781  27.245  1.00  0.00    -0.200 F 
ATOM     85  F   UNL A   1      41.037  25.692  25.165  1.00  0.00    -0.200 F 
ENDBRANCH  51  75
BRANCH  63  86
ATOM     86  C   UNL A   1      43.880  28.167  34.754  1.00  0.00     0.064 A 
ATOM     87  C   UNL A   1      45.224  28.555  34.669  1.00  0.00     0.173 A 
ATOM     88  C   UNL A   1      43.574  26.990  35.456  1.00  0.00     0.173 A 
ATOM     89  F   UNL A   1      45.565  29.663  33.996  1.00  0.00    -0.203 F 
ATOM     90  C   UNL A   1      46.227  27.785  35.252  1.00  0.00     0.198 A 
ATOM     91  C   UNL A   1      44.578  26.236  36.057  1.00  0.00     0.198 A 
ATOM     92  F   UNL A   1      42.301  26.581  35.567  1.00  0.00    -0.203 F 
ATOM     93  F   UNL A   1      47.510  28.154  35.128  1.00  0.00    -0.200 F 
ATOM     94  C   UNL A   1      45.903  26.630  35.950  1.00  0.00     0.200 A 
ATOM     95  F   UNL A   1      44.261  25.126  36.738  1.00  0.00    -0.200 F 
ATOM     96  F   UNL A   1      46.869  25.896  36.517  1.00  0.00    -0.200 F 
ENDBRANCH  63  86
ENDBRANCH  37  38
ENDBRANCH  29  32
ENDBRANCH  27  28
ENDBRANCH  26  27
ENDBRANCH  25  26
ENDBRANCH   1  25
TORSDOF 15
ENDMDL
MODEL 2
REMARK VINA RESULT:     -11.8      0.989      7.489
REMARK SMILES C[C@@H]1CN(C(=O)C[N@H+]2CCO[C@H](CC(=O)NCCCCNC(=O)c3ccc(-c4c5nc(c(-c6c(F)c(F)c(F)c(F)c6F)c6ccc([nH]6)c(-c6c(F)c(F)c(F)c(F)c6F)c6nc(c(-c7c(F)c(F)c(F)c(F)c7F)c7ccc4[nH]7)C=C6)C=C5)cc3)C2)C[C@H](C)O1
REMARK SMILES IDX 17 1 16 2 14 3 15 4 13 6 12 7 8 8 9 9 87 10 10 12 11 13 7 14
REMARK SMILES IDX 5 15 6 16 4 17 1 18 2 19 3 20 91 21 89 22 88 23 90 24 18 25
REMARK SMILES IDX 19 26 20 27 21 28 22 29 23 31 24 32 25 33 86 34 26 35 85 36
REMARK SMILES IDX 27 37 28 38 29 39 79 40 30 41 84 42 78 43 80 44 31 45 83 46
REMARK SMILES IDX 77 47 76 48 32 50 64 51 44 52 63 53 45 54 48 55 62 56 81 57
REMARK SMILES IDX 46 58 47 59 61 61 82 62 49 63 33 64 34 65 42 66 35 67 36 68
REMARK SMILES IDX 40 69 43 70 37 71 38 72 41 73 39 74 65 75 66 76 74 77 67 78
REMARK SMILES IDX 68 79 72 80 75 81 69 82 70 83 73 84 71 85 50 86 51 87 59 88
REMARK SMILES IDX 52 89 53 90 57 91 60 92 54 93 55 94 58 95 56 96
REMARK H PARENT 16 5 8 11 21 30 80 49 48 60
REMARK Flexibility Score: inf
ROOT
ATOM      1  C   UNL A   1      31.436  29.627  25.140  1.00  0.00     0.116 C 
ENDROOT
BRANCH   1   2
ATOM      2  N   UNL A   1      30.854  29.863  23.835  1.00  0.00    -0.356 N 
ATOM      3  C   UNL A   1      30.199  29.028  22.982  1.00  0.00     0.222 C 
ATOM      4  O   UNL A   1      29.849  29.500  21.897  1.00  0.00    -0.275 OA
ATOM      5  H   UNL A   1      30.946  30.787  23.508  1.00  0.00     0.163 HD
BRANCH   3   6
ATOM      6  C   UNL A   1      29.793  27.619  23.372  1.00  0.00     0.138 C 
BRANCH   6   7
ATOM      7  C   UNL A   1      30.679  26.436  22.952  1.00  0.00     0.182 C 
ATOM      8  N   UNL A   1      32.186  24.614  23.947  1.00  0.00    -0.323 N 
ATOM      9  C   UNL A   1      33.100  24.922  22.828  1.00  0.00     0.291 C 
ATOM     10  C   UNL A   1      31.304  25.765  24.177  1.00  0.00     0.295 C 
ATOM     11  H   UNL A   1      32.740  24.463  24.789  1.00  0.00     0.348 HD
ATOM     12  C   UNL A   1      32.452  25.647  21.626  1.00  0.00     0.222 C 
ATOM     13  O   UNL A   1      31.703  26.806  22.029  1.00  0.00    -0.366 OA
BRANCH   8  14
ATOM     14  C   UNL A   1      31.464  23.337  23.778  1.00  0.00     0.363 C 
BRANCH  14  15
ATOM     15  C   UNL A   1      32.415  22.166  23.451  1.00  0.00     0.277 C 
ATOM     16  O   UNL A   1      32.249  21.541  22.397  1.00  0.00    -0.268 OA
BRANCH  15  17
ATOM     17  N   UNL A   1      33.371  21.776  24.381  1.00  0.00    -0.333 N 
ATOM     18  C   UNL A   1      35.669  23.743  25.828  1.00  0.00     0.040 C 
ATOM     19  C   UNL A   1      35.548  22.251  25.547  1.00  0.00     0.135 C 
ATOM     20  C   UNL A   1      34.816  21.916  24.230  1.00  0.00     0.151 C 
ATOM     21  O   UNL A   1      35.066  21.538  26.695  1.00  0.00    -0.372 OA
ATOM     22  C   UNL A   1      33.645  21.390  26.824  1.00  0.00     0.135 C 
ATOM     23  C   UNL A   1      32.968  20.949  25.516  1.00  0.00     0.151 C 
ATOM     24  C   UNL A   1      32.988  22.607  27.474  1.00  0.00     0.040 C 
ENDBRANCH  15  17
ENDBRANCH  14  15
ENDBRANCH   8  14
ENDBRANCH   6   7
ENDBRANCH   3   6
ENDBRANCH   1   2
BRANCH   1  25
ATOM     25  C   UNL A   1      31.625  30.950  25.895  1.00  0.00     0.023 C 
BRANCH  25  26
ATOM     26  C   UNL A   1      32.445  30.839  27.175  1.00  0.00     0.023 C 
BRANCH  26  27
ATOM     27  C   UNL A   1      33.390  32.015  27.391  1.00  0.00     0.116 C 
BRANCH  27  28
ATOM     28  N   UNL A   1      32.720  33.302  27.549  1.00  0.00    -0.352 N 
ATOM     29  C   UNL A   1      33.070  34.347  28.375  1.00  0.00     0.251 C 
ATOM     30  H   UNL A   1      31.917  33.440  26.994  1.00  0.00     0.163 HD
ATOM     31  O   UNL A   1      32.389  35.366  28.429  1.00  0.00    -0.269 OA
BRANCH  29  32
ATOM     32  C   UNL A   1      34.239  34.178  29.261  1.00  0.00     0.039 A 
ATOM     33  C   UNL A   1      34.040  33.637  30.533  1.00  0.00     0.014 A 
ATOM     34  C   UNL A   1      35.529  34.402  28.776  1.00  0.00     0.014 A 
ATOM     35  C   UNL A   1      35.141  33.201  31.270  1.00  0.00     0.010 A 
ATOM     36  C   UNL A   1      36.616  33.892  29.473  1.00  0.00     0.010 A 
ATOM     37  C   UNL A   1      36.430  33.261  30.713  1.00  0.00    -0.014 A 
BRANCH  37  38
ATOM     38  C   UNL A   1      37.587  32.617  31.383  1.00  0.00     0.031 A 
ATOM     39  C   UNL A   1      38.292  31.463  30.731  1.00  0.00     0.074 A 
ATOM     40  C   UNL A   1      37.937  33.010  32.625  1.00  0.00     0.049 A 
ATOM     41  N   UNL A   1      39.259  30.715  31.199  1.00  0.00    -0.248 NA
ATOM     42  C   UNL A   1      37.823  31.075  29.392  1.00  0.00     0.031 C 
ATOM     43  C   UNL A   1      37.278  34.066  33.398  1.00  0.00     0.029 A 
ATOM     44  N   UNL A   1      38.924  32.555  33.464  1.00  0.00    -0.354 N 
ATOM     45  C   UNL A   1      39.495  29.756  30.225  1.00  0.00     0.074 A 
ATOM     46  C   UNL A   1      38.542  29.986  29.161  1.00  0.00     0.031 C 
ATOM     47  C   UNL A   1      37.895  34.195  34.584  1.00  0.00     0.029 A 
ATOM     48  C   UNL A   1      38.970  33.212  34.670  1.00  0.00     0.049 A 
ATOM     49  H   UNL A   1      39.541  31.826  33.224  1.00  0.00     0.167 HD
ATOM     50  C   UNL A   1      40.439  28.785  30.209  1.00  0.00     0.037 A 
ATOM     51  C   UNL A   1      39.789  33.040  35.725  1.00  0.00     0.037 A 
ATOM     52  C   UNL A   1      41.415  28.587  31.245  1.00  0.00     0.049 A 
ATOM     53  C   UNL A   1      40.861  31.989  35.658  1.00  0.00     0.074 A 
ATOM     54  C   UNL A   1      42.460  27.681  31.285  1.00  0.00     0.029 A 
ATOM     55  N   UNL A   1      41.469  29.313  32.426  1.00  0.00    -0.354 N 
ATOM     56  N   UNL A   1      41.127  31.140  34.696  1.00  0.00    -0.248 NA
ATOM     57  C   UNL A   1      41.755  31.878  36.821  1.00  0.00     0.031 C 
ATOM     58  C   UNL A   1      43.132  27.841  32.501  1.00  0.00     0.029 A 
ATOM     59  C   UNL A   1      42.525  28.870  33.204  1.00  0.00     0.049 A 
ATOM     60  H   UNL A   1      40.850  30.037  32.673  1.00  0.00     0.167 HD
ATOM     61  C   UNL A   1      42.229  30.413  35.123  1.00  0.00     0.074 A 
ATOM     62  C   UNL A   1      42.592  30.929  36.426  1.00  0.00     0.031 C 
ATOM     63  C   UNL A   1      42.882  29.408  34.491  1.00  0.00     0.037 A 
BRANCH  50  64
ATOM     64  C   UNL A   1      40.468  27.872  29.020  1.00  0.00     0.064 A 
ATOM     65  C   UNL A   1      39.689  26.707  28.974  1.00  0.00     0.173 A 
ATOM     66  C   UNL A   1      41.259  28.179  27.904  1.00  0.00     0.173 A 
ATOM     67  F   UNL A   1      38.927  26.363  30.024  1.00  0.00    -0.203 F 
ATOM     68  C   UNL A   1      39.720  25.868  27.864  1.00  0.00     0.198 A 
ATOM     69  C   UNL A   1      41.268  27.352  26.784  1.00  0.00     0.198 A 
ATOM     70  F   UNL A   1      42.021  29.283  27.898  1.00  0.00    -0.203 F 
ATOM     71  F   UNL A   1      39.002  24.736  27.861  1.00  0.00    -0.200 F 
ATOM     72  C   UNL A   1      40.504  26.194  26.767  1.00  0.00     0.200 A 
ATOM     73  F   UNL A   1      42.020  27.673  25.721  1.00  0.00    -0.200 F 
ATOM     74  F   UNL A   1      40.530  25.389  25.698  1.00  0.00    -0.200 F 
ENDBRANCH  50  64
BRANCH  51  75
ATOM     75  C   UNL A   1      39.651  33.909  36.922  1.00  0.00     0.064 A 
ATOM     76  C   UNL A   1      38.885  33.497  38.022  1.00  0.00     0.173 A 
ATOM     77  C   UNL A   1      40.269  35.166  36.990  1.00  0.00     0.173 A 
ATOM     78  F   UNL A   1      38.258  32.311  37.993  1.00  0.00    -0.203 F 
ATOM     79  C   UNL A   1      38.724  34.317  39.136  1.00  0.00     0.198 A 
ATOM     80  C   UNL A   1      40.127  35.976  38.116  1.00  0.00     0.198 A 
ATOM     81  F   UNL A   1      41.017  35.602  35.967  1.00  0.00    -0.203 F 
ATOM     82  F   UNL A   1      37.952  33.917  40.154  1.00  0.00    -0.200 F 
ATOM     83  C   UNL A   1      39.349  35.554  39.183  1.00  0.00     0.200 A 
ATOM     84  F   UNL A   1      40.741  37.165  38.164  1.00  0.00    -0.200 F 
ATOM     85  F   UNL A   1      39.194  36.343  40.256  1.00  0.00    -0.200 F 
ENDBRANCH  51  75
BRANCH  63  86
ATOM     86  C   UNL A   1      44.074  28.822  35.183  1.00  0.00     0.064 A 
ATOM     87  C   UNL A   1      43.950  27.750  36.077  1.00  0.00     0.173 A 
ATOM     88  C   UNL A   1      45.361  29.310  34.909  1.00  0.00     0.173 A 
ATOM     89  F   UNL A   1      42.739  27.262  36.380  1.00  0.00    -0.203 F 
ATOM     90  C   UNL A   1      45.073  27.197  36.687  1.00  0.00     0.198 A 
ATOM     91  C   UNL A   1      46.483  28.739  35.503  1.00  0.00     0.198 A 
ATOM     92  F   UNL A   1      45.530  30.332  34.057  1.00  0.00    -0.203 F 
ATOM     93  F   UNL A   1      44.929  26.196  37.567  1.00  0.00    -0.200 F 
ATOM     94  C   UNL A   1      46.338  27.687  36.395  1.00  0.00     0.200 A 
ATOM     95  F   UNL A   1      47.704  29.208  35.212  1.00  0.00    -0.200 F 
ATOM     96  F   UNL A   1      47.417  27.148  36.977  1.00  0.00    -0.200 F 
ENDBRANCH  63  86
ENDBRANCH  37  38
ENDBRANCH  29  32
ENDBRANCH  27  28
ENDBRANCH  26  27
ENDBRANCH  25  26
ENDBRANCH   1  25
TORSDOF 15
ENDMDL
MODEL 3
REMARK VINA RESULT:     -11.8      0.916      2.001
REMARK SMILES C[C@@H]1CN(C(=O)C[N@H+]2CCO[C@H](CC(=O)NCCCCNC(=O)c3ccc(-c4c5nc(c(-c6c(F)c(F)c(F)c(F)c6F)c6ccc([nH]6)c(-c6c(F)c(F)c(F)c(F)c6F)c6nc(c(-c7c(F)c(F)c(F)c(F)c7F)c7ccc4[nH]7)C=C6)C=C5)cc3)C2)C[C@H](C)O1
REMARK SMILES IDX 17 1 16 2 14 3 15 4 13 6 12 7 8 8 9 9 87 10 10 12 11 13 7 14
REMARK SMILES IDX 5 15 6 16 4 17 1 18 2 19 3 20 91 21 89 22 88 23 90 24 18 25
REMARK SMILES IDX 19 26 20 27 21 28 22 29 23 31 24 32 25 33 86 34 26 35 85 36
REMARK SMILES IDX 27 37 28 38 29 39 79 40 30 41 84 42 78 43 80 44 31 45 83 46
REMARK SMILES IDX 77 47 76 48 32 50 64 51 44 52 63 53 45 54 48 55 62 56 81 57
REMARK SMILES IDX 46 58 47 59 61 61 82 62 49 63 33 64 34 65 42 66 35 67 36 68
REMARK SMILES IDX 40 69 43 70 37 71 38 72 41 73 39 74 65 75 66 76 74 77 67 78
REMARK SMILES IDX 68 79 72 80 75 81 69 82 70 83 73 84 71 85 50 86 51 87 59 88
REMARK SMILES IDX 52 89 53 90 57 91 60 92 54 93 55 94 58 95 56 96
REMARK H PARENT 16 5 8 11 21 30 80 49 48 60
REMARK Flexibility Score: inf
ROOT
ATOM      1  C   UNL A   1      33.409  29.638  26.778  1.00  0.00     0.116 C 
ENDROOT
BRANCH   1   2
ATOM      2  N   UNL A   1      33.723  29.604  25.365  1.00  0.00    -0.356 N 
ATOM      3  C   UNL A   1      32.957  29.293  24.284  1.00  0.00     0.222 C 
ATOM      4  O   UNL A   1      33.514  29.302  23.183  1.00  0.00    -0.275 OA
ATOM      5  H   UNL A   1      34.652  29.849  25.148  1.00  0.00     0.163 HD
BRANCH   3   6
ATOM      6  C   UNL A   1      31.460  29.068  24.384  1.00  0.00     0.138 C 
BRANCH   6   7
ATOM      7  C   UNL A   1      30.925  27.646  24.610  1.00  0.00     0.182 C 
ATOM      8  N   UNL A   1      31.730  25.260  25.105  1.00  0.00    -0.323 N 
ATOM      9  C   UNL A   1      30.723  24.838  24.109  1.00  0.00     0.291 C 
ATOM     10  C   UNL A   1      32.073  26.669  24.872  1.00  0.00     0.295 C 
ATOM     11  H   UNL A   1      32.572  24.701  24.975  1.00  0.00     0.348 HD
ATOM     12  C   UNL A   1      29.603  25.866  23.825  1.00  0.00     0.222 C 
ATOM     13  O   UNL A   1      30.126  27.172  23.524  1.00  0.00    -0.366 OA
BRANCH   8  14
ATOM     14  C   UNL A   1      31.336  24.967  26.496  1.00  0.00     0.363 C 
BRANCH  14  15
ATOM     15  C   UNL A   1      31.442  23.463  26.831  1.00  0.00     0.277 C 
ATOM     16  O   UNL A   1      30.607  22.962  27.591  1.00  0.00    -0.268 OA
BRANCH  15  17
ATOM     17  N   UNL A   1      32.520  22.728  26.353  1.00  0.00    -0.333 N 
ATOM     18  C   UNL A   1      33.578  22.571  23.174  1.00  0.00     0.040 C 
ATOM     19  C   UNL A   1      33.696  21.671  24.397  1.00  0.00     0.135 C 
ATOM     20  C   UNL A   1      32.459  21.697  25.320  1.00  0.00     0.151 C 
ATOM     21  O   UNL A   1      34.948  21.862  25.071  1.00  0.00    -0.372 OA
ATOM     22  C   UNL A   1      34.991  22.865  26.097  1.00  0.00     0.135 C 
ATOM     23  C   UNL A   1      33.796  22.787  27.061  1.00  0.00     0.151 C 
ATOM     24  C   UNL A   1      35.235  24.264  25.535  1.00  0.00     0.040 C 
ENDBRANCH  15  17
ENDBRANCH  14  15
ENDBRANCH   8  14
ENDBRANCH   6   7
ENDBRANCH   3   6
ENDBRANCH   1   2
BRANCH   1  25
ATOM     25  C   UNL A   1      32.098  30.398  27.023  1.00  0.00     0.023 C 
BRANCH  25  26
ATOM     26  C   UNL A   1      32.140  31.874  26.644  1.00  0.00     0.023 C 
BRANCH  26  27
ATOM     27  C   UNL A   1      33.003  32.713  27.578  1.00  0.00     0.116 C 
BRANCH  27  28
ATOM     28  N   UNL A   1      32.505  34.067  27.799  1.00  0.00    -0.352 N 
ATOM     29  C   UNL A   1      33.013  35.034  28.638  1.00  0.00     0.251 C 
ATOM     30  H   UNL A   1      31.705  34.322  27.282  1.00  0.00     0.163 HD
ATOM     31  O   UNL A   1      32.467  36.128  28.748  1.00  0.00    -0.269 OA
BRANCH  29  32
ATOM     32  C   UNL A   1      34.184  34.693  29.470  1.00  0.00     0.039 A 
ATOM     33  C   UNL A   1      33.966  34.145  30.737  1.00  0.00     0.014 A 
ATOM     34  C   UNL A   1      35.472  34.767  28.938  1.00  0.00     0.014 A 
ATOM     35  C   UNL A   1      35.030  33.553  31.417  1.00  0.00     0.010 A 
ATOM     36  C   UNL A   1      36.511  34.104  29.577  1.00  0.00     0.010 A 
ATOM     37  C   UNL A   1      36.294  33.466  30.809  1.00  0.00    -0.014 A 
BRANCH  37  38
ATOM     38  C   UNL A   1      37.385  32.662  31.414  1.00  0.00     0.031 A 
ATOM     39  C   UNL A   1      37.898  32.995  32.785  1.00  0.00     0.074 A 
ATOM     40  C   UNL A   1      37.980  31.696  30.685  1.00  0.00     0.049 A 
ATOM     41  N   UNL A   1      38.901  32.470  33.441  1.00  0.00    -0.248 NA
ATOM     42  C   UNL A   1      37.216  34.086  33.497  1.00  0.00     0.031 C 
ATOM     43  C   UNL A   1      37.627  31.332  29.310  1.00  0.00     0.029 A 
ATOM     44  N   UNL A   1      39.020  30.854  30.991  1.00  0.00    -0.354 N 
ATOM     45  C   UNL A   1      38.986  33.182  34.629  1.00  0.00     0.074 A 
ATOM     46  C   UNL A   1      37.965  34.206  34.584  1.00  0.00     0.031 C 
ATOM     47  C   UNL A   1      38.417  30.325  28.903  1.00  0.00     0.029 A 
ATOM     48  C   UNL A   1      39.353  29.993  29.973  1.00  0.00     0.049 A 
ATOM     49  H   UNL A   1      39.484  30.866  31.860  1.00  0.00     0.167 HD
ATOM     50  C   UNL A   1      39.825  32.985  35.672  1.00  0.00     0.037 A 
ATOM     51  C   UNL A   1      40.306  29.044  29.910  1.00  0.00     0.037 A 
ATOM     52  C   UNL A   1      40.809  31.938  35.735  1.00  0.00     0.049 A 
ATOM     53  C   UNL A   1      41.190  28.812  31.104  1.00  0.00     0.074 A 
ATOM     54  C   UNL A   1      41.654  31.608  36.780  1.00  0.00     0.029 A 
ATOM     55  N   UNL A   1      41.075  31.046  34.707  1.00  0.00    -0.354 N 
ATOM     56  N   UNL A   1      41.207  29.441  32.254  1.00  0.00    -0.248 NA
ATOM     57  C   UNL A   1      42.181  27.732  30.996  1.00  0.00     0.031 C 
ATOM     58  C   UNL A   1      42.450  30.532  36.375  1.00  0.00     0.029 A 
ATOM     59  C   UNL A   1      42.077  30.170  35.091  1.00  0.00     0.049 A 
ATOM     60  H   UNL A   1      40.619  31.035  33.834  1.00  0.00     0.167 HD
ATOM     61  C   UNL A   1      42.188  28.819  33.014  1.00  0.00     0.074 A 
ATOM     62  C   UNL A   1      42.737  27.755  32.199  1.00  0.00     0.031 C 
ATOM     63  C   UNL A   1      42.598  29.106  34.273  1.00  0.00     0.037 A 
BRANCH  50  64
ATOM     64  C   UNL A   1      39.703  33.916  36.842  1.00  0.00     0.064 A 
ATOM     65  C   UNL A   1      40.359  35.155  36.861  1.00  0.00     0.173 A 
ATOM     66  C   UNL A   1      38.897  33.579  37.939  1.00  0.00     0.173 A 
ATOM     67  F   UNL A   1      41.151  35.515  35.841  1.00  0.00    -0.203 F 
ATOM     68  C   UNL A   1      40.234  36.014  37.949  1.00  0.00     0.198 A 
ATOM     69  C   UNL A   1      38.754  34.452  39.015  1.00  0.00     0.198 A 
ATOM     70  F   UNL A   1      38.248  32.406  37.967  1.00  0.00    -0.203 F 
ATOM     71  F   UNL A   1      40.906  37.173  37.967  1.00  0.00    -0.200 F 
ATOM     72  C   UNL A   1      39.427  35.664  39.022  1.00  0.00     0.200 A 
ATOM     73  F   UNL A   1      37.968  34.117  40.047  1.00  0.00    -0.200 F 
ATOM     74  F   UNL A   1      39.305  36.493  40.067  1.00  0.00    -0.200 F 
ENDBRANCH  50  64
BRANCH  51  75
ATOM     75  C   UNL A   1      40.451  28.215  28.686  1.00  0.00     0.064 A 
ATOM     76  C   UNL A   1      39.773  26.993  28.565  1.00  0.00     0.173 A 
ATOM     77  C   UNL A   1      41.269  28.617  27.622  1.00  0.00     0.173 A 
ATOM     78  F   UNL A   1      38.994  26.559  29.568  1.00  0.00    -0.203 F 
ATOM     79  C   UNL A   1      39.925  26.194  27.435  1.00  0.00     0.198 A 
ATOM     80  C   UNL A   1      41.403  27.827  26.481  1.00  0.00     0.198 A 
ATOM     81  F   UNL A   1      41.933  29.780  27.688  1.00  0.00    -0.203 F 
ATOM     82  F   UNL A   1      39.301  25.011  27.364  1.00  0.00    -0.200 F 
ATOM     83  C   UNL A   1      40.737  26.614  26.392  1.00  0.00     0.200 A 
ATOM     84  F   UNL A   1      42.178  28.241  25.470  1.00  0.00    -0.200 F 
ATOM     85  F   UNL A   1      40.883  25.845  25.304  1.00  0.00    -0.200 F 
ENDBRANCH  51  75
BRANCH  63  86
ATOM     86  C   UNL A   1      43.666  28.236  34.861  1.00  0.00     0.064 A 
ATOM     87  C   UNL A   1      43.355  27.050  35.540  1.00  0.00     0.173 A 
ATOM     88  C   UNL A   1      45.019  28.571  34.700  1.00  0.00     0.173 A 
ATOM     89  F   UNL A   1      42.076  26.698  35.730  1.00  0.00    -0.203 F 
ATOM     90  C   UNL A   1      44.362  26.236  36.051  1.00  0.00     0.198 A 
ATOM     91  C   UNL A   1      46.024  27.744  35.193  1.00  0.00     0.198 A 
ATOM     92  F   UNL A   1      45.366  29.695  34.054  1.00  0.00    -0.203 F 
ATOM     93  F   UNL A   1      44.043  25.125  36.729  1.00  0.00    -0.200 F 
ATOM     94  C   UNL A   1      45.695  26.580  35.873  1.00  0.00     0.200 A 
ATOM     95  F   UNL A   1      47.310  28.073  35.011  1.00  0.00    -0.200 F 
ATOM     96  F   UNL A   1      46.662  25.792  36.359  1.00  0.00    -0.200 F 
ENDBRANCH  63  86
ENDBRANCH  37  38
ENDBRANCH  29  32
ENDBRANCH  27  28
ENDBRANCH  26  27
ENDBRANCH  25  26
ENDBRANCH   1  25
TORSDOF 15
ENDMDL
