MODEL 1
REMARK VINA RESULT:     -12.2      0.000      0.000
REMARK SMILES O=C(NCCCCNC(=O)[C@@H](CO)N1C(=O)c2c(Cl)c(Cl)c(Cl)c(Cl)c2C1=O)c1ccc(-c2c3nc(c(-c4c(F)c(F)c(F)c(F)c4F)c4ccc([nH]4)c(-c4c(F)c(F)c(F)c(F)c4F)c4nc(c(-c5c(F)c(F)c(F)c(F)c5F)c5ccc2[nH]5)C=C4)C=C3)cc1
REMARK SMILES IDX 5 1 4 2 3 3 1 4 2 5 29 7 30 8 91 9 31 10 90 11 32 12 33 13
REMARK SMILES IDX 34 14 84 15 35 16 89 17 83 18 85 19 36 20 88 21 82 22 81 23
REMARK SMILES IDX 37 25 69 26 49 27 68 28 50 29 53 30 67 31 86 32 51 33 52 34
REMARK SMILES IDX 66 36 87 37 54 38 38 39 39 40 47 41 40 42 41 43 45 44 48 45
REMARK SMILES IDX 42 46 43 47 46 48 44 49 70 50 71 51 79 52 72 53 73 54 77 55
REMARK SMILES IDX 80 56 74 57 75 58 78 59 76 60 55 61 56 62 64 63 57 64 58 65
REMARK SMILES IDX 62 66 65 67 59 68 60 69 63 70 61 71 6 72 7 73 8 74 9 75
REMARK SMILES IDX 10 77 11 78 12 79 13 80 14 82 15 83 27 84 16 85 17 86 26 87
REMARK SMILES IDX 28 88 18 89 24 90 19 91 20 92 22 93 25 94 21 95 23 96
REMARK H PARENT 3 6 85 24 53 35 8 76 13 81
REMARK Flexibility Score: inf
ROOT
ATOM      1  C   UNL A   1      31.147  31.829  26.558  1.00  0.00     0.023 C 
ENDROOT
BRANCH   1   2
ATOM      2  C   UNL A   1      32.485  32.476  26.879  1.00  0.00     0.116 C 
BRANCH   2   3
ATOM      3  N   UNL A   1      32.346  33.844  27.363  1.00  0.00    -0.352 N 
ATOM      4  O   UNL A   1      32.726  35.583  28.759  1.00  0.00    -0.269 OA
ATOM      5  C   UNL A   1      33.060  34.477  28.352  1.00  0.00     0.251 C 
ATOM      6  H   UNL A   1      31.650  34.384  26.924  1.00  0.00     0.163 HD
BRANCH   5   7
ATOM      7  C   UNL A   1      34.226  33.787  28.935  1.00  0.00     0.039 A 
ATOM      8  C   UNL A   1      34.033  32.673  29.754  1.00  0.00     0.014 A 
ATOM      9  C   UNL A   1      35.509  34.285  28.700  1.00  0.00     0.014 A 
ATOM     10  C   UNL A   1      35.107  32.147  30.457  1.00  0.00     0.010 A 
ATOM     11  C   UNL A   1      36.603  33.691  29.333  1.00  0.00     0.010 A 
ATOM     12  C   UNL A   1      36.406  32.634  30.236  1.00  0.00    -0.014 A 
BRANCH  12  13
ATOM     13  C   UNL A   1      37.546  31.954  30.895  1.00  0.00     0.031 A 
ATOM     14  C   UNL A   1      38.363  30.918  30.178  1.00  0.00     0.074 A 
ATOM     15  C   UNL A   1      37.851  32.313  32.158  1.00  0.00     0.049 A 
ATOM     16  N   UNL A   1      39.389  30.233  30.617  1.00  0.00    -0.248 NA
ATOM     17  C   UNL A   1      37.981  30.603  28.793  1.00  0.00     0.031 C 
ATOM     18  C   UNL A   1      37.113  33.301  32.951  1.00  0.00     0.029 A 
ATOM     19  N   UNL A   1      38.860  31.907  32.991  1.00  0.00    -0.354 N 
ATOM     20  C   UNL A   1      39.760  29.391  29.577  1.00  0.00     0.074 A 
ATOM     21  C   UNL A   1      38.840  29.639  28.487  1.00  0.00     0.031 C 
ATOM     22  C   UNL A   1      37.721  33.459  34.133  1.00  0.00     0.029 A 
ATOM     23  C   UNL A   1      38.843  32.533  34.213  1.00  0.00     0.049 A 
ATOM     24  H   UNL A   1      39.531  31.233  32.738  1.00  0.00     0.167 HD
ATOM     25  C   UNL A   1      40.780  28.500  29.542  1.00  0.00     0.037 A 
ATOM     26  C   UNL A   1      39.628  32.362  35.291  1.00  0.00     0.037 A 
ATOM     27  C   UNL A   1      41.701  28.280  30.628  1.00  0.00     0.049 A 
ATOM     28  C   UNL A   1      40.735  31.353  35.224  1.00  0.00     0.074 A 
ATOM     29  C   UNL A   1      42.793  27.429  30.675  1.00  0.00     0.029 A 
ATOM     30  N   UNL A   1      41.639  28.915  31.861  1.00  0.00    -0.354 N 
ATOM     31  N   UNL A   1      41.094  30.586  34.224  1.00  0.00    -0.248 NA
ATOM     32  C   UNL A   1      41.543  31.179  36.438  1.00  0.00     0.031 C 
ATOM     33  C   UNL A   1      43.360  27.513  31.951  1.00  0.00     0.029 A 
ATOM     34  C   UNL A   1      42.656  28.455  32.683  1.00  0.00     0.049 A 
ATOM     35  H   UNL A   1      40.971  29.592  32.114  1.00  0.00     0.167 HD
ATOM     36  C   UNL A   1      42.178  29.851  34.678  1.00  0.00     0.074 A 
ATOM     37  C   UNL A   1      42.433  30.283  36.039  1.00  0.00     0.031 C 
ATOM     38  C   UNL A   1      42.894  28.899  34.032  1.00  0.00     0.037 A 
BRANCH  25  39
ATOM     39  C   UNL A   1      40.955  27.675  28.300  1.00  0.00     0.064 A 
ATOM     40  C   UNL A   1      41.803  28.079  27.258  1.00  0.00     0.173 A 
ATOM     41  C   UNL A   1      40.330  26.423  28.187  1.00  0.00     0.173 A 
ATOM     42  F   UNL A   1      42.417  29.270  27.309  1.00  0.00    -0.203 F 
ATOM     43  C   UNL A   1      42.008  27.266  26.145  1.00  0.00     0.198 A 
ATOM     44  C   UNL A   1      40.557  25.602  27.086  1.00  0.00     0.198 A 
ATOM     45  F   UNL A   1      39.516  25.985  29.159  1.00  0.00    -0.203 F 
ATOM     46  F   UNL A   1      42.799  27.684  25.147  1.00  0.00    -0.200 F 
ATOM     47  C   UNL A   1      41.393  26.025  26.064  1.00  0.00     0.200 A 
ATOM     48  F   UNL A   1      39.972  24.397  27.017  1.00  0.00    -0.200 F 
ATOM     49  F   UNL A   1      41.605  25.237  25.001  1.00  0.00    -0.200 F 
ENDBRANCH  25  39
BRANCH  26  50
ATOM     50  C   UNL A   1      39.373  33.151  36.524  1.00  0.00     0.064 A 
ATOM     51  C   UNL A   1      38.462  32.706  37.491  1.00  0.00     0.173 A 
ATOM     52  C   UNL A   1      40.039  34.363  36.762  1.00  0.00     0.173 A 
ATOM     53  F   UNL A   1      37.789  31.562  37.301  1.00  0.00    -0.203 F 
ATOM     54  C   UNL A   1      38.213  33.453  38.640  1.00  0.00     0.198 A 
ATOM     55  C   UNL A   1      39.815  35.092  37.926  1.00  0.00     0.198 A 
ATOM     56  F   UNL A   1      40.927  34.828  35.870  1.00  0.00    -0.203 F 
ATOM     57  F   UNL A   1      37.302  33.030  39.527  1.00  0.00    -0.200 F 
ATOM     58  C   UNL A   1      38.894  34.642  38.859  1.00  0.00     0.200 A 
ATOM     59  F   UNL A   1      40.490  36.228  38.142  1.00  0.00    -0.200 F 
ATOM     60  F   UNL A   1      38.658  35.357  39.968  1.00  0.00    -0.200 F 
ENDBRANCH  26  50
BRANCH  38  61
ATOM     61  C   UNL A   1      44.038  28.285  34.783  1.00  0.00     0.064 A 
ATOM     62  C   UNL A   1      43.876  27.113  35.536  1.00  0.00     0.173 A 
ATOM     63  C   UNL A   1      45.313  28.868  34.734  1.00  0.00     0.173 A 
ATOM     64  F   UNL A   1      42.671  26.530  35.629  1.00  0.00    -0.203 F 
ATOM     65  C   UNL A   1      44.945  26.562  36.237  1.00  0.00     0.198 A 
ATOM     66  C   UNL A   1      46.386  28.296  35.411  1.00  0.00     0.198 A 
ATOM     67  F   UNL A   1      45.519  29.986  34.024  1.00  0.00    -0.203 F 
ATOM     68  F   UNL A   1      44.756  25.473  36.995  1.00  0.00    -0.200 F 
ATOM     69  C   UNL A   1      46.199  27.150  36.169  1.00  0.00     0.200 A 
ATOM     70  F   UNL A   1      47.600  28.859  35.335  1.00  0.00    -0.200 F 
ATOM     71  F   UNL A   1      47.228  26.617  36.843  1.00  0.00    -0.200 F 
ENDBRANCH  38  61
ENDBRANCH  12  13
ENDBRANCH   5   7
ENDBRANCH   2   3
ENDBRANCH   1   2
BRANCH   1  72
ATOM     72  C   UNL A   1      31.222  30.686  25.546  1.00  0.00     0.023 C 
BRANCH  72  73
ATOM     73  C   UNL A   1      32.511  29.873  25.622  1.00  0.00     0.116 C 
BRANCH  73  74
ATOM     74  N   UNL A   1      33.099  29.702  24.307  1.00  0.00    -0.354 N 
ATOM     75  C   UNL A   1      32.881  28.753  23.357  1.00  0.00     0.245 C 
ATOM     76  H   UNL A   1      33.766  30.383  24.063  1.00  0.00     0.163 HD
ATOM     77  O   UNL A   1      33.585  28.818  22.342  1.00  0.00    -0.273 OA
BRANCH  75  78
ATOM     78  C   UNL A   1      31.974  27.529  23.576  1.00  0.00     0.208 C 
BRANCH  78  79
ATOM     79  C   UNL A   1      31.241  27.271  22.236  1.00  0.00     0.191 C 
BRANCH  79  80
ATOM     80  O   UNL A   1      30.653  28.450  21.682  1.00  0.00    -0.394 OA
ATOM     81  H   UNL A   1      31.327  29.144  21.609  1.00  0.00     0.210 HD
ENDBRANCH  79  80
ENDBRANCH  78  79
BRANCH  78  82
ATOM     82  N   UNL A   1      32.587  26.331  24.169  1.00  0.00    -0.259 N 
ATOM     83  C   UNL A   1      31.977  25.531  25.091  1.00  0.00     0.264 C 
ATOM     84  C   UNL A   1      33.546  25.608  23.506  1.00  0.00     0.264 C 
ATOM     85  O   UNL A   1      30.890  25.666  25.619  1.00  0.00    -0.268 OA
ATOM     86  C   UNL A   1      32.823  24.354  25.280  1.00  0.00     0.075 A 
ATOM     87  C   UNL A   1      33.758  24.366  24.260  1.00  0.00     0.075 A 
ATOM     88  O   UNL A   1      34.056  25.847  22.433  1.00  0.00    -0.268 OA
ATOM     89  C   UNL A   1      32.768  23.337  26.218  1.00  0.00     0.074 A 
ATOM     90  C   UNL A   1      34.642  23.317  24.073  1.00  0.00     0.074 A 
ATOM     91  Cl  UNL A   1      31.659  23.423  27.539  1.00  0.00    -0.082 Cl
ATOM     92  C   UNL A   1      33.671  22.267  26.073  1.00  0.00     0.080 A 
ATOM     93  C   UNL A   1      34.591  22.247  24.990  1.00  0.00     0.080 A 
ATOM     94  Cl  UNL A   1      35.751  23.329  22.751  1.00  0.00    -0.082 Cl
ATOM     95  Cl  UNL A   1      33.654  20.964  27.228  1.00  0.00    -0.081 Cl
ATOM     96  Cl  UNL A   1      35.664  20.890  24.789  1.00  0.00    -0.081 Cl
ENDBRANCH  78  82
ENDBRANCH  75  78
ENDBRANCH  73  74
ENDBRANCH  72  73
ENDBRANCH   1  72
TORSDOF 14
ENDMDL
MODEL 2
REMARK VINA RESULT:     -12.2      0.266      7.328
REMARK SMILES O=C(NCCCCNC(=O)[C@@H](CO)N1C(=O)c2c(Cl)c(Cl)c(Cl)c(Cl)c2C1=O)c1ccc(-c2c3nc(c(-c4c(F)c(F)c(F)c(F)c4F)c4ccc([nH]4)c(-c4c(F)c(F)c(F)c(F)c4F)c4nc(c(-c5c(F)c(F)c(F)c(F)c5F)c5ccc2[nH]5)C=C4)C=C3)cc1
REMARK SMILES IDX 5 1 4 2 3 3 1 4 2 5 29 7 30 8 91 9 31 10 90 11 32 12 33 13
REMARK SMILES IDX 34 14 84 15 35 16 89 17 83 18 85 19 36 20 88 21 82 22 81 23
REMARK SMILES IDX 37 25 69 26 49 27 68 28 50 29 53 30 67 31 86 32 51 33 52 34
REMARK SMILES IDX 66 36 87 37 54 38 38 39 39 40 47 41 40 42 41 43 45 44 48 45
REMARK SMILES IDX 42 46 43 47 46 48 44 49 70 50 71 51 79 52 72 53 73 54 77 55
REMARK SMILES IDX 80 56 74 57 75 58 78 59 76 60 55 61 56 62 64 63 57 64 58 65
REMARK SMILES IDX 62 66 65 67 59 68 60 69 63 70 61 71 6 72 7 73 8 74 9 75
REMARK SMILES IDX 10 77 11 78 12 79 13 80 14 82 15 83 27 84 16 85 17 86 26 87
REMARK SMILES IDX 28 88 18 89 24 90 19 91 20 92 22 93 25 94 21 95 23 96
REMARK H PARENT 3 6 85 24 53 35 8 76 13 81
REMARK Flexibility Score: inf
ROOT
ATOM      1  C   UNL A   1      31.176  31.793  26.494  1.00  0.00     0.023 C 
ENDROOT
BRANCH   1   2
ATOM      2  C   UNL A   1      32.494  32.442  26.890  1.00  0.00     0.116 C 
BRANCH   2   3
ATOM      3  N   UNL A   1      32.329  33.812  27.356  1.00  0.00    -0.352 N 
ATOM      4  O   UNL A   1      32.673  35.576  28.731  1.00  0.00    -0.269 OA
ATOM      5  C   UNL A   1      33.028  34.470  28.339  1.00  0.00     0.251 C 
ATOM      6  H   UNL A   1      31.625  34.334  26.908  1.00  0.00     0.163 HD
BRANCH   5   7
ATOM      7  C   UNL A   1      34.204  33.808  28.934  1.00  0.00     0.039 A 
ATOM      8  C   UNL A   1      34.029  32.702  29.768  1.00  0.00     0.014 A 
ATOM      9  C   UNL A   1      35.479  34.326  28.697  1.00  0.00     0.014 A 
ATOM     10  C   UNL A   1      35.109  32.205  30.480  1.00  0.00     0.010 A 
ATOM     11  C   UNL A   1      36.581  33.760  29.340  1.00  0.00     0.010 A 
ATOM     12  C   UNL A   1      36.400  32.711  30.257  1.00  0.00    -0.014 A 
BRANCH  12  13
ATOM     13  C   UNL A   1      37.550  32.060  30.928  1.00  0.00     0.031 A 
ATOM     14  C   UNL A   1      37.953  32.427  32.327  1.00  0.00     0.074 A 
ATOM     15  C   UNL A   1      38.215  31.102  30.253  1.00  0.00     0.049 A 
ATOM     16  N   UNL A   1      38.935  31.951  33.051  1.00  0.00    -0.248 NA
ATOM     17  C   UNL A   1      37.160  33.464  33.004  1.00  0.00     0.031 C 
ATOM     18  C   UNL A   1      37.913  30.678  28.882  1.00  0.00     0.029 A 
ATOM     19  N   UNL A   1      39.264  30.303  30.622  1.00  0.00    -0.354 N 
ATOM     20  C   UNL A   1      38.894  32.642  34.253  1.00  0.00     0.074 A 
ATOM     21  C   UNL A   1      37.799  33.585  34.160  1.00  0.00     0.031 C 
ATOM     22  C   UNL A   1      38.724  29.667  28.546  1.00  0.00     0.029 A 
ATOM     23  C   UNL A   1      39.650  29.421  29.643  1.00  0.00     0.049 A 
ATOM     24  H   UNL A   1      39.699  30.356  31.504  1.00  0.00     0.167 HD
ATOM     25  C   UNL A   1      39.698  32.494  35.334  1.00  0.00     0.037 A 
ATOM     26  C   UNL A   1      40.657  28.530  29.619  1.00  0.00     0.037 A 
ATOM     27  C   UNL A   1      40.771  31.536  35.421  1.00  0.00     0.049 A 
ATOM     28  C   UNL A   1      41.540  28.407  30.825  1.00  0.00     0.074 A 
ATOM     29  C   UNL A   1      41.617  31.281  36.487  1.00  0.00     0.029 A 
ATOM     30  N   UNL A   1      41.149  30.676  34.399  1.00  0.00    -0.354 N 
ATOM     31  N   UNL A   1      41.470  29.045  31.968  1.00  0.00    -0.248 NA
ATOM     32  C   UNL A   1      42.645  27.445  30.737  1.00  0.00     0.031 C 
ATOM     33  C   UNL A   1      42.536  30.302  36.094  1.00  0.00     0.029 A 
ATOM     34  C   UNL A   1      42.231  29.908  34.801  1.00  0.00     0.049 A 
ATOM     35  H   UNL A   1      40.713  30.619  33.519  1.00  0.00     0.167 HD
ATOM     36  C   UNL A   1      42.509  28.552  32.742  1.00  0.00     0.074 A 
ATOM     37  C   UNL A   1      43.180  27.543  31.946  1.00  0.00     0.031 C 
ATOM     38  C   UNL A   1      42.881  28.907  33.996  1.00  0.00     0.037 A 
BRANCH  25  39
ATOM     39  C   UNL A   1      39.470  33.395  36.514  1.00  0.00     0.064 A 
ATOM     40  C   UNL A   1      38.681  33.000  37.604  1.00  0.00     0.173 A 
ATOM     41  C   UNL A   1      40.117  34.639  36.590  1.00  0.00     0.173 A 
ATOM     42  F   UNL A   1      38.033  31.826  37.579  1.00  0.00    -0.203 F 
ATOM     43  C   UNL A   1      38.539  33.821  38.721  1.00  0.00     0.198 A 
ATOM     44  C   UNL A   1      39.994  35.445  37.719  1.00  0.00     0.198 A 
ATOM     45  F   UNL A   1      40.890  35.062  35.579  1.00  0.00    -0.203 F 
ATOM     46  F   UNL A   1      37.757  33.436  39.740  1.00  0.00    -0.200 F 
ATOM     47  C   UNL A   1      39.203  35.038  38.782  1.00  0.00     0.200 A 
ATOM     48  F   UNL A   1      40.647  36.614  37.780  1.00  0.00    -0.200 F 
ATOM     49  F   UNL A   1      39.079  35.818  39.864  1.00  0.00    -0.200 F 
ENDBRANCH  25  39
BRANCH  26  50
ATOM     50  C   UNL A   1      40.889  27.710  28.403  1.00  0.00     0.064 A 
ATOM     51  C   UNL A   1      41.737  28.156  27.381  1.00  0.00     0.173 A 
ATOM     52  C   UNL A   1      40.271  26.460  28.241  1.00  0.00     0.173 A 
ATOM     53  F   UNL A   1      42.338  29.350  27.482  1.00  0.00    -0.203 F 
ATOM     54  C   UNL A   1      41.943  27.391  26.234  1.00  0.00     0.198 A 
ATOM     55  C   UNL A   1      40.504  25.683  27.110  1.00  0.00     0.198 A 
ATOM     56  F   UNL A   1      39.455  25.985  29.194  1.00  0.00    -0.203 F 
ATOM     57  F   UNL A   1      42.721  27.861  25.250  1.00  0.00    -0.200 F 
ATOM     58  C   UNL A   1      41.332  26.153  26.103  1.00  0.00     0.200 A 
ATOM     59  F   UNL A   1      39.926  24.479  26.998  1.00  0.00    -0.200 F 
ATOM     60  F   UNL A   1      41.534  25.416  25.002  1.00  0.00    -0.200 F 
ENDBRANCH  26  50
BRANCH  38  61
ATOM     61  C   UNL A   1      44.048  28.175  34.588  1.00  0.00     0.064 A 
ATOM     62  C   UNL A   1      43.882  26.966  35.279  1.00  0.00     0.173 A 
ATOM     63  C   UNL A   1      45.349  28.682  34.448  1.00  0.00     0.173 A 
ATOM     64  F   UNL A   1      42.656  26.452  35.456  1.00  0.00    -0.203 F 
ATOM     65  C   UNL A   1      44.974  26.305  35.833  1.00  0.00     0.198 A 
ATOM     66  C   UNL A   1      46.442  28.001  34.976  1.00  0.00     0.198 A 
ATOM     67  F   UNL A   1      45.560  29.832  33.792  1.00  0.00    -0.203 F 
ATOM     68  F   UNL A   1      44.788  25.179  36.536  1.00  0.00    -0.200 F 
ATOM     69  C   UNL A   1      46.253  26.819  35.675  1.00  0.00     0.200 A 
ATOM     70  F   UNL A   1      47.677  28.494  34.813  1.00  0.00    -0.200 F 
ATOM     71  F   UNL A   1      47.304  26.180  36.208  1.00  0.00    -0.200 F 
ENDBRANCH  38  61
ENDBRANCH  12  13
ENDBRANCH   5   7
ENDBRANCH   2   3
ENDBRANCH   1   2
BRANCH   1  72
ATOM     72  C   UNL A   1      31.319  30.525  25.655  1.00  0.00     0.023 C 
BRANCH  72  73
ATOM     73  C   UNL A   1      32.704  29.887  25.724  1.00  0.00     0.116 C 
BRANCH  73  74
ATOM     74  N   UNL A   1      33.262  29.704  24.398  1.00  0.00    -0.354 N 
ATOM     75  C   UNL A   1      33.001  28.763  23.451  1.00  0.00     0.245 C 
ATOM     76  H   UNL A   1      33.942  30.369  24.142  1.00  0.00     0.163 HD
ATOM     77  O   UNL A   1      33.687  28.812  22.422  1.00  0.00    -0.273 OA
BRANCH  75  78
ATOM     78  C   UNL A   1      32.068  27.563  23.685  1.00  0.00     0.208 C 
BRANCH  78  79
ATOM     79  C   UNL A   1      31.296  27.332  22.361  1.00  0.00     0.191 C 
BRANCH  79  80
ATOM     80  O   UNL A   1      30.671  28.518  21.863  1.00  0.00    -0.394 OA
ATOM     81  H   UNL A   1      31.171  28.851  21.101  1.00  0.00     0.210 HD
ENDBRANCH  79  80
ENDBRANCH  78  79
BRANCH  78  82
ATOM     82  N   UNL A   1      32.662  26.345  24.257  1.00  0.00    -0.259 N 
ATOM     83  C   UNL A   1      32.050  25.552  25.182  1.00  0.00     0.264 C 
ATOM     84  C   UNL A   1      33.591  25.605  23.570  1.00  0.00     0.264 C 
ATOM     85  O   UNL A   1      30.976  25.709  25.732  1.00  0.00    -0.268 OA
ATOM     86  C   UNL A   1      32.870  24.353  25.346  1.00  0.00     0.075 A 
ATOM     87  C   UNL A   1      33.786  24.352  24.309  1.00  0.00     0.075 A 
ATOM     88  O   UNL A   1      34.087  25.841  22.489  1.00  0.00    -0.268 OA
ATOM     89  C   UNL A   1      32.808  23.329  26.276  1.00  0.00     0.074 A 
ATOM     90  C   UNL A   1      34.641  23.283  24.097  1.00  0.00     0.074 A 
ATOM     91  Cl  UNL A   1      31.726  23.431  27.618  1.00  0.00    -0.082 Cl
ATOM     92  C   UNL A   1      33.682  22.240  26.105  1.00  0.00     0.080 A 
ATOM     93  C   UNL A   1      34.582  22.207  25.005  1.00  0.00     0.080 A 
ATOM     94  Cl  UNL A   1      35.726  23.280  22.755  1.00  0.00    -0.082 Cl
ATOM     95  Cl  UNL A   1      33.655  20.928  27.250  1.00  0.00    -0.081 Cl
ATOM     96  Cl  UNL A   1      35.618  20.826  24.773  1.00  0.00    -0.081 Cl
ENDBRANCH  78  82
ENDBRANCH  75  78
ENDBRANCH  73  74
ENDBRANCH  72  73
ENDBRANCH   1  72
TORSDOF 14
ENDMDL
MODEL 3
REMARK VINA RESULT:     -12.2      2.033      7.736
REMARK SMILES O=C(NCCCCNC(=O)[C@@H](CO)N1C(=O)c2c(Cl)c(Cl)c(Cl)c(Cl)c2C1=O)c1ccc(-c2c3nc(c(-c4c(F)c(F)c(F)c(F)c4F)c4ccc([nH]4)c(-c4c(F)c(F)c(F)c(F)c4F)c4nc(c(-c5c(F)c(F)c(F)c(F)c5F)c5ccc2[nH]5)C=C4)C=C3)cc1
REMARK SMILES IDX 5 1 4 2 3 3 1 4 2 5 29 7 30 8 91 9 31 10 90 11 32 12 33 13
REMARK SMILES IDX 34 14 84 15 35 16 89 17 83 18 85 19 36 20 88 21 82 22 81 23
REMARK SMILES IDX 37 25 69 26 49 27 68 28 50 29 53 30 67 31 86 32 51 33 52 34
REMARK SMILES IDX 66 36 87 37 54 38 38 39 39 40 47 41 40 42 41 43 45 44 48 45
REMARK SMILES IDX 42 46 43 47 46 48 44 49 70 50 71 51 79 52 72 53 73 54 77 55
REMARK SMILES IDX 80 56 74 57 75 58 78 59 76 60 55 61 56 62 64 63 57 64 58 65
REMARK SMILES IDX 62 66 65 67 59 68 60 69 63 70 61 71 6 72 7 73 8 74 9 75
REMARK SMILES IDX 10 77 11 78 12 79 13 80 14 82 15 83 27 84 16 85 17 86 26 87
REMARK SMILES IDX 28 88 18 89 24 90 19 91 20 92 22 93 25 94 21 95 23 96
REMARK H PARENT 3 6 85 24 53 35 8 76 13 81
REMARK Flexibility Score: inf
ROOT
ATOM      1  C   UNL A   1      32.485  28.198  24.698  1.00  0.00     0.023 C 
ENDROOT
BRANCH   1   2
ATOM      2  C   UNL A   1      33.487  29.235  25.183  1.00  0.00     0.116 C 
BRANCH   2   3
ATOM      3  N   UNL A   1      32.845  30.434  25.706  1.00  0.00    -0.352 N 
ATOM      4  O   UNL A   1      32.461  32.071  27.220  1.00  0.00    -0.269 OA
ATOM      5  C   UNL A   1      33.189  31.174  26.811  1.00  0.00     0.251 C 
ATOM      6  H   UNL A   1      32.063  30.755  25.202  1.00  0.00     0.163 HD
BRANCH   5   7
ATOM      7  C   UNL A   1      34.446  30.852  27.515  1.00  0.00     0.039 A 
ATOM      8  C   UNL A   1      34.633  29.575  28.047  1.00  0.00     0.014 A 
ATOM      9  C   UNL A   1      35.414  31.844  27.683  1.00  0.00     0.014 A 
ATOM     10  C   UNL A   1      35.720  29.332  28.873  1.00  0.00     0.010 A 
ATOM     11  C   UNL A   1      36.557  31.566  28.435  1.00  0.00     0.010 A 
ATOM     12  C   UNL A   1      36.705  30.316  29.057  1.00  0.00    -0.014 A 
BRANCH  12  13
ATOM     13  C   UNL A   1      37.923  29.972  29.828  1.00  0.00     0.031 A 
ATOM     14  C   UNL A   1      38.140  30.485  31.223  1.00  0.00     0.074 A 
ATOM     15  C   UNL A   1      38.829  29.158  29.251  1.00  0.00     0.049 A 
ATOM     16  N   UNL A   1      39.152  30.277  32.028  1.00  0.00    -0.248 NA
ATOM     17  C   UNL A   1      37.092  31.348  31.791  1.00  0.00     0.031 C 
ATOM     18  C   UNL A   1      38.722  28.613  27.894  1.00  0.00     0.029 A 
ATOM     19  N   UNL A   1      40.002  28.634  29.725  1.00  0.00    -0.354 N 
ATOM     20  C   UNL A   1      38.877  30.997  33.182  1.00  0.00     0.074 A 
ATOM     21  C   UNL A   1      37.609  31.663  32.971  1.00  0.00     0.031 C 
ATOM     22  C   UNL A   1      39.757  27.796  27.664  1.00  0.00     0.029 A 
ATOM     23  C   UNL A   1      40.639  27.817  28.824  1.00  0.00     0.049 A 
ATOM     24  H   UNL A   1      40.354  28.825  30.625  1.00  0.00     0.167 HD
ATOM     25  C   UNL A   1      39.619  31.084  34.313  1.00  0.00     0.037 A 
ATOM     26  C   UNL A   1      41.818  27.176  28.910  1.00  0.00     0.037 A 
ATOM     27  C   UNL A   1      40.870  30.398  34.516  1.00  0.00     0.049 A 
ATOM     28  C   UNL A   1      42.622  27.312  30.168  1.00  0.00     0.074 A 
ATOM     29  C   UNL A   1      41.677  30.390  35.641  1.00  0.00     0.029 A 
ATOM     30  N   UNL A   1      41.497  29.599  33.571  1.00  0.00    -0.354 N 
ATOM     31  N   UNL A   1      42.336  27.970  31.264  1.00  0.00    -0.248 NA
ATOM     32  C   UNL A   1      43.917  26.620  30.200  1.00  0.00     0.031 C 
ATOM     33  C   UNL A   1      42.815  29.626  35.360  1.00  0.00     0.029 A 
ATOM     34  C   UNL A   1      42.693  29.114  34.078  1.00  0.00     0.049 A 
ATOM     35  H   UNL A   1      41.145  29.404  32.673  1.00  0.00     0.167 HD
ATOM     36  C   UNL A   1      43.404  27.761  32.123  1.00  0.00     0.074 A 
ATOM     37  C   UNL A   1      44.333  26.892  31.428  1.00  0.00     0.031 C 
ATOM     38  C   UNL A   1      43.602  28.249  33.372  1.00  0.00     0.037 A 
BRANCH  25  39
ATOM     39  C   UNL A   1      39.118  31.965  35.421  1.00  0.00     0.064 A 
ATOM     40  C   UNL A   1      38.358  31.455  36.484  1.00  0.00     0.173 A 
ATOM     41  C   UNL A   1      39.472  33.323  35.461  1.00  0.00     0.173 A 
ATOM     42  F   UNL A   1      37.984  30.167  36.490  1.00  0.00    -0.203 F 
ATOM     43  C   UNL A   1      37.963  32.273  37.540  1.00  0.00     0.198 A 
ATOM     44  C   UNL A   1      39.096  34.132  36.531  1.00  0.00     0.198 A 
ATOM     45  F   UNL A   1      40.204  33.860  34.475  1.00  0.00    -0.203 F 
ATOM     46  F   UNL A   1      37.213  31.772  38.532  1.00  0.00    -0.200 F 
ATOM     47  C   UNL A   1      38.340  33.608  37.567  1.00  0.00     0.200 A 
ATOM     48  F   UNL A   1      39.474  35.418  36.562  1.00  0.00    -0.200 F 
ATOM     49  F   UNL A   1      37.973  34.390  38.592  1.00  0.00    -0.200 F 
ENDBRANCH  25  39
BRANCH  26  50
ATOM     50  C   UNL A   1      42.307  26.373  27.760  1.00  0.00     0.064 A 
ATOM     51  C   UNL A   1      41.860  25.062  27.552  1.00  0.00     0.173 A 
ATOM     52  C   UNL A   1      43.228  26.904  26.843  1.00  0.00     0.173 A 
ATOM     53  F   UNL A   1      40.993  24.506  28.409  1.00  0.00    -0.203 F 
ATOM     54  C   UNL A   1      42.330  24.305  26.480  1.00  0.00     0.198 A 
ATOM     55  C   UNL A   1      43.672  26.158  25.755  1.00  0.00     0.198 A 
ATOM     56  F   UNL A   1      43.682  28.157  26.995  1.00  0.00    -0.203 F 
ATOM     57  F   UNL A   1      41.924  23.038  26.330  1.00  0.00    -0.200 F 
ATOM     58  C   UNL A   1      43.230  24.856  25.580  1.00  0.00     0.200 A 
ATOM     59  F   UNL A   1      44.525  26.702  24.878  1.00  0.00    -0.200 F 
ATOM     60  F   UNL A   1      43.678  24.128  24.547  1.00  0.00    -0.200 F 
ENDBRANCH  26  50
BRANCH  38  61
ATOM     61  C   UNL A   1      44.860  27.827  34.072  1.00  0.00     0.064 A 
ATOM     62  C   UNL A   1      44.916  26.653  34.837  1.00  0.00     0.173 A 
ATOM     63  C   UNL A   1      46.026  28.598  33.959  1.00  0.00     0.173 A 
ATOM     64  F   UNL A   1      43.821  25.894  34.990  1.00  0.00    -0.203 F 
ATOM     65  C   UNL A   1      46.087  26.282  35.490  1.00  0.00     0.198 A 
ATOM     66  C   UNL A   1      47.205  28.206  34.588  1.00  0.00     0.198 A 
ATOM     67  F   UNL A   1      46.024  29.726  33.235  1.00  0.00    -0.203 F 
ATOM     68  F   UNL A   1      46.104  25.186  36.261  1.00  0.00    -0.200 F 
ATOM     69  C   UNL A   1      47.232  27.055  35.359  1.00  0.00     0.200 A 
ATOM     70  F   UNL A   1      48.312  28.948  34.452  1.00  0.00    -0.200 F 
ATOM     71  F   UNL A   1      48.360  26.694  35.986  1.00  0.00    -0.200 F 
ENDBRANCH  38  61
ENDBRANCH  12  13
ENDBRANCH   5   7
ENDBRANCH   2   3
ENDBRANCH   1   2
BRANCH   1  72
ATOM     72  C   UNL A   1      31.648  27.559  25.805  1.00  0.00     0.023 C 
BRANCH  72  73
ATOM     73  C   UNL A   1      30.703  26.464  25.317  1.00  0.00     0.116 C 
BRANCH  73  74
ATOM     74  N   UNL A   1      30.476  25.471  26.349  1.00  0.00    -0.354 N 
ATOM     75  C   UNL A   1      30.627  24.119  26.324  1.00  0.00     0.245 C 
ATOM     76  H   UNL A   1      30.161  25.834  27.207  1.00  0.00     0.163 HD
ATOM     77  O   UNL A   1      30.290  23.508  27.346  1.00  0.00    -0.273 OA
BRANCH  75  78
ATOM     78  C   UNL A   1      30.991  23.331  25.053  1.00  0.00     0.208 C 
BRANCH  78  79
ATOM     79  C   UNL A   1      30.518  24.184  23.849  1.00  0.00     0.191 C 
BRANCH  79  80
ATOM     80  O   UNL A   1      31.344  24.027  22.692  1.00  0.00    -0.394 OA
ATOM     81  H   UNL A   1      31.661  24.896  22.401  1.00  0.00     0.210 HD
ENDBRANCH  79  80
ENDBRANCH  78  79
BRANCH  78  82
ATOM     82  N   UNL A   1      32.371  22.835  24.937  1.00  0.00    -0.259 N 
ATOM     83  C   UNL A   1      33.463  23.475  25.443  1.00  0.00     0.264 C 
ATOM     84  C   UNL A   1      32.647  21.497  24.810  1.00  0.00     0.264 C 
ATOM     85  O   UNL A   1      33.524  24.549  26.012  1.00  0.00    -0.268 OA
ATOM     86  C   UNL A   1      34.607  22.577  25.294  1.00  0.00     0.075 A 
ATOM     87  C   UNL A   1      34.098  21.334  24.963  1.00  0.00     0.075 A 
ATOM     88  O   UNL A   1      31.865  20.576  24.718  1.00  0.00    -0.268 OA
ATOM     89  C   UNL A   1      35.963  22.796  25.470  1.00  0.00     0.074 A 
ATOM     90  C   UNL A   1      34.912  20.218  24.869  1.00  0.00     0.074 A 
ATOM     91  Cl  UNL A   1      36.561  24.388  25.769  1.00  0.00    -0.082 Cl
ATOM     92  C   UNL A   1      36.822  21.687  25.355  1.00  0.00     0.080 A 
ATOM     93  C   UNL A   1      36.295  20.397  25.076  1.00  0.00     0.080 A 
ATOM     94  Cl  UNL A   1      34.239  18.667  24.522  1.00  0.00    -0.082 Cl
ATOM     95  Cl  UNL A   1      38.538  21.904  25.558  1.00  0.00    -0.081 Cl
ATOM     96  Cl  UNL A   1      37.363  19.023  24.993  1.00  0.00    -0.081 Cl
ENDBRANCH  78  82
ENDBRANCH  75  78
ENDBRANCH  73  74
ENDBRANCH  72  73
ENDBRANCH   1  72
TORSDOF 14
ENDMDL
