MODEL 1
REMARK VINA RESULT:     -12.3      0.000      0.000
REMARK SMILES COc1ccc([C@H]2CC(c3ccc(S(C)(=O)=O)cc3)=NN2c2ccc(C(=O)NCCCCNC(=O)c3ccc(-c4c5nc(c(-c6c(F)c(F)c(F)c(F)c6F)c6ccc([nH]6)c(-c6c(F)c(F)c(F)c(F)c6F)c6nc(c(-c7c(F)c(F)c(F)c(F)c7F)c7ccc4[nH]7)C=C6)C=C5)cc3)cc2)cc1OC
REMARK SMILES IDX 30 1 29 2 28 3 26 4 27 5 25 7 22 8 23 9 100 10 24 11 99 12
REMARK SMILES IDX 21 13 7 14 8 15 9 16 20 17 6 18 3 19 4 20 102 21 5 22 101 23
REMARK SMILES IDX 2 24 1 25 103 26 104 27 10 28 11 29 19 30 12 31 18 32 13 33
REMARK SMILES IDX 14 34 15 35 16 36 17 37 31 38 32 39 33 40 34 41 35 43 36 44
REMARK SMILES IDX 37 45 98 46 38 47 97 48 39 49 40 50 41 51 91 52 42 53 96 54
REMARK SMILES IDX 90 55 92 56 43 57 95 58 89 59 88 60 44 62 76 63 56 64 75 65
REMARK SMILES IDX 57 66 60 67 74 68 93 69 58 70 59 71 73 73 94 74 61 75 45 76
REMARK SMILES IDX 46 77 54 78 47 79 48 80 52 81 55 82 49 83 50 84 53 85 51 86
REMARK SMILES IDX 77 87 78 88 86 89 79 90 80 91 84 92 87 93 81 94 82 95 85 96
REMARK SMILES IDX 83 97 62 98 63 99 71 100 64 101 65 102 69 103 72 104 66 105
REMARK SMILES IDX 67 106 70 107 68 108
REMARK H PARENT 28 6 33 42 92 61 60 72
REMARK Flexibility Score: inf
ROOT
ATOM      1  C   UNL A   1      41.174  26.086  26.132  1.00  0.00     0.023 C 
ENDROOT
BRANCH   1   2
ATOM      2  C   UNL A   1      39.922  25.420  26.710  1.00  0.00     0.116 C 
BRANCH   2   3
ATOM      3  N   UNL A   1      40.057  23.980  26.666  1.00  0.00    -0.352 N 
ATOM      4  C   UNL A   1      39.186  22.987  26.299  1.00  0.00     0.251 C 
ATOM      5  O   UNL A   1      39.594  21.827  26.385  1.00  0.00    -0.269 OA
ATOM      6  H   UNL A   1      40.940  23.653  26.953  1.00  0.00     0.163 HD
BRANCH   4   7
ATOM      7  C   UNL A   1      37.819  23.243  25.760  1.00  0.00     0.039 A 
ATOM      8  C   UNL A   1      35.308  23.696  24.530  1.00  0.00     0.060 A 
ATOM      9  C   UNL A   1      36.293  22.937  23.892  1.00  0.00     0.029 A 
ATOM     10  C   UNL A   1      35.574  24.181  25.810  1.00  0.00     0.029 A 
ATOM     11  C   UNL A   1      37.541  22.730  24.487  1.00  0.00     0.016 A 
ATOM     12  C   UNL A   1      36.800  23.920  26.434  1.00  0.00     0.016 A 
BRANCH   8  13
ATOM     13  N   UNL A   1      34.091  23.913  23.912  1.00  0.00    -0.257 N 
ATOM     14  C   UNL A   1      33.475  23.024  22.927  1.00  0.00     0.144 C 
ATOM     15  C   UNL A   1      32.264  23.842  22.455  1.00  0.00     0.091 C 
ATOM     16  C   UNL A   1      32.470  25.101  23.248  1.00  0.00     0.071 C 
ATOM     17  N   UNL A   1      33.491  25.120  24.042  1.00  0.00    -0.176 NA
BRANCH  14  18
ATOM     18  C   UNL A   1      33.074  21.694  23.544  1.00  0.00    -0.019 A 
ATOM     19  C   UNL A   1      32.376  19.224  24.715  1.00  0.00     0.160 A 
ATOM     20  C   UNL A   1      32.174  19.447  23.345  1.00  0.00     0.051 A 
ATOM     21  C   UNL A   1      32.941  20.224  25.511  1.00  0.00     0.161 A 
ATOM     22  C   UNL A   1      32.513  20.675  22.765  1.00  0.00     0.010 A 
ATOM     23  C   UNL A   1      33.277  21.446  24.914  1.00  0.00     0.056 A 
BRANCH  19  24
ATOM     24  O   UNL A   1      32.113  17.974  25.209  1.00  0.00    -0.493 OA
ATOM     25  C   UNL A   1      32.993  16.991  24.664  1.00  0.00     0.278 C 
ENDBRANCH  19  24
BRANCH  21  26
ATOM     26  O   UNL A   1      33.252  20.189  26.842  1.00  0.00    -0.493 OA
ATOM     27  C   UNL A   1      33.689  21.381  27.472  1.00  0.00     0.278 C 
ENDBRANCH  21  26
ENDBRANCH  14  18
BRANCH  16  28
ATOM     28  C   UNL A   1      31.584  26.254  23.090  1.00  0.00    -0.002 A 
ATOM     29  C   UNL A   1      32.084  27.404  22.470  1.00  0.00     0.011 A 
ATOM     30  C   UNL A   1      30.282  26.211  23.593  1.00  0.00     0.011 A 
ATOM     31  C   UNL A   1      31.262  28.521  22.326  1.00  0.00     0.021 A 
ATOM     32  C   UNL A   1      29.467  27.337  23.473  1.00  0.00     0.021 A 
ATOM     33  C   UNL A   1      29.961  28.484  22.841  1.00  0.00     0.067 A 
BRANCH  33  34
ATOM     34  S   UNL A   1      28.918  29.912  22.655  1.00  0.00     0.175 S 
ATOM     35  C   UNL A   1      27.292  29.321  23.043  1.00  0.00     0.163 C 
ATOM     36  O   UNL A   1      29.321  30.855  23.685  1.00  0.00    -0.224 OA
ATOM     37  O   UNL A   1      28.928  30.285  21.257  1.00  0.00    -0.224 OA
ENDBRANCH  33  34
ENDBRANCH  16  28
ENDBRANCH   8  13
ENDBRANCH   4   7
ENDBRANCH   2   3
ENDBRANCH   1   2
BRANCH   1  38
ATOM     38  C   UNL A   1      42.094  25.124  25.376  1.00  0.00     0.023 C 
BRANCH  38  39
ATOM     39  C   UNL A   1      43.450  25.708  24.997  1.00  0.00     0.116 C 
BRANCH  39  40
ATOM     40  N   UNL A   1      44.564  24.836  25.337  1.00  0.00    -0.352 N 
ATOM     41  C   UNL A   1      45.239  24.741  26.528  1.00  0.00     0.251 C 
ATOM     42  H   UNL A   1      44.873  24.237  24.620  1.00  0.00     0.163 HD
ATOM     43  O   UNL A   1      46.235  24.031  26.627  1.00  0.00    -0.269 OA
BRANCH  41  44
ATOM     44  C   UNL A   1      44.778  25.537  27.682  1.00  0.00     0.039 A 
ATOM     45  C   UNL A   1      45.148  26.881  27.760  1.00  0.00     0.014 A 
ATOM     46  C   UNL A   1      43.956  24.969  28.657  1.00  0.00     0.014 A 
ATOM     47  C   UNL A   1      44.638  27.675  28.786  1.00  0.00     0.010 A 
ATOM     48  C   UNL A   1      43.389  25.779  29.636  1.00  0.00     0.010 A 
ATOM     49  C   UNL A   1      43.726  27.138  29.711  1.00  0.00    -0.014 A 
BRANCH  49  50
ATOM     50  C   UNL A   1      43.116  27.988  30.760  1.00  0.00     0.031 A 
ATOM     51  C   UNL A   1      41.810  28.683  30.505  1.00  0.00     0.074 A 
ATOM     52  C   UNL A   1      43.768  28.177  31.923  1.00  0.00     0.049 A 
ATOM     53  N   UNL A   1      41.133  29.488  31.284  1.00  0.00    -0.248 NA
ATOM     54  C   UNL A   1      41.196  28.467  29.186  1.00  0.00     0.031 C 
ATOM     55  C   UNL A   1      45.067  27.597  32.267  1.00  0.00     0.029 A 
ATOM     56  N   UNL A   1      43.427  28.910  33.030  1.00  0.00    -0.354 N 
ATOM     57  C   UNL A   1      40.021  29.876  30.551  1.00  0.00     0.074 A 
ATOM     58  C   UNL A   1      40.147  29.274  29.241  1.00  0.00     0.031 C 
ATOM     59  C   UNL A   1      45.397  27.967  33.514  1.00  0.00     0.029 A 
ATOM     60  C   UNL A   1      44.351  28.837  34.044  1.00  0.00     0.049 A 
ATOM     61  H   UNL A   1      42.599  29.439  33.093  1.00  0.00     0.167 HD
ATOM     62  C   UNL A   1      38.974  30.641  30.943  1.00  0.00     0.037 A 
ATOM     63  C   UNL A   1      44.349  29.404  35.264  1.00  0.00     0.037 A 
ATOM     64  C   UNL A   1      38.848  31.229  32.250  1.00  0.00     0.049 A 
ATOM     65  C   UNL A   1      43.185  30.267  35.669  1.00  0.00     0.074 A 
ATOM     66  C   UNL A   1      37.804  31.977  32.766  1.00  0.00     0.029 A 
ATOM     67  N   UNL A   1      39.807  31.138  33.250  1.00  0.00    -0.354 N 
ATOM     68  N   UNL A   1      42.102  30.568  34.995  1.00  0.00    -0.248 NA
ATOM     69  C   UNL A   1      43.244  30.865  37.010  1.00  0.00     0.031 C 
ATOM     70  C   UNL A   1      38.152  32.378  34.061  1.00  0.00     0.029 A 
ATOM     71  C   UNL A   1      39.389  31.838  34.372  1.00  0.00     0.049 A 
ATOM     72  H   UNL A   1      40.658  30.649  33.175  1.00  0.00     0.167 HD
ATOM     73  C   UNL A   1      41.340  31.368  35.835  1.00  0.00     0.074 A 
ATOM     74  C   UNL A   1      42.077  31.489  37.076  1.00  0.00     0.031 C 
ATOM     75  C   UNL A   1      40.138  31.951  35.599  1.00  0.00     0.037 A 
BRANCH  62  76
ATOM     76  C   UNL A   1      37.885  30.882  29.936  1.00  0.00     0.064 A 
ATOM     77  C   UNL A   1      37.754  32.116  29.276  1.00  0.00     0.173 A 
ATOM     78  C   UNL A   1      36.965  29.871  29.621  1.00  0.00     0.173 A 
ATOM     79  F   UNL A   1      38.600  33.121  29.550  1.00  0.00    -0.203 F 
ATOM     80  C   UNL A   1      36.717  32.341  28.375  1.00  0.00     0.198 A 
ATOM     81  C   UNL A   1      35.950  30.090  28.693  1.00  0.00     0.198 A 
ATOM     82  F   UNL A   1      37.047  28.673  30.216  1.00  0.00    -0.203 F 
ATOM     83  F   UNL A   1      36.575  33.547  27.808  1.00  0.00    -0.200 F 
ATOM     84  C   UNL A   1      35.820  31.327  28.080  1.00  0.00     0.200 A 
ATOM     85  F   UNL A   1      35.090  29.105  28.400  1.00  0.00    -0.200 F 
ATOM     86  F   UNL A   1      34.821  31.545  27.213  1.00  0.00    -0.200 F 
ENDBRANCH  62  76
BRANCH  63  87
ATOM     87  C   UNL A   1      45.466  29.137  36.207  1.00  0.00     0.064 A 
ATOM     88  C   UNL A   1      45.389  28.077  37.122  1.00  0.00     0.173 A 
ATOM     89  C   UNL A   1      46.627  29.922  36.211  1.00  0.00     0.173 A 
ATOM     90  F   UNL A   1      44.290  27.311  37.168  1.00  0.00    -0.203 F 
ATOM     91  C   UNL A   1      46.427  27.822  38.016  1.00  0.00     0.198 A 
ATOM     92  C   UNL A   1      47.675  29.649  37.088  1.00  0.00     0.198 A 
ATOM     93  F   UNL A   1      46.751  30.944  35.353  1.00  0.00    -0.203 F 
ATOM     94  F   UNL A   1      46.311  26.828  38.907  1.00  0.00    -0.200 F 
ATOM     95  C   UNL A   1      47.571  28.605  37.994  1.00  0.00     0.200 A 
ATOM     96  F   UNL A   1      48.786  30.399  37.055  1.00  0.00    -0.200 F 
ATOM     97  F   UNL A   1      48.572  28.355  38.851  1.00  0.00    -0.200 F 
ENDBRANCH  63  87
BRANCH  75  98
ATOM     98  C   UNL A   1      39.537  32.751  36.718  1.00  0.00     0.064 A 
ATOM     99  C   UNL A   1      38.530  32.224  37.541  1.00  0.00     0.173 A 
ATOM    100  C   UNL A   1      39.989  34.051  36.986  1.00  0.00     0.173 A 
ATOM    101  F   UNL A   1      38.051  30.991  37.317  1.00  0.00    -0.203 F 
ATOM    102  C   UNL A   1      37.977  32.982  38.570  1.00  0.00     0.198 A 
ATOM    103  C   UNL A   1      39.456  34.794  38.035  1.00  0.00     0.198 A 
ATOM    104  F   UNL A   1      40.954  34.600  36.233  1.00  0.00    -0.203 F 
ATOM    105  F   UNL A   1      36.978  32.478  39.309  1.00  0.00    -0.200 F 
ATOM    106  C   UNL A   1      38.445  34.262  38.821  1.00  0.00     0.200 A 
ATOM    107  F   UNL A   1      39.920  36.027  38.284  1.00  0.00    -0.200 F 
ATOM    108  F   UNL A   1      37.914  34.990  39.814  1.00  0.00    -0.200 F 
ENDBRANCH  75  98
ENDBRANCH  49  50
ENDBRANCH  41  44
ENDBRANCH  39  40
ENDBRANCH  38  39
ENDBRANCH   1  38
TORSDOF 17
ENDMDL
MODEL 2
REMARK VINA RESULT:     -12.2      6.259     12.819
REMARK SMILES COc1ccc([C@H]2CC(c3ccc(S(C)(=O)=O)cc3)=NN2c2ccc(C(=O)NCCCCNC(=O)c3ccc(-c4c5nc(c(-c6c(F)c(F)c(F)c(F)c6F)c6ccc([nH]6)c(-c6c(F)c(F)c(F)c(F)c6F)c6nc(c(-c7c(F)c(F)c(F)c(F)c7F)c7ccc4[nH]7)C=C6)C=C5)cc3)cc2)cc1OC
REMARK SMILES IDX 30 1 29 2 28 3 26 4 27 5 25 7 22 8 23 9 100 10 24 11 99 12
REMARK SMILES IDX 21 13 7 14 8 15 9 16 20 17 6 18 3 19 4 20 102 21 5 22 101 23
REMARK SMILES IDX 2 24 1 25 103 26 104 27 10 28 11 29 19 30 12 31 18 32 13 33
REMARK SMILES IDX 14 34 15 35 16 36 17 37 31 38 32 39 33 40 34 41 35 43 36 44
REMARK SMILES IDX 37 45 98 46 38 47 97 48 39 49 40 50 41 51 91 52 42 53 96 54
REMARK SMILES IDX 90 55 92 56 43 57 95 58 89 59 88 60 44 62 76 63 56 64 75 65
REMARK SMILES IDX 57 66 60 67 74 68 93 69 58 70 59 71 73 73 94 74 61 75 45 76
REMARK SMILES IDX 46 77 54 78 47 79 48 80 52 81 55 82 49 83 50 84 53 85 51 86
REMARK SMILES IDX 77 87 78 88 86 89 79 90 80 91 84 92 87 93 81 94 82 95 85 96
REMARK SMILES IDX 83 97 62 98 63 99 71 100 64 101 65 102 69 103 72 104 66 105
REMARK SMILES IDX 67 106 70 107 68 108
REMARK H PARENT 28 6 33 42 92 61 60 72
REMARK Flexibility Score: inf
ROOT
ATOM      1  C   UNL A   1      35.458  33.855  30.135  1.00  0.00     0.023 C 
ENDROOT
BRANCH   1   2
ATOM      2  C   UNL A   1      36.577  32.864  30.469  1.00  0.00     0.116 C 
BRANCH   2   3
ATOM      3  N   UNL A   1      37.119  33.148  31.780  1.00  0.00    -0.352 N 
ATOM      4  C   UNL A   1      38.309  33.699  32.182  1.00  0.00     0.251 C 
ATOM      5  O   UNL A   1      38.495  33.801  33.396  1.00  0.00    -0.269 OA
ATOM      6  H   UNL A   1      36.522  32.898  32.522  1.00  0.00     0.163 HD
BRANCH   4   7
ATOM      7  C   UNL A   1      39.339  34.222  31.239  1.00  0.00     0.039 A 
ATOM      8  C   UNL A   1      41.408  35.290  29.625  1.00  0.00     0.060 A 
ATOM      9  C   UNL A   1      41.639  34.960  30.964  1.00  0.00     0.029 A 
ATOM     10  C   UNL A   1      40.147  35.033  29.090  1.00  0.00     0.029 A 
ATOM     11  C   UNL A   1      40.615  34.453  31.768  1.00  0.00     0.016 A 
ATOM     12  C   UNL A   1      39.137  34.465  29.877  1.00  0.00     0.016 A 
BRANCH   8  13
ATOM     13  N   UNL A   1      42.427  35.819  28.856  1.00  0.00    -0.257 N 
ATOM     14  C   UNL A   1      43.803  35.324  28.824  1.00  0.00     0.144 C 
ATOM     15  C   UNL A   1      44.515  36.382  27.968  1.00  0.00     0.091 C 
ATOM     16  C   UNL A   1      43.378  37.332  27.723  1.00  0.00     0.071 C 
ATOM     17  N   UNL A   1      42.234  37.003  28.229  1.00  0.00    -0.176 NA
BRANCH  14  18
ATOM     18  C   UNL A   1      43.886  33.933  28.216  1.00  0.00    -0.019 A 
ATOM     19  C   UNL A   1      44.008  31.368  27.048  1.00  0.00     0.160 A 
ATOM     20  C   UNL A   1      43.716  31.519  28.412  1.00  0.00     0.051 A 
ATOM     21  C   UNL A   1      44.228  32.495  26.251  1.00  0.00     0.161 A 
ATOM     22  C   UNL A   1      43.662  32.790  28.994  1.00  0.00     0.010 A 
ATOM     23  C   UNL A   1      44.168  33.760  26.849  1.00  0.00     0.056 A 
BRANCH  19  24
ATOM     24  O   UNL A   1      43.956  30.108  26.514  1.00  0.00    -0.493 OA
ATOM     25  C   UNL A   1      42.705  29.472  26.775  1.00  0.00     0.278 C 
ENDBRANCH  19  24
BRANCH  21  26
ATOM     26  O   UNL A   1      44.484  32.561  24.909  1.00  0.00    -0.493 OA
ATOM     27  C   UNL A   1      44.218  33.772  24.224  1.00  0.00     0.278 C 
ENDBRANCH  21  26
ENDBRANCH  14  18
BRANCH  16  28
ATOM     28  C   UNL A   1      43.575  38.582  26.988  1.00  0.00    -0.002 A 
ATOM     29  C   UNL A   1      44.879  38.963  26.652  1.00  0.00     0.011 A 
ATOM     30  C   UNL A   1      42.482  39.390  26.674  1.00  0.00     0.011 A 
ATOM     31  C   UNL A   1      45.092  40.159  25.969  1.00  0.00     0.021 A 
ATOM     32  C   UNL A   1      42.696  40.601  26.013  1.00  0.00     0.021 A 
ATOM     33  C   UNL A   1      43.998  40.977  25.664  1.00  0.00     0.067 A 
BRANCH  33  34
ATOM     34  S   UNL A   1      44.276  42.502  24.793  1.00  0.00     0.175 S 
ATOM     35  C   UNL A   1      42.760  42.792  23.921  1.00  0.00     0.163 C 
ATOM     36  O   UNL A   1      44.428  43.534  25.805  1.00  0.00    -0.224 OA
ATOM     37  O   UNL A   1      45.310  42.264  23.809  1.00  0.00    -0.224 OA
ENDBRANCH  33  34
ENDBRANCH  16  28
ENDBRANCH   8  13
ENDBRANCH   4   7
ENDBRANCH   2   3
ENDBRANCH   1   2
BRANCH   1  38
ATOM     38  C   UNL A   1      34.371  33.277  29.225  1.00  0.00     0.023 C 
BRANCH  38  39
ATOM     39  C   UNL A   1      34.893  32.545  27.995  1.00  0.00     0.116 C 
BRANCH  39  40
ATOM     40  N   UNL A   1      34.183  31.305  27.723  1.00  0.00    -0.352 N 
ATOM     41  C   UNL A   1      34.662  30.019  27.774  1.00  0.00     0.251 C 
ATOM     42  H   UNL A   1      33.237  31.400  27.469  1.00  0.00     0.163 HD
ATOM     43  O   UNL A   1      33.965  29.079  27.408  1.00  0.00    -0.269 OA
BRANCH  41  44
ATOM     44  C   UNL A   1      36.044  29.785  28.236  1.00  0.00     0.039 A 
ATOM     45  C   UNL A   1      36.249  29.368  29.552  1.00  0.00     0.014 A 
ATOM     46  C   UNL A   1      37.123  29.940  27.363  1.00  0.00     0.014 A 
ATOM     47  C   UNL A   1      37.537  29.042  29.976  1.00  0.00     0.010 A 
ATOM     48  C   UNL A   1      38.394  29.544  27.764  1.00  0.00     0.010 A 
ATOM     49  C   UNL A   1      38.614  29.094  29.074  1.00  0.00    -0.014 A 
BRANCH  49  50
ATOM     50  C   UNL A   1      39.974  28.677  29.488  1.00  0.00     0.031 A 
ATOM     51  C   UNL A   1      40.757  29.512  30.460  1.00  0.00     0.074 A 
ATOM     52  C   UNL A   1      40.524  27.575  28.944  1.00  0.00     0.049 A 
ATOM     53  N   UNL A   1      41.969  29.329  30.922  1.00  0.00    -0.248 NA
ATOM     54  C   UNL A   1      40.101  30.729  30.960  1.00  0.00     0.031 C 
ATOM     55  C   UNL A   1      39.882  26.712  27.951  1.00  0.00     0.029 A 
ATOM     56  N   UNL A   1      41.749  26.993  29.150  1.00  0.00    -0.354 N 
ATOM     57  C   UNL A   1      42.221  30.407  31.758  1.00  0.00     0.074 A 
ATOM     58  C   UNL A   1      41.064  31.274  31.688  1.00  0.00     0.031 C 
ATOM     59  C   UNL A   1      40.704  25.691  27.660  1.00  0.00     0.029 A 
ATOM     60  C   UNL A   1      41.941  25.846  28.419  1.00  0.00     0.049 A 
ATOM     61  H   UNL A   1      42.425  27.361  29.763  1.00  0.00     0.167 HD
ATOM     62  C   UNL A   1      43.305  30.639  32.536  1.00  0.00     0.037 A 
ATOM     63  C   UNL A   1      42.996  25.011  28.372  1.00  0.00     0.037 A 
ATOM     64  C   UNL A   1      44.447  29.768  32.609  1.00  0.00     0.049 A 
ATOM     65  C   UNL A   1      44.197  25.302  29.230  1.00  0.00     0.074 A 
ATOM     66  C   UNL A   1      45.575  29.884  33.403  1.00  0.00     0.029 A 
ATOM     67  N   UNL A   1      44.610  28.617  31.850  1.00  0.00    -0.354 N 
ATOM     68  N   UNL A   1      44.396  26.285  30.074  1.00  0.00    -0.248 NA
ATOM     69  C   UNL A   1      45.321  24.360  29.130  1.00  0.00     0.031 C 
ATOM     70  C   UNL A   1      46.440  28.829  33.090  1.00  0.00     0.029 A 
ATOM     71  C   UNL A   1      45.831  28.027  32.139  1.00  0.00     0.049 A 
ATOM     72  H   UNL A   1      43.956  28.271  31.201  1.00  0.00     0.167 HD
ATOM     73  C   UNL A   1      45.652  26.069  30.623  1.00  0.00     0.074 A 
ATOM     74  C   UNL A   1      46.161  24.849  30.030  1.00  0.00     0.031 C 
ATOM     75  C   UNL A   1      46.324  26.814  31.536  1.00  0.00     0.037 A 
BRANCH  62  76
ATOM     76  C   UNL A   1      43.297  31.891  33.367  1.00  0.00     0.064 A 
ATOM     77  C   UNL A   1      42.618  31.952  34.596  1.00  0.00     0.173 A 
ATOM     78  C   UNL A   1      43.976  33.040  32.937  1.00  0.00     0.173 A 
ATOM     79  F   UNL A   1      41.942  30.884  35.047  1.00  0.00    -0.203 F 
ATOM     80  C   UNL A   1      42.584  33.128  35.339  1.00  0.00     0.198 A 
ATOM     81  C   UNL A   1      43.968  34.205  33.701  1.00  0.00     0.198 A 
ATOM     82  F   UNL A   1      44.645  33.036  31.776  1.00  0.00    -0.203 F 
ATOM     83  F   UNL A   1      41.875  33.180  36.476  1.00  0.00    -0.200 F 
ATOM     84  C   UNL A   1      43.262  34.252  34.894  1.00  0.00     0.200 A 
ATOM     85  F   UNL A   1      44.634  35.287  33.276  1.00  0.00    -0.200 F 
ATOM     86  F   UNL A   1      43.228  35.385  35.610  1.00  0.00    -0.200 F 
ENDBRANCH  62  76
BRANCH  63  87
ATOM     87  C   UNL A   1      42.944  23.799  27.516  1.00  0.00     0.064 A 
ATOM     88  C   UNL A   1      43.373  23.848  26.183  1.00  0.00     0.173 A 
ATOM     89  C   UNL A   1      42.477  22.572  28.008  1.00  0.00     0.173 A 
ATOM     90  F   UNL A   1      43.810  25.004  25.662  1.00  0.00    -0.203 F 
ATOM     91  C   UNL A   1      43.321  22.718  25.368  1.00  0.00     0.198 A 
ATOM     92  C   UNL A   1      42.451  21.437  27.200  1.00  0.00     0.198 A 
ATOM     93  F   UNL A   1      42.060  22.472  29.278  1.00  0.00    -0.203 F 
ATOM     94  F   UNL A   1      43.700  22.803  24.085  1.00  0.00    -0.200 F 
ATOM     95  C   UNL A   1      42.866  21.513  25.879  1.00  0.00     0.200 A 
ATOM     96  F   UNL A   1      42.023  20.270  27.701  1.00  0.00    -0.200 F 
ATOM     97  F   UNL A   1      42.822  20.425  25.097  1.00  0.00    -0.200 F 
ENDBRANCH  63  87
BRANCH  75  98
ATOM     98  C   UNL A   1      47.673  26.313  31.966  1.00  0.00     0.064 A 
ATOM     99  C   UNL A   1      47.824  25.455  33.066  1.00  0.00     0.173 A 
ATOM    100  C   UNL A   1      48.826  26.676  31.254  1.00  0.00     0.173 A 
ATOM    101  F   UNL A   1      46.754  25.091  33.790  1.00  0.00    -0.203 F 
ATOM    102  C   UNL A   1      49.082  25.006  33.456  1.00  0.00     0.198 A 
ATOM    103  C   UNL A   1      50.079  26.199  31.628  1.00  0.00     0.198 A 
ATOM    104  F   UNL A   1      48.737  27.488  30.191  1.00  0.00    -0.203 F 
ATOM    105  F   UNL A   1      49.208  24.232  34.544  1.00  0.00    -0.200 F 
ATOM    106  C   UNL A   1      50.207  25.372  32.734  1.00  0.00     0.200 A 
ATOM    107  F   UNL A   1      51.163  26.543  30.919  1.00  0.00    -0.200 F 
ATOM    108  F   UNL A   1      51.418  24.936  33.108  1.00  0.00    -0.200 F 
ENDBRANCH  75  98
ENDBRANCH  49  50
ENDBRANCH  41  44
ENDBRANCH  39  40
ENDBRANCH  38  39
ENDBRANCH   1  38
TORSDOF 17
ENDMDL
MODEL 3
REMARK VINA RESULT:     -12.0      0.813      6.876
REMARK SMILES COc1ccc([C@H]2CC(c3ccc(S(C)(=O)=O)cc3)=NN2c2ccc(C(=O)NCCCCNC(=O)c3ccc(-c4c5nc(c(-c6c(F)c(F)c(F)c(F)c6F)c6ccc([nH]6)c(-c6c(F)c(F)c(F)c(F)c6F)c6nc(c(-c7c(F)c(F)c(F)c(F)c7F)c7ccc4[nH]7)C=C6)C=C5)cc3)cc2)cc1OC
REMARK SMILES IDX 30 1 29 2 28 3 26 4 27 5 25 7 22 8 23 9 100 10 24 11 99 12
REMARK SMILES IDX 21 13 7 14 8 15 9 16 20 17 6 18 3 19 4 20 102 21 5 22 101 23
REMARK SMILES IDX 2 24 1 25 103 26 104 27 10 28 11 29 19 30 12 31 18 32 13 33
REMARK SMILES IDX 14 34 15 35 16 36 17 37 31 38 32 39 33 40 34 41 35 43 36 44
REMARK SMILES IDX 37 45 98 46 38 47 97 48 39 49 40 50 41 51 91 52 42 53 96 54
REMARK SMILES IDX 90 55 92 56 43 57 95 58 89 59 88 60 44 62 76 63 56 64 75 65
REMARK SMILES IDX 57 66 60 67 74 68 93 69 58 70 59 71 73 73 94 74 61 75 45 76
REMARK SMILES IDX 46 77 54 78 47 79 48 80 52 81 55 82 49 83 50 84 53 85 51 86
REMARK SMILES IDX 77 87 78 88 86 89 79 90 80 91 84 92 87 93 81 94 82 95 85 96
REMARK SMILES IDX 83 97 62 98 63 99 71 100 64 101 65 102 69 103 72 104 66 105
REMARK SMILES IDX 67 106 70 107 68 108
REMARK H PARENT 28 6 33 42 92 61 60 72
REMARK Flexibility Score: inf
ROOT
ATOM      1  C   UNL A   1      41.606  25.909  25.951  1.00  0.00     0.023 C 
ENDROOT
BRANCH   1   2
ATOM      2  C   UNL A   1      40.313  25.326  26.529  1.00  0.00     0.116 C 
BRANCH   2   3
ATOM      3  N   UNL A   1      40.408  23.884  26.608  1.00  0.00    -0.352 N 
ATOM      4  C   UNL A   1      39.494  22.890  26.371  1.00  0.00     0.251 C 
ATOM      5  O   UNL A   1      39.874  21.731  26.542  1.00  0.00    -0.269 OA
ATOM      6  H   UNL A   1      41.294  23.556  26.884  1.00  0.00     0.163 HD
BRANCH   4   7
ATOM      7  C   UNL A   1      38.111  23.139  25.872  1.00  0.00     0.039 A 
ATOM      8  C   UNL A   1      35.555  23.550  24.721  1.00  0.00     0.060 A 
ATOM      9  C   UNL A   1      36.472  22.670  24.138  1.00  0.00     0.029 A 
ATOM     10  C   UNL A   1      35.911  24.180  25.912  1.00  0.00     0.029 A 
ATOM     11  C   UNL A   1      37.742  22.482  24.691  1.00  0.00     0.016 A 
ATOM     12  C   UNL A   1      37.158  23.944  26.503  1.00  0.00     0.016 A 
BRANCH   8  13
ATOM     13  N   UNL A   1      34.316  23.743  24.141  1.00  0.00    -0.257 N 
ATOM     14  C   UNL A   1      33.661  22.815  23.220  1.00  0.00     0.144 C 
ATOM     15  C   UNL A   1      32.433  23.615  22.761  1.00  0.00     0.091 C 
ATOM     16  C   UNL A   1      32.672  24.906  23.490  1.00  0.00     0.071 C 
ATOM     17  N   UNL A   1      33.723  24.956  24.243  1.00  0.00    -0.176 NA
BRANCH  14  18
ATOM     18  C   UNL A   1      33.282  21.514  23.910  1.00  0.00    -0.019 A 
ATOM     19  C   UNL A   1      32.536  19.097  25.159  1.00  0.00     0.160 A 
ATOM     20  C   UNL A   1      32.896  20.216  25.926  1.00  0.00     0.051 A 
ATOM     21  C   UNL A   1      32.530  19.177  23.764  1.00  0.00     0.161 A 
ATOM     22  C   UNL A   1      33.273  21.413  25.307  1.00  0.00     0.010 A 
ATOM     23  C   UNL A   1      32.908  20.384  23.161  1.00  0.00     0.056 A 
BRANCH  19  24
ATOM     24  O   UNL A   1      32.087  17.983  25.818  1.00  0.00    -0.493 OA
ATOM     25  C   UNL A   1      33.027  16.912  25.754  1.00  0.00     0.278 C 
ENDBRANCH  19  24
BRANCH  21  26
ATOM     26  O   UNL A   1      32.177  18.223  22.850  1.00  0.00    -0.493 OA
ATOM     27  C   UNL A   1      33.171  17.330  22.379  1.00  0.00     0.278 C 
ENDBRANCH  21  26
ENDBRANCH  14  18
BRANCH  16  28
ATOM     28  C   UNL A   1      31.781  26.054  23.317  1.00  0.00    -0.002 A 
ATOM     29  C   UNL A   1      30.413  25.882  23.556  1.00  0.00     0.011 A 
ATOM     30  C   UNL A   1      32.291  27.277  22.878  1.00  0.00     0.011 A 
ATOM     31  C   UNL A   1      29.543  26.957  23.377  1.00  0.00     0.021 A 
ATOM     32  C   UNL A   1      31.418  28.346  22.674  1.00  0.00     0.021 A 
ATOM     33  C   UNL A   1      30.051  28.180  22.925  1.00  0.00     0.067 A 
BRANCH  33  34
ATOM     34  S   UNL A   1      28.937  29.548  22.699  1.00  0.00     0.175 S 
ATOM     35  C   UNL A   1      29.509  30.774  23.844  1.00  0.00     0.163 C 
ATOM     36  O   UNL A   1      29.157  30.041  21.350  1.00  0.00    -0.224 OA
ATOM     37  O   UNL A   1      27.624  29.121  23.132  1.00  0.00    -0.224 OA
ENDBRANCH  33  34
ENDBRANCH  16  28
ENDBRANCH   8  13
ENDBRANCH   4   7
ENDBRANCH   2   3
ENDBRANCH   1   2
BRANCH   1  38
ATOM     38  C   UNL A   1      42.428  24.907  25.136  1.00  0.00     0.023 C 
BRANCH  38  39
ATOM     39  C   UNL A   1      43.906  25.253  25.005  1.00  0.00     0.116 C 
BRANCH  39  40
ATOM     40  N   UNL A   1      44.786  24.185  25.451  1.00  0.00    -0.352 N 
ATOM     41  C   UNL A   1      45.253  23.936  26.718  1.00  0.00     0.251 C 
ATOM     42  H   UNL A   1      45.087  23.558  24.754  1.00  0.00     0.163 HD
ATOM     43  O   UNL A   1      46.082  23.055  26.917  1.00  0.00    -0.269 OA
BRANCH  41  44
ATOM     44  C   UNL A   1      44.776  24.773  27.836  1.00  0.00     0.039 A 
ATOM     45  C   UNL A   1      45.337  26.040  28.012  1.00  0.00     0.014 A 
ATOM     46  C   UNL A   1      43.757  24.324  28.679  1.00  0.00     0.014 A 
ATOM     47  C   UNL A   1      44.828  26.885  28.998  1.00  0.00     0.010 A 
ATOM     48  C   UNL A   1      43.202  25.194  29.611  1.00  0.00     0.010 A 
ATOM     49  C   UNL A   1      43.733  26.481  29.781  1.00  0.00    -0.014 A 
BRANCH  49  50
ATOM     50  C   UNL A   1      43.132  27.396  30.780  1.00  0.00     0.031 A 
ATOM     51  C   UNL A   1      43.755  27.548  32.137  1.00  0.00     0.074 A 
ATOM     52  C   UNL A   1      41.992  28.048  30.480  1.00  0.00     0.049 A 
ATOM     53  N   UNL A   1      43.363  28.276  33.152  1.00  0.00    -0.248 NA
ATOM     54  C   UNL A   1      44.965  26.755  32.398  1.00  0.00     0.031 C 
ATOM     55  C   UNL A   1      41.266  27.941  29.213  1.00  0.00     0.029 A 
ATOM     56  N   UNL A   1      41.246  28.929  31.219  1.00  0.00    -0.354 N 
ATOM     57  C   UNL A   1      44.272  28.025  34.170  1.00  0.00     0.074 A 
ATOM     58  C   UNL A   1      45.195  27.027  33.674  1.00  0.00     0.031 C 
ATOM     59  C   UNL A   1      40.198  28.753  29.250  1.00  0.00     0.029 A 
ATOM     60  C   UNL A   1      40.145  29.411  30.553  1.00  0.00     0.049 A 
ATOM     61  H   UNL A   1      41.476  29.192  32.140  1.00  0.00     0.167 HD
ATOM     62  C   UNL A   1      44.348  28.595  35.396  1.00  0.00     0.037 A 
ATOM     63  C   UNL A   1      39.204  30.288  30.949  1.00  0.00     0.037 A 
ATOM     64  C   UNL A   1      43.433  29.594  35.880  1.00  0.00     0.049 A 
ATOM     65  C   UNL A   1      39.299  30.891  32.323  1.00  0.00     0.074 A 
ATOM     66  C   UNL A   1      43.452  30.273  37.086  1.00  0.00     0.029 A 
ATOM     67  N   UNL A   1      42.326  30.054  35.179  1.00  0.00    -0.354 N 
ATOM     68  N   UNL A   1      40.205  30.703  33.252  1.00  0.00    -0.248 NA
ATOM     69  C   UNL A   1      38.238  31.836  32.701  1.00  0.00     0.031 C 
ATOM     70  C   UNL A   1      42.330  31.109  37.134  1.00  0.00     0.029 A 
ATOM     71  C   UNL A   1      41.640  30.991  35.938  1.00  0.00     0.049 A 
ATOM     72  H   UNL A   1      42.066  29.759  34.277  1.00  0.00     0.167 HD
ATOM     73  C   UNL A   1      39.840  31.520  34.312  1.00  0.00     0.074 A 
ATOM     74  C   UNL A   1      38.640  32.222  33.903  1.00  0.00     0.031 C 
ATOM     75  C   UNL A   1      40.444  31.677  35.517  1.00  0.00     0.037 A 
BRANCH  62  76
ATOM     76  C   UNL A   1      45.464  28.142  36.295  1.00  0.00     0.064 A 
ATOM     77  C   UNL A   1      46.722  28.768  36.276  1.00  0.00     0.173 A 
ATOM     78  C   UNL A   1      45.277  27.076  37.186  1.00  0.00     0.173 A 
ATOM     79  F   UNL A   1      46.957  29.785  35.432  1.00  0.00    -0.203 F 
ATOM     80  C   UNL A   1      47.761  28.315  37.084  1.00  0.00     0.198 A 
ATOM     81  C   UNL A   1      46.309  26.648  38.018  1.00  0.00     0.198 A 
ATOM     82  F   UNL A   1      44.095  26.447  37.251  1.00  0.00    -0.203 F 
ATOM     83  F   UNL A   1      48.970  28.887  37.001  1.00  0.00    -0.200 F 
ATOM     84  C   UNL A   1      47.553  27.260  37.958  1.00  0.00     0.200 A 
ATOM     85  F   UNL A   1      46.103  25.636  38.871  1.00  0.00    -0.200 F 
ATOM     86  F   UNL A   1      48.554  26.823  38.735  1.00  0.00    -0.200 F 
ENDBRANCH  62  76
BRANCH  63  87
ATOM     87  C   UNL A   1      38.118  30.681  30.015  1.00  0.00     0.064 A 
ATOM     88  C   UNL A   1      38.116  31.947  29.415  1.00  0.00     0.173 A 
ATOM     89  C   UNL A   1      37.070  29.805  29.697  1.00  0.00     0.173 A 
ATOM     90  F   UNL A   1      39.087  32.826  29.703  1.00  0.00    -0.203 F 
ATOM     91  C   UNL A   1      37.098  32.330  28.544  1.00  0.00     0.198 A 
ATOM     92  C   UNL A   1      36.067  30.179  28.805  1.00  0.00     0.198 A 
ATOM     93  F   UNL A   1      37.029  28.580  30.241  1.00  0.00    -0.203 F 
ATOM     94  F   UNL A   1      37.099  33.561  28.015  1.00  0.00    -0.200 F 
ATOM     95  C   UNL A   1      36.078  31.443  28.236  1.00  0.00     0.200 A 
ATOM     96  F   UNL A   1      35.090  29.315  28.498  1.00  0.00    -0.200 F 
ATOM     97  F   UNL A   1      35.102  31.809  27.392  1.00  0.00    -0.200 F 
ENDBRANCH  63  87
BRANCH  75  98
ATOM     98  C   UNL A   1      39.828  32.662  36.467  1.00  0.00     0.064 A 
ATOM     99  C   UNL A   1      38.719  32.326  37.259  1.00  0.00     0.173 A 
ATOM    100  C   UNL A   1      40.366  33.950  36.605  1.00  0.00     0.173 A 
ATOM    101  F   UNL A   1      38.157  31.112  37.153  1.00  0.00    -0.203 F 
ATOM    102  C   UNL A   1      38.154  33.253  38.130  1.00  0.00     0.198 A 
ATOM    103  C   UNL A   1      39.818  34.864  37.500  1.00  0.00     0.198 A 
ATOM    104  F   UNL A   1      41.429  34.320  35.876  1.00  0.00    -0.203 F 
ATOM    105  F   UNL A   1      37.062  32.928  38.836  1.00  0.00    -0.200 F 
ATOM    106  C   UNL A   1      38.707  34.518  38.255  1.00  0.00     0.200 A 
ATOM    107  F   UNL A   1      40.363  36.082  37.629  1.00  0.00    -0.200 F 
ATOM    108  F   UNL A   1      38.164  35.409  39.096  1.00  0.00    -0.200 F 
ENDBRANCH  75  98
ENDBRANCH  49  50
ENDBRANCH  41  44
ENDBRANCH  39  40
ENDBRANCH  38  39
ENDBRANCH   1  38
TORSDOF 17
ENDMDL
