MODEL 1
REMARK VINA RESULT:     -11.8      0.000      0.000
REMARK SMILES CCN(Cc1ccccc1)C(=O)Cn1cccc1C(=O)NCCCCNC(=O)c1ccc(-c2c3nc(c(-c4c(F)c(F)c(F)c(F)c4F)c4ccc([nH]4)c(-c4c(F)c(F)c(F)c(F)c4F)c4nc(c(-c5c(F)c(F)c(F)c(F)c5F)c5ccc2[nH]5)C=C4)C=C3)cc1
REMARK SMILES IDX 22 1 21 2 19 3 20 4 18 6 14 7 15 8 16 9 17 10 13 11 11 12
REMARK SMILES IDX 12 13 3 14 2 15 1 16 4 17 5 18 6 19 10 20 7 21 9 22 8 23
REMARK SMILES IDX 23 24 24 25 25 26 26 27 27 28 28 30 29 31 30 32 91 33 31 34
REMARK SMILES IDX 90 35 32 36 33 37 34 38 84 39 35 40 89 41 83 42 85 43 36 44
REMARK SMILES IDX 88 45 82 46 81 47 37 49 69 50 49 51 68 52 50 53 53 54 67 55
REMARK SMILES IDX 86 56 51 57 52 58 66 60 87 61 54 62 38 63 39 64 47 65 40 66
REMARK SMILES IDX 41 67 45 68 48 69 42 70 43 71 46 72 44 73 70 74 71 75 79 76
REMARK SMILES IDX 72 77 73 78 77 79 80 80 74 81 75 82 78 83 76 84 55 85 56 86
REMARK SMILES IDX 64 87 57 88 58 89 62 90 65 91 59 92 60 93 63 94 61 95
REMARK H PARENT 21 5 26 29 85 48 53 59
REMARK Flexibility Score: inf
ROOT
ATOM      1  C   UNL A   1      32.937  28.634  22.960  1.00  0.00     0.116 C 
ENDROOT
BRANCH   1   2
ATOM      2  N   UNL A   1      33.114  27.714  21.844  1.00  0.00    -0.351 N 
ATOM      3  C   UNL A   1      32.865  26.363  21.733  1.00  0.00     0.267 C 
ATOM      4  O   UNL A   1      33.282  25.678  20.812  1.00  0.00    -0.268 OA
ATOM      5  H   UNL A   1      33.473  28.130  21.027  1.00  0.00     0.163 HD
BRANCH   3   6
ATOM      6  C   UNL A   1      32.070  25.759  22.730  1.00  0.00     0.107 A 
ATOM      7  N   UNL A   1      32.504  24.844  23.634  1.00  0.00    -0.334 N 
ATOM      8  C   UNL A   1      31.378  24.338  24.270  1.00  0.00     0.087 A 
ATOM      9  C   UNL A   1      30.315  25.177  23.996  1.00  0.00     0.020 A 
ATOM     10  C   UNL A   1      30.787  26.135  23.083  1.00  0.00     0.033 A 
BRANCH   7  11
ATOM     11  C   UNL A   1      33.889  24.570  24.059  1.00  0.00     0.222 C 
BRANCH  11  12
ATOM     12  C   UNL A   1      34.792  23.425  23.536  1.00  0.00     0.242 C 
ATOM     13  O   UNL A   1      34.629  23.222  22.315  1.00  0.00    -0.273 OA
BRANCH  12  14
ATOM     14  N   UNL A   1      35.312  22.340  24.275  1.00  0.00    -0.337 N 
BRANCH  14  15
ATOM     15  C   UNL A   1      36.784  22.327  24.299  1.00  0.00     0.116 C 
ATOM     16  C   UNL A   1      37.336  23.294  25.345  1.00  0.00     0.027 C 
ENDBRANCH  14  15
BRANCH  14  17
ATOM     17  C   UNL A   1      34.657  21.258  25.132  1.00  0.00     0.155 C 
BRANCH  17  18
ATOM     18  C   UNL A   1      33.879  20.067  24.522  1.00  0.00    -0.029 A 
ATOM     19  C   UNL A   1      34.401  18.762  24.667  1.00  0.00     0.005 A 
ATOM     20  C   UNL A   1      32.659  20.138  23.841  1.00  0.00     0.005 A 
ATOM     21  C   UNL A   1      33.991  17.692  23.854  1.00  0.00     0.000 A 
ATOM     22  C   UNL A   1      32.181  19.037  23.086  1.00  0.00     0.000 A 
ATOM     23  C   UNL A   1      32.899  17.846  23.019  1.00  0.00     0.000 A 
ENDBRANCH  17  18
ENDBRANCH  14  17
ENDBRANCH  12  14
ENDBRANCH  11  12
ENDBRANCH   7  11
ENDBRANCH   3   6
ENDBRANCH   1   2
BRANCH   1  24
ATOM     24  C   UNL A   1      34.014  28.465  24.055  1.00  0.00     0.023 C 
BRANCH  24  25
ATOM     25  C   UNL A   1      33.516  28.145  25.471  1.00  0.00     0.023 C 
BRANCH  25  26
ATOM     26  C   UNL A   1      34.514  28.313  26.610  1.00  0.00     0.116 C 
BRANCH  26  27
ATOM     27  N   UNL A   1      34.659  29.681  27.033  1.00  0.00    -0.352 N 
ATOM     28  C   UNL A   1      35.725  30.331  27.591  1.00  0.00     0.251 C 
ATOM     29  H   UNL A   1      33.859  30.240  26.898  1.00  0.00     0.163 HD
ATOM     30  O   UNL A   1      35.536  31.495  27.949  1.00  0.00    -0.269 OA
BRANCH  28  31
ATOM     31  C   UNL A   1      37.076  29.719  27.806  1.00  0.00     0.039 A 
ATOM     32  C   UNL A   1      37.257  29.063  29.037  1.00  0.00     0.014 A 
ATOM     33  C   UNL A   1      38.169  29.792  26.931  1.00  0.00     0.014 A 
ATOM     34  C   UNL A   1      38.481  28.495  29.384  1.00  0.00     0.010 A 
ATOM     35  C   UNL A   1      39.398  29.208  27.265  1.00  0.00     0.010 A 
ATOM     36  C   UNL A   1      39.555  28.560  28.495  1.00  0.00    -0.014 A 
BRANCH  36  37
ATOM     37  C   UNL A   1      40.828  27.896  28.873  1.00  0.00     0.031 A 
ATOM     38  C   UNL A   1      40.972  26.479  28.333  1.00  0.00     0.074 A 
ATOM     39  C   UNL A   1      41.673  28.592  29.687  1.00  0.00     0.049 A 
ATOM     40  N   UNL A   1      41.661  25.479  28.794  1.00  0.00    -0.248 NA
ATOM     41  C   UNL A   1      40.188  26.101  27.130  1.00  0.00     0.031 C 
ATOM     42  C   UNL A   1      41.414  29.971  30.124  1.00  0.00     0.029 A 
ATOM     43  N   UNL A   1      42.875  28.312  30.315  1.00  0.00    -0.354 N 
ATOM     44  C   UNL A   1      41.533  24.426  27.869  1.00  0.00     0.074 A 
ATOM     45  C   UNL A   1      40.529  24.827  26.928  1.00  0.00     0.031 C 
ATOM     46  C   UNL A   1      42.365  30.385  30.979  1.00  0.00     0.029 A 
ATOM     47  C   UNL A   1      43.347  29.335  31.177  1.00  0.00     0.049 A 
ATOM     48  H   UNL A   1      43.363  27.469  30.175  1.00  0.00     0.167 HD
ATOM     49  C   UNL A   1      42.351  23.334  27.848  1.00  0.00     0.037 A 
ATOM     50  C   UNL A   1      44.422  29.344  32.025  1.00  0.00     0.037 A 
ATOM     51  C   UNL A   1      43.301  23.372  28.909  1.00  0.00     0.049 A 
ATOM     52  C   UNL A   1      45.136  28.072  31.803  1.00  0.00     0.074 A 
ATOM     53  C   UNL A   1      43.241  23.104  30.249  1.00  0.00     0.029 A 
ATOM     54  N   UNL A   1      44.514  23.953  28.638  1.00  0.00    -0.354 N 
ATOM     55  N   UNL A   1      45.870  27.809  30.763  1.00  0.00    -0.248 NA
ATOM     56  C   UNL A   1      44.988  26.984  32.780  1.00  0.00     0.031 C 
ATOM     57  C   UNL A   1      44.307  23.838  30.818  1.00  0.00     0.029 A 
ATOM     58  C   UNL A   1      44.980  24.519  29.799  1.00  0.00     0.049 A 
ATOM     59  H   UNL A   1      44.970  23.962  27.765  1.00  0.00     0.167 HD
ATOM     60  C   UNL A   1      45.994  26.437  30.816  1.00  0.00     0.074 A 
ATOM     61  C   UNL A   1      45.718  26.049  32.177  1.00  0.00     0.031 C 
ATOM     62  C   UNL A   1      45.799  25.707  29.688  1.00  0.00     0.037 A 
BRANCH  49  63
ATOM     63  C   UNL A   1      42.536  22.276  26.797  1.00  0.00     0.064 A 
ATOM     64  C   UNL A   1      41.971  20.996  27.016  1.00  0.00     0.173 A 
ATOM     65  C   UNL A   1      43.490  22.364  25.773  1.00  0.00     0.173 A 
ATOM     66  F   UNL A   1      41.032  20.813  27.957  1.00  0.00    -0.203 F 
ATOM     67  C   UNL A   1      42.407  19.866  26.325  1.00  0.00     0.198 A 
ATOM     68  C   UNL A   1      43.889  21.236  25.048  1.00  0.00     0.198 A 
ATOM     69  F   UNL A   1      44.125  23.515  25.516  1.00  0.00    -0.203 F 
ATOM     70  F   UNL A   1      41.927  18.656  26.651  1.00  0.00    -0.200 F 
ATOM     71  C   UNL A   1      43.376  19.985  25.348  1.00  0.00     0.200 A 
ATOM     72  F   UNL A   1      44.831  21.356  24.102  1.00  0.00    -0.200 F 
ATOM     73  F   UNL A   1      43.839  18.895  24.721  1.00  0.00    -0.200 F 
ENDBRANCH  49  63
BRANCH  50  74
ATOM     74  C   UNL A   1      44.969  30.262  33.106  1.00  0.00     0.064 A 
ATOM     75  C   UNL A   1      44.664  30.202  34.474  1.00  0.00     0.173 A 
ATOM     76  C   UNL A   1      45.914  31.276  32.781  1.00  0.00     0.173 A 
ATOM     77  F   UNL A   1      43.681  29.430  34.942  1.00  0.00    -0.203 F 
ATOM     78  C   UNL A   1      45.333  30.981  35.435  1.00  0.00     0.198 A 
ATOM     79  C   UNL A   1      46.594  32.039  33.735  1.00  0.00     0.198 A 
ATOM     80  F   UNL A   1      46.219  31.575  31.511  1.00  0.00    -0.203 F 
ATOM     81  F   UNL A   1      45.012  30.850  36.731  1.00  0.00    -0.200 F 
ATOM     82  C   UNL A   1      46.318  31.875  35.070  1.00  0.00     0.200 A 
ATOM     83  F   UNL A   1      47.524  32.921  33.341  1.00  0.00    -0.200 F 
ATOM     84  F   UNL A   1      46.979  32.586  35.992  1.00  0.00    -0.200 F 
ENDBRANCH  50  74
BRANCH  62  85
ATOM     85  C   UNL A   1      46.037  26.515  28.428  1.00  0.00     0.064 A 
ATOM     86  C   UNL A   1      47.343  26.845  28.035  1.00  0.00     0.173 A 
ATOM     87  C   UNL A   1      44.999  27.117  27.696  1.00  0.00     0.173 A 
ATOM     88  F   UNL A   1      48.391  26.308  28.676  1.00  0.00    -0.203 F 
ATOM     89  C   UNL A   1      47.586  27.744  26.992  1.00  0.00     0.198 A 
ATOM     90  C   UNL A   1      45.237  28.001  26.647  1.00  0.00     0.198 A 
ATOM     91  F   UNL A   1      43.726  26.858  27.990  1.00  0.00    -0.203 F 
ATOM     92  F   UNL A   1      48.847  28.052  26.657  1.00  0.00    -0.200 F 
ATOM     93  C   UNL A   1      46.534  28.325  26.302  1.00  0.00     0.200 A 
ATOM     94  F   UNL A   1      44.206  28.537  25.977  1.00  0.00    -0.200 F 
ATOM     95  F   UNL A   1      46.767  29.185  25.301  1.00  0.00    -0.200 F 
ENDBRANCH  62  85
ENDBRANCH  36  37
ENDBRANCH  28  31
ENDBRANCH  26  27
ENDBRANCH  25  26
ENDBRANCH  24  25
ENDBRANCH   1  24
TORSDOF 17
ENDMDL
MODEL 2
REMARK VINA RESULT:     -11.8      4.480      9.387
REMARK SMILES CCN(Cc1ccccc1)C(=O)Cn1cccc1C(=O)NCCCCNC(=O)c1ccc(-c2c3nc(c(-c4c(F)c(F)c(F)c(F)c4F)c4ccc([nH]4)c(-c4c(F)c(F)c(F)c(F)c4F)c4nc(c(-c5c(F)c(F)c(F)c(F)c5F)c5ccc2[nH]5)C=C4)C=C3)cc1
REMARK SMILES IDX 22 1 21 2 19 3 20 4 18 6 14 7 15 8 16 9 17 10 13 11 11 12
REMARK SMILES IDX 12 13 3 14 2 15 1 16 4 17 5 18 6 19 10 20 7 21 9 22 8 23
REMARK SMILES IDX 23 24 24 25 25 26 26 27 27 28 28 30 29 31 30 32 91 33 31 34
REMARK SMILES IDX 90 35 32 36 33 37 34 38 84 39 35 40 89 41 83 42 85 43 36 44
REMARK SMILES IDX 88 45 82 46 81 47 37 49 69 50 49 51 68 52 50 53 53 54 67 55
REMARK SMILES IDX 86 56 51 57 52 58 66 60 87 61 54 62 38 63 39 64 47 65 40 66
REMARK SMILES IDX 41 67 45 68 48 69 42 70 43 71 46 72 44 73 70 74 71 75 79 76
REMARK SMILES IDX 72 77 73 78 77 79 80 80 74 81 75 82 78 83 76 84 55 85 56 86
REMARK SMILES IDX 64 87 57 88 58 89 62 90 65 91 59 92 60 93 63 94 61 95
REMARK H PARENT 21 5 26 29 85 48 53 59
REMARK Flexibility Score: inf
ROOT
ATOM      1  C   UNL A   1      33.784  22.109  25.125  1.00  0.00     0.116 C 
ENDROOT
BRANCH   1   2
ATOM      2  N   UNL A   1      32.890  22.317  26.257  1.00  0.00    -0.351 N 
ATOM      3  C   UNL A   1      31.887  23.238  26.465  1.00  0.00     0.267 C 
ATOM      4  O   UNL A   1      31.380  23.444  27.556  1.00  0.00    -0.268 OA
ATOM      5  H   UNL A   1      33.027  21.690  27.004  1.00  0.00     0.163 HD
BRANCH   3   6
ATOM      6  C   UNL A   1      31.417  23.959  25.346  1.00  0.00     0.107 A 
ATOM      7  N   UNL A   1      31.447  25.310  25.211  1.00  0.00    -0.334 N 
ATOM      8  C   UNL A   1      30.690  25.622  24.090  1.00  0.00     0.087 A 
ATOM      9  C   UNL A   1      30.492  24.462  23.368  1.00  0.00     0.020 A 
ATOM     10  C   UNL A   1      31.038  23.416  24.132  1.00  0.00     0.033 A 
BRANCH   7  11
ATOM     11  C   UNL A   1      32.286  26.278  25.942  1.00  0.00     0.222 C 
BRANCH  11  12
ATOM     12  C   UNL A   1      31.825  27.654  26.483  1.00  0.00     0.242 C 
ATOM     13  O   UNL A   1      31.073  27.539  27.474  1.00  0.00    -0.273 OA
BRANCH  12  14
ATOM     14  N   UNL A   1      31.710  28.863  25.762  1.00  0.00    -0.337 N 
BRANCH  14  15
ATOM     15  C   UNL A   1      31.962  30.047  26.600  1.00  0.00     0.116 C 
ATOM     16  C   UNL A   1      33.446  30.189  26.938  1.00  0.00     0.027 C 
ENDBRANCH  14  15
BRANCH  14  17
ATOM     17  C   UNL A   1      31.488  29.173  24.283  1.00  0.00     0.155 C 
BRANCH  17  18
ATOM     18  C   UNL A   1      30.103  29.564  23.711  1.00  0.00    -0.029 A 
ATOM     19  C   UNL A   1      29.657  30.897  23.851  1.00  0.00     0.005 A 
ATOM     20  C   UNL A   1      29.224  28.721  23.023  1.00  0.00     0.005 A 
ATOM     21  C   UNL A   1      28.306  31.258  23.714  1.00  0.00     0.000 A 
ATOM     22  C   UNL A   1      27.878  29.102  22.795  1.00  0.00     0.000 A 
ATOM     23  C   UNL A   1      27.398  30.335  23.227  1.00  0.00     0.000 A 
ENDBRANCH  17  18
ENDBRANCH  14  17
ENDBRANCH  12  14
ENDBRANCH  11  12
ENDBRANCH   7  11
ENDBRANCH   3   6
ENDBRANCH   1   2
BRANCH   1  24
ATOM     24  C   UNL A   1      35.272  22.313  25.488  1.00  0.00     0.023 C 
BRANCH  24  25
ATOM     25  C   UNL A   1      35.638  23.628  26.190  1.00  0.00     0.023 C 
BRANCH  25  26
ATOM     26  C   UNL A   1      37.019  24.204  25.902  1.00  0.00     0.116 C 
BRANCH  26  27
ATOM     27  N   UNL A   1      38.085  23.398  26.434  1.00  0.00    -0.352 N 
ATOM     28  C   UNL A   1      39.194  23.752  27.154  1.00  0.00     0.251 C 
ATOM     29  H   UNL A   1      38.003  22.433  26.250  1.00  0.00     0.163 HD
ATOM     30  O   UNL A   1      40.003  22.854  27.400  1.00  0.00    -0.269 OA
BRANCH  28  31
ATOM     31  C   UNL A   1      39.487  25.140  27.636  1.00  0.00     0.039 A 
ATOM     32  C   UNL A   1      39.107  25.416  28.962  1.00  0.00     0.014 A 
ATOM     33  C   UNL A   1      40.041  26.182  26.878  1.00  0.00     0.014 A 
ATOM     34  C   UNL A   1      39.277  26.682  29.517  1.00  0.00     0.010 A 
ATOM     35  C   UNL A   1      40.231  27.453  27.436  1.00  0.00     0.010 A 
ATOM     36  C   UNL A   1      39.847  27.705  28.757  1.00  0.00    -0.014 A 
BRANCH  36  37
ATOM     37  C   UNL A   1      40.064  29.026  29.398  1.00  0.00     0.031 A 
ATOM     38  C   UNL A   1      38.871  29.969  29.291  1.00  0.00     0.074 A 
ATOM     39  C   UNL A   1      41.292  29.259  29.942  1.00  0.00     0.049 A 
ATOM     40  N   UNL A   1      38.834  31.267  29.303  1.00  0.00    -0.248 NA
ATOM     41  C   UNL A   1      37.524  29.380  29.086  1.00  0.00     0.031 C 
ATOM     42  C   UNL A   1      42.355  28.244  29.990  1.00  0.00     0.029 A 
ATOM     43  N   UNL A   1      41.907  30.348  30.537  1.00  0.00    -0.354 N 
ATOM     44  C   UNL A   1      37.478  31.643  29.276  1.00  0.00     0.074 A 
ATOM     45  C   UNL A   1      36.726  30.447  29.030  1.00  0.00     0.031 C 
ATOM     46  C   UNL A   1      43.482  28.763  30.507  1.00  0.00     0.029 A 
ATOM     47  C   UNL A   1      43.274  30.153  30.865  1.00  0.00     0.049 A 
ATOM     48  H   UNL A   1      41.432  31.191  30.718  1.00  0.00     0.167 HD
ATOM     49  C   UNL A   1      37.034  32.894  29.587  1.00  0.00     0.037 A 
ATOM     50  C   UNL A   1      44.197  31.041  31.350  1.00  0.00     0.037 A 
ATOM     51  C   UNL A   1      38.114  33.775  29.881  1.00  0.00     0.049 A 
ATOM     52  C   UNL A   1      43.468  32.297  31.609  1.00  0.00     0.074 A 
ATOM     53  C   UNL A   1      39.019  34.458  29.115  1.00  0.00     0.029 A 
ATOM     54  N   UNL A   1      38.497  33.875  31.195  1.00  0.00    -0.354 N 
ATOM     55  N   UNL A   1      42.656  32.487  32.607  1.00  0.00    -0.248 NA
ATOM     56  C   UNL A   1      43.603  33.415  30.666  1.00  0.00     0.031 C 
ATOM     57  C   UNL A   1      40.124  34.686  29.968  1.00  0.00     0.029 A 
ATOM     58  C   UNL A   1      39.845  34.137  31.223  1.00  0.00     0.049 A 
ATOM     59  H   UNL A   1      37.909  33.776  31.978  1.00  0.00     0.167 HD
ATOM     60  C   UNL A   1      41.957  33.612  32.222  1.00  0.00     0.074 A 
ATOM     61  C   UNL A   1      42.764  34.279  31.230  1.00  0.00     0.031 C 
ATOM     62  C   UNL A   1      40.606  33.630  32.345  1.00  0.00     0.037 A 
BRANCH  49  63
ATOM     63  C   UNL A   1      35.644  33.392  29.874  1.00  0.00     0.064 A 
ATOM     64  C   UNL A   1      34.950  34.090  28.856  1.00  0.00     0.173 A 
ATOM     65  C   UNL A   1      35.113  33.495  31.167  1.00  0.00     0.173 A 
ATOM     66  F   UNL A   1      35.365  34.036  27.581  1.00  0.00    -0.203 F 
ATOM     67  C   UNL A   1      33.862  34.916  29.135  1.00  0.00     0.198 A 
ATOM     68  C   UNL A   1      33.990  34.286  31.434  1.00  0.00     0.198 A 
ATOM     69  F   UNL A   1      35.720  32.917  32.212  1.00  0.00    -0.203 F 
ATOM     70  F   UNL A   1      33.312  35.651  28.156  1.00  0.00    -0.200 F 
ATOM     71  C   UNL A   1      33.389  35.022  30.427  1.00  0.00     0.200 A 
ATOM     72  F   UNL A   1      33.536  34.387  32.692  1.00  0.00    -0.200 F 
ATOM     73  F   UNL A   1      32.380  35.857  30.711  1.00  0.00    -0.200 F 
ENDBRANCH  49  63
BRANCH  50  74
ATOM     74  C   UNL A   1      45.696  31.049  31.600  1.00  0.00     0.064 A 
ATOM     75  C   UNL A   1      46.325  31.103  32.853  1.00  0.00     0.173 A 
ATOM     76  C   UNL A   1      46.609  30.955  30.512  1.00  0.00     0.173 A 
ATOM     77  F   UNL A   1      45.643  31.357  33.971  1.00  0.00    -0.203 F 
ATOM     78  C   UNL A   1      47.713  30.942  33.012  1.00  0.00     0.198 A 
ATOM     79  C   UNL A   1      47.987  30.777  30.667  1.00  0.00     0.198 A 
ATOM     80  F   UNL A   1      46.200  31.035  29.238  1.00  0.00    -0.203 F 
ATOM     81  F   UNL A   1      48.244  30.973  34.243  1.00  0.00    -0.200 F 
ATOM     82  C   UNL A   1      48.539  30.748  31.924  1.00  0.00     0.200 A 
ATOM     83  F   UNL A   1      48.764  30.623  29.585  1.00  0.00    -0.200 F 
ATOM     84  F   UNL A   1      49.855  30.558  32.084  1.00  0.00    -0.200 F 
ENDBRANCH  50  74
BRANCH  62  85
ATOM     85  C   UNL A   1      40.108  32.662  33.400  1.00  0.00     0.064 A 
ATOM     86  C   UNL A   1      39.479  31.467  33.024  1.00  0.00     0.173 A 
ATOM     87  C   UNL A   1      40.083  32.971  34.771  1.00  0.00     0.173 A 
ATOM     88  F   UNL A   1      39.465  31.094  31.735  1.00  0.00    -0.203 F 
ATOM     89  C   UNL A   1      38.841  30.649  33.962  1.00  0.00     0.198 A 
ATOM     90  C   UNL A   1      39.462  32.152  35.712  1.00  0.00     0.198 A 
ATOM     91  F   UNL A   1      40.662  34.081  35.225  1.00  0.00    -0.203 F 
ATOM     92  F   UNL A   1      38.233  29.524  33.563  1.00  0.00    -0.200 F 
ATOM     93  C   UNL A   1      38.830  30.995  35.304  1.00  0.00     0.200 A 
ATOM     94  F   UNL A   1      39.479  32.492  37.009  1.00  0.00    -0.200 F 
ATOM     95  F   UNL A   1      38.220  30.211  36.205  1.00  0.00    -0.200 F 
ENDBRANCH  62  85
ENDBRANCH  36  37
ENDBRANCH  28  31
ENDBRANCH  26  27
ENDBRANCH  25  26
ENDBRANCH  24  25
ENDBRANCH   1  24
TORSDOF 17
ENDMDL
MODEL 3
REMARK VINA RESULT:     -11.7      2.350      8.195
REMARK SMILES CCN(Cc1ccccc1)C(=O)Cn1cccc1C(=O)NCCCCNC(=O)c1ccc(-c2c3nc(c(-c4c(F)c(F)c(F)c(F)c4F)c4ccc([nH]4)c(-c4c(F)c(F)c(F)c(F)c4F)c4nc(c(-c5c(F)c(F)c(F)c(F)c5F)c5ccc2[nH]5)C=C4)C=C3)cc1
REMARK SMILES IDX 22 1 21 2 19 3 20 4 18 6 14 7 15 8 16 9 17 10 13 11 11 12
REMARK SMILES IDX 12 13 3 14 2 15 1 16 4 17 5 18 6 19 10 20 7 21 9 22 8 23
REMARK SMILES IDX 23 24 24 25 25 26 26 27 27 28 28 30 29 31 30 32 91 33 31 34
REMARK SMILES IDX 90 35 32 36 33 37 34 38 84 39 35 40 89 41 83 42 85 43 36 44
REMARK SMILES IDX 88 45 82 46 81 47 37 49 69 50 49 51 68 52 50 53 53 54 67 55
REMARK SMILES IDX 86 56 51 57 52 58 66 60 87 61 54 62 38 63 39 64 47 65 40 66
REMARK SMILES IDX 41 67 45 68 48 69 42 70 43 71 46 72 44 73 70 74 71 75 79 76
REMARK SMILES IDX 72 77 73 78 77 79 80 80 74 81 75 82 78 83 76 84 55 85 56 86
REMARK SMILES IDX 64 87 57 88 58 89 62 90 65 91 59 92 60 93 63 94 61 95
REMARK H PARENT 21 5 26 29 85 48 53 59
REMARK Flexibility Score: inf
ROOT
ATOM      1  C   UNL A   1      33.501  28.443  22.993  1.00  0.00     0.116 C 
ENDROOT
BRANCH   1   2
ATOM      2  N   UNL A   1      32.239  28.929  22.450  1.00  0.00    -0.351 N 
ATOM      3  C   UNL A   1      30.977  28.375  22.451  1.00  0.00     0.267 C 
ATOM      4  O   UNL A   1      30.064  28.786  21.752  1.00  0.00    -0.268 OA
ATOM      5  H   UNL A   1      32.298  29.806  22.005  1.00  0.00     0.163 HD
BRANCH   3   6
ATOM      6  C   UNL A   1      30.737  27.292  23.323  1.00  0.00     0.107 A 
ATOM      7  N   UNL A   1      31.003  25.988  23.049  1.00  0.00    -0.334 N 
ATOM      8  C   UNL A   1      30.414  25.236  24.056  1.00  0.00     0.087 A 
ATOM      9  C   UNL A   1      30.093  26.084  25.097  1.00  0.00     0.020 A 
ATOM     10  C   UNL A   1      30.387  27.386  24.657  1.00  0.00     0.033 A 
BRANCH   7  11
ATOM     11  C   UNL A   1      31.919  25.440  22.032  1.00  0.00     0.222 C 
BRANCH  11  12
ATOM     12  C   UNL A   1      33.036  24.396  22.280  1.00  0.00     0.242 C 
ATOM     13  O   UNL A   1      33.340  23.780  21.238  1.00  0.00    -0.273 OA
BRANCH  12  14
ATOM     14  N   UNL A   1      33.338  23.739  23.493  1.00  0.00    -0.337 N 
BRANCH  14  15
ATOM     15  C   UNL A   1      34.482  24.346  24.194  1.00  0.00     0.116 C 
ATOM     16  C   UNL A   1      35.771  23.566  23.942  1.00  0.00     0.027 C 
ENDBRANCH  14  15
BRANCH  14  17
ATOM     17  C   UNL A   1      32.654  22.610  24.262  1.00  0.00     0.155 C 
BRANCH  17  18
ATOM     18  C   UNL A   1      32.992  21.118  24.029  1.00  0.00    -0.029 A 
ATOM     19  C   UNL A   1      32.311  20.412  23.012  1.00  0.00     0.005 A 
ATOM     20  C   UNL A   1      33.951  20.369  24.721  1.00  0.00     0.005 A 
ATOM     21  C   UNL A   1      32.265  19.008  22.970  1.00  0.00     0.000 A 
ATOM     22  C   UNL A   1      33.981  18.955  24.623  1.00  0.00     0.000 A 
ATOM     23  C   UNL A   1      33.073  18.272  23.817  1.00  0.00     0.000 A 
ENDBRANCH  17  18
ENDBRANCH  14  17
ENDBRANCH  12  14
ENDBRANCH  11  12
ENDBRANCH   7  11
ENDBRANCH   3   6
ENDBRANCH   1   2
BRANCH   1  24
ATOM     24  C   UNL A   1      33.757  28.922  24.440  1.00  0.00     0.023 C 
BRANCH  24  25
ATOM     25  C   UNL A   1      33.864  27.835  25.518  1.00  0.00     0.023 C 
BRANCH  25  26
ATOM     26  C   UNL A   1      33.347  28.186  26.908  1.00  0.00     0.116 C 
BRANCH  26  27
ATOM     27  N   UNL A   1      33.208  29.604  27.114  1.00  0.00    -0.352 N 
ATOM     28  C   UNL A   1      34.054  30.504  27.703  1.00  0.00     0.251 C 
ATOM     29  H   UNL A   1      32.367  29.989  26.774  1.00  0.00     0.163 HD
ATOM     30  O   UNL A   1      33.632  31.655  27.832  1.00  0.00    -0.269 OA
BRANCH  28  31
ATOM     31  C   UNL A   1      35.426  30.176  28.208  1.00  0.00     0.039 A 
ATOM     32  C   UNL A   1      36.471  30.349  27.283  1.00  0.00     0.014 A 
ATOM     33  C   UNL A   1      35.744  29.668  29.475  1.00  0.00     0.014 A 
ATOM     34  C   UNL A   1      37.788  30.033  27.608  1.00  0.00     0.010 A 
ATOM     35  C   UNL A   1      37.069  29.364  29.816  1.00  0.00     0.010 A 
ATOM     36  C   UNL A   1      38.093  29.545  28.880  1.00  0.00    -0.014 A 
BRANCH  36  37
ATOM     37  C   UNL A   1      39.514  29.270  29.211  1.00  0.00     0.031 A 
ATOM     38  C   UNL A   1      40.255  30.464  29.800  1.00  0.00     0.074 A 
ATOM     39  C   UNL A   1      39.995  28.032  28.905  1.00  0.00     0.049 A 
ATOM     40  N   UNL A   1      41.521  30.750  29.780  1.00  0.00    -0.248 NA
ATOM     41  C   UNL A   1      39.460  31.529  30.463  1.00  0.00     0.031 C 
ATOM     42  C   UNL A   1      39.157  26.959  28.349  1.00  0.00     0.029 A 
ATOM     43  N   UNL A   1      41.236  27.422  28.971  1.00  0.00    -0.354 N 
ATOM     44  C   UNL A   1      41.697  31.913  30.553  1.00  0.00     0.074 A 
ATOM     45  C   UNL A   1      40.385  32.407  30.853  1.00  0.00     0.031 C 
ATOM     46  C   UNL A   1      39.900  25.874  28.070  1.00  0.00     0.029 A 
ATOM     47  C   UNL A   1      41.286  26.113  28.425  1.00  0.00     0.049 A 
ATOM     48  H   UNL A   1      42.023  27.862  29.366  1.00  0.00     0.167 HD
ATOM     49  C   UNL A   1      42.907  32.337  31.017  1.00  0.00     0.037 A 
ATOM     50  C   UNL A   1      42.356  25.282  28.227  1.00  0.00     0.037 A 
ATOM     51  C   UNL A   1      43.964  31.491  30.572  1.00  0.00     0.049 A 
ATOM     52  C   UNL A   1      43.524  25.962  28.820  1.00  0.00     0.074 A 
ATOM     53  C   UNL A   1      44.641  31.358  29.391  1.00  0.00     0.029 A 
ATOM     54  N   UNL A   1      44.314  30.449  31.393  1.00  0.00    -0.354 N 
ATOM     55  N   UNL A   1      43.749  26.064  30.096  1.00  0.00    -0.248 NA
ATOM     56  C   UNL A   1      44.493  26.626  27.939  1.00  0.00     0.031 C 
ATOM     57  C   UNL A   1      45.147  30.036  29.406  1.00  0.00     0.029 A 
ATOM     58  C   UNL A   1      44.763  29.420  30.600  1.00  0.00     0.049 A 
ATOM     59  H   UNL A   1      44.255  30.439  32.375  1.00  0.00     0.167 HD
ATOM     60  C   UNL A   1      44.694  27.067  30.160  1.00  0.00     0.074 A 
ATOM     61  C   UNL A   1      45.308  27.138  28.857  1.00  0.00     0.031 C 
ATOM     62  C   UNL A   1      44.543  28.067  31.065  1.00  0.00     0.037 A 
BRANCH  49  63
ATOM     63  C   UNL A   1      43.245  33.369  32.057  1.00  0.00     0.064 A 
ATOM     64  C   UNL A   1      42.948  33.088  33.413  1.00  0.00     0.173 A 
ATOM     65  C   UNL A   1      43.535  34.706  31.752  1.00  0.00     0.173 A 
ATOM     66  F   UNL A   1      42.679  31.835  33.811  1.00  0.00    -0.203 F 
ATOM     67  C   UNL A   1      42.848  34.094  34.373  1.00  0.00     0.198 A 
ATOM     68  C   UNL A   1      43.482  35.706  32.729  1.00  0.00     0.198 A 
ATOM     69  F   UNL A   1      43.779  35.091  30.492  1.00  0.00    -0.203 F 
ATOM     70  F   UNL A   1      42.446  33.795  35.617  1.00  0.00    -0.200 F 
ATOM     71  C   UNL A   1      43.104  35.406  34.027  1.00  0.00     0.200 A 
ATOM     72  F   UNL A   1      43.731  36.978  32.387  1.00  0.00    -0.200 F 
ATOM     73  F   UNL A   1      42.955  36.384  34.931  1.00  0.00    -0.200 F 
ENDBRANCH  49  63
BRANCH  50  74
ATOM     74  C   UNL A   1      42.610  23.955  27.533  1.00  0.00     0.064 A 
ATOM     75  C   UNL A   1      42.467  22.682  28.104  1.00  0.00     0.173 A 
ATOM     76  C   UNL A   1      42.994  23.920  26.161  1.00  0.00     0.173 A 
ATOM     77  F   UNL A   1      42.275  22.516  29.414  1.00  0.00    -0.203 F 
ATOM     78  C   UNL A   1      42.563  21.497  27.352  1.00  0.00     0.198 A 
ATOM     79  C   UNL A   1      43.072  22.746  25.407  1.00  0.00     0.198 A 
ATOM     80  F   UNL A   1      43.315  25.034  25.490  1.00  0.00    -0.203 F 
ATOM     81  F   UNL A   1      42.383  20.314  27.957  1.00  0.00    -0.200 F 
ATOM     82  C   UNL A   1      42.834  21.530  25.999  1.00  0.00     0.200 A 
ATOM     83  F   UNL A   1      43.369  22.813  24.101  1.00  0.00    -0.200 F 
ATOM     84  F   UNL A   1      42.886  20.402  25.279  1.00  0.00    -0.200 F 
ENDBRANCH  50  74
BRANCH  62  85
ATOM     85  C   UNL A   1      43.688  27.654  32.246  1.00  0.00     0.064 A 
ATOM     86  C   UNL A   1      42.367  28.113  32.359  1.00  0.00     0.173 A 
ATOM     87  C   UNL A   1      44.198  26.958  33.355  1.00  0.00     0.173 A 
ATOM     88  F   UNL A   1      41.800  28.779  31.342  1.00  0.00    -0.203 F 
ATOM     89  C   UNL A   1      41.619  27.910  33.523  1.00  0.00     0.198 A 
ATOM     90  C   UNL A   1      43.452  26.740  34.511  1.00  0.00     0.198 A 
ATOM     91  F   UNL A   1      45.440  26.477  33.338  1.00  0.00    -0.203 F 
ATOM     92  F   UNL A   1      40.367  28.380  33.602  1.00  0.00    -0.200 F 
ATOM     93  C   UNL A   1      42.164  27.227  34.599  1.00  0.00     0.200 A 
ATOM     94  F   UNL A   1      43.988  26.059  35.535  1.00  0.00    -0.200 F 
ATOM     95  F   UNL A   1      41.447  27.030  35.715  1.00  0.00    -0.200 F 
ENDBRANCH  62  85
ENDBRANCH  36  37
ENDBRANCH  28  31
ENDBRANCH  26  27
ENDBRANCH  25  26
ENDBRANCH  24  25
ENDBRANCH   1  24
TORSDOF 17
ENDMDL
