MODEL 1
REMARK VINA RESULT:     -12.1      0.000      0.000
REMARK SMILES COc1ccc(C2=NN=C[C@@H]2C(=O)NCCCCNC(=O)c2ccc(-c3c4nc(c(-c5c(F)c(F)c(F)c(F)c5F)c5ccc([nH]5)c(-c5c(F)c(F)c(F)c(F)c5F)c5nc(c(-c6c(F)c(F)c(F)c(F)c6F)c6ccc3[nH]6)C=C5)C=C4)cc2)cc1OC
REMARK SMILES IDX 16 1 15 2 14 3 12 4 13 5 11 7 7 8 8 9 9 10 10 11 6 12 3 13
REMARK SMILES IDX 4 14 86 15 5 16 85 17 2 18 1 19 87 20 88 21 17 22 18 23
REMARK SMILES IDX 19 24 20 25 21 27 22 28 23 29 84 30 24 31 83 32 25 33 26 34
REMARK SMILES IDX 27 35 77 36 28 37 82 38 76 39 78 40 29 41 81 42 75 43 74 44
REMARK SMILES IDX 30 46 62 47 42 48 61 49 43 50 46 51 60 52 79 53 44 54 45 55
REMARK SMILES IDX 59 57 80 58 47 59 31 60 32 61 40 62 33 63 34 64 38 65 41 66
REMARK SMILES IDX 35 67 36 68 39 69 37 70 63 71 64 72 72 73 65 74 66 75 70 76
REMARK SMILES IDX 73 77 67 78 68 79 71 80 69 81 48 82 49 83 57 84 50 85 51 86
REMARK SMILES IDX 55 87 58 88 52 89 53 90 56 91 54 92
REMARK H PARENT 14 6 19 26 78 45 46 56
REMARK Flexibility Score: inf
ROOT
ATOM      1  C   UNL A   1      34.055  29.691  27.608  1.00  0.00     0.023 C 
ENDROOT
BRANCH   1   2
ATOM      2  C   UNL A   1      33.471  28.726  26.572  1.00  0.00     0.116 C 
BRANCH   2   3
ATOM      3  N   UNL A   1      33.823  29.102  25.210  1.00  0.00    -0.355 N 
ATOM      4  C   UNL A   1      33.119  29.027  24.046  1.00  0.00     0.234 C 
ATOM      5  O   UNL A   1      33.694  29.404  23.020  1.00  0.00    -0.274 OA
ATOM      6  H   UNL A   1      34.728  29.475  25.114  1.00  0.00     0.163 HD
BRANCH   4   7
ATOM      7  C   UNL A   1      31.698  28.549  23.969  1.00  0.00     0.173 C 
ATOM      8  C   UNL A   1      31.518  27.113  23.630  1.00  0.00     0.088 C 
ATOM      9  N   UNL A   1      30.770  26.925  22.584  1.00  0.00    -0.154 NA
ATOM     10  N   UNL A   1      30.347  28.209  22.110  1.00  0.00    -0.162 NA
ATOM     11  C   UNL A   1      30.874  29.111  22.873  1.00  0.00     0.128 C 
BRANCH   8  12
ATOM     12  C   UNL A   1      32.156  26.043  24.394  1.00  0.00     0.003 A 
ATOM     13  C   UNL A   1      33.369  24.095  25.964  1.00  0.00     0.160 A 
ATOM     14  C   UNL A   1      34.063  24.660  24.886  1.00  0.00     0.051 A 
ATOM     15  C   UNL A   1      32.054  24.493  26.245  1.00  0.00     0.161 A 
ATOM     16  C   UNL A   1      33.451  25.628  24.086  1.00  0.00     0.014 A 
ATOM     17  C   UNL A   1      31.456  25.480  25.460  1.00  0.00     0.060 A 
BRANCH  13  18
ATOM     18  O   UNL A   1      34.049  23.280  26.829  1.00  0.00    -0.493 OA
ATOM     19  C   UNL A   1      35.347  22.928  26.355  1.00  0.00     0.278 C 
ENDBRANCH  13  18
BRANCH  15  20
ATOM     20  O   UNL A   1      31.250  24.056  27.263  1.00  0.00    -0.493 OA
ATOM     21  C   UNL A   1      30.333  23.027  26.936  1.00  0.00     0.278 C 
ENDBRANCH  15  20
ENDBRANCH   8  12
ENDBRANCH   4   7
ENDBRANCH   2   3
ENDBRANCH   1   2
BRANCH   1  22
ATOM     22  C   UNL A   1      33.992  31.183  27.240  1.00  0.00     0.023 C 
BRANCH  22  23
ATOM     23  C   UNL A   1      35.119  32.027  27.818  1.00  0.00     0.116 C 
BRANCH  23  24
ATOM     24  N   UNL A   1      34.810  32.595  29.133  1.00  0.00    -0.352 N 
ATOM     25  C   UNL A   1      35.221  32.140  30.380  1.00  0.00     0.251 C 
ATOM     26  H   UNL A   1      34.243  33.400  29.134  1.00  0.00     0.163 HD
ATOM     27  O   UNL A   1      34.618  32.428  31.397  1.00  0.00    -0.269 OA
BRANCH  25  28
ATOM     28  C   UNL A   1      36.443  31.316  30.443  1.00  0.00     0.039 A 
ATOM     29  C   UNL A   1      36.427  29.918  30.423  1.00  0.00     0.014 A 
ATOM     30  C   UNL A   1      37.644  32.013  30.491  1.00  0.00     0.014 A 
ATOM     31  C   UNL A   1      37.646  29.236  30.400  1.00  0.00     0.010 A 
ATOM     32  C   UNL A   1      38.811  31.363  30.224  1.00  0.00     0.010 A 
ATOM     33  C   UNL A   1      38.831  29.979  30.300  1.00  0.00    -0.014 A 
BRANCH  33  34
ATOM     34  C   UNL A   1      40.151  29.376  30.193  1.00  0.00     0.031 A 
ATOM     35  C   UNL A   1      40.813  29.139  31.504  1.00  0.00     0.074 A 
ATOM     36  C   UNL A   1      40.549  28.798  29.034  1.00  0.00     0.049 A 
ATOM     37  N   UNL A   1      41.911  29.648  31.952  1.00  0.00    -0.248 NA
ATOM     38  C   UNL A   1      40.076  28.347  32.508  1.00  0.00     0.031 C 
ATOM     39  C   UNL A   1      39.794  28.660  27.778  1.00  0.00     0.029 A 
ATOM     40  N   UNL A   1      41.692  28.113  28.758  1.00  0.00    -0.354 N 
ATOM     41  C   UNL A   1      42.107  29.083  33.213  1.00  0.00     0.074 A 
ATOM     42  C   UNL A   1      40.855  28.486  33.581  1.00  0.00     0.031 C 
ATOM     43  C   UNL A   1      40.409  27.769  26.967  1.00  0.00     0.029 A 
ATOM     44  C   UNL A   1      41.667  27.384  27.568  1.00  0.00     0.049 A 
ATOM     45  H   UNL A   1      42.476  28.130  29.353  1.00  0.00     0.167 HD
ATOM     46  C   UNL A   1      43.362  28.918  33.720  1.00  0.00     0.037 A 
ATOM     47  C   UNL A   1      42.612  26.500  27.152  1.00  0.00     0.037 A 
ATOM     48  C   UNL A   1      44.307  29.730  32.994  1.00  0.00     0.049 A 
ATOM     49  C   UNL A   1      43.823  26.734  27.970  1.00  0.00     0.074 A 
ATOM     50  C   UNL A   1      44.469  31.086  32.790  1.00  0.00     0.029 A 
ATOM     51  N   UNL A   1      45.044  29.116  32.011  1.00  0.00    -0.354 N 
ATOM     52  N   UNL A   1      44.546  27.814  27.879  1.00  0.00    -0.248 NA
ATOM     53  C   UNL A   1      43.930  26.000  29.223  1.00  0.00     0.031 C 
ATOM     54  C   UNL A   1      44.873  31.209  31.427  1.00  0.00     0.029 A 
ATOM     55  C   UNL A   1      45.023  29.925  30.906  1.00  0.00     0.049 A 
ATOM     56  H   UNL A   1      45.505  28.250  32.087  1.00  0.00     0.167 HD
ATOM     57  C   UNL A   1      44.855  28.131  29.191  1.00  0.00     0.074 A 
ATOM     58  C   UNL A   1      44.495  26.949  29.973  1.00  0.00     0.031 C 
ATOM     59  C   UNL A   1      45.081  29.424  29.557  1.00  0.00     0.037 A 
BRANCH  46  60
ATOM     60  C   UNL A   1      43.809  27.747  34.577  1.00  0.00     0.064 A 
ATOM     61  C   UNL A   1      43.706  26.445  34.041  1.00  0.00     0.173 A 
ATOM     62  C   UNL A   1      44.043  27.802  35.968  1.00  0.00     0.173 A 
ATOM     63  F   UNL A   1      43.491  26.257  32.730  1.00  0.00    -0.203 F 
ATOM     64  C   UNL A   1      43.721  25.304  34.849  1.00  0.00     0.198 A 
ATOM     65  C   UNL A   1      44.110  26.659  36.765  1.00  0.00     0.198 A 
ATOM     66  F   UNL A   1      44.115  28.951  36.646  1.00  0.00    -0.203 F 
ATOM     67  F   UNL A   1      43.478  24.103  34.307  1.00  0.00    -0.200 F 
ATOM     68  C   UNL A   1      43.911  25.412  36.213  1.00  0.00     0.200 A 
ATOM     69  F   UNL A   1      44.286  26.788  38.087  1.00  0.00    -0.200 F 
ATOM     70  F   UNL A   1      43.857  24.331  36.998  1.00  0.00    -0.200 F 
ENDBRANCH  46  60
BRANCH  47  71
ATOM     71  C   UNL A   1      42.388  25.168  26.543  1.00  0.00     0.064 A 
ATOM     72  C   UNL A   1      43.119  24.711  25.438  1.00  0.00     0.173 A 
ATOM     73  C   UNL A   1      41.695  24.199  27.286  1.00  0.00     0.173 A 
ATOM     74  F   UNL A   1      43.889  25.561  24.742  1.00  0.00    -0.203 F 
ATOM     75  C   UNL A   1      43.127  23.356  25.078  1.00  0.00     0.198 A 
ATOM     76  C   UNL A   1      41.727  22.849  26.946  1.00  0.00     0.198 A 
ATOM     77  F   UNL A   1      41.054  24.543  28.414  1.00  0.00    -0.203 F 
ATOM     78  F   UNL A   1      43.862  22.938  24.038  1.00  0.00    -0.200 F 
ATOM     79  C   UNL A   1      42.432  22.426  25.836  1.00  0.00     0.200 A 
ATOM     80  F   UNL A   1      41.113  21.955  27.734  1.00  0.00    -0.200 F 
ATOM     81  F   UNL A   1      42.471  21.122  25.525  1.00  0.00    -0.200 F 
ENDBRANCH  47  71
BRANCH  59  82
ATOM     82  C   UNL A   1      45.191  30.445  28.460  1.00  0.00     0.064 A 
ATOM     83  C   UNL A   1      44.139  31.286  28.054  1.00  0.00     0.173 A 
ATOM     84  C   UNL A   1      46.458  30.690  27.922  1.00  0.00     0.173 A 
ATOM     85  F   UNL A   1      42.917  31.165  28.583  1.00  0.00    -0.203 F 
ATOM     86  C   UNL A   1      44.349  32.314  27.137  1.00  0.00     0.198 A 
ATOM     87  C   UNL A   1      46.673  31.737  27.034  1.00  0.00     0.198 A 
ATOM     88  F   UNL A   1      47.503  29.942  28.310  1.00  0.00    -0.203 F 
ATOM     89  F   UNL A   1      43.332  33.109  26.769  1.00  0.00    -0.200 F 
ATOM     90  C   UNL A   1      45.620  32.547  26.638  1.00  0.00     0.200 A 
ATOM     91  F   UNL A   1      47.912  31.984  26.588  1.00  0.00    -0.200 F 
ATOM     92  F   UNL A   1      45.837  33.568  25.797  1.00  0.00    -0.200 F 
ENDBRANCH  59  82
ENDBRANCH  33  34
ENDBRANCH  25  28
ENDBRANCH  23  24
ENDBRANCH  22  23
ENDBRANCH   1  22
TORSDOF 14
ENDMDL
MODEL 2
REMARK VINA RESULT:     -12.1      1.229      2.699
REMARK SMILES COc1ccc(C2=NN=C[C@@H]2C(=O)NCCCCNC(=O)c2ccc(-c3c4nc(c(-c5c(F)c(F)c(F)c(F)c5F)c5ccc([nH]5)c(-c5c(F)c(F)c(F)c(F)c5F)c5nc(c(-c6c(F)c(F)c(F)c(F)c6F)c6ccc3[nH]6)C=C5)C=C4)cc2)cc1OC
REMARK SMILES IDX 16 1 15 2 14 3 12 4 13 5 11 7 7 8 8 9 9 10 10 11 6 12 3 13
REMARK SMILES IDX 4 14 86 15 5 16 85 17 2 18 1 19 87 20 88 21 17 22 18 23
REMARK SMILES IDX 19 24 20 25 21 27 22 28 23 29 84 30 24 31 83 32 25 33 26 34
REMARK SMILES IDX 27 35 77 36 28 37 82 38 76 39 78 40 29 41 81 42 75 43 74 44
REMARK SMILES IDX 30 46 62 47 42 48 61 49 43 50 46 51 60 52 79 53 44 54 45 55
REMARK SMILES IDX 59 57 80 58 47 59 31 60 32 61 40 62 33 63 34 64 38 65 41 66
REMARK SMILES IDX 35 67 36 68 39 69 37 70 63 71 64 72 72 73 65 74 66 75 70 76
REMARK SMILES IDX 73 77 67 78 68 79 71 80 69 81 48 82 49 83 57 84 50 85 51 86
REMARK SMILES IDX 55 87 58 88 52 89 53 90 56 91 54 92
REMARK H PARENT 14 6 19 26 78 45 46 56
REMARK Flexibility Score: inf
ROOT
ATOM      1  C   UNL A   1      35.051  29.443  27.252  1.00  0.00     0.023 C 
ENDROOT
BRANCH   1   2
ATOM      2  C   UNL A   1      34.219  28.345  26.582  1.00  0.00     0.116 C 
BRANCH   2   3
ATOM      3  N   UNL A   1      32.894  28.222  27.172  1.00  0.00    -0.355 N 
ATOM      4  C   UNL A   1      31.923  27.280  27.014  1.00  0.00     0.234 C 
ATOM      5  O   UNL A   1      30.869  27.453  27.635  1.00  0.00    -0.274 OA
ATOM      6  H   UNL A   1      32.658  28.947  27.794  1.00  0.00     0.163 HD
BRANCH   4   7
ATOM      7  C   UNL A   1      32.091  26.054  26.164  1.00  0.00     0.173 C 
ATOM      8  C   UNL A   1      31.024  25.815  25.157  1.00  0.00     0.088 C 
ATOM      9  N   UNL A   1      30.462  24.650  25.275  1.00  0.00    -0.154 NA
ATOM     10  N   UNL A   1      31.096  23.964  26.361  1.00  0.00    -0.162 NA
ATOM     11  C   UNL A   1      31.993  24.750  26.862  1.00  0.00     0.128 C 
BRANCH   8  12
ATOM     12  C   UNL A   1      30.643  26.821  24.167  1.00  0.00     0.003 A 
ATOM     13  C   UNL A   1      29.965  28.838  22.377  1.00  0.00     0.160 A 
ATOM     14  C   UNL A   1      28.966  28.029  22.935  1.00  0.00     0.051 A 
ATOM     15  C   UNL A   1      31.313  28.622  22.702  1.00  0.00     0.161 A 
ATOM     16  C   UNL A   1      29.305  27.005  23.823  1.00  0.00     0.014 A 
ATOM     17  C   UNL A   1      31.644  27.616  23.611  1.00  0.00     0.060 A 
BRANCH  13  18
ATOM     18  O   UNL A   1      29.593  29.935  21.650  1.00  0.00    -0.493 OA
ATOM     19  C   UNL A   1      28.180  30.131  21.625  1.00  0.00     0.278 C 
ENDBRANCH  13  18
BRANCH  15  20
ATOM     20  O   UNL A   1      32.400  29.329  22.262  1.00  0.00    -0.493 OA
ATOM     21  C   UNL A   1      33.660  28.895  22.739  1.00  0.00     0.278 C 
ENDBRANCH  15  20
ENDBRANCH   8  12
ENDBRANCH   4   7
ENDBRANCH   2   3
ENDBRANCH   1   2
BRANCH   1  22
ATOM     22  C   UNL A   1      34.317  30.768  27.517  1.00  0.00     0.023 C 
BRANCH  22  23
ATOM     23  C   UNL A   1      35.224  31.931  27.896  1.00  0.00     0.116 C 
BRANCH  23  24
ATOM     24  N   UNL A   1      34.925  32.502  29.212  1.00  0.00    -0.352 N 
ATOM     25  C   UNL A   1      35.338  32.043  30.457  1.00  0.00     0.251 C 
ATOM     26  H   UNL A   1      34.363  33.310  29.215  1.00  0.00     0.163 HD
ATOM     27  O   UNL A   1      34.742  32.336  31.477  1.00  0.00    -0.269 OA
BRANCH  25  28
ATOM     28  C   UNL A   1      36.555  31.211  30.514  1.00  0.00     0.039 A 
ATOM     29  C   UNL A   1      36.526  29.815  30.594  1.00  0.00     0.014 A 
ATOM     30  C   UNL A   1      37.763  31.896  30.451  1.00  0.00     0.014 A 
ATOM     31  C   UNL A   1      37.736  29.119  30.556  1.00  0.00     0.010 A 
ATOM     32  C   UNL A   1      38.908  31.214  30.171  1.00  0.00     0.010 A 
ATOM     33  C   UNL A   1      38.921  29.838  30.342  1.00  0.00    -0.014 A 
BRANCH  33  34
ATOM     34  C   UNL A   1      40.228  29.213  30.209  1.00  0.00     0.031 A 
ATOM     35  C   UNL A   1      40.907  28.957  31.508  1.00  0.00     0.074 A 
ATOM     36  C   UNL A   1      40.596  28.635  29.041  1.00  0.00     0.049 A 
ATOM     37  N   UNL A   1      42.022  29.445  31.940  1.00  0.00    -0.248 NA
ATOM     38  C   UNL A   1      40.174  28.173  32.520  1.00  0.00     0.031 C 
ATOM     39  C   UNL A   1      39.818  28.517  27.797  1.00  0.00     0.029 A 
ATOM     40  N   UNL A   1      41.722  27.932  28.742  1.00  0.00    -0.354 N 
ATOM     41  C   UNL A   1      42.229  28.869  33.195  1.00  0.00     0.074 A 
ATOM     42  C   UNL A   1      40.973  28.292  33.580  1.00  0.00     0.031 C 
ATOM     43  C   UNL A   1      40.404  27.620  26.971  1.00  0.00     0.029 A 
ATOM     44  C   UNL A   1      41.665  27.211  27.548  1.00  0.00     0.049 A 
ATOM     45  H   UNL A   1      42.517  27.933  29.323  1.00  0.00     0.167 HD
ATOM     46  C   UNL A   1      43.489  28.680  33.679  1.00  0.00     0.037 A 
ATOM     47  C   UNL A   1      42.588  26.313  27.112  1.00  0.00     0.037 A 
ATOM     48  C   UNL A   1      44.436  29.480  32.941  1.00  0.00     0.049 A 
ATOM     49  C   UNL A   1      43.816  26.522  27.911  1.00  0.00     0.074 A 
ATOM     50  C   UNL A   1      44.618  30.834  32.742  1.00  0.00     0.029 A 
ATOM     51  N   UNL A   1      45.146  28.859  31.943  1.00  0.00    -0.354 N 
ATOM     52  N   UNL A   1      44.556  27.589  27.813  1.00  0.00    -0.248 NA
ATOM     53  C   UNL A   1      43.931  25.779  29.157  1.00  0.00     0.031 C 
ATOM     54  C   UNL A   1      45.001  30.958  31.374  1.00  0.00     0.029 A 
ATOM     55  C   UNL A   1      45.120  29.674  30.843  1.00  0.00     0.049 A 
ATOM     56  H   UNL A   1      45.593  27.984  32.007  1.00  0.00     0.167 HD
ATOM     57  C   UNL A   1      44.892  27.893  29.122  1.00  0.00     0.074 A 
ATOM     58  C   UNL A   1      44.525  26.713  29.903  1.00  0.00     0.031 C 
ATOM     59  C   UNL A   1      45.146  29.180  29.490  1.00  0.00     0.037 A 
BRANCH  46  60
ATOM     60  C   UNL A   1      43.930  27.497  34.522  1.00  0.00     0.064 A 
ATOM     61  C   UNL A   1      43.792  26.199  33.983  1.00  0.00     0.173 A 
ATOM     62  C   UNL A   1      44.193  27.540  35.909  1.00  0.00     0.173 A 
ATOM     63  F   UNL A   1      43.549  26.021  32.675  1.00  0.00    -0.203 F 
ATOM     64  C   UNL A   1      43.801  25.054  34.785  1.00  0.00     0.198 A 
ATOM     65  C   UNL A   1      44.253  26.392  36.699  1.00  0.00     0.198 A 
ATOM     66  F   UNL A   1      44.299  28.685  36.591  1.00  0.00    -0.203 F 
ATOM     67  F   UNL A   1      43.525  23.860  34.243  1.00  0.00    -0.200 F 
ATOM     68  C   UNL A   1      44.019  25.152  36.145  1.00  0.00     0.200 A 
ATOM     69  F   UNL A   1      44.457  26.512  38.018  1.00  0.00    -0.200 F 
ATOM     70  F   UNL A   1      43.960  24.068  36.927  1.00  0.00    -0.200 F 
ENDBRANCH  46  60
BRANCH  47  71
ATOM     71  C   UNL A   1      42.330  24.989  26.499  1.00  0.00     0.064 A 
ATOM     72  C   UNL A   1      43.061  24.508  25.404  1.00  0.00     0.173 A 
ATOM     73  C   UNL A   1      41.597  24.042  27.233  1.00  0.00     0.173 A 
ATOM     74  F   UNL A   1      43.866  25.334  24.719  1.00  0.00    -0.203 F 
ATOM     75  C   UNL A   1      43.032  23.154  25.044  1.00  0.00     0.198 A 
ATOM     76  C   UNL A   1      41.591  22.691  26.893  1.00  0.00     0.198 A 
ATOM     77  F   UNL A   1      40.952  24.405  28.352  1.00  0.00    -0.203 F 
ATOM     78  F   UNL A   1      43.767  22.714  24.013  1.00  0.00    -0.200 F 
ATOM     79  C   UNL A   1      42.298  22.246  25.792  1.00  0.00     0.200 A 
ATOM     80  F   UNL A   1      40.939  21.816  27.672  1.00  0.00    -0.200 F 
ATOM     81  F   UNL A   1      42.301  20.942  25.481  1.00  0.00    -0.200 F 
ENDBRANCH  47  71
BRANCH  59  82
ATOM     82  C   UNL A   1      45.256  30.206  28.398  1.00  0.00     0.064 A 
ATOM     83  C   UNL A   1      44.197  31.029  27.977  1.00  0.00     0.173 A 
ATOM     84  C   UNL A   1      46.527  30.472  27.879  1.00  0.00     0.173 A 
ATOM     85  F   UNL A   1      42.968  30.887  28.487  1.00  0.00    -0.203 F 
ATOM     86  C   UNL A   1      44.403  32.063  27.066  1.00  0.00     0.198 A 
ATOM     87  C   UNL A   1      46.737  31.525  26.997  1.00  0.00     0.198 A 
ATOM     88  F   UNL A   1      47.578  29.742  28.282  1.00  0.00    -0.203 F 
ATOM     89  F   UNL A   1      43.378  32.841  26.684  1.00  0.00    -0.200 F 
ATOM     90  C   UNL A   1      45.677  32.318  26.586  1.00  0.00     0.200 A 
ATOM     91  F   UNL A   1      47.979  31.794  26.571  1.00  0.00    -0.200 F 
ATOM     92  F   UNL A   1      45.889  33.344  25.751  1.00  0.00    -0.200 F 
ENDBRANCH  59  82
ENDBRANCH  33  34
ENDBRANCH  25  28
ENDBRANCH  23  24
ENDBRANCH  22  23
ENDBRANCH   1  22
TORSDOF 14
ENDMDL
MODEL 3
REMARK VINA RESULT:     -12.0      0.600      1.279
REMARK SMILES COc1ccc(C2=NN=C[C@@H]2C(=O)NCCCCNC(=O)c2ccc(-c3c4nc(c(-c5c(F)c(F)c(F)c(F)c5F)c5ccc([nH]5)c(-c5c(F)c(F)c(F)c(F)c5F)c5nc(c(-c6c(F)c(F)c(F)c(F)c6F)c6ccc3[nH]6)C=C5)C=C4)cc2)cc1OC
REMARK SMILES IDX 16 1 15 2 14 3 12 4 13 5 11 7 7 8 8 9 9 10 10 11 6 12 3 13
REMARK SMILES IDX 4 14 86 15 5 16 85 17 2 18 1 19 87 20 88 21 17 22 18 23
REMARK SMILES IDX 19 24 20 25 21 27 22 28 23 29 84 30 24 31 83 32 25 33 26 34
REMARK SMILES IDX 27 35 77 36 28 37 82 38 76 39 78 40 29 41 81 42 75 43 74 44
REMARK SMILES IDX 30 46 62 47 42 48 61 49 43 50 46 51 60 52 79 53 44 54 45 55
REMARK SMILES IDX 59 57 80 58 47 59 31 60 32 61 40 62 33 63 34 64 38 65 41 66
REMARK SMILES IDX 35 67 36 68 39 69 37 70 63 71 64 72 72 73 65 74 66 75 70 76
REMARK SMILES IDX 73 77 67 78 68 79 71 80 69 81 48 82 49 83 57 84 50 85 51 86
REMARK SMILES IDX 55 87 58 88 52 89 53 90 56 91 54 92
REMARK H PARENT 14 6 19 26 78 45 46 56
REMARK Flexibility Score: inf
ROOT
ATOM      1  C   UNL A   1      33.173  30.723  27.566  1.00  0.00     0.023 C 
ENDROOT
BRANCH   1   2
ATOM      2  C   UNL A   1      32.378  30.160  26.384  1.00  0.00     0.116 C 
BRANCH   2   3
ATOM      3  N   UNL A   1      33.243  29.728  25.295  1.00  0.00    -0.355 N 
ATOM      4  C   UNL A   1      33.018  28.887  24.248  1.00  0.00     0.234 C 
ATOM      5  O   UNL A   1      33.965  28.684  23.481  1.00  0.00    -0.274 OA
ATOM      6  H   UNL A   1      34.150  30.110  25.322  1.00  0.00     0.163 HD
BRANCH   4   7
ATOM      7  C   UNL A   1      31.691  28.242  23.976  1.00  0.00     0.173 C 
ATOM      8  C   UNL A   1      31.734  26.798  23.625  1.00  0.00     0.088 C 
ATOM      9  N   UNL A   1      31.168  26.531  22.487  1.00  0.00    -0.154 NA
ATOM     10  N   UNL A   1      30.663  27.759  21.949  1.00  0.00    -0.162 NA
ATOM     11  C   UNL A   1      30.965  28.710  22.771  1.00  0.00     0.128 C 
BRANCH   8  12
ATOM     12  C   UNL A   1      32.385  25.805  24.479  1.00  0.00     0.003 A 
ATOM     13  C   UNL A   1      33.604  24.008  26.216  1.00  0.00     0.160 A 
ATOM     14  C   UNL A   1      34.341  24.589  25.174  1.00  0.00     0.051 A 
ATOM     15  C   UNL A   1      32.244  24.314  26.375  1.00  0.00     0.161 A 
ATOM     16  C   UNL A   1      33.727  25.480  24.291  1.00  0.00     0.014 A 
ATOM     17  C   UNL A   1      31.643  25.226  25.507  1.00  0.00     0.060 A 
BRANCH  13  18
ATOM     18  O   UNL A   1      34.268  23.277  27.162  1.00  0.00    -0.493 OA
ATOM     19  C   UNL A   1      34.099  21.871  26.997  1.00  0.00     0.278 C 
ENDBRANCH  13  18
BRANCH  15  20
ATOM     20  O   UNL A   1      31.394  23.850  27.343  1.00  0.00    -0.493 OA
ATOM     21  C   UNL A   1      30.301  23.072  26.891  1.00  0.00     0.278 C 
ENDBRANCH  15  20
ENDBRANCH   8  12
ENDBRANCH   4   7
ENDBRANCH   2   3
ENDBRANCH   1   2
BRANCH   1  22
ATOM     22  C   UNL A   1      34.702  30.722  27.403  1.00  0.00     0.023 C 
BRANCH  22  23
ATOM     23  C   UNL A   1      35.378  32.039  27.758  1.00  0.00     0.116 C 
BRANCH  23  24
ATOM     24  N   UNL A   1      35.015  32.545  29.085  1.00  0.00    -0.352 N 
ATOM     25  C   UNL A   1      35.366  32.023  30.324  1.00  0.00     0.251 C 
ATOM     26  H   UNL A   1      34.455  33.354  29.101  1.00  0.00     0.163 HD
ATOM     27  O   UNL A   1      34.721  32.267  31.327  1.00  0.00    -0.269 OA
BRANCH  25  28
ATOM     28  C   UNL A   1      36.578  31.185  30.399  1.00  0.00     0.039 A 
ATOM     29  C   UNL A   1      36.542  29.787  30.436  1.00  0.00     0.014 A 
ATOM     30  C   UNL A   1      37.789  31.865  30.399  1.00  0.00     0.014 A 
ATOM     31  C   UNL A   1      37.750  29.087  30.420  1.00  0.00     0.010 A 
ATOM     32  C   UNL A   1      38.941  31.187  30.139  1.00  0.00     0.010 A 
ATOM     33  C   UNL A   1      38.944  29.808  30.270  1.00  0.00    -0.014 A 
BRANCH  33  34
ATOM     34  C   UNL A   1      40.253  29.181  30.165  1.00  0.00     0.031 A 
ATOM     35  C   UNL A   1      40.908  28.933  31.477  1.00  0.00     0.074 A 
ATOM     36  C   UNL A   1      40.642  28.596  29.007  1.00  0.00     0.049 A 
ATOM     37  N   UNL A   1      42.015  29.422  31.927  1.00  0.00    -0.248 NA
ATOM     38  C   UNL A   1      40.157  28.155  32.480  1.00  0.00     0.031 C 
ATOM     39  C   UNL A   1      39.887  28.471  27.750  1.00  0.00     0.029 A 
ATOM     40  N   UNL A   1      41.773  27.891  28.733  1.00  0.00    -0.354 N 
ATOM     41  C   UNL A   1      42.199  28.855  33.188  1.00  0.00     0.074 A 
ATOM     42  C   UNL A   1      40.936  28.280  33.554  1.00  0.00     0.031 C 
ATOM     43  C   UNL A   1      40.487  27.569  26.939  1.00  0.00     0.029 A 
ATOM     44  C   UNL A   1      41.737  27.162  27.542  1.00  0.00     0.049 A 
ATOM     45  H   UNL A   1      42.557  27.895  29.328  1.00  0.00     0.167 HD
ATOM     46  C   UNL A   1      43.450  28.667  33.696  1.00  0.00     0.037 A 
ATOM     47  C   UNL A   1      42.667  26.262  27.128  1.00  0.00     0.037 A 
ATOM     48  C   UNL A   1      44.410  29.463  32.971  1.00  0.00     0.049 A 
ATOM     49  C   UNL A   1      43.881  26.475  27.948  1.00  0.00     0.074 A 
ATOM     50  C   UNL A   1      44.597  30.816  32.768  1.00  0.00     0.029 A 
ATOM     51  N   UNL A   1      45.138  28.836  31.990  1.00  0.00    -0.354 N 
ATOM     52  N   UNL A   1      44.623  27.541  27.857  1.00  0.00    -0.248 NA
ATOM     53  C   UNL A   1      43.973  25.739  29.201  1.00  0.00     0.031 C 
ATOM     54  C   UNL A   1      45.005  30.931  31.406  1.00  0.00     0.029 A 
ATOM     55  C   UNL A   1      45.133  29.645  30.885  1.00  0.00     0.049 A 
ATOM     56  H   UNL A   1      45.584  27.961  32.067  1.00  0.00     0.167 HD
ATOM     57  C   UNL A   1      44.935  27.853  29.170  1.00  0.00     0.074 A 
ATOM     58  C   UNL A   1      44.553  26.678  29.952  1.00  0.00     0.031 C 
ATOM     59  C   UNL A   1      45.184  29.143  29.535  1.00  0.00     0.037 A 
BRANCH  46  60
ATOM     60  C   UNL A   1      43.875  27.489  34.554  1.00  0.00     0.064 A 
ATOM     61  C   UNL A   1      44.410  27.749  35.834  1.00  0.00     0.173 A 
ATOM     62  C   UNL A   1      44.064  26.171  34.086  1.00  0.00     0.173 A 
ATOM     63  F   UNL A   1      44.290  28.962  36.396  1.00  0.00    -0.203 F 
ATOM     64  C   UNL A   1      45.167  26.803  36.531  1.00  0.00     0.198 A 
ATOM     65  C   UNL A   1      44.776  25.212  34.808  1.00  0.00     0.198 A 
ATOM     66  F   UNL A   1      43.669  25.768  32.875  1.00  0.00    -0.203 F 
ATOM     67  F   UNL A   1      45.770  27.147  37.678  1.00  0.00    -0.200 F 
ATOM     68  C   UNL A   1      45.361  25.538  36.012  1.00  0.00     0.200 A 
ATOM     69  F   UNL A   1      44.959  23.994  34.279  1.00  0.00    -0.200 F 
ATOM     70  F   UNL A   1      46.141  24.652  36.641  1.00  0.00    -0.200 F 
ENDBRANCH  46  60
BRANCH  47  71
ATOM     71  C   UNL A   1      42.421  24.934  26.519  1.00  0.00     0.064 A 
ATOM     72  C   UNL A   1      43.161  24.453  25.430  1.00  0.00     0.173 A 
ATOM     73  C   UNL A   1      41.688  23.986  27.251  1.00  0.00     0.173 A 
ATOM     74  F   UNL A   1      43.966  25.281  24.748  1.00  0.00    -0.203 F 
ATOM     75  C   UNL A   1      43.141  23.097  25.075  1.00  0.00     0.198 A 
ATOM     76  C   UNL A   1      41.690  22.634  26.916  1.00  0.00     0.198 A 
ATOM     77  F   UNL A   1      41.033  24.351  28.365  1.00  0.00    -0.203 F 
ATOM     78  F   UNL A   1      43.885  22.657  24.051  1.00  0.00    -0.200 F 
ATOM     79  C   UNL A   1      42.407  22.189  25.821  1.00  0.00     0.200 A 
ATOM     80  F   UNL A   1      41.038  21.759  27.694  1.00  0.00    -0.200 F 
ATOM     81  F   UNL A   1      42.418  20.884  25.516  1.00  0.00    -0.200 F 
ENDBRANCH  47  71
BRANCH  59  82
ATOM     82  C   UNL A   1      45.314  30.161  28.439  1.00  0.00     0.064 A 
ATOM     83  C   UNL A   1      44.254  30.959  27.971  1.00  0.00     0.173 A 
ATOM     84  C   UNL A   1      46.597  30.451  27.968  1.00  0.00     0.173 A 
ATOM     85  F   UNL A   1      43.010  30.794  28.435  1.00  0.00    -0.203 F 
ATOM     86  C   UNL A   1      44.473  31.990  27.059  1.00  0.00     0.198 A 
ATOM     87  C   UNL A   1      46.819  31.502  27.084  1.00  0.00     0.198 A 
ATOM     88  F   UNL A   1      47.648  29.747  28.416  1.00  0.00    -0.203 F 
ATOM     89  F   UNL A   1      43.447  32.742  26.632  1.00  0.00    -0.200 F 
ATOM     90  C   UNL A   1      45.759  32.268  26.627  1.00  0.00     0.200 A 
ATOM     91  F   UNL A   1      48.070  31.794  26.704  1.00  0.00    -0.200 F 
ATOM     92  F   UNL A   1      45.981  33.292  25.791  1.00  0.00    -0.200 F 
ENDBRANCH  59  82
ENDBRANCH  33  34
ENDBRANCH  25  28
ENDBRANCH  23  24
ENDBRANCH  22  23
ENDBRANCH   1  22
TORSDOF 14
ENDMDL
