MODEL 1
REMARK VINA RESULT:     -11.9      0.000      0.000
REMARK SMILES CN(Cc1ccnn1C)C(=O)c1c(C(=O)NCCCCNC(=O)c2ccc(-c3c4nc(c(-c5c(F)c(F)c(F)c(F)c5F)c5ccc([nH]5)c(-c5c(F)c(F)c(F)c(F)c5F)c5nc(c(-c6c(F)c(F)c(F)c(F)c6F)c6ccc3[nH]6)C=C5)C=C4)cc2)cnn1C
REMARK SMILES IDX 17 1 16 2 14 3 15 4 13 6 12 7 89 8 87 9 88 10 90 11 10 12
REMARK SMILES IDX 11 13 2 14 1 15 3 16 4 17 5 18 8 19 6 20 7 21 9 22 18 23
REMARK SMILES IDX 19 24 20 25 21 26 22 27 23 29 24 30 25 31 86 32 26 33 85 34
REMARK SMILES IDX 27 35 28 36 29 37 79 38 30 39 84 40 78 41 80 42 31 43 83 44
REMARK SMILES IDX 77 45 76 46 32 48 64 49 44 50 63 51 45 52 48 53 62 54 81 55
REMARK SMILES IDX 46 56 47 57 61 59 82 60 49 61 33 62 34 63 42 64 35 65 36 66
REMARK SMILES IDX 40 67 43 68 37 69 38 70 41 71 39 72 65 73 66 74 74 75 67 76
REMARK SMILES IDX 68 77 72 78 75 79 69 80 70 81 73 82 71 83 50 84 51 85 59 86
REMARK SMILES IDX 52 87 53 88 57 89 60 90 54 91 55 92 58 93 56 94
REMARK H PARENT 16 5 21 28 80 47 48 58
REMARK Flexibility Score: inf
ROOT
ATOM      1  C   UNL A   1      33.039  29.031  26.346  1.00  0.00     0.116 C 
ENDROOT
BRANCH   1   2
ATOM      2  N   UNL A   1      33.508  29.384  25.032  1.00  0.00    -0.352 N 
ATOM      3  C   UNL A   1      33.125  28.926  23.797  1.00  0.00     0.255 C 
ATOM      4  O   UNL A   1      33.724  29.402  22.830  1.00  0.00    -0.269 OA
ATOM      5  H   UNL A   1      34.218  30.065  25.017  1.00  0.00     0.163 HD
BRANCH   3   6
ATOM      6  C   UNL A   1      32.140  27.870  23.603  1.00  0.00     0.090 A 
ATOM      7  C   UNL A   1      32.233  26.524  23.218  1.00  0.00     0.138 A 
ATOM      8  N   UNL A   1      30.970  26.015  23.435  1.00  0.00    -0.262 N 
ATOM      9  C   UNL A   1      30.771  28.049  23.914  1.00  0.00     0.149 A 
ATOM     10  N   UNL A   1      30.047  26.951  23.720  1.00  0.00    -0.180 NA
ATOM     11  C   UNL A   1      30.537  24.639  23.494  1.00  0.00     0.174 C 
BRANCH   7  12
ATOM     12  C   UNL A   1      33.432  25.777  22.895  1.00  0.00     0.273 C 
ATOM     13  O   UNL A   1      33.794  25.681  21.723  1.00  0.00    -0.267 OA
BRANCH  12  14
ATOM     14  N   UNL A   1      34.067  25.019  23.893  1.00  0.00    -0.334 N 
ATOM     15  C   UNL A   1      33.863  25.403  25.288  1.00  0.00     0.147 C 
BRANCH  14  16
ATOM     16  C   UNL A   1      34.912  23.845  23.685  1.00  0.00     0.175 C 
BRANCH  16  17
ATOM     17  C   UNL A   1      34.091  22.625  23.976  1.00  0.00     0.057 A 
ATOM     18  C   UNL A   1      32.979  22.100  23.333  1.00  0.00     0.047 A 
ATOM     19  N   UNL A   1      34.352  21.743  24.997  1.00  0.00    -0.271 N 
ATOM     20  C   UNL A   1      32.721  20.878  23.964  1.00  0.00     0.135 A 
ATOM     21  N   UNL A   1      33.569  20.648  24.965  1.00  0.00    -0.181 NA
ATOM     22  C   UNL A   1      35.345  21.837  26.040  1.00  0.00     0.174 C 
ENDBRANCH  16  17
ENDBRANCH  14  16
ENDBRANCH  12  14
ENDBRANCH   7  12
ENDBRANCH   3   6
ENDBRANCH   1   2
BRANCH   1  23
ATOM     23  C   UNL A   1      31.924  29.911  26.891  1.00  0.00     0.023 C 
BRANCH  23  24
ATOM     24  C   UNL A   1      31.997  31.395  26.558  1.00  0.00     0.023 C 
BRANCH  24  25
ATOM     25  C   UNL A   1      32.959  32.229  27.392  1.00  0.00     0.116 C 
BRANCH  25  26
ATOM     26  N   UNL A   1      32.530  33.604  27.603  1.00  0.00    -0.352 N 
ATOM     27  C   UNL A   1      33.033  34.575  28.444  1.00  0.00     0.251 C 
ATOM     28  H   UNL A   1      31.758  33.886  27.060  1.00  0.00     0.163 HD
ATOM     29  O   UNL A   1      32.486  35.663  28.531  1.00  0.00    -0.269 OA
BRANCH  27  30
ATOM     30  C   UNL A   1      34.212  34.268  29.282  1.00  0.00     0.039 A 
ATOM     31  C   UNL A   1      34.012  33.742  30.562  1.00  0.00     0.014 A 
ATOM     32  C   UNL A   1      35.504  34.428  28.783  1.00  0.00     0.014 A 
ATOM     33  C   UNL A   1      35.105  33.266  31.290  1.00  0.00     0.010 A 
ATOM     34  C   UNL A   1      36.576  33.863  29.462  1.00  0.00     0.010 A 
ATOM     35  C   UNL A   1      36.387  33.264  30.717  1.00  0.00    -0.014 A 
BRANCH  35  36
ATOM     36  C   UNL A   1      37.543  32.625  31.396  1.00  0.00     0.031 A 
ATOM     37  C   UNL A   1      38.264  31.481  30.740  1.00  0.00     0.074 A 
ATOM     38  C   UNL A   1      37.881  33.007  32.644  1.00  0.00     0.049 A 
ATOM     39  N   UNL A   1      39.226  30.727  31.209  1.00  0.00    -0.248 NA
ATOM     40  C   UNL A   1      37.815  31.108  29.390  1.00  0.00     0.031 C 
ATOM     41  C   UNL A   1      37.222  34.060  33.418  1.00  0.00     0.029 A 
ATOM     42  N   UNL A   1      38.862  32.544  33.487  1.00  0.00    -0.354 N 
ATOM     43  C   UNL A   1      39.470  29.775  30.229  1.00  0.00     0.074 A 
ATOM     44  C   UNL A   1      38.520  30.011  29.165  1.00  0.00     0.031 C 
ATOM     45  C   UNL A   1      37.840  34.190  34.603  1.00  0.00     0.029 A 
ATOM     46  C   UNL A   1      38.912  33.204  34.690  1.00  0.00     0.049 A 
ATOM     47  H   UNL A   1      39.471  31.807  33.251  1.00  0.00     0.167 HD
ATOM     48  C   UNL A   1      40.417  28.808  30.206  1.00  0.00     0.037 A 
ATOM     49  C   UNL A   1      39.734  33.034  35.744  1.00  0.00     0.037 A 
ATOM     50  C   UNL A   1      41.394  28.609  31.243  1.00  0.00     0.049 A 
ATOM     51  C   UNL A   1      40.790  31.965  35.687  1.00  0.00     0.074 A 
ATOM     52  C   UNL A   1      42.456  27.723  31.271  1.00  0.00     0.029 A 
ATOM     53  N   UNL A   1      41.426  29.312  32.439  1.00  0.00    -0.354 N 
ATOM     54  N   UNL A   1      41.065  31.124  34.720  1.00  0.00    -0.248 NA
ATOM     55  C   UNL A   1      41.650  31.824  36.870  1.00  0.00     0.031 C 
ATOM     56  C   UNL A   1      43.108  27.863  32.502  1.00  0.00     0.029 A 
ATOM     57  C   UNL A   1      42.477  28.864  33.222  1.00  0.00     0.049 A 
ATOM     58  H   UNL A   1      40.795  30.024  32.693  1.00  0.00     0.167 HD
ATOM     59  C   UNL A   1      42.147  30.376  35.162  1.00  0.00     0.074 A 
ATOM     60  C   UNL A   1      42.483  30.867  36.483  1.00  0.00     0.031 C 
ATOM     61  C   UNL A   1      42.804  29.373  34.530  1.00  0.00     0.037 A 
BRANCH  48  62
ATOM     62  C   UNL A   1      40.439  27.896  29.013  1.00  0.00     0.064 A 
ATOM     63  C   UNL A   1      41.203  28.191  27.874  1.00  0.00     0.173 A 
ATOM     64  C   UNL A   1      39.686  26.712  29.010  1.00  0.00     0.173 A 
ATOM     65  F   UNL A   1      41.930  29.318  27.821  1.00  0.00    -0.203 F 
ATOM     66  C   UNL A   1      41.178  27.358  26.759  1.00  0.00     0.198 A 
ATOM     67  C   UNL A   1      39.690  25.865  27.906  1.00  0.00     0.198 A 
ATOM     68  F   UNL A   1      38.944  26.379  30.077  1.00  0.00    -0.203 F 
ATOM     69  F   UNL A   1      41.864  27.694  25.658  1.00  0.00    -0.200 F 
ATOM     70  C   UNL A   1      40.426  26.193  26.776  1.00  0.00     0.200 A 
ATOM     71  F   UNL A   1      38.971  24.733  27.929  1.00  0.00    -0.200 F 
ATOM     72  F   UNL A   1      40.400  25.394  25.703  1.00  0.00    -0.200 F 
ENDBRANCH  48  62
BRANCH  49  73
ATOM     73  C   UNL A   1      39.628  33.935  36.921  1.00  0.00     0.064 A 
ATOM     74  C   UNL A   1      38.870  33.555  38.038  1.00  0.00     0.173 A 
ATOM     75  C   UNL A   1      40.276  35.176  36.961  1.00  0.00     0.173 A 
ATOM     76  F   UNL A   1      38.215  32.384  38.035  1.00  0.00    -0.203 F 
ATOM     77  C   UNL A   1      38.753  34.390  39.146  1.00  0.00     0.198 A 
ATOM     78  C   UNL A   1      40.176  36.001  38.081  1.00  0.00     0.198 A 
ATOM     79  F   UNL A   1      41.015  35.583  35.920  1.00  0.00    -0.203 F 
ATOM     80  F   UNL A   1      37.994  34.018  40.186  1.00  0.00    -0.200 F 
ATOM     81  C   UNL A   1      39.412  35.610  39.169  1.00  0.00     0.200 A 
ATOM     82  F   UNL A   1      40.824  37.174  38.106  1.00  0.00    -0.200 F 
ATOM     83  F   UNL A   1      39.304  36.410  40.239  1.00  0.00    -0.200 F 
ENDBRANCH  49  73
BRANCH  61  84
ATOM     84  C   UNL A   1      43.977  28.766  35.241  1.00  0.00     0.064 A 
ATOM     85  C   UNL A   1      43.829  27.662  36.091  1.00  0.00     0.173 A 
ATOM     86  C   UNL A   1      45.270  29.270  35.033  1.00  0.00     0.173 A 
ATOM     87  F   UNL A   1      42.610  27.155  36.335  1.00  0.00    -0.203 F 
ATOM     88  C   UNL A   1      44.932  27.097  36.727  1.00  0.00     0.198 A 
ATOM     89  C   UNL A   1      46.372  28.687  35.648  1.00  0.00     0.198 A 
ATOM     90  F   UNL A   1      45.462  30.322  34.224  1.00  0.00    -0.203 F 
ATOM     91  F   UNL A   1      44.763  26.069  37.570  1.00  0.00    -0.200 F 
ATOM     92  C   UNL A   1      46.202  27.605  36.499  1.00  0.00     0.200 A 
ATOM     93  F   UNL A   1      47.600  29.171  35.418  1.00  0.00    -0.200 F 
ATOM     94  F   UNL A   1      47.264  27.054  37.105  1.00  0.00    -0.200 F 
ENDBRANCH  61  84
ENDBRANCH  35  36
ENDBRANCH  27  30
ENDBRANCH  25  26
ENDBRANCH  24  25
ENDBRANCH  23  24
ENDBRANCH   1  23
TORSDOF 15
ENDMDL
MODEL 2
REMARK VINA RESULT:     -11.9      1.012      2.141
REMARK SMILES CN(Cc1ccnn1C)C(=O)c1c(C(=O)NCCCCNC(=O)c2ccc(-c3c4nc(c(-c5c(F)c(F)c(F)c(F)c5F)c5ccc([nH]5)c(-c5c(F)c(F)c(F)c(F)c5F)c5nc(c(-c6c(F)c(F)c(F)c(F)c6F)c6ccc3[nH]6)C=C5)C=C4)cc2)cnn1C
REMARK SMILES IDX 17 1 16 2 14 3 15 4 13 6 12 7 89 8 87 9 88 10 90 11 10 12
REMARK SMILES IDX 11 13 2 14 1 15 3 16 4 17 5 18 8 19 6 20 7 21 9 22 18 23
REMARK SMILES IDX 19 24 20 25 21 26 22 27 23 29 24 30 25 31 86 32 26 33 85 34
REMARK SMILES IDX 27 35 28 36 29 37 79 38 30 39 84 40 78 41 80 42 31 43 83 44
REMARK SMILES IDX 77 45 76 46 32 48 64 49 44 50 63 51 45 52 48 53 62 54 81 55
REMARK SMILES IDX 46 56 47 57 61 59 82 60 49 61 33 62 34 63 42 64 35 65 36 66
REMARK SMILES IDX 40 67 43 68 37 69 38 70 41 71 39 72 65 73 66 74 74 75 67 76
REMARK SMILES IDX 68 77 72 78 75 79 69 80 70 81 73 82 71 83 50 84 51 85 59 86
REMARK SMILES IDX 52 87 53 88 57 89 60 90 54 91 55 92 58 93 56 94
REMARK H PARENT 16 5 21 28 80 47 48 58
REMARK Flexibility Score: inf
ROOT
ATOM      1  C   UNL A   1      32.595  29.608  25.263  1.00  0.00     0.116 C 
ENDROOT
BRANCH   1   2
ATOM      2  N   UNL A   1      31.582  29.596  24.240  1.00  0.00    -0.352 N 
ATOM      3  C   UNL A   1      31.330  28.685  23.247  1.00  0.00     0.255 C 
ATOM      4  O   UNL A   1      30.392  28.948  22.492  1.00  0.00    -0.269 OA
ATOM      5  H   UNL A   1      30.971  30.367  24.257  1.00  0.00     0.163 HD
BRANCH   3   6
ATOM      6  C   UNL A   1      32.159  27.511  23.007  1.00  0.00     0.090 A 
ATOM      7  C   UNL A   1      32.036  26.157  23.353  1.00  0.00     0.138 A 
ATOM      8  N   UNL A   1      33.037  25.527  22.643  1.00  0.00    -0.262 N 
ATOM      9  C   UNL A   1      33.315  27.557  22.192  1.00  0.00     0.149 A 
ATOM     10  N   UNL A   1      33.900  26.372  22.052  1.00  0.00    -0.180 NA
ATOM     11  C   UNL A   1      33.220  24.120  22.375  1.00  0.00     0.174 C 
BRANCH   7  12
ATOM     12  C   UNL A   1      30.961  25.527  24.093  1.00  0.00     0.273 C 
ATOM     13  O   UNL A   1      29.900  25.268  23.527  1.00  0.00    -0.267 OA
BRANCH  12  14
ATOM     14  N   UNL A   1      31.069  25.385  25.486  1.00  0.00    -0.334 N 
ATOM     15  C   UNL A   1      30.979  26.587  26.313  1.00  0.00     0.147 C 
BRANCH  14  16
ATOM     16  C   UNL A   1      31.243  24.134  26.220  1.00  0.00     0.175 C 
BRANCH  16  17
ATOM     17  C   UNL A   1      32.639  23.644  25.977  1.00  0.00     0.057 A 
ATOM     18  C   UNL A   1      33.866  24.273  26.135  1.00  0.00     0.047 A 
ATOM     19  N   UNL A   1      32.950  22.375  25.549  1.00  0.00    -0.271 N 
ATOM     20  C   UNL A   1      34.829  23.288  25.885  1.00  0.00     0.135 A 
ATOM     21  N   UNL A   1      34.273  22.125  25.549  1.00  0.00    -0.181 NA
ATOM     22  C   UNL A   1      32.059  21.314  25.145  1.00  0.00     0.174 C 
ENDBRANCH  16  17
ENDBRANCH  14  16
ENDBRANCH  12  14
ENDBRANCH   7  12
ENDBRANCH   3   6
ENDBRANCH   1   2
BRANCH   1  23
ATOM     23  C   UNL A   1      32.138  30.127  26.618  1.00  0.00     0.023 C 
BRANCH  23  24
ATOM     24  C   UNL A   1      31.826  31.614  26.713  1.00  0.00     0.023 C 
BRANCH  24  25
ATOM     25  C   UNL A   1      32.875  32.483  27.394  1.00  0.00     0.116 C 
BRANCH  25  26
ATOM     26  N   UNL A   1      32.449  33.856  27.633  1.00  0.00    -0.352 N 
ATOM     27  C   UNL A   1      32.954  34.806  28.496  1.00  0.00     0.251 C 
ATOM     28  H   UNL A   1      31.681  34.152  27.094  1.00  0.00     0.163 HD
ATOM     29  O   UNL A   1      32.410  35.894  28.605  1.00  0.00    -0.269 OA
BRANCH  27  30
ATOM     30  C   UNL A   1      34.129  34.477  29.332  1.00  0.00     0.039 A 
ATOM     31  C   UNL A   1      33.922  33.962  30.615  1.00  0.00     0.014 A 
ATOM     32  C   UNL A   1      35.422  34.605  28.826  1.00  0.00     0.014 A 
ATOM     33  C   UNL A   1      35.007  33.465  31.341  1.00  0.00     0.010 A 
ATOM     34  C   UNL A   1      36.483  34.019  29.504  1.00  0.00     0.010 A 
ATOM     35  C   UNL A   1      36.287  33.431  30.763  1.00  0.00    -0.014 A 
BRANCH  35  36
ATOM     36  C   UNL A   1      37.430  32.769  31.441  1.00  0.00     0.031 A 
ATOM     37  C   UNL A   1      38.134  31.617  30.780  1.00  0.00     0.074 A 
ATOM     38  C   UNL A   1      37.773  33.139  32.692  1.00  0.00     0.049 A 
ATOM     39  N   UNL A   1      39.083  30.845  31.247  1.00  0.00    -0.248 NA
ATOM     40  C   UNL A   1      37.681  31.259  29.427  1.00  0.00     0.031 C 
ATOM     41  C   UNL A   1      37.129  34.199  33.469  1.00  0.00     0.029 A 
ATOM     42  N   UNL A   1      38.744  32.655  33.533  1.00  0.00    -0.354 N 
ATOM     43  C   UNL A   1      39.312  29.894  30.262  1.00  0.00     0.074 A 
ATOM     44  C   UNL A   1      38.368  30.152  29.197  1.00  0.00     0.031 C 
ATOM     45  C   UNL A   1      37.747  34.312  34.657  1.00  0.00     0.029 A 
ATOM     46  C   UNL A   1      38.803  33.308  34.740  1.00  0.00     0.049 A 
ATOM     47  H   UNL A   1      39.341  31.909  33.295  1.00  0.00     0.167 HD
ATOM     48  C   UNL A   1      40.244  28.912  30.235  1.00  0.00     0.037 A 
ATOM     49  C   UNL A   1      39.619  33.118  35.794  1.00  0.00     0.037 A 
ATOM     50  C   UNL A   1      41.215  28.691  31.273  1.00  0.00     0.049 A 
ATOM     51  C   UNL A   1      40.658  32.033  35.734  1.00  0.00     0.074 A 
ATOM     52  C   UNL A   1      42.262  27.788  31.298  1.00  0.00     0.029 A 
ATOM     53  N   UNL A   1      41.256  29.387  32.472  1.00  0.00    -0.354 N 
ATOM     54  N   UNL A   1      40.921  31.193  34.763  1.00  0.00    -0.248 NA
ATOM     55  C   UNL A   1      41.513  31.871  36.917  1.00  0.00     0.031 C 
ATOM     56  C   UNL A   1      42.914  27.910  32.531  1.00  0.00     0.029 A 
ATOM     57  C   UNL A   1      42.298  28.918  33.255  1.00  0.00     0.049 A 
ATOM     58  H   UNL A   1      40.637  30.108  32.729  1.00  0.00     0.167 HD
ATOM     59  C   UNL A   1      41.989  30.425  35.203  1.00  0.00     0.074 A 
ATOM     60  C   UNL A   1      42.331  30.903  36.527  1.00  0.00     0.031 C 
ATOM     61  C   UNL A   1      42.631  29.414  34.566  1.00  0.00     0.037 A 
BRANCH  48  62
ATOM     62  C   UNL A   1      40.252  28.006  29.038  1.00  0.00     0.064 A 
ATOM     63  C   UNL A   1      39.534  26.801  29.020  1.00  0.00     0.173 A 
ATOM     64  C   UNL A   1      40.988  28.347  27.894  1.00  0.00     0.173 A 
ATOM     65  F   UNL A   1      38.824  26.422  30.094  1.00  0.00    -0.203 F 
ATOM     66  C   UNL A   1      39.587  25.951  27.920  1.00  0.00     0.198 A 
ATOM     67  C   UNL A   1      41.013  27.510  26.782  1.00  0.00     0.198 A 
ATOM     68  F   UNL A   1      41.688  29.492  27.855  1.00  0.00    -0.203 F 
ATOM     69  F   UNL A   1      38.945  24.774  27.952  1.00  0.00    -0.200 F 
ATOM     70  C   UNL A   1      40.322  26.307  26.799  1.00  0.00     0.200 A 
ATOM     71  F   UNL A   1      41.715  27.861  25.695  1.00  0.00    -0.200 F 
ATOM     72  F   UNL A   1      40.375  25.487  25.742  1.00  0.00    -0.200 F 
ENDBRANCH  48  62
BRANCH  49  73
ATOM     73  C   UNL A   1      39.526  34.015  36.976  1.00  0.00     0.064 A 
ATOM     74  C   UNL A   1      38.768  33.637  38.093  1.00  0.00     0.173 A 
ATOM     75  C   UNL A   1      40.186  35.250  37.021  1.00  0.00     0.173 A 
ATOM     76  F   UNL A   1      38.101  32.473  38.088  1.00  0.00    -0.203 F 
ATOM     77  C   UNL A   1      38.662  34.468  39.207  1.00  0.00     0.198 A 
ATOM     78  C   UNL A   1      40.099  36.070  38.145  1.00  0.00     0.198 A 
ATOM     79  F   UNL A   1      40.926  35.654  35.979  1.00  0.00    -0.203 F 
ATOM     80  F   UNL A   1      37.903  34.098  40.247  1.00  0.00    -0.200 F 
ATOM     81  C   UNL A   1      39.333  35.681  39.234  1.00  0.00     0.200 A 
ATOM     82  F   UNL A   1      40.757  37.236  38.173  1.00  0.00    -0.200 F 
ATOM     83  F   UNL A   1      39.237  36.477  40.307  1.00  0.00    -0.200 F 
ENDBRANCH  49  73
BRANCH  61  84
ATOM     84  C   UNL A   1      43.793  28.784  35.276  1.00  0.00     0.064 A 
ATOM     85  C   UNL A   1      45.102  29.251  35.101  1.00  0.00     0.173 A 
ATOM     86  C   UNL A   1      43.584  27.726  36.174  1.00  0.00     0.173 A 
ATOM     87  F   UNL A   1      45.354  30.249  34.239  1.00  0.00    -0.203 F 
ATOM     88  C   UNL A   1      46.166  28.668  35.784  1.00  0.00     0.198 A 
ATOM     89  C   UNL A   1      44.645  27.164  36.875  1.00  0.00     0.198 A 
ATOM     90  F   UNL A   1      42.348  27.248  36.379  1.00  0.00    -0.203 F 
ATOM     91  F   UNL A   1      47.416  29.102  35.570  1.00  0.00    -0.200 F 
ATOM     92  C   UNL A   1      45.936  27.631  36.676  1.00  0.00     0.200 A 
ATOM     93  F   UNL A   1      44.420  26.169  37.745  1.00  0.00    -0.200 F 
ATOM     94  F   UNL A   1      46.961  27.076  37.339  1.00  0.00    -0.200 F 
ENDBRANCH  61  84
ENDBRANCH  35  36
ENDBRANCH  27  30
ENDBRANCH  25  26
ENDBRANCH  24  25
ENDBRANCH  23  24
ENDBRANCH   1  23
TORSDOF 15
ENDMDL
MODEL 3
REMARK VINA RESULT:     -11.9      1.008      2.136
REMARK SMILES CN(Cc1ccnn1C)C(=O)c1c(C(=O)NCCCCNC(=O)c2ccc(-c3c4nc(c(-c5c(F)c(F)c(F)c(F)c5F)c5ccc([nH]5)c(-c5c(F)c(F)c(F)c(F)c5F)c5nc(c(-c6c(F)c(F)c(F)c(F)c6F)c6ccc3[nH]6)C=C5)C=C4)cc2)cnn1C
REMARK SMILES IDX 17 1 16 2 14 3 15 4 13 6 12 7 89 8 87 9 88 10 90 11 10 12
REMARK SMILES IDX 11 13 2 14 1 15 3 16 4 17 5 18 8 19 6 20 7 21 9 22 18 23
REMARK SMILES IDX 19 24 20 25 21 26 22 27 23 29 24 30 25 31 86 32 26 33 85 34
REMARK SMILES IDX 27 35 28 36 29 37 79 38 30 39 84 40 78 41 80 42 31 43 83 44
REMARK SMILES IDX 77 45 76 46 32 48 64 49 44 50 63 51 45 52 48 53 62 54 81 55
REMARK SMILES IDX 46 56 47 57 61 59 82 60 49 61 33 62 34 63 42 64 35 65 36 66
REMARK SMILES IDX 40 67 43 68 37 69 38 70 41 71 39 72 65 73 66 74 74 75 67 76
REMARK SMILES IDX 68 77 72 78 75 79 69 80 70 81 73 82 71 83 50 84 51 85 59 86
REMARK SMILES IDX 52 87 53 88 57 89 60 90 54 91 55 92 58 93 56 94
REMARK H PARENT 16 5 21 28 80 47 48 58
REMARK Flexibility Score: inf
ROOT
ATOM      1  C   UNL A   1      32.677  29.617  25.207  1.00  0.00     0.116 C 
ENDROOT
BRANCH   1   2
ATOM      2  N   UNL A   1      31.644  29.601  24.205  1.00  0.00    -0.352 N 
ATOM      3  C   UNL A   1      31.363  28.678  23.230  1.00  0.00     0.255 C 
ATOM      4  O   UNL A   1      30.413  28.941  22.490  1.00  0.00    -0.269 OA
ATOM      5  H   UNL A   1      31.042  30.379  24.222  1.00  0.00     0.163 HD
BRANCH   3   6
ATOM      6  C   UNL A   1      32.174  27.492  22.991  1.00  0.00     0.090 A 
ATOM      7  C   UNL A   1      32.039  26.143  23.353  1.00  0.00     0.138 A 
ATOM      8  N   UNL A   1      33.022  25.493  22.636  1.00  0.00    -0.262 N 
ATOM      9  C   UNL A   1      33.318  27.515  22.158  1.00  0.00     0.149 A 
ATOM     10  N   UNL A   1      33.886  26.321  22.023  1.00  0.00    -0.180 NA
ATOM     11  C   UNL A   1      33.184  24.081  22.382  1.00  0.00     0.174 C 
BRANCH   7  12
ATOM     12  C   UNL A   1      30.968  25.535  24.117  1.00  0.00     0.273 C 
ATOM     13  O   UNL A   1      29.894  25.286  23.571  1.00  0.00    -0.267 OA
BRANCH  12  14
ATOM     14  N   UNL A   1      31.098  25.404  25.510  1.00  0.00    -0.334 N 
ATOM     15  C   UNL A   1      31.038  26.614  26.327  1.00  0.00     0.147 C 
BRANCH  14  16
ATOM     16  C   UNL A   1      31.267  24.157  26.252  1.00  0.00     0.175 C 
BRANCH  16  17
ATOM     17  C   UNL A   1      32.654  23.649  25.996  1.00  0.00     0.057 A 
ATOM     18  C   UNL A   1      33.889  24.268  26.126  1.00  0.00     0.047 A 
ATOM     19  N   UNL A   1      32.946  22.371  25.584  1.00  0.00    -0.271 N 
ATOM     20  C   UNL A   1      34.838  23.270  25.877  1.00  0.00     0.135 A 
ATOM     21  N   UNL A   1      34.266  22.107  25.567  1.00  0.00    -0.181 NA
ATOM     22  C   UNL A   1      32.038  21.313  25.210  1.00  0.00     0.174 C 
ENDBRANCH  16  17
ENDBRANCH  14  16
ENDBRANCH  12  14
ENDBRANCH   7  12
ENDBRANCH   3   6
ENDBRANCH   1   2
BRANCH   1  23
ATOM     23  C   UNL A   1      32.229  30.067  26.589  1.00  0.00     0.023 C 
BRANCH  23  24
ATOM     24  C   UNL A   1      31.883  31.540  26.752  1.00  0.00     0.023 C 
BRANCH  24  25
ATOM     25  C   UNL A   1      32.938  32.414  27.416  1.00  0.00     0.116 C 
BRANCH  25  26
ATOM     26  N   UNL A   1      32.514  33.788  27.652  1.00  0.00    -0.352 N 
ATOM     27  C   UNL A   1      33.023  34.742  28.508  1.00  0.00     0.251 C 
ATOM     28  H   UNL A   1      31.743  34.082  27.116  1.00  0.00     0.163 HD
ATOM     29  O   UNL A   1      32.481  35.830  28.615  1.00  0.00    -0.269 OA
BRANCH  27  30
ATOM     30  C   UNL A   1      34.203  34.415  29.339  1.00  0.00     0.039 A 
ATOM     31  C   UNL A   1      34.002  33.922  30.631  1.00  0.00     0.014 A 
ATOM     32  C   UNL A   1      35.492  34.526  28.821  1.00  0.00     0.014 A 
ATOM     33  C   UNL A   1      35.089  33.428  31.356  1.00  0.00     0.010 A 
ATOM     34  C   UNL A   1      36.555  33.941  29.499  1.00  0.00     0.010 A 
ATOM     35  C   UNL A   1      36.364  33.374  30.768  1.00  0.00    -0.014 A 
BRANCH  35  36
ATOM     36  C   UNL A   1      37.508  32.714  31.447  1.00  0.00     0.031 A 
ATOM     37  C   UNL A   1      38.210  31.560  30.788  1.00  0.00     0.074 A 
ATOM     38  C   UNL A   1      37.851  33.087  32.696  1.00  0.00     0.049 A 
ATOM     39  N   UNL A   1      39.159  30.789  31.256  1.00  0.00    -0.248 NA
ATOM     40  C   UNL A   1      37.756  31.199  29.437  1.00  0.00     0.031 C 
ATOM     41  C   UNL A   1      37.209  34.149  33.472  1.00  0.00     0.029 A 
ATOM     42  N   UNL A   1      38.823  32.605  33.539  1.00  0.00    -0.354 N 
ATOM     43  C   UNL A   1      39.387  29.835  30.274  1.00  0.00     0.074 A 
ATOM     44  C   UNL A   1      38.443  30.090  29.209  1.00  0.00     0.031 C 
ATOM     45  C   UNL A   1      37.828  34.265  34.659  1.00  0.00     0.029 A 
ATOM     46  C   UNL A   1      38.883  33.261  34.744  1.00  0.00     0.049 A 
ATOM     47  H   UNL A   1      39.419  31.858  33.302  1.00  0.00     0.167 HD
ATOM     48  C   UNL A   1      40.318  28.852  30.248  1.00  0.00     0.037 A 
ATOM     49  C   UNL A   1      39.701  33.073  35.798  1.00  0.00     0.037 A 
ATOM     50  C   UNL A   1      41.290  28.634  31.287  1.00  0.00     0.049 A 
ATOM     51  C   UNL A   1      40.738  31.987  35.739  1.00  0.00     0.074 A 
ATOM     52  C   UNL A   1      42.337  27.730  31.313  1.00  0.00     0.029 A 
ATOM     53  N   UNL A   1      41.333  29.333  32.484  1.00  0.00    -0.354 N 
ATOM     54  N   UNL A   1      41.000  31.145  34.770  1.00  0.00    -0.248 NA
ATOM     55  C   UNL A   1      41.595  31.828  36.922  1.00  0.00     0.031 C 
ATOM     56  C   UNL A   1      42.990  27.855  32.545  1.00  0.00     0.029 A 
ATOM     57  C   UNL A   1      42.375  28.865  33.267  1.00  0.00     0.049 A 
ATOM     58  H   UNL A   1      40.714  30.055  32.739  1.00  0.00     0.167 HD
ATOM     59  C   UNL A   1      42.069  30.377  35.211  1.00  0.00     0.074 A 
ATOM     60  C   UNL A   1      42.413  30.859  36.534  1.00  0.00     0.031 C 
ATOM     61  C   UNL A   1      42.710  29.365  34.576  1.00  0.00     0.037 A 
BRANCH  48  62
ATOM     62  C   UNL A   1      40.326  27.943  29.054  1.00  0.00     0.064 A 
ATOM     63  C   UNL A   1      41.051  28.256  27.894  1.00  0.00     0.173 A 
ATOM     64  C   UNL A   1      39.598  26.744  29.068  1.00  0.00     0.173 A 
ATOM     65  F   UNL A   1      41.753  29.398  27.824  1.00  0.00    -0.203 F 
ATOM     66  C   UNL A   1      41.013  27.425  26.778  1.00  0.00     0.198 A 
ATOM     67  C   UNL A   1      39.589  25.899  27.962  1.00  0.00     0.198 A 
ATOM     68  F   UNL A   1      38.892  26.394  30.154  1.00  0.00    -0.203 F 
ATOM     69  F   UNL A   1      41.661  27.778  25.659  1.00  0.00    -0.200 F 
ATOM     70  C   UNL A   1      40.286  26.245  26.813  1.00  0.00     0.200 A 
ATOM     71  F   UNL A   1      38.894  24.753  28.002  1.00  0.00    -0.200 F 
ATOM     72  F   UNL A   1      40.247  25.448  25.739  1.00  0.00    -0.200 F 
ENDBRANCH  48  62
BRANCH  49  73
ATOM     73  C   UNL A   1      39.608  33.973  36.977  1.00  0.00     0.064 A 
ATOM     74  C   UNL A   1      40.287  35.199  36.988  1.00  0.00     0.173 A 
ATOM     75  C   UNL A   1      38.846  33.637  38.104  1.00  0.00     0.173 A 
ATOM     76  F   UNL A   1      41.046  35.553  35.939  1.00  0.00    -0.203 F 
ATOM     77  C   UNL A   1      40.219  36.051  38.088  1.00  0.00     0.198 A 
ATOM     78  C   UNL A   1      38.760  34.502  39.195  1.00  0.00     0.198 A 
ATOM     79  F   UNL A   1      38.175  32.478  38.141  1.00  0.00    -0.203 F 
ATOM     80  F   UNL A   1      40.906  37.202  38.086  1.00  0.00    -0.200 F 
ATOM     81  C   UNL A   1      39.450  35.704  39.188  1.00  0.00     0.200 A 
ATOM     82  F   UNL A   1      38.006  34.169  40.251  1.00  0.00    -0.200 F 
ATOM     83  F   UNL A   1      39.379  36.527  40.243  1.00  0.00    -0.200 F 
ENDBRANCH  49  73
BRANCH  61  84
ATOM     84  C   UNL A   1      43.872  28.736  35.287  1.00  0.00     0.064 A 
ATOM     85  C   UNL A   1      45.182  29.199  35.106  1.00  0.00     0.173 A 
ATOM     86  C   UNL A   1      43.663  27.683  36.192  1.00  0.00     0.173 A 
ATOM     87  F   UNL A   1      45.434  30.191  34.238  1.00  0.00    -0.203 F 
ATOM     88  C   UNL A   1      46.246  28.617  35.790  1.00  0.00     0.198 A 
ATOM     89  C   UNL A   1      44.725  27.123  36.893  1.00  0.00     0.198 A 
ATOM     90  F   UNL A   1      42.426  27.209  36.402  1.00  0.00    -0.203 F 
ATOM     91  F   UNL A   1      47.497  29.046  35.570  1.00  0.00    -0.200 F 
ATOM     92  C   UNL A   1      46.016  27.585  36.688  1.00  0.00     0.200 A 
ATOM     93  F   UNL A   1      44.499  26.134  37.769  1.00  0.00    -0.200 F 
ATOM     94  F   UNL A   1      47.041  27.032  37.351  1.00  0.00    -0.200 F 
ENDBRANCH  61  84
ENDBRANCH  35  36
ENDBRANCH  27  30
ENDBRANCH  25  26
ENDBRANCH  24  25
ENDBRANCH  23  24
ENDBRANCH   1  23
TORSDOF 15
ENDMDL
