MODEL 1
REMARK VINA RESULT:     -10.3      0.000      0.000
REMARK SMILES Cc1ncccc1C(=O)NCCOCC(=O)NCCCCNC(=O)c1ccc(-c2c3nc(c(-c4c(F)c(F)c(F)c(F)c4F)c4ccc([nH]4)c(-c4c(F)c(F)c(F)c(F)c4F)c4nc(c(-c5c(F)c(F)c(F)c(F)c5F)c5ccc2[nH]5)C=C4)C=C3)cc1
REMARK SMILES IDX 18 1 17 2 15 3 16 4 14 6 13 7 12 8 11 9 10 10 8 11 9 12 7 14
REMARK SMILES IDX 1 15 2 16 3 17 4 18 6 19 5 20 19 21 20 22 21 23 22 24 23 25
REMARK SMILES IDX 24 27 25 28 26 29 87 30 27 31 86 32 28 33 29 34 30 35 80 36
REMARK SMILES IDX 31 37 85 38 79 39 81 40 32 41 84 42 78 43 77 44 33 46 65 47
REMARK SMILES IDX 45 48 64 49 46 50 49 51 63 52 82 53 47 54 48 55 62 57 83 58
REMARK SMILES IDX 50 59 34 60 35 61 43 62 36 63 37 64 41 65 44 66 38 67 39 68
REMARK SMILES IDX 42 69 40 70 66 71 67 72 75 73 68 74 69 75 73 76 76 77 70 78
REMARK SMILES IDX 71 79 74 80 72 81 51 82 52 83 60 84 53 85 54 86 58 87 61 88
REMARK SMILES IDX 55 89 56 90 59 91 57 92
REMARK H PARENT 17 5 10 13 22 26 81 45 49 56
REMARK Flexibility Score: inf
ROOT
ATOM      1  C   UNL A   1      33.003  36.041  28.989  1.00  0.00     0.116 C 
ENDROOT
BRANCH   1   2
ATOM      2  N   UNL A   1      33.242  37.088  29.963  1.00  0.00    -0.354 N 
ATOM      3  C   UNL A   1      33.045  37.042  31.315  1.00  0.00     0.245 C 
ATOM      4  O   UNL A   1      33.350  38.022  31.994  1.00  0.00    -0.272 OA
ATOM      5  H   UNL A   1      33.591  37.937  29.607  1.00  0.00     0.163 HD
BRANCH   3   6
ATOM      6  C   UNL A   1      32.431  35.779  31.939  1.00  0.00     0.260 C 
BRANCH   6   7
ATOM      7  O   UNL A   1      33.283  34.730  32.373  1.00  0.00    -0.370 OA
BRANCH   7   8
ATOM      8  C   UNL A   1      34.571  35.132  32.833  1.00  0.00     0.182 C 
BRANCH   8   9
ATOM      9  C   UNL A   1      35.135  34.292  33.975  1.00  0.00     0.144 C 
BRANCH   9  10
ATOM     10  N   UNL A   1      35.485  32.929  33.633  1.00  0.00    -0.350 N 
ATOM     11  C   UNL A   1      36.469  32.412  32.834  1.00  0.00     0.253 C 
ATOM     12  O   UNL A   1      36.578  31.185  32.782  1.00  0.00    -0.269 OA
ATOM     13  H   UNL A   1      34.909  32.249  34.053  1.00  0.00     0.163 HD
BRANCH  11  14
ATOM     14  C   UNL A   1      37.358  33.231  31.977  1.00  0.00     0.061 A 
ATOM     15  C   UNL A   1      39.001  34.018  33.781  1.00  0.00     0.067 C 
ATOM     16  C   UNL A   1      38.481  33.960  32.379  1.00  0.00     0.050 A 
ATOM     17  N   UNL A   1      39.247  34.661  31.492  1.00  0.00    -0.261 NA
ATOM     18  C   UNL A   1      38.956  34.565  30.177  1.00  0.00     0.111 A 
ATOM     19  C   UNL A   1      37.107  33.142  30.596  1.00  0.00     0.017 A 
ATOM     20  C   UNL A   1      37.917  33.807  29.682  1.00  0.00     0.021 A 
ENDBRANCH  11  14
ENDBRANCH   9  10
ENDBRANCH   8   9
ENDBRANCH   7   8
ENDBRANCH   6   7
ENDBRANCH   3   6
ENDBRANCH   1   2
BRANCH   1  21
ATOM     21  C   UNL A   1      34.163  35.051  28.891  1.00  0.00     0.023 C 
BRANCH  21  22
ATOM     22  C   UNL A   1      33.777  33.575  29.004  1.00  0.00     0.023 C 
BRANCH  22  23
ATOM     23  C   UNL A   1      34.668  32.609  28.235  1.00  0.00     0.116 C 
BRANCH  23  24
ATOM     24  N   UNL A   1      34.022  31.337  27.948  1.00  0.00    -0.352 N 
ATOM     25  C   UNL A   1      34.563  30.076  27.952  1.00  0.00     0.251 C 
ATOM     26  H   UNL A   1      33.066  31.389  27.721  1.00  0.00     0.163 HD
ATOM     27  O   UNL A   1      33.893  29.113  27.587  1.00  0.00    -0.269 OA
BRANCH  25  28
ATOM     28  C   UNL A   1      35.971  29.887  28.355  1.00  0.00     0.039 A 
ATOM     29  C   UNL A   1      36.244  29.451  29.653  1.00  0.00     0.014 A 
ATOM     30  C   UNL A   1      37.012  30.105  27.448  1.00  0.00     0.014 A 
ATOM     31  C   UNL A   1      37.559  29.165  30.022  1.00  0.00     0.010 A 
ATOM     32  C   UNL A   1      38.311  29.747  27.794  1.00  0.00     0.010 A 
ATOM     33  C   UNL A   1      38.598  29.273  29.083  1.00  0.00    -0.014 A 
BRANCH  33  34
ATOM     34  C   UNL A   1      39.990  28.894  29.429  1.00  0.00     0.031 A 
ATOM     35  C   UNL A   1      40.835  29.810  30.267  1.00  0.00     0.074 A 
ATOM     36  C   UNL A   1      40.512  27.756  28.933  1.00  0.00     0.049 A 
ATOM     37  N   UNL A   1      42.090  29.690  30.619  1.00  0.00    -0.248 NA
ATOM     38  C   UNL A   1      40.191  31.042  30.751  1.00  0.00     0.031 C 
ATOM     39  C   UNL A   1      39.808  26.808  28.069  1.00  0.00     0.029 A 
ATOM     40  N   UNL A   1      41.763  27.209  29.076  1.00  0.00    -0.354 N 
ATOM     41  C   UNL A   1      42.387  30.832  31.350  1.00  0.00     0.074 A 
ATOM     42  C   UNL A   1      41.201  31.660  31.344  1.00  0.00     0.031 C 
ATOM     43  C   UNL A   1      40.627  25.784  27.780  1.00  0.00     0.029 A 
ATOM     44  C   UNL A   1      41.925  26.022  28.403  1.00  0.00     0.049 A 
ATOM     45  H   UNL A   1      42.476  27.627  29.609  1.00  0.00     0.167 HD
ATOM     46  C   UNL A   1      43.537  31.149  31.992  1.00  0.00     0.037 A 
ATOM     47  C   UNL A   1      43.001  25.220  28.299  1.00  0.00     0.037 A 
ATOM     48  C   UNL A   1      44.707  30.311  32.014  1.00  0.00     0.049 A 
ATOM     49  C   UNL A   1      44.272  25.602  29.010  1.00  0.00     0.074 A 
ATOM     50  C   UNL A   1      45.902  30.514  32.683  1.00  0.00     0.029 A 
ATOM     51  N   UNL A   1      44.830  29.110  31.332  1.00  0.00    -0.354 N 
ATOM     52  N   UNL A   1      44.520  26.648  29.759  1.00  0.00    -0.248 NA
ATOM     53  C   UNL A   1      45.412  24.686  28.864  1.00  0.00     0.031 C 
ATOM     54  C   UNL A   1      46.764  29.458  32.368  1.00  0.00     0.029 A 
ATOM     55  C   UNL A   1      46.089  28.570  31.545  1.00  0.00     0.049 A 
ATOM     56  H   UNL A   1      44.126  28.699  30.779  1.00  0.00     0.167 HD
ATOM     57  C   UNL A   1      45.828  26.502  30.199  1.00  0.00     0.074 A 
ATOM     58  C   UNL A   1      46.318  25.259  29.644  1.00  0.00     0.031 C 
ATOM     59  C   UNL A   1      46.558  27.325  30.993  1.00  0.00     0.037 A 
BRANCH  46  60
ATOM     60  C   UNL A   1      43.583  32.459  32.724  1.00  0.00     0.064 A 
ATOM     61  C   UNL A   1      43.094  32.588  34.034  1.00  0.00     0.173 A 
ATOM     62  C   UNL A   1      44.145  33.594  32.121  1.00  0.00     0.173 A 
ATOM     63  F   UNL A   1      42.535  31.537  34.653  1.00  0.00    -0.203 F 
ATOM     64  C   UNL A   1      43.135  33.811  34.698  1.00  0.00     0.198 A 
ATOM     65  C   UNL A   1      44.214  34.808  32.801  1.00  0.00     0.198 A 
ATOM     66  F   UNL A   1      44.633  33.527  30.873  1.00  0.00    -0.203 F 
ATOM     67  F   UNL A   1      42.612  33.922  35.926  1.00  0.00    -0.200 F 
ATOM     68  C   UNL A   1      43.701  34.917  34.084  1.00  0.00     0.200 A 
ATOM     69  F   UNL A   1      44.774  35.874  32.210  1.00  0.00    -0.200 F 
ATOM     70  F   UNL A   1      43.745  36.093  34.727  1.00  0.00    -0.200 F 
ENDBRANCH  46  60
BRANCH  47  71
ATOM     71  C   UNL A   1      42.918  23.961  27.514  1.00  0.00     0.064 A 
ATOM     72  C   UNL A   1      43.249  23.943  26.150  1.00  0.00     0.173 A 
ATOM     73  C   UNL A   1      42.503  22.756  28.100  1.00  0.00     0.173 A 
ATOM     74  F   UNL A   1      43.633  25.074  25.541  1.00  0.00    -0.203 F 
ATOM     75  C   UNL A   1      43.147  22.774  25.400  1.00  0.00     0.198 A 
ATOM     76  C   UNL A   1      42.429  21.581  27.354  1.00  0.00     0.198 A 
ATOM     77  F   UNL A   1      42.180  22.719  29.401  1.00  0.00    -0.203 F 
ATOM     78  F   UNL A   1      43.424  22.797  24.089  1.00  0.00    -0.200 F 
ATOM     79  C   UNL A   1      42.742  21.593  26.003  1.00  0.00     0.200 A 
ATOM     80  F   UNL A   1      42.051  20.439  27.944  1.00  0.00    -0.200 F 
ATOM     81  F   UNL A   1      42.646  20.469  25.282  1.00  0.00    -0.200 F 
ENDBRANCH  47  71
BRANCH  59  82
ATOM     82  C   UNL A   1      47.951  26.887  31.340  1.00  0.00     0.064 A 
ATOM     83  C   UNL A   1      48.206  26.021  32.413  1.00  0.00     0.173 A 
ATOM     84  C   UNL A   1      49.041  27.309  30.563  1.00  0.00     0.173 A 
ATOM     85  F   UNL A   1      47.201  25.602  33.196  1.00  0.00    -0.203 F 
ATOM     86  C   UNL A   1      49.504  25.614  32.711  1.00  0.00     0.198 A 
ATOM     87  C   UNL A   1      50.333  26.876  30.845  1.00  0.00     0.198 A 
ATOM     88  F   UNL A   1      48.849  28.133  29.522  1.00  0.00    -0.203 F 
ATOM     89  F   UNL A   1      49.730  24.826  33.771  1.00  0.00    -0.200 F 
ATOM     90  C   UNL A   1      50.565  26.036  31.923  1.00  0.00     0.200 A 
ATOM     91  F   UNL A   1      51.354  27.273  30.073  1.00  0.00    -0.200 F 
ATOM     92  F   UNL A   1      51.812  25.637  32.207  1.00  0.00    -0.200 F 
ENDBRANCH  59  82
ENDBRANCH  33  34
ENDBRANCH  25  28
ENDBRANCH  23  24
ENDBRANCH  22  23
ENDBRANCH  21  22
ENDBRANCH   1  21
TORSDOF 16
ENDMDL
MODEL 2
REMARK VINA RESULT:     -10.0      4.317     10.316
REMARK SMILES Cc1ncccc1C(=O)NCCOCC(=O)NCCCCNC(=O)c1ccc(-c2c3nc(c(-c4c(F)c(F)c(F)c(F)c4F)c4ccc([nH]4)c(-c4c(F)c(F)c(F)c(F)c4F)c4nc(c(-c5c(F)c(F)c(F)c(F)c5F)c5ccc2[nH]5)C=C4)C=C3)cc1
REMARK SMILES IDX 18 1 17 2 15 3 16 4 14 6 13 7 12 8 11 9 10 10 8 11 9 12 7 14
REMARK SMILES IDX 1 15 2 16 3 17 4 18 6 19 5 20 19 21 20 22 21 23 22 24 23 25
REMARK SMILES IDX 24 27 25 28 26 29 87 30 27 31 86 32 28 33 29 34 30 35 80 36
REMARK SMILES IDX 31 37 85 38 79 39 81 40 32 41 84 42 78 43 77 44 33 46 65 47
REMARK SMILES IDX 45 48 64 49 46 50 49 51 63 52 82 53 47 54 48 55 62 57 83 58
REMARK SMILES IDX 50 59 34 60 35 61 43 62 36 63 37 64 41 65 44 66 38 67 39 68
REMARK SMILES IDX 42 69 40 70 66 71 67 72 75 73 68 74 69 75 73 76 76 77 70 78
REMARK SMILES IDX 71 79 74 80 72 81 51 82 52 83 60 84 53 85 54 86 58 87 61 88
REMARK SMILES IDX 55 89 56 90 59 91 57 92
REMARK H PARENT 17 5 10 13 22 26 81 45 49 56
REMARK Flexibility Score: inf
ROOT
ATOM      1  C   UNL A   1      31.936  29.863  25.402  1.00  0.00     0.116 C 
ENDROOT
BRANCH   1   2
ATOM      2  N   UNL A   1      30.887  30.362  24.536  1.00  0.00    -0.354 N 
ATOM      3  C   UNL A   1      30.126  29.661  23.642  1.00  0.00     0.245 C 
ATOM      4  O   UNL A   1      29.244  30.252  23.020  1.00  0.00    -0.272 OA
ATOM      5  H   UNL A   1      30.699  31.327  24.598  1.00  0.00     0.163 HD
BRANCH   3   6
ATOM      6  C   UNL A   1      30.411  28.166  23.429  1.00  0.00     0.260 C 
BRANCH   6   7
ATOM      7  O   UNL A   1      29.356  27.227  23.578  1.00  0.00    -0.370 OA
BRANCH   7   8
ATOM      8  C   UNL A   1      29.633  26.120  24.433  1.00  0.00     0.182 C 
BRANCH   8   9
ATOM      9  C   UNL A   1      30.551  26.433  25.610  1.00  0.00     0.144 C 
BRANCH   9  10
ATOM     10  N   UNL A   1      30.726  25.361  26.567  1.00  0.00    -0.350 N 
ATOM     11  C   UNL A   1      31.482  24.220  26.533  1.00  0.00     0.253 C 
ATOM     12  O   UNL A   1      31.492  23.510  27.540  1.00  0.00    -0.269 OA
ATOM     13  H   UNL A   1      30.206  25.473  27.396  1.00  0.00     0.163 HD
BRANCH  11  14
ATOM     14  C   UNL A   1      32.227  23.754  25.339  1.00  0.00     0.061 A 
ATOM     15  C   UNL A   1      34.186  25.405  25.449  1.00  0.00     0.067 C 
ATOM     16  C   UNL A   1      33.424  24.272  24.836  1.00  0.00     0.050 A 
ATOM     17  N   UNL A   1      34.038  23.742  23.737  1.00  0.00    -0.261 NA
ATOM     18  C   UNL A   1      33.516  22.627  23.185  1.00  0.00     0.111 A 
ATOM     19  C   UNL A   1      31.732  22.579  24.746  1.00  0.00     0.017 A 
ATOM     20  C   UNL A   1      32.385  22.000  23.662  1.00  0.00     0.021 A 
ENDBRANCH  11  14
ENDBRANCH   9  10
ENDBRANCH   8   9
ENDBRANCH   7   8
ENDBRANCH   6   7
ENDBRANCH   3   6
ENDBRANCH   1   2
BRANCH   1  21
ATOM     21  C   UNL A   1      31.870  30.455  26.810  1.00  0.00     0.023 C 
BRANCH  21  22
ATOM     22  C   UNL A   1      31.614  31.962  26.876  1.00  0.00     0.023 C 
BRANCH  22  23
ATOM     23  C   UNL A   1      32.813  32.808  27.284  1.00  0.00     0.116 C 
BRANCH  23  24
ATOM     24  N   UNL A   1      32.456  34.168  27.654  1.00  0.00    -0.352 N 
ATOM     25  C   UNL A   1      33.012  34.973  28.618  1.00  0.00     0.251 C 
ATOM     26  H   UNL A   1      31.715  34.566  27.143  1.00  0.00     0.163 HD
ATOM     27  O   UNL A   1      32.520  36.071  28.867  1.00  0.00    -0.269 OA
BRANCH  25  28
ATOM     28  C   UNL A   1      34.178  34.494  29.385  1.00  0.00     0.039 A 
ATOM     29  C   UNL A   1      33.961  33.875  30.618  1.00  0.00     0.014 A 
ATOM     30  C   UNL A   1      35.474  34.624  28.877  1.00  0.00     0.014 A 
ATOM     31  C   UNL A   1      35.038  33.321  31.310  1.00  0.00     0.010 A 
ATOM     32  C   UNL A   1      36.534  34.005  29.531  1.00  0.00     0.010 A 
ATOM     33  C   UNL A   1      36.328  33.347  30.753  1.00  0.00    -0.014 A 
BRANCH  33  34
ATOM     34  C   UNL A   1      37.472  32.691  31.432  1.00  0.00     0.031 A 
ATOM     35  C   UNL A   1      38.176  31.536  30.778  1.00  0.00     0.074 A 
ATOM     36  C   UNL A   1      37.833  33.093  32.666  1.00  0.00     0.049 A 
ATOM     37  N   UNL A   1      39.148  30.790  31.238  1.00  0.00    -0.248 NA
ATOM     38  C   UNL A   1      37.703  31.150  29.439  1.00  0.00     0.031 C 
ATOM     39  C   UNL A   1      37.197  34.171  33.425  1.00  0.00     0.029 A 
ATOM     40  N   UNL A   1      38.818  32.635  33.504  1.00  0.00    -0.354 N 
ATOM     41  C   UNL A   1      39.393  29.842  30.254  1.00  0.00     0.074 A 
ATOM     42  C   UNL A   1      38.431  30.069  29.198  1.00  0.00     0.031 C 
ATOM     43  C   UNL A   1      37.824  34.307  34.605  1.00  0.00     0.029 A 
ATOM     44  C   UNL A   1      38.878  33.303  34.702  1.00  0.00     0.049 A 
ATOM     45  H   UNL A   1      39.425  31.896  33.269  1.00  0.00     0.167 HD
ATOM     46  C   UNL A   1      40.351  28.885  30.222  1.00  0.00     0.037 A 
ATOM     47  C   UNL A   1      39.690  33.122  35.761  1.00  0.00     0.037 A 
ATOM     48  C   UNL A   1      41.321  28.678  31.265  1.00  0.00     0.049 A 
ATOM     49  C   UNL A   1      40.737  32.042  35.706  1.00  0.00     0.074 A 
ATOM     50  C   UNL A   1      42.369  27.775  31.302  1.00  0.00     0.029 A 
ATOM     51  N   UNL A   1      41.357  29.383  32.459  1.00  0.00    -0.354 N 
ATOM     52  N   UNL A   1      41.007  31.198  34.741  1.00  0.00    -0.248 NA
ATOM     53  C   UNL A   1      41.596  31.895  36.890  1.00  0.00     0.031 C 
ATOM     54  C   UNL A   1      43.011  27.902  32.539  1.00  0.00     0.029 A 
ATOM     55  C   UNL A   1      42.397  28.920  33.251  1.00  0.00     0.049 A 
ATOM     56  H   UNL A   1      40.738  30.107  32.707  1.00  0.00     0.167 HD
ATOM     57  C   UNL A   1      42.084  30.443  35.184  1.00  0.00     0.074 A 
ATOM     58  C   UNL A   1      42.427  30.937  36.500  1.00  0.00     0.031 C 
ATOM     59  C   UNL A   1      42.731  29.430  34.555  1.00  0.00     0.037 A 
BRANCH  46  60
ATOM     60  C   UNL A   1      40.396  27.991  29.016  1.00  0.00     0.064 A 
ATOM     61  C   UNL A   1      39.673  26.789  28.963  1.00  0.00     0.173 A 
ATOM     62  C   UNL A   1      41.150  28.351  27.889  1.00  0.00     0.173 A 
ATOM     63  F   UNL A   1      38.945  26.392  30.018  1.00  0.00    -0.203 F 
ATOM     64  C   UNL A   1      39.731  25.966  27.842  1.00  0.00     0.198 A 
ATOM     65  C   UNL A   1      41.180  27.541  26.757  1.00  0.00     0.198 A 
ATOM     66  F   UNL A   1      41.856  29.492  27.883  1.00  0.00    -0.203 F 
ATOM     67  F   UNL A   1      39.076  24.796  27.837  1.00  0.00    -0.200 F 
ATOM     68  C   UNL A   1      40.477  26.345  26.738  1.00  0.00     0.200 A 
ATOM     69  F   UNL A   1      41.892  27.916  25.685  1.00  0.00    -0.200 F 
ATOM     70  F   UNL A   1      40.528  25.554  25.657  1.00  0.00    -0.200 F 
ENDBRANCH  46  60
BRANCH  47  71
ATOM     71  C   UNL A   1      39.564  34.000  36.954  1.00  0.00     0.064 A 
ATOM     72  C   UNL A   1      38.785  33.610  38.053  1.00  0.00     0.173 A 
ATOM     73  C   UNL A   1      40.209  35.244  37.020  1.00  0.00     0.173 A 
ATOM     74  F   UNL A   1      38.134  32.438  38.029  1.00  0.00    -0.203 F 
ATOM     75  C   UNL A   1      38.639  34.439  39.163  1.00  0.00     0.198 A 
ATOM     76  C   UNL A   1      40.085  36.060  38.143  1.00  0.00     0.198 A 
ATOM     77  F   UNL A   1      40.969  35.662  35.997  1.00  0.00    -0.203 F 
ATOM     78  F   UNL A   1      37.851  34.061  40.178  1.00  0.00    -0.200 F 
ATOM     79  C   UNL A   1      39.293  35.661  39.209  1.00  0.00     0.200 A 
ATOM     80  F   UNL A   1      40.730  37.233  38.190  1.00  0.00    -0.200 F 
ATOM     81  F   UNL A   1      39.154  36.457  40.278  1.00  0.00    -0.200 F 
ENDBRANCH  47  71
BRANCH  59  82
ATOM     82  C   UNL A   1      43.901  28.816  35.268  1.00  0.00     0.064 A 
ATOM     83  C   UNL A   1      43.751  27.707  36.113  1.00  0.00     0.173 A 
ATOM     84  C   UNL A   1      45.196  29.320  35.068  1.00  0.00     0.173 A 
ATOM     85  F   UNL A   1      42.532  27.198  36.349  1.00  0.00    -0.203 F 
ATOM     86  C   UNL A   1      44.851  27.143  36.754  1.00  0.00     0.198 A 
ATOM     87  C   UNL A   1      46.297  28.734  35.686  1.00  0.00     0.198 A 
ATOM     88  F   UNL A   1      45.394  30.375  34.264  1.00  0.00    -0.203 F 
ATOM     89  F   UNL A   1      44.677  26.115  37.596  1.00  0.00    -0.200 F 
ATOM     90  C   UNL A   1      46.122  27.651  36.534  1.00  0.00     0.200 A 
ATOM     91  F   UNL A   1      47.526  29.217  35.461  1.00  0.00    -0.200 F 
ATOM     92  F   UNL A   1      47.180  27.101  37.146  1.00  0.00    -0.200 F 
ENDBRANCH  59  82
ENDBRANCH  33  34
ENDBRANCH  25  28
ENDBRANCH  23  24
ENDBRANCH  22  23
ENDBRANCH  21  22
ENDBRANCH   1  21
TORSDOF 16
ENDMDL
MODEL 3
REMARK VINA RESULT:      -9.9      0.908      2.013
REMARK SMILES Cc1ncccc1C(=O)NCCOCC(=O)NCCCCNC(=O)c1ccc(-c2c3nc(c(-c4c(F)c(F)c(F)c(F)c4F)c4ccc([nH]4)c(-c4c(F)c(F)c(F)c(F)c4F)c4nc(c(-c5c(F)c(F)c(F)c(F)c5F)c5ccc2[nH]5)C=C4)C=C3)cc1
REMARK SMILES IDX 18 1 17 2 15 3 16 4 14 6 13 7 12 8 11 9 10 10 8 11 9 12 7 14
REMARK SMILES IDX 1 15 2 16 3 17 4 18 6 19 5 20 19 21 20 22 21 23 22 24 23 25
REMARK SMILES IDX 24 27 25 28 26 29 87 30 27 31 86 32 28 33 29 34 30 35 80 36
REMARK SMILES IDX 31 37 85 38 79 39 81 40 32 41 84 42 78 43 77 44 33 46 65 47
REMARK SMILES IDX 45 48 64 49 46 50 49 51 63 52 82 53 47 54 48 55 62 57 83 58
REMARK SMILES IDX 50 59 34 60 35 61 43 62 36 63 37 64 41 65 44 66 38 67 39 68
REMARK SMILES IDX 42 69 40 70 66 71 67 72 75 73 68 74 69 75 73 76 76 77 70 78
REMARK SMILES IDX 71 79 74 80 72 81 51 82 52 83 60 84 53 85 54 86 58 87 61 88
REMARK SMILES IDX 55 89 56 90 59 91 57 92
REMARK H PARENT 17 5 10 13 22 26 81 45 49 56
REMARK Flexibility Score: inf
ROOT
ATOM      1  C   UNL A   1      32.947  35.955  29.138  1.00  0.00     0.116 C 
ENDROOT
BRANCH   1   2
ATOM      2  N   UNL A   1      33.239  36.984  30.116  1.00  0.00    -0.354 N 
ATOM      3  C   UNL A   1      32.975  36.971  31.458  1.00  0.00     0.245 C 
ATOM      4  O   UNL A   1      33.339  37.925  32.144  1.00  0.00    -0.272 OA
ATOM      5  H   UNL A   1      33.683  37.792  29.772  1.00  0.00     0.163 HD
BRANCH   3   6
ATOM      6  C   UNL A   1      32.214  35.779  32.059  1.00  0.00     0.260 C 
BRANCH   6   7
ATOM      7  O   UNL A   1      32.912  34.575  32.339  1.00  0.00    -0.370 OA
BRANCH   7   8
ATOM      8  C   UNL A   1      34.141  34.726  33.046  1.00  0.00     0.182 C 
BRANCH   8   9
ATOM      9  C   UNL A   1      35.049  33.500  33.022  1.00  0.00     0.144 C 
BRANCH   9  10
ATOM     10  N   UNL A   1      35.781  33.290  31.791  1.00  0.00    -0.350 N 
ATOM     11  C   UNL A   1      37.090  32.967  31.550  1.00  0.00     0.253 C 
ATOM     12  O   UNL A   1      37.427  32.778  30.380  1.00  0.00    -0.269 OA
ATOM     13  H   UNL A   1      35.239  33.398  30.977  1.00  0.00     0.163 HD
BRANCH  11  14
ATOM     14  C   UNL A   1      38.136  32.904  32.600  1.00  0.00     0.061 A 
ATOM     15  C   UNL A   1      37.767  30.481  33.353  1.00  0.00     0.067 C 
ATOM     16  C   UNL A   1      38.445  31.813  33.418  1.00  0.00     0.050 A 
ATOM     17  N   UNL A   1      39.454  31.860  34.337  1.00  0.00    -0.261 NA
ATOM     18  C   UNL A   1      40.229  32.964  34.385  1.00  0.00     0.111 A 
ATOM     19  C   UNL A   1      38.983  34.024  32.669  1.00  0.00     0.017 A 
ATOM     20  C   UNL A   1      40.048  34.056  33.563  1.00  0.00     0.021 A 
ENDBRANCH  11  14
ENDBRANCH   9  10
ENDBRANCH   8   9
ENDBRANCH   7   8
ENDBRANCH   6   7
ENDBRANCH   3   6
ENDBRANCH   1   2
BRANCH   1  21
ATOM     21  C   UNL A   1      34.122  35.002  28.916  1.00  0.00     0.023 C 
BRANCH  21  22
ATOM     22  C   UNL A   1      33.809  33.517  29.111  1.00  0.00     0.023 C 
BRANCH  22  23
ATOM     23  C   UNL A   1      34.698  32.557  28.331  1.00  0.00     0.116 C 
BRANCH  23  24
ATOM     24  N   UNL A   1      34.050  31.289  28.035  1.00  0.00    -0.352 N 
ATOM     25  C   UNL A   1      34.602  30.034  27.973  1.00  0.00     0.251 C 
ATOM     26  H   UNL A   1      33.083  31.338  27.855  1.00  0.00     0.163 HD
ATOM     27  O   UNL A   1      33.924  29.076  27.611  1.00  0.00    -0.269 OA
BRANCH  25  28
ATOM     28  C   UNL A   1      36.029  29.847  28.303  1.00  0.00     0.039 A 
ATOM     29  C   UNL A   1      36.368  29.396  29.580  1.00  0.00     0.014 A 
ATOM     30  C   UNL A   1      37.022  30.081  27.348  1.00  0.00     0.014 A 
ATOM     31  C   UNL A   1      37.702  29.113  29.879  1.00  0.00     0.010 A 
ATOM     32  C   UNL A   1      38.339  29.726  27.624  1.00  0.00     0.010 A 
ATOM     33  C   UNL A   1      38.691  29.238  28.891  1.00  0.00    -0.014 A 
BRANCH  33  34
ATOM     34  C   UNL A   1      40.101  28.862  29.162  1.00  0.00     0.031 A 
ATOM     35  C   UNL A   1      41.008  29.812  29.891  1.00  0.00     0.074 A 
ATOM     36  C   UNL A   1      40.580  27.693  28.693  1.00  0.00     0.049 A 
ATOM     37  N   UNL A   1      42.283  29.696  30.163  1.00  0.00    -0.248 NA
ATOM     38  C   UNL A   1      40.408  31.074  30.350  1.00  0.00     0.031 C 
ATOM     39  C   UNL A   1      39.811  26.708  27.931  1.00  0.00     0.029 A 
ATOM     40  N   UNL A   1      41.832  27.140  28.781  1.00  0.00    -0.354 N 
ATOM     41  C   UNL A   1      42.639  30.871  30.810  1.00  0.00     0.074 A 
ATOM     42  C   UNL A   1      41.462  31.711  30.840  1.00  0.00     0.031 C 
ATOM     43  C   UNL A   1      40.600  25.661  27.643  1.00  0.00     0.029 A 
ATOM     44  C   UNL A   1      41.939  25.918  28.163  1.00  0.00     0.049 A 
ATOM     45  H   UNL A   1      42.584  27.577  29.241  1.00  0.00     0.167 HD
ATOM     46  C   UNL A   1      43.832  31.209  31.355  1.00  0.00     0.037 A 
ATOM     47  C   UNL A   1      43.000  25.099  28.030  1.00  0.00     0.037 A 
ATOM     48  C   UNL A   1      44.994  30.360  31.343  1.00  0.00     0.049 A 
ATOM     49  C   UNL A   1      44.319  25.503  28.632  1.00  0.00     0.074 A 
ATOM     50  C   UNL A   1      46.233  30.584  31.918  1.00  0.00     0.029 A 
ATOM     51  N   UNL A   1      45.061  29.123  30.719  1.00  0.00    -0.354 N 
ATOM     52  N   UNL A   1      44.625  26.585  29.306  1.00  0.00    -0.248 NA
ATOM     53  C   UNL A   1      45.439  24.567  28.459  1.00  0.00     0.031 C 
ATOM     54  C   UNL A   1      47.063  29.503  31.602  1.00  0.00     0.029 A 
ATOM     55  C   UNL A   1      46.327  28.581  30.875  1.00  0.00     0.049 A 
ATOM     56  H   UNL A   1      44.318  28.691  30.238  1.00  0.00     0.167 HD
ATOM     57  C   UNL A   1      45.959  26.448  29.663  1.00  0.00     0.074 A 
ATOM     58  C   UNL A   1      46.401  25.171  29.144  1.00  0.00     0.031 C 
ATOM     59  C   UNL A   1      46.748  27.303  30.361  1.00  0.00     0.037 A 
BRANCH  46  60
ATOM     60  C   UNL A   1      43.938  32.555  32.011  1.00  0.00     0.064 A 
ATOM     61  C   UNL A   1      44.261  33.708  31.279  1.00  0.00     0.173 A 
ATOM     62  C   UNL A   1      43.687  32.700  33.384  1.00  0.00     0.173 A 
ATOM     63  F   UNL A   1      44.522  33.623  29.966  1.00  0.00    -0.203 F 
ATOM     64  C   UNL A   1      44.363  34.949  31.902  1.00  0.00     0.198 A 
ATOM     65  C   UNL A   1      43.758  33.949  33.998  1.00  0.00     0.198 A 
ATOM     66  F   UNL A   1      43.368  31.633  34.131  1.00  0.00    -0.203 F 
ATOM     67  F   UNL A   1      44.729  36.025  31.192  1.00  0.00    -0.200 F 
ATOM     68  C   UNL A   1      44.105  35.069  33.259  1.00  0.00     0.200 A 
ATOM     69  F   UNL A   1      43.495  34.066  35.307  1.00  0.00    -0.200 F 
ATOM     70  F   UNL A   1      44.199  36.266  33.857  1.00  0.00    -0.200 F 
ENDBRANCH  46  60
BRANCH  47  71
ATOM     71  C   UNL A   1      42.854  23.801  27.321  1.00  0.00     0.064 A 
ATOM     72  C   UNL A   1      42.350  22.673  27.986  1.00  0.00     0.173 A 
ATOM     73  C   UNL A   1      43.218  23.655  25.974  1.00  0.00     0.173 A 
ATOM     74  F   UNL A   1      42.007  22.756  29.279  1.00  0.00    -0.203 F 
ATOM     75  C   UNL A   1      42.237  21.445  27.337  1.00  0.00     0.198 A 
ATOM     76  C   UNL A   1      43.077  22.435  25.318  1.00  0.00     0.198 A 
ATOM     77  F   UNL A   1      43.700  24.705  25.292  1.00  0.00    -0.203 F 
ATOM     78  F   UNL A   1      41.797  20.374  28.010  1.00  0.00    -0.200 F 
ATOM     79  C   UNL A   1      42.595  21.328  26.002  1.00  0.00     0.200 A 
ATOM     80  F   UNL A   1      43.411  22.328  24.025  1.00  0.00    -0.200 F 
ATOM     81  F   UNL A   1      42.484  20.148  25.378  1.00  0.00    -0.200 F 
ENDBRANCH  47  71
BRANCH  59  82
ATOM     82  C   UNL A   1      48.158  26.868  30.636  1.00  0.00     0.064 A 
ATOM     83  C   UNL A   1      48.477  26.051  31.730  1.00  0.00     0.173 A 
ATOM     84  C   UNL A   1      49.196  27.242  29.770  1.00  0.00     0.173 A 
ATOM     85  F   UNL A   1      47.523  25.678  32.596  1.00  0.00    -0.203 F 
ATOM     86  C   UNL A   1      49.789  25.646  31.961  1.00  0.00     0.198 A 
ATOM     87  C   UNL A   1      50.502  26.810  29.986  1.00  0.00     0.198 A 
ATOM     88  F   UNL A   1      48.942  28.018  28.706  1.00  0.00    -0.203 F 
ATOM     89  F   UNL A   1      50.080  24.906  33.040  1.00  0.00    -0.200 F 
ATOM     90  C   UNL A   1      50.798  26.020  31.086  1.00  0.00     0.200 A 
ATOM     91  F   UNL A   1      51.472  27.160  29.131  1.00  0.00    -0.200 F 
ATOM     92  F   UNL A   1      52.059  25.622  31.306  1.00  0.00    -0.200 F 
ENDBRANCH  59  82
ENDBRANCH  33  34
ENDBRANCH  25  28
ENDBRANCH  23  24
ENDBRANCH  22  23
ENDBRANCH  21  22
ENDBRANCH   1  21
TORSDOF 16
ENDMDL
