MODEL 1
REMARK VINA RESULT:     -12.5      0.000      0.000
REMARK SMILES C[C@@]([NH3+])(C(=O)Nc1cc(C(=O)NCCCCNC(=O)c2ccc(-c3c4nc(c(-c5c(F)c(F)c(F)c(F)c5F)c5ccc([nH]5)c(-c5c(F)c(F)c(F)c(F)c5F)c5nc(c(-c6c(F)c(F)c(F)c(F)c6F)c6ccc3[nH]6)C=C5)C=C4)cc2)ccc1F)C(F)(F)F
REMARK SMILES IDX 14 1 13 2 12 3 10 4 11 5 9 7 7 8 8 9 85 10 84 11 86 12 83 13
REMARK SMILES IDX 6 14 4 15 5 16 2 18 1 19 3 20 87 24 88 25 89 26 90 27 15 28
REMARK SMILES IDX 16 29 17 30 18 31 19 33 20 34 21 35 82 36 22 37 81 38 23 39
REMARK SMILES IDX 24 40 25 41 75 42 26 43 80 44 74 45 76 46 27 47 79 48 73 49
REMARK SMILES IDX 72 50 28 52 60 53 40 54 59 55 41 56 44 57 58 58 77 59 42 60
REMARK SMILES IDX 43 61 57 63 78 64 45 65 29 66 30 67 38 68 31 69 32 70 36 71
REMARK SMILES IDX 39 72 33 73 34 74 37 75 35 76 61 77 62 78 70 79 63 80 64 81
REMARK SMILES IDX 68 82 71 83 65 84 66 85 69 86 67 87 46 88 47 89 55 90 48 91
REMARK SMILES IDX 49 92 53 93 56 94 50 95 51 96 54 97 52 98
REMARK H PARENT 12 6 6 17 3 21 3 22 3 23 17 32 76 51 44 62
REMARK Flexibility Score: inf
ROOT
ATOM      1  C   UNL A   1      32.013  30.465  26.676  1.00  0.00     0.023 C 
ENDROOT
BRANCH   1   2
ATOM      2  C   UNL A   1      31.688  29.829  25.321  1.00  0.00     0.116 C 
BRANCH   2   3
ATOM      3  N   UNL A   1      32.892  29.584  24.554  1.00  0.00    -0.352 N 
ATOM      4  C   UNL A   1      33.358  28.481  23.886  1.00  0.00     0.251 C 
ATOM      5  O   UNL A   1      34.403  28.617  23.249  1.00  0.00    -0.269 OA
ATOM      6  H   UNL A   1      33.492  30.363  24.500  1.00  0.00     0.163 HD
BRANCH   4   7
ATOM      7  C   UNL A   1      32.677  27.151  23.869  1.00  0.00     0.042 A 
ATOM      8  C   UNL A   1      32.026  25.197  25.184  1.00  0.00     0.078 A 
ATOM      9  C   UNL A   1      32.621  26.459  25.095  1.00  0.00     0.043 A 
ATOM     10  C   UNL A   1      31.380  24.675  24.067  1.00  0.00     0.146 A 
ATOM     11  C   UNL A   1      31.404  25.345  22.853  1.00  0.00     0.042 A 
ATOM     12  F   UNL A   1      30.636  23.565  24.166  1.00  0.00    -0.205 F 
ATOM     13  C   UNL A   1      32.052  26.578  22.756  1.00  0.00     0.017 A 
BRANCH   8  14
ATOM     14  N   UNL A   1      31.987  24.559  26.429  1.00  0.00    -0.318 N 
ATOM     15  C   UNL A   1      32.628  23.420  26.854  1.00  0.00     0.295 C 
ATOM     16  O   UNL A   1      32.153  22.873  27.854  1.00  0.00    -0.267 OA
ATOM     17  H   UNL A   1      31.413  24.991  27.102  1.00  0.00     0.170 HD
BRANCH  15  18
ATOM     18  C   UNL A   1      33.974  22.956  26.223  1.00  0.00     0.267 C 
ATOM     19  C   UNL A   1      34.832  24.078  25.634  1.00  0.00     0.100 C 
BRANCH  18  20
ATOM     20  N   UNL A   1      34.800  22.248  27.280  1.00  0.00    -0.337 N 
ATOM     21  H   UNL A   1      34.636  22.684  28.187  1.00  0.00     0.345 HD
ATOM     22  H   UNL A   1      35.789  22.318  27.042  1.00  0.00     0.345 HD
ATOM     23  H   UNL A   1      34.528  21.265  27.321  1.00  0.00     0.345 HD
ENDBRANCH  18  20
BRANCH  18  24
ATOM     24  C   UNL A   1      33.586  22.015  25.044  1.00  0.00     0.453 C 
ATOM     25  F   UNL A   1      33.745  22.579  23.830  1.00  0.00    -0.164 F 
ATOM     26  F   UNL A   1      34.388  20.911  25.067  1.00  0.00    -0.164 F 
ATOM     27  F   UNL A   1      32.321  21.550  25.155  1.00  0.00    -0.164 F 
ENDBRANCH  18  24
ENDBRANCH  15  18
ENDBRANCH   8  14
ENDBRANCH   4   7
ENDBRANCH   2   3
ENDBRANCH   1   2
BRANCH   1  28
ATOM     28  C   UNL A   1      31.750  31.970  26.759  1.00  0.00     0.023 C 
BRANCH  28  29
ATOM     29  C   UNL A   1      32.864  32.797  27.391  1.00  0.00     0.116 C 
BRANCH  29  30
ATOM     30  N   UNL A   1      32.489  34.176  27.669  1.00  0.00    -0.352 N 
ATOM     31  C   UNL A   1      33.047  35.044  28.580  1.00  0.00     0.251 C 
ATOM     32  H   UNL A   1      31.741  34.533  27.137  1.00  0.00     0.163 HD
ATOM     33  O   UNL A   1      32.582  36.161  28.751  1.00  0.00    -0.269 OA
BRANCH  31  34
ATOM     34  C   UNL A   1      34.191  34.578  29.387  1.00  0.00     0.039 A 
ATOM     35  C   UNL A   1      33.942  34.051  30.657  1.00  0.00     0.014 A 
ATOM     36  C   UNL A   1      35.480  34.578  28.852  1.00  0.00     0.014 A 
ATOM     37  C   UNL A   1      34.979  33.431  31.354  1.00  0.00     0.010 A 
ATOM     38  C   UNL A   1      36.497  33.909  29.523  1.00  0.00     0.010 A 
ATOM     39  C   UNL A   1      36.249  33.309  30.768  1.00  0.00    -0.014 A 
BRANCH  39  40
ATOM     40  C   UNL A   1      37.320  32.507  31.406  1.00  0.00     0.031 A 
ATOM     41  C   UNL A   1      37.834  32.880  32.763  1.00  0.00     0.074 A 
ATOM     42  C   UNL A   1      37.890  31.501  30.715  1.00  0.00     0.049 A 
ATOM     43  N   UNL A   1      38.845  32.381  33.428  1.00  0.00    -0.248 NA
ATOM     44  C   UNL A   1      37.138  33.976  33.455  1.00  0.00     0.031 C 
ATOM     45  C   UNL A   1      37.501  31.073  29.369  1.00  0.00     0.029 A 
ATOM     46  N   UNL A   1      38.930  30.667  31.040  1.00  0.00    -0.354 N 
ATOM     47  C   UNL A   1      38.916  33.110  34.606  1.00  0.00     0.074 A 
ATOM     48  C   UNL A   1      37.872  34.112  34.550  1.00  0.00     0.031 C 
ATOM     49  C   UNL A   1      38.279  30.046  28.992  1.00  0.00     0.029 A 
ATOM     50  C   UNL A   1      39.248  29.771  30.049  1.00  0.00     0.049 A 
ATOM     51  H   UNL A   1      39.404  30.708  31.901  1.00  0.00     0.167 HD
ATOM     52  C   UNL A   1      39.764  32.942  35.646  1.00  0.00     0.037 A 
ATOM     53  C   UNL A   1      40.220  28.840  29.992  1.00  0.00     0.037 A 
ATOM     54  C   UNL A   1      40.777  31.923  35.710  1.00  0.00     0.049 A 
ATOM     55  C   UNL A   1      41.160  28.687  31.154  1.00  0.00     0.074 A 
ATOM     56  C   UNL A   1      41.633  31.626  36.755  1.00  0.00     0.029 A 
ATOM     57  N   UNL A   1      41.068  31.034  34.687  1.00  0.00    -0.354 N 
ATOM     58  N   UNL A   1      41.185  29.347  32.286  1.00  0.00    -0.248 NA
ATOM     59  C   UNL A   1      42.212  27.666  31.032  1.00  0.00     0.031 C 
ATOM     60  C   UNL A   1      42.469  30.581  36.351  1.00  0.00     0.029 A 
ATOM     61  C   UNL A   1      42.108  30.203  35.068  1.00  0.00     0.049 A 
ATOM     62  H   UNL A   1      40.604  30.999  33.819  1.00  0.00     0.167 HD
ATOM     63  C   UNL A   1      42.238  28.815  33.015  1.00  0.00     0.074 A 
ATOM     64  C   UNL A   1      42.824  27.769  32.204  1.00  0.00     0.031 C 
ATOM     65  C   UNL A   1      42.679  29.166  34.247  1.00  0.00     0.037 A 
BRANCH  52  66
ATOM     66  C   UNL A   1      39.628  33.871  36.814  1.00  0.00     0.064 A 
ATOM     67  C   UNL A   1      38.830  33.521  37.912  1.00  0.00     0.173 A 
ATOM     68  C   UNL A   1      40.234  35.136  36.816  1.00  0.00     0.173 A 
ATOM     69  F   UNL A   1      38.224  32.325  37.956  1.00  0.00    -0.203 F 
ATOM     70  C   UNL A   1      38.635  34.409  38.967  1.00  0.00     0.198 A 
ATOM     71  C   UNL A   1      40.057  36.012  37.882  1.00  0.00     0.198 A 
ATOM     72  F   UNL A   1      41.017  35.510  35.792  1.00  0.00    -0.203 F 
ATOM     73  F   UNL A   1      37.847  34.065  39.995  1.00  0.00    -0.200 F 
ATOM     74  C   UNL A   1      39.251  35.651  38.952  1.00  0.00     0.200 A 
ATOM     75  F   UNL A   1      40.671  37.203  37.878  1.00  0.00    -0.200 F 
ATOM     76  F   UNL A   1      39.070  36.503  39.972  1.00  0.00    -0.200 F 
ENDBRANCH  52  66
BRANCH  53  77
ATOM     77  C   UNL A   1      40.335  27.972  28.793  1.00  0.00     0.064 A 
ATOM     78  C   UNL A   1      41.093  28.358  27.679  1.00  0.00     0.173 A 
ATOM     79  C   UNL A   1      39.655  26.749  28.731  1.00  0.00     0.173 A 
ATOM     80  F   UNL A   1      41.758  29.522  27.689  1.00  0.00    -0.203 F 
ATOM     81  C   UNL A   1      41.152  27.558  26.539  1.00  0.00     0.198 A 
ATOM     82  C   UNL A   1      39.732  25.940  27.599  1.00  0.00     0.198 A 
ATOM     83  F   UNL A   1      38.933  26.330  29.781  1.00  0.00    -0.203 F 
ATOM     84  F   UNL A   1      41.858  27.963  25.475  1.00  0.00    -0.200 F 
ATOM     85  C   UNL A   1      40.474  26.349  26.501  1.00  0.00     0.200 A 
ATOM     86  F   UNL A   1      39.092  24.764  27.574  1.00  0.00    -0.200 F 
ATOM     87  F   UNL A   1      40.538  25.577  25.407  1.00  0.00    -0.200 F 
ENDBRANCH  53  77
BRANCH  65  88
ATOM     88  C   UNL A   1      43.847  28.414  34.808  1.00  0.00     0.064 A 
ATOM     89  C   UNL A   1      43.646  27.246  35.559  1.00  0.00     0.173 A 
ATOM     90  C   UNL A   1      45.153  28.906  34.687  1.00  0.00     0.173 A 
ATOM     91  F   UNL A   1      42.411  26.741  35.707  1.00  0.00    -0.203 F 
ATOM     92  C   UNL A   1      44.712  26.609  36.187  1.00  0.00     0.198 A 
ATOM     93  C   UNL A   1      46.220  28.254  35.299  1.00  0.00     0.198 A 
ATOM     94  F   UNL A   1      45.393  30.012  33.968  1.00  0.00    -0.203 F 
ATOM     95  F   UNL A   1      44.493  25.515  36.930  1.00  0.00    -0.200 F 
ATOM     96  C   UNL A   1      45.997  27.114  36.058  1.00  0.00     0.200 A 
ATOM     97  F   UNL A   1      47.465  28.731  35.159  1.00  0.00    -0.200 F 
ATOM     98  F   UNL A   1      47.023  26.501  36.665  1.00  0.00    -0.200 F 
ENDBRANCH  65  88
ENDBRANCH  39  40
ENDBRANCH  31  34
ENDBRANCH  29  30
ENDBRANCH  28  29
ENDBRANCH   1  28
TORSDOF 15
ENDMDL
MODEL 2
REMARK VINA RESULT:     -12.5      0.884      7.508
REMARK SMILES C[C@@]([NH3+])(C(=O)Nc1cc(C(=O)NCCCCNC(=O)c2ccc(-c3c4nc(c(-c5c(F)c(F)c(F)c(F)c5F)c5ccc([nH]5)c(-c5c(F)c(F)c(F)c(F)c5F)c5nc(c(-c6c(F)c(F)c(F)c(F)c6F)c6ccc3[nH]6)C=C5)C=C4)cc2)ccc1F)C(F)(F)F
REMARK SMILES IDX 14 1 13 2 12 3 10 4 11 5 9 7 7 8 8 9 85 10 84 11 86 12 83 13
REMARK SMILES IDX 6 14 4 15 5 16 2 18 1 19 3 20 87 24 88 25 89 26 90 27 15 28
REMARK SMILES IDX 16 29 17 30 18 31 19 33 20 34 21 35 82 36 22 37 81 38 23 39
REMARK SMILES IDX 24 40 25 41 75 42 26 43 80 44 74 45 76 46 27 47 79 48 73 49
REMARK SMILES IDX 72 50 28 52 60 53 40 54 59 55 41 56 44 57 58 58 77 59 42 60
REMARK SMILES IDX 43 61 57 63 78 64 45 65 29 66 30 67 38 68 31 69 32 70 36 71
REMARK SMILES IDX 39 72 33 73 34 74 37 75 35 76 61 77 62 78 70 79 63 80 64 81
REMARK SMILES IDX 68 82 71 83 65 84 66 85 69 86 67 87 46 88 47 89 55 90 48 91
REMARK SMILES IDX 49 92 53 93 56 94 50 95 51 96 54 97 52 98
REMARK H PARENT 12 6 6 17 3 21 3 22 3 23 17 32 76 51 44 62
REMARK Flexibility Score: inf
ROOT
ATOM      1  C   UNL A   1      32.233  29.959  26.986  1.00  0.00     0.023 C 
ENDROOT
BRANCH   1   2
ATOM      2  C   UNL A   1      33.683  29.479  26.874  1.00  0.00     0.116 C 
BRANCH   2   3
ATOM      3  N   UNL A   1      34.014  29.119  25.510  1.00  0.00    -0.352 N 
ATOM      4  C   UNL A   1      33.626  28.079  24.706  1.00  0.00     0.251 C 
ATOM      5  O   UNL A   1      34.029  28.095  23.542  1.00  0.00    -0.269 OA
ATOM      6  H   UNL A   1      34.638  29.745  25.076  1.00  0.00     0.163 HD
BRANCH   4   7
ATOM      7  C   UNL A   1      32.743  26.955  25.142  1.00  0.00     0.042 A 
ATOM      8  C   UNL A   1      32.649  24.748  26.188  1.00  0.00     0.078 A 
ATOM      9  C   UNL A   1      33.379  25.861  25.762  1.00  0.00     0.043 A 
ATOM     10  C   UNL A   1      31.260  24.779  26.098  1.00  0.00     0.146 A 
ATOM     11  C   UNL A   1      30.607  25.851  25.509  1.00  0.00     0.042 A 
ATOM     12  F   UNL A   1      30.518  23.820  26.670  1.00  0.00    -0.205 F 
ATOM     13  C   UNL A   1      31.348  26.934  25.031  1.00  0.00     0.017 A 
BRANCH   8  14
ATOM     14  N   UNL A   1      33.329  23.696  26.809  1.00  0.00    -0.318 N 
ATOM     15  C   UNL A   1      33.579  22.422  26.358  1.00  0.00     0.295 C 
ATOM     16  O   UNL A   1      33.871  21.588  27.222  1.00  0.00    -0.267 OA
ATOM     17  H   UNL A   1      33.681  23.898  27.706  1.00  0.00     0.170 HD
BRANCH  15  18
ATOM     18  C   UNL A   1      33.668  22.096  24.837  1.00  0.00     0.267 C 
ATOM     19  C   UNL A   1      34.074  23.274  23.948  1.00  0.00     0.100 C 
BRANCH  18  20
ATOM     20  N   UNL A   1      34.679  20.986  24.626  1.00  0.00    -0.337 N 
ATOM     21  H   UNL A   1      34.896  20.549  25.521  1.00  0.00     0.345 HD
ATOM     22  H   UNL A   1      35.531  21.375  24.221  1.00  0.00     0.345 HD
ATOM     23  H   UNL A   1      34.289  20.288  23.992  1.00  0.00     0.345 HD
ENDBRANCH  18  20
BRANCH  18  24
ATOM     24  C   UNL A   1      32.229  21.679  24.409  1.00  0.00     0.453 C 
ATOM     25  F   UNL A   1      31.404  21.452  25.449  1.00  0.00    -0.164 F 
ATOM     26  F   UNL A   1      31.668  22.687  23.680  1.00  0.00    -0.164 F 
ATOM     27  F   UNL A   1      32.230  20.597  23.598  1.00  0.00    -0.164 F 
ENDBRANCH  18  24
ENDBRANCH  15  18
ENDBRANCH   8  14
ENDBRANCH   4   7
ENDBRANCH   2   3
ENDBRANCH   1   2
BRANCH   1  28
ATOM     28  C   UNL A   1      32.032  31.458  26.757  1.00  0.00     0.023 C 
BRANCH  28  29
ATOM     29  C   UNL A   1      33.033  32.369  27.459  1.00  0.00     0.116 C 
BRANCH  29  30
ATOM     30  N   UNL A   1      32.567  33.738  27.626  1.00  0.00    -0.352 N 
ATOM     31  C   UNL A   1      33.066  34.712  28.461  1.00  0.00     0.251 C 
ATOM     32  H   UNL A   1      31.797  34.000  27.073  1.00  0.00     0.163 HD
ATOM     33  O   UNL A   1      32.527  35.806  28.544  1.00  0.00    -0.269 OA
BRANCH  31  34
ATOM     34  C   UNL A   1      34.239  34.390  29.297  1.00  0.00     0.039 A 
ATOM     35  C   UNL A   1      34.027  33.830  30.558  1.00  0.00     0.014 A 
ATOM     36  C   UNL A   1      35.531  34.557  28.795  1.00  0.00     0.014 A 
ATOM     37  C   UNL A   1      35.116  33.342  31.281  1.00  0.00     0.010 A 
ATOM     38  C   UNL A   1      36.608  34.018  29.490  1.00  0.00     0.010 A 
ATOM     39  C   UNL A   1      36.406  33.385  30.727  1.00  0.00    -0.014 A 
BRANCH  39  40
ATOM     40  C   UNL A   1      37.553  32.721  31.390  1.00  0.00     0.031 A 
ATOM     41  C   UNL A   1      38.232  31.556  30.735  1.00  0.00     0.074 A 
ATOM     42  C   UNL A   1      37.916  33.113  32.627  1.00  0.00     0.049 A 
ATOM     43  N   UNL A   1      39.164  30.771  31.211  1.00  0.00    -0.248 NA
ATOM     44  C   UNL A   1      37.788  31.211  29.376  1.00  0.00     0.031 C 
ATOM     45  C   UNL A   1      37.301  34.207  33.381  1.00  0.00     0.029 A 
ATOM     46  N   UNL A   1      38.878  32.625  33.476  1.00  0.00    -0.354 N 
ATOM     47  C   UNL A   1      39.407  29.832  30.219  1.00  0.00     0.074 A 
ATOM     48  C   UNL A   1      38.498  30.119  29.130  1.00  0.00     0.031 C 
ATOM     49  C   UNL A   1      37.911  34.319  34.571  1.00  0.00     0.029 A 
ATOM     50  C   UNL A   1      38.930  33.280  34.682  1.00  0.00     0.049 A 
ATOM     51  H   UNL A   1      39.472  31.876  33.243  1.00  0.00     0.167 HD
ATOM     52  C   UNL A   1      40.320  28.834  30.214  1.00  0.00     0.037 A 
ATOM     53  C   UNL A   1      39.704  33.058  35.763  1.00  0.00     0.037 A 
ATOM     54  C   UNL A   1      41.244  28.575  31.285  1.00  0.00     0.049 A 
ATOM     55  C   UNL A   1      40.698  31.932  35.737  1.00  0.00     0.074 A 
ATOM     56  C   UNL A   1      42.257  27.635  31.339  1.00  0.00     0.029 A 
ATOM     57  N   UNL A   1      41.267  29.260  32.491  1.00  0.00    -0.354 N 
ATOM     58  N   UNL A   1      40.956  31.082  34.772  1.00  0.00    -0.248 NA
ATOM     59  C   UNL A   1      41.505  31.726  36.949  1.00  0.00     0.031 C 
ATOM     60  C   UNL A   1      42.870  27.724  32.592  1.00  0.00     0.029 A 
ATOM     61  C   UNL A   1      42.263  28.746  33.304  1.00  0.00     0.049 A 
ATOM     62  H   UNL A   1      40.665  30.001  32.732  1.00  0.00     0.167 HD
ATOM     63  C   UNL A   1      41.960  30.254  35.251  1.00  0.00     0.074 A 
ATOM     64  C   UNL A   1      42.275  30.708  36.589  1.00  0.00     0.031 C 
ATOM     65  C   UNL A   1      42.564  29.210  34.635  1.00  0.00     0.037 A 
BRANCH  52  66
ATOM     66  C   UNL A   1      40.382  27.951  29.005  1.00  0.00     0.064 A 
ATOM     67  C   UNL A   1      41.141  28.327  27.888  1.00  0.00     0.173 A 
ATOM     68  C   UNL A   1      39.635  26.767  28.927  1.00  0.00     0.173 A 
ATOM     69  F   UNL A   1      41.869  29.454  27.911  1.00  0.00    -0.203 F 
ATOM     70  C   UNL A   1      41.143  27.551  26.731  1.00  0.00     0.198 A 
ATOM     71  C   UNL A   1      39.658  25.981  27.778  1.00  0.00     0.198 A 
ATOM     72  F   UNL A   1      38.903  26.361  29.975  1.00  0.00    -0.203 F 
ATOM     73  F   UNL A   1      41.855  27.941  25.665  1.00  0.00    -0.200 F 
ATOM     74  C   UNL A   1      40.405  26.379  26.679  1.00  0.00     0.200 A 
ATOM     75  F   UNL A   1      38.962  24.838  27.737  1.00  0.00    -0.200 F 
ATOM     76  F   UNL A   1      40.413  25.629  25.568  1.00  0.00    -0.200 F 
ENDBRANCH  52  66
BRANCH  53  77
ATOM     77  C   UNL A   1      39.574  33.939  36.950  1.00  0.00     0.064 A 
ATOM     78  C   UNL A   1      38.783  33.577  38.049  1.00  0.00     0.173 A 
ATOM     79  C   UNL A   1      40.220  35.182  36.989  1.00  0.00     0.173 A 
ATOM     80  F   UNL A   1      38.142  32.399  38.055  1.00  0.00    -0.203 F 
ATOM     81  C   UNL A   1      38.628  34.435  39.137  1.00  0.00     0.198 A 
ATOM     82  C   UNL A   1      40.081  36.030  38.087  1.00  0.00     0.198 A 
ATOM     83  F   UNL A   1      41.003  35.562  35.969  1.00  0.00    -0.203 F 
ATOM     84  F   UNL A   1      37.841  34.079  40.161  1.00  0.00    -0.200 F 
ATOM     85  C   UNL A   1      39.279  35.659  39.155  1.00  0.00     0.200 A 
ATOM     86  F   UNL A   1      40.727  37.203  38.110  1.00  0.00    -0.200 F 
ATOM     87  F   UNL A   1      39.135  36.480  40.205  1.00  0.00    -0.200 F 
ENDBRANCH  53  77
BRANCH  65  88
ATOM     88  C   UNL A   1      43.635  28.482  35.387  1.00  0.00     0.064 A 
ATOM     89  C   UNL A   1      44.987  28.798  35.183  1.00  0.00     0.173 A 
ATOM     90  C   UNL A   1      43.328  27.408  36.232  1.00  0.00     0.173 A 
ATOM     91  F   UNL A   1      45.330  29.815  34.377  1.00  0.00    -0.203 F 
ATOM     92  C   UNL A   1      45.994  28.048  35.783  1.00  0.00     0.198 A 
ATOM     93  C   UNL A   1      44.337  26.673  36.847  1.00  0.00     0.198 A 
ATOM     94  F   UNL A   1      42.048  27.079  36.466  1.00  0.00    -0.203 F 
ATOM     95  F   UNL A   1      47.279  28.343  35.546  1.00  0.00    -0.200 F 
ATOM     96  C   UNL A   1      45.668  26.986  36.613  1.00  0.00     0.200 A 
ATOM     97  F   UNL A   1      44.022  25.658  37.665  1.00  0.00    -0.200 F 
ATOM     98  F   UNL A   1      46.638  26.263  37.189  1.00  0.00    -0.200 F 
ENDBRANCH  65  88
ENDBRANCH  39  40
ENDBRANCH  31  34
ENDBRANCH  29  30
ENDBRANCH  28  29
ENDBRANCH   1  28
TORSDOF 15
ENDMDL
MODEL 3
REMARK VINA RESULT:     -12.5      1.764      7.556
REMARK SMILES C[C@@]([NH3+])(C(=O)Nc1cc(C(=O)NCCCCNC(=O)c2ccc(-c3c4nc(c(-c5c(F)c(F)c(F)c(F)c5F)c5ccc([nH]5)c(-c5c(F)c(F)c(F)c(F)c5F)c5nc(c(-c6c(F)c(F)c(F)c(F)c6F)c6ccc3[nH]6)C=C5)C=C4)cc2)ccc1F)C(F)(F)F
REMARK SMILES IDX 14 1 13 2 12 3 10 4 11 5 9 7 7 8 8 9 85 10 84 11 86 12 83 13
REMARK SMILES IDX 6 14 4 15 5 16 2 18 1 19 3 20 87 24 88 25 89 26 90 27 15 28
REMARK SMILES IDX 16 29 17 30 18 31 19 33 20 34 21 35 82 36 22 37 81 38 23 39
REMARK SMILES IDX 24 40 25 41 75 42 26 43 80 44 74 45 76 46 27 47 79 48 73 49
REMARK SMILES IDX 72 50 28 52 60 53 40 54 59 55 41 56 44 57 58 58 77 59 42 60
REMARK SMILES IDX 43 61 57 63 78 64 45 65 29 66 30 67 38 68 31 69 32 70 36 71
REMARK SMILES IDX 39 72 33 73 34 74 37 75 35 76 61 77 62 78 70 79 63 80 64 81
REMARK SMILES IDX 68 82 71 83 65 84 66 85 69 86 67 87 46 88 47 89 55 90 48 91
REMARK SMILES IDX 49 92 53 93 56 94 50 95 51 96 54 97 52 98
REMARK H PARENT 12 6 6 17 3 21 3 22 3 23 17 32 76 51 44 62
REMARK Flexibility Score: inf
ROOT
ATOM      1  C   UNL A   1      31.936  28.853  24.229  1.00  0.00     0.023 C 
ENDROOT
BRANCH   1   2
ATOM      2  C   UNL A   1      33.388  28.372  24.169  1.00  0.00     0.116 C 
BRANCH   2   3
ATOM      3  N   UNL A   1      33.668  27.702  22.916  1.00  0.00    -0.352 N 
ATOM      4  C   UNL A   1      33.319  26.471  22.424  1.00  0.00     0.251 C 
ATOM      5  O   UNL A   1      33.653  26.220  21.265  1.00  0.00    -0.269 OA
ATOM      6  H   UNL A   1      34.216  28.236  22.296  1.00  0.00     0.163 HD
BRANCH   4   7
ATOM      7  C   UNL A   1      32.552  25.440  23.187  1.00  0.00     0.042 A 
ATOM      8  C   UNL A   1      32.603  23.842  25.035  1.00  0.00     0.078 A 
ATOM      9  C   UNL A   1      33.222  24.834  24.269  1.00  0.00     0.043 A 
ATOM     10  C   UNL A   1      31.267  23.536  24.791  1.00  0.00     0.146 A 
ATOM     11  C   UNL A   1      30.579  24.131  23.744  1.00  0.00     0.042 A 
ATOM     12  F   UNL A   1      30.587  22.736  25.624  1.00  0.00    -0.205 F 
ATOM     13  C   UNL A   1      31.222  25.079  22.945  1.00  0.00     0.017 A 
BRANCH   8  14
ATOM     14  N   UNL A   1      33.309  23.282  26.105  1.00  0.00    -0.318 N 
ATOM     15  C   UNL A   1      33.923  22.057  26.210  1.00  0.00     0.295 C 
ATOM     16  O   UNL A   1      34.154  21.663  27.357  1.00  0.00    -0.267 OA
ATOM     17  H   UNL A   1      33.375  23.851  26.905  1.00  0.00     0.170 HD
BRANCH  15  18
ATOM     18  C   UNL A   1      34.456  21.300  24.957  1.00  0.00     0.267 C 
ATOM     19  C   UNL A   1      34.991  22.199  23.839  1.00  0.00     0.100 C 
BRANCH  18  20
ATOM     20  N   UNL A   1      35.576  20.369  25.379  1.00  0.00    -0.337 N 
ATOM     21  H   UNL A   1      35.755  19.694  24.637  1.00  0.00     0.345 HD
ATOM     22  H   UNL A   1      35.305  19.875  26.230  1.00  0.00     0.345 HD
ATOM     23  H   UNL A   1      36.421  20.913  25.555  1.00  0.00     0.345 HD
ENDBRANCH  18  20
BRANCH  18  24
ATOM     24  C   UNL A   1      33.232  20.532  24.374  1.00  0.00     0.453 C 
ATOM     25  F   UNL A   1      32.733  21.087  23.253  1.00  0.00    -0.164 F 
ATOM     26  F   UNL A   1      33.614  19.264  24.044  1.00  0.00    -0.164 F 
ATOM     27  F   UNL A   1      32.238  20.391  25.280  1.00  0.00    -0.164 F 
ENDBRANCH  18  24
ENDBRANCH  15  18
ENDBRANCH   8  14
ENDBRANCH   4   7
ENDBRANCH   2   3
ENDBRANCH   1   2
BRANCH   1  28
ATOM     28  C   UNL A   1      31.526  29.499  25.553  1.00  0.00     0.023 C 
BRANCH  28  29
ATOM     29  C   UNL A   1      32.665  30.097  26.372  1.00  0.00     0.116 C 
BRANCH  29  30
ATOM     30  N   UNL A   1      32.457  31.490  26.742  1.00  0.00    -0.352 N 
ATOM     31  C   UNL A   1      33.298  32.318  27.451  1.00  0.00     0.251 C 
ATOM     32  H   UNL A   1      31.607  31.890  26.449  1.00  0.00     0.163 HD
ATOM     33  O   UNL A   1      32.959  33.454  27.747  1.00  0.00    -0.269 OA
BRANCH  31  34
ATOM     34  C   UNL A   1      34.601  31.786  27.894  1.00  0.00     0.039 A 
ATOM     35  C   UNL A   1      35.681  32.665  27.999  1.00  0.00     0.014 A 
ATOM     36  C   UNL A   1      34.723  30.452  28.288  1.00  0.00     0.014 A 
ATOM     37  C   UNL A   1      36.863  32.228  28.597  1.00  0.00     0.010 A 
ATOM     38  C   UNL A   1      35.879  30.035  28.936  1.00  0.00     0.010 A 
ATOM     39  C   UNL A   1      36.950  30.926  29.117  1.00  0.00    -0.014 A 
BRANCH  39  40
ATOM     40  C   UNL A   1      38.124  30.488  29.909  1.00  0.00     0.031 A 
ATOM     41  C   UNL A   1      39.107  29.519  29.326  1.00  0.00     0.074 A 
ATOM     42  C   UNL A   1      38.244  30.895  31.187  1.00  0.00     0.049 A 
ATOM     43  N   UNL A   1      40.120  28.925  29.904  1.00  0.00    -0.248 NA
ATOM     44  C   UNL A   1      38.911  29.146  27.917  1.00  0.00     0.031 C 
ATOM     45  C   UNL A   1      37.326  31.805  31.876  1.00  0.00     0.029 A 
ATOM     46  N   UNL A   1      39.179  30.582  32.143  1.00  0.00    -0.354 N 
ATOM     47  C   UNL A   1      40.672  28.099  28.936  1.00  0.00     0.074 A 
ATOM     48  C   UNL A   1      39.860  28.236  27.745  1.00  0.00     0.031 C 
ATOM     49  C   UNL A   1      37.752  31.991  33.135  1.00  0.00     0.029 A 
ATOM     50  C   UNL A   1      38.947  31.183  33.357  1.00  0.00     0.049 A 
ATOM     51  H   UNL A   1      39.942  29.984  31.975  1.00  0.00     0.167 HD
ATOM     52  C   UNL A   1      41.770  27.314  29.030  1.00  0.00     0.037 A 
ATOM     53  C   UNL A   1      39.615  31.081  34.523  1.00  0.00     0.037 A 
ATOM     54  C   UNL A   1      42.592  27.208  30.205  1.00  0.00     0.049 A 
ATOM     55  C   UNL A   1      40.820  30.189  34.604  1.00  0.00     0.074 A 
ATOM     56  C   UNL A   1      43.768  26.498  30.370  1.00  0.00     0.029 A 
ATOM     57  N   UNL A   1      42.326  27.831  31.414  1.00  0.00    -0.354 N 
ATOM     58  N   UNL A   1      41.365  29.452  33.666  1.00  0.00    -0.248 NA
ATOM     59  C   UNL A   1      41.502  30.105  35.905  1.00  0.00     0.031 C 
ATOM     60  C   UNL A   1      44.194  26.660  31.692  1.00  0.00     0.029 A 
ATOM     61  C   UNL A   1      43.303  27.502  32.338  1.00  0.00     0.049 A 
ATOM     62  H   UNL A   1      41.556  28.420  31.589  1.00  0.00     0.167 HD
ATOM     63  C   UNL A   1      42.457  28.831  34.255  1.00  0.00     0.074 A 
ATOM     64  C   UNL A   1      42.507  29.284  35.629  1.00  0.00     0.031 C 
ATOM     65  C   UNL A   1      43.338  27.963  33.703  1.00  0.00     0.037 A 
BRANCH  52  66
ATOM     66  C   UNL A   1      42.161  26.514  27.824  1.00  0.00     0.064 A 
ATOM     67  C   UNL A   1      41.591  25.255  27.590  1.00  0.00     0.173 A 
ATOM     68  C   UNL A   1      43.150  26.965  26.939  1.00  0.00     0.173 A 
ATOM     69  F   UNL A   1      40.644  24.776  28.411  1.00  0.00    -0.203 F 
ATOM     70  C   UNL A   1      42.005  24.471  26.516  1.00  0.00     0.198 A 
ATOM     71  C   UNL A   1      43.545  26.191  25.852  1.00  0.00     0.198 A 
ATOM     72  F   UNL A   1      43.716  28.169  27.116  1.00  0.00    -0.203 F 
ATOM     73  F   UNL A   1      41.465  23.260  26.324  1.00  0.00    -0.200 F 
ATOM     74  C   UNL A   1      42.978  24.941  25.647  1.00  0.00     0.200 A 
ATOM     75  F   UNL A   1      44.469  26.655  25.001  1.00  0.00    -0.200 F 
ATOM     76  F   UNL A   1      43.370  24.190  24.608  1.00  0.00    -0.200 F 
ENDBRANCH  52  66
BRANCH  53  77
ATOM     77  C   UNL A   1      39.161  31.866  35.697  1.00  0.00     0.064 A 
ATOM     78  C   UNL A   1      39.631  33.165  35.937  1.00  0.00     0.173 A 
ATOM     79  C   UNL A   1      38.268  31.311  36.624  1.00  0.00     0.173 A 
ATOM     80  F   UNL A   1      40.490  33.737  35.081  1.00  0.00    -0.203 F 
ATOM     81  C   UNL A   1      39.236  33.874  37.071  1.00  0.00     0.198 A 
ATOM     82  C   UNL A   1      37.858  32.029  37.746  1.00  0.00     0.198 A 
ATOM     83  F   UNL A   1      37.778  30.079  36.426  1.00  0.00    -0.203 F 
ATOM     84  F   UNL A   1      39.723  35.102  37.294  1.00  0.00    -0.200 F 
ATOM     85  C   UNL A   1      38.349  33.306  37.973  1.00  0.00     0.200 A 
ATOM     86  F   UNL A   1      36.986  31.484  38.605  1.00  0.00    -0.200 F 
ATOM     87  F   UNL A   1      37.965  33.991  39.058  1.00  0.00    -0.200 F 
ENDBRANCH  53  77
BRANCH  65  88
ATOM     88  C   UNL A   1      44.441  27.442  34.573  1.00  0.00     0.064 A 
ATOM     89  C   UNL A   1      45.658  28.133  34.666  1.00  0.00     0.173 A 
ATOM     90  C   UNL A   1      44.327  26.211  35.231  1.00  0.00     0.173 A 
ATOM     91  F   UNL A   1      45.815  29.314  34.047  1.00  0.00    -0.203 F 
ATOM     92  C   UNL A   1      46.730  27.598  35.372  1.00  0.00     0.198 A 
ATOM     93  C   UNL A   1      45.395  25.688  35.955  1.00  0.00     0.198 A 
ATOM     94  F   UNL A   1      43.177  25.522  35.180  1.00  0.00    -0.203 F 
ATOM     95  F   UNL A   1      47.897  28.256  35.418  1.00  0.00    -0.200 F 
ATOM     96  C   UNL A   1      46.599  26.376  36.014  1.00  0.00     0.200 A 
ATOM     97  F   UNL A   1      45.262  24.516  36.591  1.00  0.00    -0.200 F 
ATOM     98  F   UNL A   1      47.633  25.859  36.693  1.00  0.00    -0.200 F 
ENDBRANCH  65  88
ENDBRANCH  39  40
ENDBRANCH  31  34
ENDBRANCH  29  30
ENDBRANCH  28  29
ENDBRANCH   1  28
TORSDOF 15
ENDMDL
