MODEL 1
REMARK VINA RESULT:     -13.9      0.000      0.000
REMARK SMILES CC1(C)[C@H](C(=O)NCCCCNC(=O)c2ccc(-c3c4nc(c(-c5c(F)c(F)c(F)c(F)c5F)c5ccc([nH]5)c(-c5c(F)c(F)c(F)c(F)c5F)c5nc(c(-c6c(F)c(F)c(F)c(F)c6F)c6ccc3[nH]6)C=C5)C=C4)cc2)[C@@H]1C(=O)Nc1ccc(NC(=O)C2CCC2)cc1
REMARK SMILES IDX 8 1 7 2 5 3 6 4 4 6 1 7 2 8 3 9 78 10 79 11 80 12 81 13
REMARK SMILES IDX 82 15 83 16 94 17 84 18 93 19 85 20 86 21 87 22 88 24 89 25
REMARK SMILES IDX 90 26 92 27 91 28 9 29 10 30 11 31 12 32 13 33 14 35 15 36
REMARK SMILES IDX 16 37 77 38 17 39 76 40 18 41 19 42 20 43 70 44 21 45 75 46
REMARK SMILES IDX 69 47 71 48 22 49 74 50 68 51 67 52 23 54 55 55 35 56 54 57
REMARK SMILES IDX 36 58 39 59 53 60 72 61 37 62 38 63 52 65 73 66 40 67 24 68
REMARK SMILES IDX 25 69 33 70 26 71 27 72 31 73 34 74 28 75 29 76 32 77 30 78
REMARK SMILES IDX 56 79 57 80 65 81 58 82 59 83 63 84 66 85 60 86 61 87 64 88
REMARK SMILES IDX 62 89 41 90 42 91 50 92 43 93 44 94 48 95 51 96 45 97 46 98
REMARK SMILES IDX 49 99 47 100
REMARK H PARENT 7 5 81 14 86 23 12 34 71 53 39 64
REMARK Flexibility Score: inf
ROOT
ATOM      1  C   UNL A   1      33.333  29.859  25.961  1.00  0.00     0.116 C 
ENDROOT
BRANCH   1   2
ATOM      2  N   UNL A   1      33.080  29.707  24.545  1.00  0.00    -0.356 N 
ATOM      3  C   UNL A   1      33.221  28.704  23.632  1.00  0.00     0.224 C 
ATOM      4  O   UNL A   1      32.892  29.005  22.482  1.00  0.00    -0.275 OA
ATOM      5  H   UNL A   1      32.719  30.529  24.142  1.00  0.00     0.163 HD
BRANCH   3   6
ATOM      6  C   UNL A   1      33.704  27.316  23.837  1.00  0.00     0.098 C 
ATOM      7  C   UNL A   1      34.258  25.642  25.707  1.00  0.00     0.013 C 
ATOM      8  C   UNL A   1      33.197  26.309  24.857  1.00  0.00    -0.011 C 
ATOM      9  C   UNL A   1      31.939  26.577  25.643  1.00  0.00     0.013 C 
ATOM     10  C   UNL A   1      33.211  25.990  23.346  1.00  0.00     0.098 C 
BRANCH  10  11
ATOM     11  C   UNL A   1      32.024  25.734  22.509  1.00  0.00     0.228 C 
ATOM     12  O   UNL A   1      31.683  26.544  21.652  1.00  0.00    -0.274 OA
ATOM     13  N   UNL A   1      31.261  24.604  22.709  1.00  0.00    -0.326 N 
ATOM     14  H   UNL A   1      30.366  24.594  22.299  1.00  0.00     0.169 HD
BRANCH  13  15
ATOM     15  C   UNL A   1      31.632  23.472  23.440  1.00  0.00     0.041 A 
ATOM     16  C   UNL A   1      31.049  23.346  24.693  1.00  0.00     0.028 A 
ATOM     17  C   UNL A   1      32.434  22.447  22.947  1.00  0.00     0.028 A 
ATOM     18  C   UNL A   1      31.103  22.128  25.354  1.00  0.00     0.028 A 
ATOM     19  C   UNL A   1      32.637  21.296  23.725  1.00  0.00     0.028 A 
ATOM     20  C   UNL A   1      31.969  21.132  24.948  1.00  0.00     0.041 A 
BRANCH  20  21
ATOM     21  N   UNL A   1      32.200  19.973  25.694  1.00  0.00    -0.326 N 
ATOM     22  C   UNL A   1      32.854  18.784  25.439  1.00  0.00     0.227 C 
ATOM     23  H   UNL A   1      31.813  20.013  26.599  1.00  0.00     0.169 HD
ATOM     24  O   UNL A   1      32.873  17.994  26.401  1.00  0.00    -0.274 OA
BRANCH  22  25
ATOM     25  C   UNL A   1      33.524  18.390  24.095  1.00  0.00     0.079 C 
ATOM     26  C   UNL A   1      34.352  17.056  24.176  1.00  0.00     0.013 C 
ATOM     27  C   UNL A   1      32.811  17.692  22.891  1.00  0.00     0.013 C 
ATOM     28  C   UNL A   1      34.084  16.864  22.682  1.00  0.00     0.002 C 
ENDBRANCH  22  25
ENDBRANCH  20  21
ENDBRANCH  13  15
ENDBRANCH  10  11
ENDBRANCH   3   6
ENDBRANCH   1   2
BRANCH   1  29
ATOM     29  C   UNL A   1      32.047  30.159  26.725  1.00  0.00     0.023 C 
BRANCH  29  30
ATOM     30  C   UNL A   1      31.731  31.653  26.868  1.00  0.00     0.023 C 
BRANCH  30  31
ATOM     31  C   UNL A   1      32.869  32.517  27.407  1.00  0.00     0.116 C 
BRANCH  31  32
ATOM     32  N   UNL A   1      32.479  33.904  27.619  1.00  0.00    -0.352 N 
ATOM     33  C   UNL A   1      32.983  34.824  28.507  1.00  0.00     0.251 C 
ATOM     34  H   UNL A   1      31.748  34.229  27.045  1.00  0.00     0.163 HD
ATOM     35  O   UNL A   1      32.437  35.912  28.659  1.00  0.00    -0.269 OA
BRANCH  33  36
ATOM     36  C   UNL A   1      34.175  34.480  29.302  1.00  0.00     0.039 A 
ATOM     37  C   UNL A   1      34.006  33.964  30.589  1.00  0.00     0.014 A 
ATOM     38  C   UNL A   1      35.452  34.618  28.752  1.00  0.00     0.014 A 
ATOM     39  C   UNL A   1      35.115  33.489  31.290  1.00  0.00     0.010 A 
ATOM     40  C   UNL A   1      36.548  34.090  29.426  1.00  0.00     0.010 A 
ATOM     41  C   UNL A   1      36.384  33.499  30.689  1.00  0.00    -0.014 A 
BRANCH  41  42
ATOM     42  C   UNL A   1      37.549  32.843  31.332  1.00  0.00     0.031 A 
ATOM     43  C   UNL A   1      38.210  31.666  30.679  1.00  0.00     0.074 A 
ATOM     44  C   UNL A   1      37.939  33.248  32.556  1.00  0.00     0.049 A 
ATOM     45  N   UNL A   1      39.149  30.882  31.144  1.00  0.00    -0.248 NA
ATOM     46  C   UNL A   1      37.734  31.307  29.335  1.00  0.00     0.031 C 
ATOM     47  C   UNL A   1      37.346  34.356  33.309  1.00  0.00     0.029 A 
ATOM     48  N   UNL A   1      38.911  32.761  33.393  1.00  0.00    -0.354 N 
ATOM     49  C   UNL A   1      39.366  29.930  30.159  1.00  0.00     0.074 A 
ATOM     50  C   UNL A   1      38.432  30.207  29.088  1.00  0.00     0.031 C 
ATOM     51  C   UNL A   1      37.974  34.471  34.489  1.00  0.00     0.029 A 
ATOM     52  C   UNL A   1      38.979  33.419  34.598  1.00  0.00     0.049 A 
ATOM     53  H   UNL A   1      39.503  32.012  33.155  1.00  0.00     0.167 HD
ATOM     54  C   UNL A   1      40.277  28.928  30.142  1.00  0.00     0.037 A 
ATOM     55  C   UNL A   1      39.752  33.187  35.675  1.00  0.00     0.037 A 
ATOM     56  C   UNL A   1      41.218  28.671  31.201  1.00  0.00     0.049 A 
ATOM     57  C   UNL A   1      40.730  32.045  35.646  1.00  0.00     0.074 A 
ATOM     58  C   UNL A   1      42.232  27.731  31.245  1.00  0.00     0.029 A 
ATOM     59  N   UNL A   1      41.254  29.356  32.407  1.00  0.00    -0.354 N 
ATOM     60  N   UNL A   1      40.975  31.193  34.681  1.00  0.00    -0.248 NA
ATOM     61  C   UNL A   1      41.533  31.828  36.857  1.00  0.00     0.031 C 
ATOM     62  C   UNL A   1      42.853  27.815  32.495  1.00  0.00     0.029 A 
ATOM     63  C   UNL A   1      42.252  28.836  33.215  1.00  0.00     0.049 A 
ATOM     64  H   UNL A   1      40.659  30.101  32.652  1.00  0.00     0.167 HD
ATOM     65  C   UNL A   1      41.968  30.350  35.159  1.00  0.00     0.074 A 
ATOM     66  C   UNL A   1      42.293  30.803  36.497  1.00  0.00     0.031 C 
ATOM     67  C   UNL A   1      42.558  29.295  34.546  1.00  0.00     0.037 A 
BRANCH  54  68
ATOM     68  C   UNL A   1      40.301  28.033  28.940  1.00  0.00     0.064 A 
ATOM     69  C   UNL A   1      41.048  28.358  27.797  1.00  0.00     0.173 A 
ATOM     70  C   UNL A   1      39.595  26.820  28.940  1.00  0.00     0.173 A 
ATOM     71  F   UNL A   1      41.730  29.511  27.743  1.00  0.00    -0.203 F 
ATOM     72  C   UNL A   1      41.066  27.515  26.689  1.00  0.00     0.198 A 
ATOM     73  C   UNL A   1      39.638  25.966  27.841  1.00  0.00     0.198 A 
ATOM     74  F   UNL A   1      38.868  26.461  30.009  1.00  0.00    -0.203 F 
ATOM     75  F   UNL A   1      41.750  27.868  25.592  1.00  0.00    -0.200 F 
ATOM     76  C   UNL A   1      40.367  26.318  26.715  1.00  0.00     0.200 A 
ATOM     77  F   UNL A   1      38.969  24.805  27.870  1.00  0.00    -0.200 F 
ATOM     78  F   UNL A   1      40.388  25.505  25.649  1.00  0.00    -0.200 F 
ENDBRANCH  54  68
BRANCH  55  79
ATOM     79  C   UNL A   1      39.635  34.059  36.871  1.00  0.00     0.064 A 
ATOM     80  C   UNL A   1      38.828  33.686  37.954  1.00  0.00     0.173 A 
ATOM     81  C   UNL A   1      40.329  35.275  36.962  1.00  0.00     0.173 A 
ATOM     82  F   UNL A   1      38.129  32.543  37.904  1.00  0.00    -0.203 F 
ATOM     83  C   UNL A   1      38.709  34.501  39.078  1.00  0.00     0.198 A 
ATOM     84  C   UNL A   1      40.230  36.077  38.097  1.00  0.00     0.198 A 
ATOM     85  F   UNL A   1      41.118  35.675  35.953  1.00  0.00    -0.203 F 
ATOM     86  F   UNL A   1      37.904  34.136  40.084  1.00  0.00    -0.200 F 
ATOM     87  C   UNL A   1      39.416  35.692  39.152  1.00  0.00     0.200 A 
ATOM     88  F   UNL A   1      40.924  37.221  38.170  1.00  0.00    -0.200 F 
ATOM     89  F   UNL A   1      39.308  36.471  40.237  1.00  0.00    -0.200 F 
ENDBRANCH  55  79
BRANCH  67  90
ATOM     90  C   UNL A   1      43.620  28.562  35.309  1.00  0.00     0.064 A 
ATOM     91  C   UNL A   1      43.303  27.483  36.147  1.00  0.00     0.173 A 
ATOM     92  C   UNL A   1      44.972  28.906  35.161  1.00  0.00     0.173 A 
ATOM     93  F   UNL A   1      42.023  27.128  36.336  1.00  0.00    -0.203 F 
ATOM     94  C   UNL A   1      44.302  26.783  36.819  1.00  0.00     0.198 A 
ATOM     95  C   UNL A   1      45.969  28.188  35.813  1.00  0.00     0.198 A 
ATOM     96  F   UNL A   1      45.325  29.929  34.367  1.00  0.00    -0.203 F 
ATOM     97  F   UNL A   1      43.975  25.776  37.641  1.00  0.00    -0.200 F 
ATOM     98  C   UNL A   1      45.633  27.129  36.644  1.00  0.00     0.200 A 
ATOM     99  F   UNL A   1      47.256  28.518  35.635  1.00  0.00    -0.200 F 
ATOM    100  F   UNL A   1      46.593  26.446  37.282  1.00  0.00    -0.200 F 
ENDBRANCH  67  90
ENDBRANCH  41  42
ENDBRANCH  33  36
ENDBRANCH  31  32
ENDBRANCH  30  31
ENDBRANCH  29  30
ENDBRANCH   1  29
TORSDOF 15
ENDMDL
MODEL 2
REMARK VINA RESULT:     -13.6      0.725      7.240
REMARK SMILES CC1(C)[C@H](C(=O)NCCCCNC(=O)c2ccc(-c3c4nc(c(-c5c(F)c(F)c(F)c(F)c5F)c5ccc([nH]5)c(-c5c(F)c(F)c(F)c(F)c5F)c5nc(c(-c6c(F)c(F)c(F)c(F)c6F)c6ccc3[nH]6)C=C5)C=C4)cc2)[C@@H]1C(=O)Nc1ccc(NC(=O)C2CCC2)cc1
REMARK SMILES IDX 8 1 7 2 5 3 6 4 4 6 1 7 2 8 3 9 78 10 79 11 80 12 81 13
REMARK SMILES IDX 82 15 83 16 94 17 84 18 93 19 85 20 86 21 87 22 88 24 89 25
REMARK SMILES IDX 90 26 92 27 91 28 9 29 10 30 11 31 12 32 13 33 14 35 15 36
REMARK SMILES IDX 16 37 77 38 17 39 76 40 18 41 19 42 20 43 70 44 21 45 75 46
REMARK SMILES IDX 69 47 71 48 22 49 74 50 68 51 67 52 23 54 55 55 35 56 54 57
REMARK SMILES IDX 36 58 39 59 53 60 72 61 37 62 38 63 52 65 73 66 40 67 24 68
REMARK SMILES IDX 25 69 33 70 26 71 27 72 31 73 34 74 28 75 29 76 32 77 30 78
REMARK SMILES IDX 56 79 57 80 65 81 58 82 59 83 63 84 66 85 60 86 61 87 64 88
REMARK SMILES IDX 62 89 41 90 42 91 50 92 43 93 44 94 48 95 51 96 45 97 46 98
REMARK SMILES IDX 49 99 47 100
REMARK H PARENT 7 5 81 14 86 23 12 34 71 53 39 64
REMARK Flexibility Score: inf
ROOT
ATOM      1  C   UNL A   1      30.963  30.153  25.097  1.00  0.00     0.116 C 
ENDROOT
BRANCH   1   2
ATOM      2  N   UNL A   1      31.765  29.862  23.929  1.00  0.00    -0.356 N 
ATOM      3  C   UNL A   1      32.613  28.863  23.554  1.00  0.00     0.224 C 
ATOM      4  O   UNL A   1      33.123  29.011  22.440  1.00  0.00    -0.275 OA
ATOM      5  H   UNL A   1      31.678  30.557  23.236  1.00  0.00     0.163 HD
BRANCH   3   6
ATOM      6  C   UNL A   1      32.993  27.633  24.294  1.00  0.00     0.098 C 
ATOM      7  C   UNL A   1      32.114  26.028  26.097  1.00  0.00     0.013 C 
ATOM      8  C   UNL A   1      32.094  26.460  24.646  1.00  0.00    -0.011 C 
ATOM      9  C   UNL A   1      30.715  26.339  24.047  1.00  0.00     0.013 C 
ATOM     10  C   UNL A   1      33.397  26.265  23.842  1.00  0.00     0.098 C 
BRANCH  10  11
ATOM     11  C   UNL A   1      33.487  25.773  22.453  1.00  0.00     0.228 C 
ATOM     12  O   UNL A   1      33.793  26.539  21.543  1.00  0.00    -0.274 OA
ATOM     13  N   UNL A   1      33.185  24.461  22.157  1.00  0.00    -0.326 N 
ATOM     14  H   UNL A   1      33.030  24.245  21.210  1.00  0.00     0.169 HD
BRANCH  13  15
ATOM     15  C   UNL A   1      33.074  23.410  23.071  1.00  0.00     0.041 A 
ATOM     16  C   UNL A   1      31.787  22.944  23.300  1.00  0.00     0.028 A 
ATOM     17  C   UNL A   1      34.156  22.756  23.651  1.00  0.00     0.028 A 
ATOM     18  C   UNL A   1      31.603  21.725  23.933  1.00  0.00     0.028 A 
ATOM     19  C   UNL A   1      33.929  21.629  24.457  1.00  0.00     0.028 A 
ATOM     20  C   UNL A   1      32.636  21.106  24.607  1.00  0.00     0.041 A 
BRANCH  20  21
ATOM     21  N   UNL A   1      32.452  19.984  25.420  1.00  0.00    -0.326 N 
ATOM     22  C   UNL A   1      32.897  18.678  25.367  1.00  0.00     0.227 C 
ATOM     23  H   UNL A   1      31.880  20.163  26.201  1.00  0.00     0.169 HD
ATOM     24  O   UNL A   1      32.534  17.973  26.328  1.00  0.00    -0.274 OA
BRANCH  22  25
ATOM     25  C   UNL A   1      33.771  18.065  24.239  1.00  0.00     0.079 C 
ATOM     26  C   UNL A   1      34.169  16.566  24.500  1.00  0.00     0.013 C 
ATOM     27  C   UNL A   1      33.245  17.525  22.869  1.00  0.00     0.013 C 
ATOM     28  C   UNL A   1      34.264  16.386  22.983  1.00  0.00     0.002 C 
ENDBRANCH  22  25
ENDBRANCH  20  21
ENDBRANCH  13  15
ENDBRANCH  10  11
ENDBRANCH   3   6
ENDBRANCH   1   2
BRANCH   1  29
ATOM     29  C   UNL A   1      31.828  30.628  26.260  1.00  0.00     0.023 C 
BRANCH  29  30
ATOM     30  C   UNL A   1      31.552  32.069  26.705  1.00  0.00     0.023 C 
BRANCH  30  31
ATOM     31  C   UNL A   1      32.718  32.779  27.392  1.00  0.00     0.116 C 
BRANCH  31  32
ATOM     32  N   UNL A   1      32.442  34.180  27.678  1.00  0.00    -0.352 N 
ATOM     33  C   UNL A   1      33.000  35.002  28.628  1.00  0.00     0.251 C 
ATOM     34  H   UNL A   1      31.756  34.599  27.109  1.00  0.00     0.163 HD
ATOM     35  O   UNL A   1      32.545  36.123  28.833  1.00  0.00    -0.269 OA
BRANCH  33  36
ATOM     36  C   UNL A   1      34.138  34.511  29.425  1.00  0.00     0.039 A 
ATOM     37  C   UNL A   1      33.894  33.955  30.683  1.00  0.00     0.014 A 
ATOM     38  C   UNL A   1      35.434  34.554  28.904  1.00  0.00     0.014 A 
ATOM     39  C   UNL A   1      34.939  33.347  31.379  1.00  0.00     0.010 A 
ATOM     40  C   UNL A   1      36.461  33.895  29.570  1.00  0.00     0.010 A 
ATOM     41  C   UNL A   1      36.217  33.265  30.800  1.00  0.00    -0.014 A 
BRANCH  41  42
ATOM     42  C   UNL A   1      37.302  32.474  31.431  1.00  0.00     0.031 A 
ATOM     43  C   UNL A   1      37.829  32.856  32.782  1.00  0.00     0.074 A 
ATOM     44  C   UNL A   1      37.880  31.477  30.733  1.00  0.00     0.049 A 
ATOM     45  N   UNL A   1      38.855  32.373  33.435  1.00  0.00    -0.248 NA
ATOM     46  C   UNL A   1      37.125  33.942  33.479  1.00  0.00     0.031 C 
ATOM     47  C   UNL A   1      37.480  31.040  29.394  1.00  0.00     0.029 A 
ATOM     48  N   UNL A   1      38.941  30.664  31.044  1.00  0.00    -0.354 N 
ATOM     49  C   UNL A   1      38.928  33.104  34.612  1.00  0.00     0.074 A 
ATOM     50  C   UNL A   1      37.871  34.091  34.565  1.00  0.00     0.031 C 
ATOM     51  C   UNL A   1      38.278  30.034  29.003  1.00  0.00     0.029 A 
ATOM     52  C   UNL A   1      39.272  29.784  30.042  1.00  0.00     0.049 A 
ATOM     53  H   UNL A   1      39.421  30.707  31.903  1.00  0.00     0.167 HD
ATOM     54  C   UNL A   1      39.789  32.951  35.647  1.00  0.00     0.037 A 
ATOM     55  C   UNL A   1      40.276  28.892  29.962  1.00  0.00     0.037 A 
ATOM     56  C   UNL A   1      40.825  31.952  35.697  1.00  0.00     0.049 A 
ATOM     57  C   UNL A   1      41.241  28.766  31.108  1.00  0.00     0.074 A 
ATOM     58  C   UNL A   1      41.696  31.664  36.732  1.00  0.00     0.029 A 
ATOM     59  N   UNL A   1      41.132  31.082  34.661  1.00  0.00    -0.354 N 
ATOM     60  N   UNL A   1      41.259  29.415  32.246  1.00  0.00    -0.248 NA
ATOM     61  C   UNL A   1      42.328  27.789  30.957  1.00  0.00     0.031 C 
ATOM     62  C   UNL A   1      42.561  30.651  36.308  1.00  0.00     0.029 A 
ATOM     63  C   UNL A   1      42.202  30.279  35.022  1.00  0.00     0.049 A 
ATOM     64  H   UNL A   1      40.660  31.040  33.799  1.00  0.00     0.167 HD
ATOM     65  C   UNL A   1      42.345  28.918  32.952  1.00  0.00     0.074 A 
ATOM     66  C   UNL A   1      42.953  27.899  32.121  1.00  0.00     0.031 C 
ATOM     67  C   UNL A   1      42.799  29.274  34.180  1.00  0.00     0.037 A 
BRANCH  54  68
ATOM     68  C   UNL A   1      39.647  33.885  36.810  1.00  0.00     0.064 A 
ATOM     69  C   UNL A   1      38.855  33.558  37.922  1.00  0.00     0.173 A 
ATOM     70  C   UNL A   1      40.335  35.107  36.832  1.00  0.00     0.173 A 
ATOM     71  F   UNL A   1      38.167  32.407  37.945  1.00  0.00    -0.203 F 
ATOM     72  C   UNL A   1      38.736  34.432  38.999  1.00  0.00     0.198 A 
ATOM     73  C   UNL A   1      40.237  35.967  37.923  1.00  0.00     0.198 A 
ATOM     74  F   UNL A   1      41.110  35.465  35.796  1.00  0.00    -0.203 F 
ATOM     75  F   UNL A   1      37.937  34.119  40.028  1.00  0.00    -0.200 F 
ATOM     76  C   UNL A   1      39.432  35.632  39.001  1.00  0.00     0.200 A 
ATOM     77  F   UNL A   1      40.917  37.121  37.928  1.00  0.00    -0.200 F 
ATOM     78  F   UNL A   1      39.319  36.470  40.041  1.00  0.00    -0.200 F 
ENDBRANCH  54  68
BRANCH  55  79
ATOM     79  C   UNL A   1      40.417  28.042  28.752  1.00  0.00     0.064 A 
ATOM     80  C   UNL A   1      39.790  26.791  28.678  1.00  0.00     0.173 A 
ATOM     81  C   UNL A   1      41.169  28.464  27.645  1.00  0.00     0.173 A 
ATOM     82  F   UNL A   1      39.078  26.338  29.719  1.00  0.00    -0.203 F 
ATOM     83  C   UNL A   1      39.920  25.987  27.548  1.00  0.00     0.198 A 
ATOM     84  C   UNL A   1      41.278  27.669  26.505  1.00  0.00     0.198 A 
ATOM     85  F   UNL A   1      41.785  29.654  27.665  1.00  0.00    -0.203 F 
ATOM     86  F   UNL A   1      39.339  24.781  27.517  1.00  0.00    -0.200 F 
ATOM     87  C   UNL A   1      40.657  26.430  26.460  1.00  0.00     0.200 A 
ATOM     88  F   UNL A   1      41.980  28.106  25.451  1.00  0.00    -0.200 F 
ATOM     89  F   UNL A   1      40.775  25.659  25.370  1.00  0.00    -0.200 F 
ENDBRANCH  55  79
BRANCH  67  90
ATOM     90  C   UNL A   1      44.004  28.552  34.702  1.00  0.00     0.064 A 
ATOM     91  C   UNL A   1      45.295  29.080  34.548  1.00  0.00     0.173 A 
ATOM     92  C   UNL A   1      43.865  27.350  35.411  1.00  0.00     0.173 A 
ATOM     93  F   UNL A   1      45.480  30.218  33.862  1.00  0.00    -0.203 F 
ATOM     94  C   UNL A   1      46.403  28.422  35.074  1.00  0.00     0.198 A 
ATOM     95  C   UNL A   1      44.972  26.709  35.957  1.00  0.00     0.198 A 
ATOM     96  F   UNL A   1      42.650  26.807  35.588  1.00  0.00    -0.203 F 
ATOM     97  F   UNL A   1      47.631  28.926  34.886  1.00  0.00    -0.200 F 
ATOM     98  C   UNL A   1      46.240  27.243  35.786  1.00  0.00     0.200 A 
ATOM     99  F   UNL A   1      44.812  25.575  36.653  1.00  0.00    -0.200 F 
ATOM    100  F   UNL A   1      47.307  26.618  36.302  1.00  0.00    -0.200 F 
ENDBRANCH  67  90
ENDBRANCH  41  42
ENDBRANCH  33  36
ENDBRANCH  31  32
ENDBRANCH  30  31
ENDBRANCH  29  30
ENDBRANCH   1  29
TORSDOF 15
ENDMDL
MODEL 3
REMARK VINA RESULT:     -13.5      5.644     11.522
REMARK SMILES CC1(C)[C@H](C(=O)NCCCCNC(=O)c2ccc(-c3c4nc(c(-c5c(F)c(F)c(F)c(F)c5F)c5ccc([nH]5)c(-c5c(F)c(F)c(F)c(F)c5F)c5nc(c(-c6c(F)c(F)c(F)c(F)c6F)c6ccc3[nH]6)C=C5)C=C4)cc2)[C@@H]1C(=O)Nc1ccc(NC(=O)C2CCC2)cc1
REMARK SMILES IDX 8 1 7 2 5 3 6 4 4 6 1 7 2 8 3 9 78 10 79 11 80 12 81 13
REMARK SMILES IDX 82 15 83 16 94 17 84 18 93 19 85 20 86 21 87 22 88 24 89 25
REMARK SMILES IDX 90 26 92 27 91 28 9 29 10 30 11 31 12 32 13 33 14 35 15 36
REMARK SMILES IDX 16 37 77 38 17 39 76 40 18 41 19 42 20 43 70 44 21 45 75 46
REMARK SMILES IDX 69 47 71 48 22 49 74 50 68 51 67 52 23 54 55 55 35 56 54 57
REMARK SMILES IDX 36 58 39 59 53 60 72 61 37 62 38 63 52 65 73 66 40 67 24 68
REMARK SMILES IDX 25 69 33 70 26 71 27 72 31 73 34 74 28 75 29 76 32 77 30 78
REMARK SMILES IDX 56 79 57 80 65 81 58 82 59 83 63 84 66 85 60 86 61 87 64 88
REMARK SMILES IDX 62 89 41 90 42 91 50 92 43 93 44 94 48 95 51 96 45 97 46 98
REMARK SMILES IDX 49 99 47 100
REMARK H PARENT 7 5 81 14 86 23 12 34 71 53 39 64
REMARK Flexibility Score: inf
ROOT
ATOM      1  C   UNL A   1      36.255  21.828  25.777  1.00  0.00     0.116 C 
ENDROOT
BRANCH   1   2
ATOM      2  N   UNL A   1      35.041  21.042  25.755  1.00  0.00    -0.356 N 
ATOM      3  C   UNL A   1      33.792  21.191  25.230  1.00  0.00     0.224 C 
ATOM      4  O   UNL A   1      33.020  20.258  25.464  1.00  0.00    -0.275 OA
ATOM      5  H   UNL A   1      35.142  20.191  26.240  1.00  0.00     0.163 HD
BRANCH   3   6
ATOM      6  C   UNL A   1      33.248  22.309  24.418  1.00  0.00     0.098 C 
ATOM      7  C   UNL A   1      31.104  23.050  23.212  1.00  0.00     0.013 C 
ATOM      8  C   UNL A   1      31.861  22.924  24.517  1.00  0.00    -0.011 C 
ATOM      9  C   UNL A   1      30.945  22.577  25.663  1.00  0.00     0.013 C 
ATOM     10  C   UNL A   1      33.137  23.781  24.670  1.00  0.00     0.098 C 
BRANCH  10  11
ATOM     11  C   UNL A   1      33.543  24.512  25.885  1.00  0.00     0.228 C 
ATOM     12  O   UNL A   1      34.287  23.985  26.706  1.00  0.00    -0.274 OA
ATOM     13  N   UNL A   1      33.055  25.778  26.131  1.00  0.00    -0.326 N 
ATOM     14  H   UNL A   1      33.161  26.123  27.047  1.00  0.00     0.169 HD
BRANCH  13  15
ATOM     15  C   UNL A   1      32.424  26.617  25.210  1.00  0.00     0.041 A 
ATOM     16  C   UNL A   1      33.262  27.443  24.475  1.00  0.00     0.028 A 
ATOM     17  C   UNL A   1      31.063  26.585  24.922  1.00  0.00     0.028 A 
ATOM     18  C   UNL A   1      32.778  28.072  23.338  1.00  0.00     0.028 A 
ATOM     19  C   UNL A   1      30.559  27.387  23.885  1.00  0.00     0.028 A 
ATOM     20  C   UNL A   1      31.424  28.146  23.083  1.00  0.00     0.041 A 
BRANCH  20  21
ATOM     21  N   UNL A   1      30.882  28.933  22.063  1.00  0.00    -0.326 N 
ATOM     22  C   UNL A   1      29.879  29.881  22.014  1.00  0.00     0.227 C 
ATOM     23  H   UNL A   1      31.308  28.778  21.189  1.00  0.00     0.169 HD
ATOM     24  O   UNL A   1      29.717  30.397  20.892  1.00  0.00    -0.274 OA
BRANCH  22  25
ATOM     25  C   UNL A   1      28.984  30.313  23.207  1.00  0.00     0.079 C 
ATOM     26  C   UNL A   1      28.568  31.829  23.159  1.00  0.00     0.013 C 
ATOM     27  C   UNL A   1      27.447  30.056  23.334  1.00  0.00     0.013 C 
ATOM     28  C   UNL A   1      27.315  31.453  23.952  1.00  0.00     0.002 C 
ENDBRANCH  22  25
ENDBRANCH  20  21
ENDBRANCH  13  15
ENDBRANCH  10  11
ENDBRANCH   3   6
ENDBRANCH   1   2
BRANCH   1  29
ATOM     29  C   UNL A   1      37.210  21.405  24.666  1.00  0.00     0.023 C 
BRANCH  29  30
ATOM     30  C   UNL A   1      38.058  20.170  24.997  1.00  0.00     0.023 C 
BRANCH  30  31
ATOM     31  C   UNL A   1      39.347  20.446  25.768  1.00  0.00     0.116 C 
BRANCH  31  32
ATOM     32  N   UNL A   1      40.211  19.278  25.867  1.00  0.00    -0.352 N 
ATOM     33  C   UNL A   1      41.562  19.212  26.115  1.00  0.00     0.251 C 
ATOM     34  H   UNL A   1      39.764  18.411  25.737  1.00  0.00     0.163 HD
ATOM     35  O   UNL A   1      42.166  18.148  26.017  1.00  0.00    -0.269 OA
BRANCH  33  36
ATOM     36  C   UNL A   1      42.290  20.444  26.470  1.00  0.00     0.039 A 
ATOM     37  C   UNL A   1      42.912  21.178  25.458  1.00  0.00     0.014 A 
ATOM     38  C   UNL A   1      42.308  20.894  27.792  1.00  0.00     0.014 A 
ATOM     39  C   UNL A   1      43.469  22.423  25.756  1.00  0.00     0.010 A 
ATOM     40  C   UNL A   1      42.809  22.159  28.077  1.00  0.00     0.010 A 
ATOM     41  C   UNL A   1      43.370  22.944  27.057  1.00  0.00    -0.014 A 
BRANCH  41  42
ATOM     42  C   UNL A   1      43.791  24.332  27.368  1.00  0.00     0.031 A 
ATOM     43  C   UNL A   1      42.786  25.341  27.837  1.00  0.00     0.074 A 
ATOM     44  C   UNL A   1      45.063  24.704  27.121  1.00  0.00     0.049 A 
ATOM     45  N   UNL A   1      42.933  26.626  28.031  1.00  0.00    -0.248 NA
ATOM     46  C   UNL A   1      41.428  24.841  28.099  1.00  0.00     0.031 C 
ATOM     47  C   UNL A   1      46.121  23.822  26.625  1.00  0.00     0.029 A 
ATOM     48  N   UNL A   1      45.676  25.927  27.234  1.00  0.00    -0.354 N 
ATOM     49  C   UNL A   1      41.687  27.092  28.423  1.00  0.00     0.074 A 
ATOM     50  C   UNL A   1      40.784  25.961  28.398  1.00  0.00     0.031 C 
ATOM     51  C   UNL A   1      47.253  24.529  26.487  1.00  0.00     0.029 A 
ATOM     52  C   UNL A   1      46.992  25.920  26.840  1.00  0.00     0.049 A 
ATOM     53  H   UNL A   1      45.217  26.732  27.566  1.00  0.00     0.167 HD
ATOM     54  C   UNL A   1      41.334  28.348  28.789  1.00  0.00     0.037 A 
ATOM     55  C   UNL A   1      47.881  26.928  26.753  1.00  0.00     0.037 A 
ATOM     56  C   UNL A   1      42.242  29.464  28.833  1.00  0.00     0.049 A 
ATOM     57  C   UNL A   1      47.455  28.319  27.130  1.00  0.00     0.074 A 
ATOM     58  C   UNL A   1      42.001  30.756  29.265  1.00  0.00     0.029 A 
ATOM     59  N   UNL A   1      43.566  29.419  28.422  1.00  0.00    -0.354 N 
ATOM     60  N   UNL A   1      46.291  28.736  27.566  1.00  0.00    -0.248 NA
ATOM     61  C   UNL A   1      48.461  29.381  26.997  1.00  0.00     0.031 C 
ATOM     62  C   UNL A   1      43.165  31.506  29.073  1.00  0.00     0.029 A 
ATOM     63  C   UNL A   1      44.145  30.671  28.559  1.00  0.00     0.049 A 
ATOM     64  H   UNL A   1      44.026  28.618  28.083  1.00  0.00     0.167 HD
ATOM     65  C   UNL A   1      46.428  30.101  27.774  1.00  0.00     0.074 A 
ATOM     66  C   UNL A   1      47.794  30.441  27.432  1.00  0.00     0.031 C 
ATOM     67  C   UNL A   1      45.504  30.993  28.208  1.00  0.00     0.037 A 
BRANCH  54  68
ATOM     68  C   UNL A   1      39.904  28.581  29.173  1.00  0.00     0.064 A 
ATOM     69  C   UNL A   1      39.447  28.351  30.480  1.00  0.00     0.173 A 
ATOM     70  C   UNL A   1      38.984  29.071  28.233  1.00  0.00     0.173 A 
ATOM     71  F   UNL A   1      40.284  27.872  31.412  1.00  0.00    -0.203 F 
ATOM     72  C   UNL A   1      38.118  28.578  30.825  1.00  0.00     0.198 A 
ATOM     73  C   UNL A   1      37.661  29.323  28.589  1.00  0.00     0.198 A 
ATOM     74  F   UNL A   1      39.370  29.311  26.971  1.00  0.00    -0.203 F 
ATOM     75  F   UNL A   1      37.695  28.308  32.068  1.00  0.00    -0.200 F 
ATOM     76  C   UNL A   1      37.228  29.070  29.881  1.00  0.00     0.200 A 
ATOM     77  F   UNL A   1      36.805  29.807  27.679  1.00  0.00    -0.200 F 
ATOM     78  F   UNL A   1      35.949  29.291  30.216  1.00  0.00    -0.200 F 
ENDBRANCH  54  68
BRANCH  55  79
ATOM     79  C   UNL A   1      49.266  26.654  26.294  1.00  0.00     0.064 A 
ATOM     80  C   UNL A   1      50.243  26.203  27.191  1.00  0.00     0.173 A 
ATOM     81  C   UNL A   1      49.641  26.828  24.953  1.00  0.00     0.173 A 
ATOM     82  F   UNL A   1      49.937  26.042  28.487  1.00  0.00    -0.203 F 
ATOM     83  C   UNL A   1      51.546  25.947  26.769  1.00  0.00     0.198 A 
ATOM     84  C   UNL A   1      50.938  26.548  24.527  1.00  0.00     0.198 A 
ATOM     85  F   UNL A   1      48.741  27.253  24.054  1.00  0.00    -0.203 F 
ATOM     86  F   UNL A   1      52.469  25.550  27.655  1.00  0.00    -0.200 F 
ATOM     87  C   UNL A   1      51.890  26.113  25.436  1.00  0.00     0.200 A 
ATOM     88  F   UNL A   1      51.263  26.696  23.235  1.00  0.00    -0.200 F 
ATOM     89  F   UNL A   1      53.142  25.859  25.029  1.00  0.00    -0.200 F 
ENDBRANCH  55  79
BRANCH  67  90
ATOM     90  C   UNL A   1      45.941  32.420  28.348  1.00  0.00     0.064 A 
ATOM     91  C   UNL A   1      45.772  33.341  27.303  1.00  0.00     0.173 A 
ATOM     92  C   UNL A   1      46.482  32.887  29.555  1.00  0.00     0.173 A 
ATOM     93  F   UNL A   1      45.275  32.938  26.123  1.00  0.00    -0.203 F 
ATOM     94  C   UNL A   1      46.142  34.674  27.458  1.00  0.00     0.198 A 
ATOM     95  C   UNL A   1      46.827  34.225  29.715  1.00  0.00     0.198 A 
ATOM     96  F   UNL A   1      46.660  32.045  30.585  1.00  0.00    -0.203 F 
ATOM     97  F   UNL A   1      46.004  35.529  26.435  1.00  0.00    -0.200 F 
ATOM     98  C   UNL A   1      46.660  35.117  28.666  1.00  0.00     0.200 A 
ATOM     99  F   UNL A   1      47.318  34.653  30.886  1.00  0.00    -0.200 F 
ATOM    100  F   UNL A   1      47.004  36.403  28.817  1.00  0.00    -0.200 F 
ENDBRANCH  67  90
ENDBRANCH  41  42
ENDBRANCH  33  36
ENDBRANCH  31  32
ENDBRANCH  30  31
ENDBRANCH  29  30
ENDBRANCH   1  29
TORSDOF 15
ENDMDL
