MODEL 1
REMARK VINA RESULT:     -11.9      0.000      0.000
REMARK SMILES CC(C)CN(C1CCCC1)S(=O)(=O)c1[nH]ncc1C(=O)NCCCCNC(=O)c1ccc(-c2c3nc(c(-c4c(F)c(F)c(F)c(F)c4F)c4ccc([nH]4)c(-c4c(F)c(F)c(F)c(F)c4F)c4nc(c(-c5c(F)c(F)c(F)c(F)c5F)c5ccc2[nH]5)C=C4)C=C3)cc1
REMARK SMILES IDX 22 1 21 2 19 3 20 4 18 6 14 7 15 8 16 9 17 11 11 12 12 13
REMARK SMILES IDX 13 14 5 15 4 16 2 17 1 18 3 19 6 20 7 21 10 22 8 23 9 24
REMARK SMILES IDX 23 25 24 26 25 27 26 28 27 29 28 31 29 32 30 33 91 34 31 35
REMARK SMILES IDX 90 36 32 37 33 38 34 39 84 40 35 41 89 42 83 43 85 44 36 45
REMARK SMILES IDX 88 46 82 47 81 48 37 50 69 51 49 52 68 53 50 54 53 55 67 56
REMARK SMILES IDX 86 57 51 58 52 59 66 61 87 62 54 63 38 64 39 65 47 66 40 67
REMARK SMILES IDX 41 68 45 69 48 70 42 71 43 72 46 73 44 74 70 75 71 76 79 77
REMARK SMILES IDX 72 78 73 79 77 80 80 81 74 82 75 83 78 84 76 85 55 86 56 87
REMARK SMILES IDX 64 88 57 89 58 90 62 91 65 92 59 93 60 94 63 95 61 96
REMARK H PARENT 21 5 15 10 26 30 85 49 53 60
REMARK Flexibility Score: inf
ROOT
ATOM      1  C   UNL A   1      33.719  27.859  25.896  1.00  0.00     0.116 C 
ENDROOT
BRANCH   1   2
ATOM      2  N   UNL A   1      32.485  27.161  26.139  1.00  0.00    -0.352 N 
ATOM      3  C   UNL A   1      31.419  26.840  25.349  1.00  0.00     0.255 C 
ATOM      4  O   UNL A   1      30.494  26.271  25.936  1.00  0.00    -0.269 OA
ATOM      5  H   UNL A   1      32.391  26.851  27.068  1.00  0.00     0.163 HD
BRANCH   3   6
ATOM      6  C   UNL A   1      31.259  27.196  23.947  1.00  0.00     0.098 A 
ATOM      7  C   UNL A   1      31.826  26.799  22.736  1.00  0.00     0.178 A 
ATOM      8  N   UNL A   1      31.032  27.369  21.767  1.00  0.00    -0.266 N 
ATOM      9  N   UNL A   1      30.102  28.209  22.221  1.00  0.00    -0.182 NA
ATOM     10  H   UNL A   1      31.143  27.172  20.809  1.00  0.00     0.191 HD
ATOM     11  C   UNL A   1      30.198  28.062  23.539  1.00  0.00     0.150 A 
BRANCH   7  12
ATOM     12  S   UNL A   1      33.050  25.720  22.093  1.00  0.00     0.261 S 
ATOM     13  O   UNL A   1      34.240  26.547  22.018  1.00  0.00    -0.205 OA
ATOM     14  O   UNL A   1      32.445  25.183  20.898  1.00  0.00    -0.205 OA
BRANCH  12  15
ATOM     15  N   UNL A   1      33.418  24.423  23.190  1.00  0.00    -0.193 NA
BRANCH  15  16
ATOM     16  C   UNL A   1      33.183  23.086  22.496  1.00  0.00     0.106 C 
BRANCH  16  17
ATOM     17  C   UNL A   1      31.999  22.325  23.126  1.00  0.00    -0.002 C 
ATOM     18  C   UNL A   1      32.400  20.940  23.643  1.00  0.00     0.009 C 
ATOM     19  C   UNL A   1      31.407  23.127  24.288  1.00  0.00     0.009 C 
ENDBRANCH  16  17
ENDBRANCH  15  16
BRANCH  15  20
ATOM     20  C   UNL A   1      34.792  24.487  23.836  1.00  0.00     0.073 C 
ATOM     21  C   UNL A   1      34.754  24.383  25.363  1.00  0.00     0.020 C 
ATOM     22  C   UNL A   1      35.675  23.279  23.486  1.00  0.00     0.020 C 
ATOM     23  C   UNL A   1      36.106  23.832  25.802  1.00  0.00     0.002 C 
ATOM     24  C   UNL A   1      36.767  23.288  24.548  1.00  0.00     0.002 C 
ENDBRANCH  15  20
ENDBRANCH  12  15
ENDBRANCH   7  12
ENDBRANCH   3   6
ENDBRANCH   1   2
BRANCH   1  25
ATOM     25  C   UNL A   1      33.549  29.368  25.753  1.00  0.00     0.023 C 
BRANCH  25  26
ATOM     26  C   UNL A   1      32.930  30.077  26.959  1.00  0.00     0.023 C 
BRANCH  26  27
ATOM     27  C   UNL A   1      33.714  31.273  27.503  1.00  0.00     0.116 C 
BRANCH  27  28
ATOM     28  N   UNL A   1      32.989  32.536  27.481  1.00  0.00    -0.352 N 
ATOM     29  C   UNL A   1      33.269  33.713  28.142  1.00  0.00     0.251 C 
ATOM     30  H   UNL A   1      32.186  32.553  26.912  1.00  0.00     0.163 HD
ATOM     31  O   UNL A   1      32.520  34.677  28.023  1.00  0.00    -0.269 OA
BRANCH  29  32
ATOM     32  C   UNL A   1      34.409  33.775  29.084  1.00  0.00     0.039 A 
ATOM     33  C   UNL A   1      34.205  33.306  30.386  1.00  0.00     0.014 A 
ATOM     34  C   UNL A   1      35.684  34.164  28.671  1.00  0.00     0.014 A 
ATOM     35  C   UNL A   1      35.304  33.059  31.210  1.00  0.00     0.010 A 
ATOM     36  C   UNL A   1      36.784  33.852  29.463  1.00  0.00     0.010 A 
ATOM     37  C   UNL A   1      36.604  33.234  30.709  1.00  0.00    -0.014 A 
BRANCH  37  38
ATOM     38  C   UNL A   1      37.774  32.619  31.381  1.00  0.00     0.031 A 
ATOM     39  C   UNL A   1      38.513  31.474  30.761  1.00  0.00     0.074 A 
ATOM     40  C   UNL A   1      38.072  33.016  32.636  1.00  0.00     0.049 A 
ATOM     41  N   UNL A   1      39.429  30.704  31.288  1.00  0.00    -0.248 NA
ATOM     42  C   UNL A   1      38.149  31.127  29.380  1.00  0.00     0.031 C 
ATOM     43  C   UNL A   1      37.374  34.068  33.382  1.00  0.00     0.029 A 
ATOM     44  N   UNL A   1      39.024  32.567  33.517  1.00  0.00    -0.354 N 
ATOM     45  C   UNL A   1      39.717  29.749  30.325  1.00  0.00     0.074 A 
ATOM     46  C   UNL A   1      38.882  30.039  29.178  1.00  0.00     0.031 C 
ATOM     47  C   UNL A   1      37.938  34.204  34.590  1.00  0.00     0.029 A 
ATOM     48  C   UNL A   1      39.008  33.223  34.724  1.00  0.00     0.049 A 
ATOM     49  H   UNL A   1      39.658  31.846  33.304  1.00  0.00     0.167 HD
ATOM     50  C   UNL A   1      40.593  28.720  30.399  1.00  0.00     0.037 A 
ATOM     51  C   UNL A   1      39.765  33.050  35.822  1.00  0.00     0.037 A 
ATOM     52  C   UNL A   1      41.455  28.459  31.522  1.00  0.00     0.049 A 
ATOM     53  C   UNL A   1      40.813  31.979  35.829  1.00  0.00     0.074 A 
ATOM     54  C   UNL A   1      42.399  27.458  31.675  1.00  0.00     0.029 A 
ATOM     55  N   UNL A   1      41.487  29.219  32.681  1.00  0.00    -0.354 N 
ATOM     56  N   UNL A   1      41.084  31.091  34.906  1.00  0.00    -0.248 NA
ATOM     57  C   UNL A   1      41.657  31.883  37.027  1.00  0.00     0.031 C 
ATOM     58  C   UNL A   1      43.004  27.614  32.929  1.00  0.00     0.029 A 
ATOM     59  C   UNL A   1      42.444  28.718  33.549  1.00  0.00     0.049 A 
ATOM     60  H   UNL A   1      40.913  29.999  32.862  1.00  0.00     0.167 HD
ATOM     61  C   UNL A   1      42.134  30.336  35.404  1.00  0.00     0.074 A 
ATOM     62  C   UNL A   1      42.459  30.877  36.709  1.00  0.00     0.031 C 
ATOM     63  C   UNL A   1      42.764  29.283  34.832  1.00  0.00     0.037 A 
BRANCH  50  64
ATOM     64  C   UNL A   1      40.653  27.789  29.230  1.00  0.00     0.064 A 
ATOM     65  C   UNL A   1      39.785  26.694  29.121  1.00  0.00     0.173 A 
ATOM     66  C   UNL A   1      41.576  28.007  28.197  1.00  0.00     0.173 A 
ATOM     67  F   UNL A   1      38.897  26.438  30.094  1.00  0.00    -0.203 F 
ATOM     68  C   UNL A   1      39.850  25.838  28.025  1.00  0.00     0.198 A 
ATOM     69  C   UNL A   1      41.629  27.159  27.095  1.00  0.00     0.198 A 
ATOM     70  F   UNL A   1      42.428  29.041  28.259  1.00  0.00    -0.203 F 
ATOM     71  F   UNL A   1      39.036  24.777  27.956  1.00  0.00    -0.200 F 
ATOM     72  C   UNL A   1      40.769  26.072  27.013  1.00  0.00     0.200 A 
ATOM     73  F   UNL A   1      42.515  27.386  26.116  1.00  0.00    -0.200 F 
ATOM     74  F   UNL A   1      40.833  25.246  25.959  1.00  0.00    -0.200 F 
ENDBRANCH  50  64
BRANCH  51  75
ATOM     75  C   UNL A   1      39.573  33.943  36.987  1.00  0.00     0.064 A 
ATOM     76  C   UNL A   1      38.790  33.533  38.075  1.00  0.00     0.173 A 
ATOM     77  C   UNL A   1      40.197  35.196  37.060  1.00  0.00     0.173 A 
ATOM     78  F   UNL A   1      38.167  32.346  38.039  1.00  0.00    -0.203 F 
ATOM     79  C   UNL A   1      38.634  34.347  39.193  1.00  0.00     0.198 A 
ATOM     80  C   UNL A   1      40.052  36.002  38.185  1.00  0.00     0.198 A 
ATOM     81  F   UNL A   1      40.963  35.622  36.046  1.00  0.00    -0.203 F 
ATOM     82  F   UNL A   1      37.868  33.939  40.214  1.00  0.00    -0.200 F 
ATOM     83  C   UNL A   1      39.269  35.579  39.251  1.00  0.00     0.200 A 
ATOM     84  F   UNL A   1      40.674  37.187  38.243  1.00  0.00    -0.200 F 
ATOM     85  F   UNL A   1      39.127  36.358  40.330  1.00  0.00    -0.200 F 
ENDBRANCH  51  75
BRANCH  63  86
ATOM     86  C   UNL A   1      43.886  28.668  35.605  1.00  0.00     0.064 A 
ATOM     87  C   UNL A   1      45.209  29.092  35.425  1.00  0.00     0.173 A 
ATOM     88  C   UNL A   1      43.630  27.670  36.556  1.00  0.00     0.173 A 
ATOM     89  F   UNL A   1      45.498  30.033  34.514  1.00  0.00    -0.203 F 
ATOM     90  C   UNL A   1      46.243  28.531  36.167  1.00  0.00     0.198 A 
ATOM     91  C   UNL A   1      44.665  27.117  37.303  1.00  0.00     0.198 A 
ATOM     92  F   UNL A   1      42.377  27.233  36.754  1.00  0.00    -0.203 F 
ATOM     93  F   UNL A   1      47.505  28.933  35.967  1.00  0.00    -0.200 F 
ATOM     94  C   UNL A   1      45.969  27.547  37.107  1.00  0.00     0.200 A 
ATOM     95  F   UNL A   1      44.401  26.165  38.209  1.00  0.00    -0.200 F 
ATOM     96  F   UNL A   1      46.967  27.005  37.820  1.00  0.00    -0.200 F 
ENDBRANCH  63  86
ENDBRANCH  37  38
ENDBRANCH  29  32
ENDBRANCH  27  28
ENDBRANCH  26  27
ENDBRANCH  25  26
ENDBRANCH   1  25
TORSDOF 16
ENDMDL
MODEL 2
REMARK VINA RESULT:     -11.8      5.573     10.842
REMARK SMILES CC(C)CN(C1CCCC1)S(=O)(=O)c1[nH]ncc1C(=O)NCCCCNC(=O)c1ccc(-c2c3nc(c(-c4c(F)c(F)c(F)c(F)c4F)c4ccc([nH]4)c(-c4c(F)c(F)c(F)c(F)c4F)c4nc(c(-c5c(F)c(F)c(F)c(F)c5F)c5ccc2[nH]5)C=C4)C=C3)cc1
REMARK SMILES IDX 22 1 21 2 19 3 20 4 18 6 14 7 15 8 16 9 17 11 11 12 12 13
REMARK SMILES IDX 13 14 5 15 4 16 2 17 1 18 3 19 6 20 7 21 10 22 8 23 9 24
REMARK SMILES IDX 23 25 24 26 25 27 26 28 27 29 28 31 29 32 30 33 91 34 31 35
REMARK SMILES IDX 90 36 32 37 33 38 34 39 84 40 35 41 89 42 83 43 85 44 36 45
REMARK SMILES IDX 88 46 82 47 81 48 37 50 69 51 49 52 68 53 50 54 53 55 67 56
REMARK SMILES IDX 86 57 51 58 52 59 66 61 87 62 54 63 38 64 39 65 47 66 40 67
REMARK SMILES IDX 41 68 45 69 48 70 42 71 43 72 46 73 44 74 70 75 71 76 79 77
REMARK SMILES IDX 72 78 73 79 77 80 80 81 74 82 75 83 78 84 76 85 55 86 56 87
REMARK SMILES IDX 64 88 57 89 58 90 62 91 65 92 59 93 60 94 63 95 61 96
REMARK H PARENT 21 5 15 10 26 30 85 49 53 60
REMARK Flexibility Score: inf
ROOT
ATOM      1  C   UNL A   1      36.101  23.699  25.740  1.00  0.00     0.116 C 
ENDROOT
BRANCH   1   2
ATOM      2  N   UNL A   1      35.454  22.792  26.651  1.00  0.00    -0.352 N 
ATOM      3  C   UNL A   1      34.277  22.101  26.609  1.00  0.00     0.255 C 
ATOM      4  O   UNL A   1      34.024  21.450  27.627  1.00  0.00    -0.269 OA
ATOM      5  H   UNL A   1      35.968  22.639  27.476  1.00  0.00     0.163 HD
BRANCH   3   6
ATOM      6  C   UNL A   1      33.295  22.155  25.537  1.00  0.00     0.098 A 
ATOM      7  C   UNL A   1      32.282  23.027  25.142  1.00  0.00     0.178 A 
ATOM      8  N   UNL A   1      31.905  22.592  23.891  1.00  0.00    -0.266 N 
ATOM      9  N   UNL A   1      32.464  21.447  23.499  1.00  0.00    -0.182 NA
ATOM     10  H   UNL A   1      31.268  23.089  23.328  1.00  0.00     0.191 HD
ATOM     11  C   UNL A   1      33.347  21.211  24.464  1.00  0.00     0.150 A 
BRANCH   7  12
ATOM     12  S   UNL A   1      31.505  24.523  25.626  1.00  0.00     0.261 S 
ATOM     13  O   UNL A   1      31.455  24.437  27.074  1.00  0.00    -0.205 OA
ATOM     14  O   UNL A   1      30.293  24.554  24.844  1.00  0.00    -0.205 OA
BRANCH  12  15
ATOM     15  N   UNL A   1      32.475  25.914  25.247  1.00  0.00    -0.193 NA
BRANCH  15  16
ATOM     16  C   UNL A   1      31.932  26.588  23.993  1.00  0.00     0.106 C 
BRANCH  16  17
ATOM     17  C   UNL A   1      32.950  26.531  22.836  1.00  0.00    -0.002 C 
ATOM     18  C   UNL A   1      33.634  27.880  22.590  1.00  0.00     0.009 C 
ATOM     19  C   UNL A   1      34.028  25.483  23.127  1.00  0.00     0.009 C 
ENDBRANCH  16  17
ENDBRANCH  15  16
BRANCH  15  20
ATOM     20  C   UNL A   1      32.662  26.907  26.383  1.00  0.00     0.073 C 
ATOM     21  C   UNL A   1      33.949  27.728  26.270  1.00  0.00     0.020 C 
ATOM     22  C   UNL A   1      31.605  28.023  26.382  1.00  0.00     0.020 C 
ATOM     23  C   UNL A   1      33.709  29.031  27.026  1.00  0.00     0.002 C 
ATOM     24  C   UNL A   1      32.210  29.117  27.252  1.00  0.00     0.002 C 
ENDBRANCH  15  20
ENDBRANCH  12  15
ENDBRANCH   7  12
ENDBRANCH   3   6
ENDBRANCH   1   2
BRANCH   1  25
ATOM     25  C   UNL A   1      37.361  23.126  25.100  1.00  0.00     0.023 C 
BRANCH  25  26
ATOM     26  C   UNL A   1      37.730  21.706  25.533  1.00  0.00     0.023 C 
BRANCH  26  27
ATOM     27  C   UNL A   1      39.130  21.533  26.126  1.00  0.00     0.116 C 
BRANCH  27  28
ATOM     28  N   UNL A   1      39.734  20.229  25.891  1.00  0.00    -0.352 N 
ATOM     29  C   UNL A   1      41.049  19.839  26.031  1.00  0.00     0.251 C 
ATOM     30  H   UNL A   1      39.116  19.525  25.590  1.00  0.00     0.163 HD
ATOM     31  O   UNL A   1      41.381  18.691  25.757  1.00  0.00    -0.269 OA
BRANCH  29  32
ATOM     32  C   UNL A   1      42.076  20.837  26.403  1.00  0.00     0.039 A 
ATOM     33  C   UNL A   1      42.666  21.581  25.376  1.00  0.00     0.014 A 
ATOM     34  C   UNL A   1      42.369  21.130  27.736  1.00  0.00     0.014 A 
ATOM     35  C   UNL A   1      43.401  22.726  25.687  1.00  0.00     0.010 A 
ATOM     36  C   UNL A   1      43.039  22.309  28.047  1.00  0.00     0.010 A 
ATOM     37  C   UNL A   1      43.500  23.149  27.022  1.00  0.00    -0.014 A 
BRANCH  37  38
ATOM     38  C   UNL A   1      43.910  24.533  27.359  1.00  0.00     0.031 A 
ATOM     39  C   UNL A   1      42.918  25.538  27.858  1.00  0.00     0.074 A 
ATOM     40  C   UNL A   1      45.171  24.916  27.067  1.00  0.00     0.049 A 
ATOM     41  N   UNL A   1      43.064  26.827  28.021  1.00  0.00    -0.248 NA
ATOM     42  C   UNL A   1      41.577  25.033  28.182  1.00  0.00     0.031 C 
ATOM     43  C   UNL A   1      46.210  24.050  26.501  1.00  0.00     0.029 A 
ATOM     44  N   UNL A   1      45.789  26.135  27.184  1.00  0.00    -0.354 N 
ATOM     45  C   UNL A   1      41.822  27.299  28.418  1.00  0.00     0.074 A 
ATOM     46  C   UNL A   1      40.934  26.156  28.477  1.00  0.00     0.031 C 
ATOM     47  C   UNL A   1      47.340  24.755  26.349  1.00  0.00     0.029 A 
ATOM     48  C   UNL A   1      47.096  26.131  26.765  1.00  0.00     0.049 A 
ATOM     49  H   UNL A   1      45.338  26.936  27.535  1.00  0.00     0.167 HD
ATOM     50  C   UNL A   1      41.458  28.572  28.697  1.00  0.00     0.037 A 
ATOM     51  C   UNL A   1      48.000  27.126  26.711  1.00  0.00     0.037 A 
ATOM     52  C   UNL A   1      42.351  29.700  28.682  1.00  0.00     0.049 A 
ATOM     53  C   UNL A   1      47.600  28.504  27.145  1.00  0.00     0.074 A 
ATOM     54  C   UNL A   1      42.080  31.024  28.983  1.00  0.00     0.029 A 
ATOM     55  N   UNL A   1      43.698  29.631  28.361  1.00  0.00    -0.354 N 
ATOM     56  N   UNL A   1      46.426  28.933  27.532  1.00  0.00    -0.248 NA
ATOM     57  C   UNL A   1      48.648  29.533  27.134  1.00  0.00     0.031 C 
ATOM     58  C   UNL A   1      43.266  31.757  28.845  1.00  0.00     0.029 A 
ATOM     59  C   UNL A   1      44.275  30.886  28.471  1.00  0.00     0.049 A 
ATOM     60  H   UNL A   1      44.175  28.812  28.094  1.00  0.00     0.167 HD
ATOM     61  C   UNL A   1      46.590  30.279  27.818  1.00  0.00     0.074 A 
ATOM     62  C   UNL A   1      47.984  30.594  27.571  1.00  0.00     0.031 C 
ATOM     63  C   UNL A   1      45.666  31.173  28.240  1.00  0.00     0.037 A 
BRANCH  50  64
ATOM     64  C   UNL A   1      40.020  28.812  29.035  1.00  0.00     0.064 A 
ATOM     65  C   UNL A   1      39.088  29.167  28.051  1.00  0.00     0.173 A 
ATOM     66  C   UNL A   1      39.568  28.666  30.354  1.00  0.00     0.173 A 
ATOM     67  F   UNL A   1      39.479  29.335  26.779  1.00  0.00    -0.203 F 
ATOM     68  C   UNL A   1      37.752  29.385  28.379  1.00  0.00     0.198 A 
ATOM     69  C   UNL A   1      38.230  28.868  30.677  1.00  0.00     0.198 A 
ATOM     70  F   UNL A   1      40.425  28.329  31.329  1.00  0.00    -0.203 F 
ATOM     71  F   UNL A   1      36.882  29.757  27.431  1.00  0.00    -0.200 F 
ATOM     72  C   UNL A   1      37.324  29.232  29.690  1.00  0.00     0.200 A 
ATOM     73  F   UNL A   1      37.816  28.719  31.942  1.00  0.00    -0.200 F 
ATOM     74  F   UNL A   1      36.038  29.444  30.006  1.00  0.00    -0.200 F 
ENDBRANCH  50  64
BRANCH  51  75
ATOM     75  C   UNL A   1      49.380  26.833  26.261  1.00  0.00     0.064 A 
ATOM     76  C   UNL A   1      50.333  26.344  27.165  1.00  0.00     0.173 A 
ATOM     77  C   UNL A   1      49.763  26.993  24.923  1.00  0.00     0.173 A 
ATOM     78  F   UNL A   1      50.009  26.189  28.458  1.00  0.00    -0.203 F 
ATOM     79  C   UNL A   1      51.622  26.029  26.747  1.00  0.00     0.198 A 
ATOM     80  C   UNL A   1      51.049  26.663  24.503  1.00  0.00     0.198 A 
ATOM     81  F   UNL A   1      48.880  27.449  24.023  1.00  0.00    -0.203 F 
ATOM     82  F   UNL A   1      52.520  25.577  27.633  1.00  0.00    -0.200 F 
ATOM     83  C   UNL A   1      51.979  26.183  25.416  1.00  0.00     0.200 A 
ATOM     84  F   UNL A   1      51.388  26.804  23.215  1.00  0.00    -0.200 F 
ATOM     85  F   UNL A   1      53.216  25.871  25.011  1.00  0.00    -0.200 F 
ENDBRANCH  51  75
BRANCH  63  86
ATOM     86  C   UNL A   1      46.141  32.569  28.486  1.00  0.00     0.064 A 
ATOM     87  C   UNL A   1      46.625  32.958  29.742  1.00  0.00     0.173 A 
ATOM     88  C   UNL A   1      46.140  33.512  27.450  1.00  0.00     0.173 A 
ATOM     89  F   UNL A   1      46.628  32.090  30.764  1.00  0.00    -0.203 F 
ATOM     90  C   UNL A   1      47.088  34.253  29.954  1.00  0.00     0.198 A 
ATOM     91  C   UNL A   1      46.612  34.803  27.663  1.00  0.00     0.198 A 
ATOM     92  F   UNL A   1      45.678  33.180  26.235  1.00  0.00    -0.203 F 
ATOM     93  F   UNL A   1      47.529  34.615  31.167  1.00  0.00    -0.200 F 
ATOM     94  C   UNL A   1      47.084  35.172  28.914  1.00  0.00     0.200 A 
ATOM     95  F   UNL A   1      46.606  35.692  26.660  1.00  0.00    -0.200 F 
ATOM     96  F   UNL A   1      47.529  36.419  29.122  1.00  0.00    -0.200 F 
ENDBRANCH  63  86
ENDBRANCH  37  38
ENDBRANCH  29  32
ENDBRANCH  27  28
ENDBRANCH  26  27
ENDBRANCH  25  26
ENDBRANCH   1  25
TORSDOF 16
ENDMDL
MODEL 3
REMARK VINA RESULT:     -11.7      1.759      2.984
REMARK SMILES CC(C)CN(C1CCCC1)S(=O)(=O)c1[nH]ncc1C(=O)NCCCCNC(=O)c1ccc(-c2c3nc(c(-c4c(F)c(F)c(F)c(F)c4F)c4ccc([nH]4)c(-c4c(F)c(F)c(F)c(F)c4F)c4nc(c(-c5c(F)c(F)c(F)c(F)c5F)c5ccc2[nH]5)C=C4)C=C3)cc1
REMARK SMILES IDX 22 1 21 2 19 3 20 4 18 6 14 7 15 8 16 9 17 11 11 12 12 13
REMARK SMILES IDX 13 14 5 15 4 16 2 17 1 18 3 19 6 20 7 21 10 22 8 23 9 24
REMARK SMILES IDX 23 25 24 26 25 27 26 28 27 29 28 31 29 32 30 33 91 34 31 35
REMARK SMILES IDX 90 36 32 37 33 38 34 39 84 40 35 41 89 42 83 43 85 44 36 45
REMARK SMILES IDX 88 46 82 47 81 48 37 50 69 51 49 52 68 53 50 54 53 55 67 56
REMARK SMILES IDX 86 57 51 58 52 59 66 61 87 62 54 63 38 64 39 65 47 66 40 67
REMARK SMILES IDX 41 68 45 69 48 70 42 71 43 72 46 73 44 74 70 75 71 76 79 77
REMARK SMILES IDX 72 78 73 79 77 80 80 81 74 82 75 83 78 84 76 85 55 86 56 87
REMARK SMILES IDX 64 88 57 89 58 90 62 91 65 92 59 93 60 94 63 95 61 96
REMARK H PARENT 21 5 15 10 26 30 85 49 53 60
REMARK Flexibility Score: inf
ROOT
ATOM      1  C   UNL A   1      31.412  28.558  24.660  1.00  0.00     0.116 C 
ENDROOT
BRANCH   1   2
ATOM      2  N   UNL A   1      32.420  28.102  23.742  1.00  0.00    -0.352 N 
ATOM      3  C   UNL A   1      32.553  26.977  22.980  1.00  0.00     0.255 C 
ATOM      4  O   UNL A   1      33.609  26.907  22.343  1.00  0.00    -0.269 OA
ATOM      5  H   UNL A   1      33.170  28.731  23.644  1.00  0.00     0.163 HD
BRANCH   3   6
ATOM      6  C   UNL A   1      31.625  25.857  22.943  1.00  0.00     0.098 A 
ATOM      7  C   UNL A   1      31.725  24.468  22.865  1.00  0.00     0.178 A 
ATOM      8  N   UNL A   1      30.455  24.005  23.126  1.00  0.00    -0.266 N 
ATOM      9  N   UNL A   1      29.517  24.949  23.219  1.00  0.00    -0.182 NA
ATOM     10  H   UNL A   1      30.253  23.048  23.234  1.00  0.00     0.191 HD
ATOM     11  C   UNL A   1      30.230  26.070  23.168  1.00  0.00     0.150 A 
BRANCH   7  12
ATOM     12  S   UNL A   1      32.920  23.193  22.726  1.00  0.00     0.261 S 
ATOM     13  O   UNL A   1      33.721  23.588  21.583  1.00  0.00    -0.205 OA
ATOM     14  O   UNL A   1      32.135  21.983  22.698  1.00  0.00    -0.205 OA
BRANCH  12  15
ATOM     15  N   UNL A   1      33.994  23.155  24.092  1.00  0.00    -0.193 NA
BRANCH  15  16
ATOM     16  C   UNL A   1      33.193  22.898  25.364  1.00  0.00     0.106 C 
BRANCH  16  17
ATOM     17  C   UNL A   1      33.200  24.129  26.292  1.00  0.00    -0.002 C 
ATOM     18  C   UNL A   1      34.055  25.275  25.742  1.00  0.00     0.009 C 
ATOM     19  C   UNL A   1      31.773  24.643  26.505  1.00  0.00     0.009 C 
ENDBRANCH  16  17
ENDBRANCH  15  16
BRANCH  15  20
ATOM     20  C   UNL A   1      35.172  22.203  23.968  1.00  0.00     0.073 C 
ATOM     21  C   UNL A   1      36.509  22.831  24.373  1.00  0.00     0.020 C 
ATOM     22  C   UNL A   1      35.097  21.025  24.951  1.00  0.00     0.020 C 
ATOM     23  C   UNL A   1      37.420  21.687  24.808  1.00  0.00     0.002 C 
ATOM     24  C   UNL A   1      36.519  20.481  25.001  1.00  0.00     0.002 C 
ENDBRANCH  15  20
ENDBRANCH  12  15
ENDBRANCH   7  12
ENDBRANCH   3   6
ENDBRANCH   1   2
BRANCH   1  25
ATOM     25  C   UNL A   1      31.788  28.366  26.125  1.00  0.00     0.023 C 
BRANCH  25  26
ATOM     26  C   UNL A   1      31.815  29.642  26.970  1.00  0.00     0.023 C 
BRANCH  26  27
ATOM     27  C   UNL A   1      32.564  30.828  26.359  1.00  0.00     0.116 C 
BRANCH  27  28
ATOM     28  N   UNL A   1      32.482  32.062  27.130  1.00  0.00    -0.352 N 
ATOM     29  C   UNL A   1      33.466  32.708  27.848  1.00  0.00     0.251 C 
ATOM     30  H   UNL A   1      31.599  32.496  27.140  1.00  0.00     0.163 HD
ATOM     31  O   UNL A   1      33.202  33.734  28.465  1.00  0.00    -0.269 OA
BRANCH  29  32
ATOM     32  C   UNL A   1      34.811  32.101  27.964  1.00  0.00     0.039 A 
ATOM     33  C   UNL A   1      35.914  32.960  28.007  1.00  0.00     0.014 A 
ATOM     34  C   UNL A   1      34.984  30.729  28.155  1.00  0.00     0.014 A 
ATOM     35  C   UNL A   1      37.154  32.470  28.416  1.00  0.00     0.010 A 
ATOM     36  C   UNL A   1      36.201  30.253  28.633  1.00  0.00     0.010 A 
ATOM     37  C   UNL A   1      37.274  31.134  28.831  1.00  0.00    -0.014 A 
BRANCH  37  38
ATOM     38  C   UNL A   1      38.435  30.682  29.636  1.00  0.00     0.031 A 
ATOM     39  C   UNL A   1      39.404  29.674  29.102  1.00  0.00     0.074 A 
ATOM     40  C   UNL A   1      38.521  31.088  30.920  1.00  0.00     0.049 A 
ATOM     41  N   UNL A   1      40.356  29.034  29.730  1.00  0.00    -0.248 NA
ATOM     42  C   UNL A   1      39.261  29.310  27.685  1.00  0.00     0.031 C 
ATOM     43  C   UNL A   1      37.591  32.007  31.583  1.00  0.00     0.029 A 
ATOM     44  N   UNL A   1      39.417  30.763  31.906  1.00  0.00    -0.354 N 
ATOM     45  C   UNL A   1      40.895  28.155  28.803  1.00  0.00     0.074 A 
ATOM     46  C   UNL A   1      40.167  28.347  27.565  1.00  0.00     0.031 C 
ATOM     47  C   UNL A   1      37.981  32.196  32.851  1.00  0.00     0.029 A 
ATOM     48  C   UNL A   1      39.163  31.380  33.106  1.00  0.00     0.049 A 
ATOM     49  H   UNL A   1      40.173  30.148  31.766  1.00  0.00     0.167 HD
ATOM     50  C   UNL A   1      41.899  27.265  28.975  1.00  0.00     0.037 A 
ATOM     51  C   UNL A   1      39.801  31.293  34.286  1.00  0.00     0.037 A 
ATOM     52  C   UNL A   1      42.652  27.107  30.191  1.00  0.00     0.049 A 
ATOM     53  C   UNL A   1      40.989  30.388  34.412  1.00  0.00     0.074 A 
ATOM     54  C   UNL A   1      43.710  26.251  30.450  1.00  0.00     0.029 A 
ATOM     55  N   UNL A   1      42.433  27.834  31.351  1.00  0.00    -0.354 N 
ATOM     56  N   UNL A   1      41.497  29.572  33.523  1.00  0.00    -0.248 NA
ATOM     57  C   UNL A   1      41.690  30.389  35.703  1.00  0.00     0.031 C 
ATOM     58  C   UNL A   1      44.132  26.464  31.769  1.00  0.00     0.029 A 
ATOM     59  C   UNL A   1      43.345  27.459  32.324  1.00  0.00     0.049 A 
ATOM     60  H   UNL A   1      41.732  28.517  31.466  1.00  0.00     0.167 HD
ATOM     61  C   UNL A   1      42.581  28.968  34.139  1.00  0.00     0.074 A 
ATOM     62  C   UNL A   1      42.665  29.519  35.477  1.00  0.00     0.031 C 
ATOM     63  C   UNL A   1      43.424  28.033  33.640  1.00  0.00     0.037 A 
BRANCH  50  64
ATOM     64  C   UNL A   1      42.234  26.381  27.815  1.00  0.00     0.064 A 
ATOM     65  C   UNL A   1      43.271  26.701  26.928  1.00  0.00     0.173 A 
ATOM     66  C   UNL A   1      41.523  25.192  27.602  1.00  0.00     0.173 A 
ATOM     67  F   UNL A   1      43.967  27.837  27.085  1.00  0.00    -0.203 F 
ATOM     68  C   UNL A   1      43.574  25.867  25.855  1.00  0.00     0.198 A 
ATOM     69  C   UNL A   1      41.838  24.353  26.537  1.00  0.00     0.198 A 
ATOM     70  F   UNL A   1      40.521  24.846  28.424  1.00  0.00    -0.203 F 
ATOM     71  F   UNL A   1      44.545  26.207  24.997  1.00  0.00    -0.200 F 
ATOM     72  C   UNL A   1      42.859  24.693  25.662  1.00  0.00     0.200 A 
ATOM     73  F   UNL A   1      41.150  23.218  26.352  1.00  0.00    -0.200 F 
ATOM     74  F   UNL A   1      43.150  23.893  24.626  1.00  0.00    -0.200 F 
ENDBRANCH  50  64
BRANCH  51  75
ATOM     75  C   UNL A   1      39.343  32.120  35.426  1.00  0.00     0.064 A 
ATOM     76  C   UNL A   1      38.495  31.578  36.400  1.00  0.00     0.173 A 
ATOM     77  C   UNL A   1      39.772  33.444  35.589  1.00  0.00     0.173 A 
ATOM     78  F   UNL A   1      38.052  30.318  36.274  1.00  0.00    -0.203 F 
ATOM     79  C   UNL A   1      38.089  32.332  37.497  1.00  0.00     0.198 A 
ATOM     80  C   UNL A   1      39.376  34.193  36.694  1.00  0.00     0.198 A 
ATOM     81  F   UNL A   1      40.592  33.999  34.685  1.00  0.00    -0.203 F 
ATOM     82  F   UNL A   1      37.265  31.796  38.408  1.00  0.00    -0.200 F 
ATOM     83  C   UNL A   1      38.533  33.637  37.647  1.00  0.00     0.200 A 
ATOM     84  F   UNL A   1      39.815  35.450  36.841  1.00  0.00    -0.200 F 
ATOM     85  F   UNL A   1      38.149  34.360  38.706  1.00  0.00    -0.200 F 
ENDBRANCH  51  75
BRANCH  63  86
ATOM     86  C   UNL A   1      44.525  27.572  34.539  1.00  0.00     0.064 A 
ATOM     87  C   UNL A   1      44.360  26.462  35.377  1.00  0.00     0.173 A 
ATOM     88  C   UNL A   1      45.765  28.226  34.535  1.00  0.00     0.173 A 
ATOM     89  F   UNL A   1      43.184  25.819  35.422  1.00  0.00    -0.203 F 
ATOM     90  C   UNL A   1      45.400  26.025  36.192  1.00  0.00     0.198 A 
ATOM     91  C   UNL A   1      46.806  27.781  35.344  1.00  0.00     0.198 A 
ATOM     92  F   UNL A   1      45.961  29.296  33.750  1.00  0.00    -0.203 F 
ATOM     93  F   UNL A   1      45.218  24.975  37.004  1.00  0.00    -0.200 F 
ATOM     94  C   UNL A   1      46.622  26.683  36.171  1.00  0.00     0.200 A 
ATOM     95  F   UNL A   1      47.985  28.418  35.326  1.00  0.00    -0.200 F 
ATOM     96  F   UNL A   1      47.622  26.262  36.958  1.00  0.00    -0.200 F 
ENDBRANCH  63  86
ENDBRANCH  37  38
ENDBRANCH  29  32
ENDBRANCH  27  28
ENDBRANCH  26  27
ENDBRANCH  25  26
ENDBRANCH   1  25
TORSDOF 16
ENDMDL
