MODEL 1
REMARK VINA RESULT:     -12.8      0.000      0.000
REMARK SMILES C=C1c2ccccc2C(=O)N1[C@](C)(C(=O)NCCCCNC(=O)c1ccc(-c2c3nc(c(-c4c(F)c(F)c(F)c(F)c4F)c4ccc([nH]4)c(-c4c(F)c(F)c(F)c(F)c4F)c4nc(c(-c5c(F)c(F)c(F)c(F)c5F)c5ccc2[nH]5)C=C4)C=C3)cc1)C(F)(F)F
REMARK SMILES IDX 19 1 18 2 17 3 16 4 14 5 15 6 12 8 13 9 11 10 1 11 2 12 3 13
REMARK SMILES IDX 4 14 8 15 9 16 5 17 7 18 10 19 6 20 87 21 88 22 89 23 90 24
REMARK SMILES IDX 20 25 21 26 22 27 23 29 24 30 25 31 86 32 26 33 85 34 27 35
REMARK SMILES IDX 28 36 29 37 79 38 30 39 84 40 78 41 80 42 31 43 83 44 77 45
REMARK SMILES IDX 76 46 32 48 64 49 44 50 63 51 45 52 48 53 62 54 81 55 46 56
REMARK SMILES IDX 47 57 61 59 82 60 49 61 33 62 34 63 42 64 35 65 36 66 40 67
REMARK SMILES IDX 43 68 37 69 38 70 41 71 39 72 65 73 66 74 74 75 67 76 68 77
REMARK SMILES IDX 72 78 75 79 69 80 70 81 73 82 71 83 50 84 51 85 59 86 52 87
REMARK SMILES IDX 53 88 57 89 60 90 54 91 55 92 58 93 56 94
REMARK H PARENT 16 7 21 28 80 47 48 58
REMARK Flexibility Score: inf
ROOT
ATOM      1  C   UNL A   1      32.683  29.531  25.237  1.00  0.00     0.023 C 
ENDROOT
BRANCH   1   2
ATOM      2  C   UNL A   1      33.985  28.787  24.950  1.00  0.00     0.023 C 
BRANCH   2   3
ATOM      3  C   UNL A   1      33.846  27.295  24.687  1.00  0.00     0.116 C 
BRANCH   3   4
ATOM      4  N   UNL A   1      33.189  26.948  23.441  1.00  0.00    -0.354 N 
ATOM      5  C   UNL A   1      32.099  26.152  23.211  1.00  0.00     0.255 C 
ATOM      6  O   UNL A   1      31.417  26.517  22.242  1.00  0.00    -0.272 OA
ATOM      7  H   UNL A   1      33.589  27.347  22.634  1.00  0.00     0.163 HD
BRANCH   5   8
ATOM      8  C   UNL A   1      31.653  24.939  24.094  1.00  0.00     0.219 C 
ATOM      9  C   UNL A   1      30.515  24.084  23.500  1.00  0.00     0.056 C 
BRANCH   8  10
ATOM     10  N   UNL A   1      32.861  24.099  24.401  1.00  0.00    -0.285 N 
ATOM     11  C   UNL A   1      32.540  23.139  26.677  1.00  0.00     0.038 C 
ATOM     12  C   UNL A   1      33.210  23.379  25.548  1.00  0.00     0.046 C 
ATOM     13  C   UNL A   1      34.547  22.803  25.316  1.00  0.00     0.010 A 
ATOM     14  C   UNL A   1      35.419  22.054  26.093  1.00  0.00     0.011 A 
ATOM     15  C   UNL A   1      34.929  23.146  24.029  1.00  0.00     0.049 A 
ATOM     16  C   UNL A   1      33.843  23.898  23.425  1.00  0.00     0.260 C 
ATOM     17  C   UNL A   1      36.662  21.687  25.553  1.00  0.00     0.001 A 
ATOM     18  C   UNL A   1      36.150  22.807  23.466  1.00  0.00     0.014 A 
ATOM     19  O   UNL A   1      33.870  24.221  22.252  1.00  0.00    -0.269 OA
ATOM     20  C   UNL A   1      37.029  22.068  24.251  1.00  0.00     0.001 A 
ENDBRANCH   8  10
BRANCH   8  21
ATOM     21  C   UNL A   1      30.980  25.700  25.272  1.00  0.00     0.420 C 
ATOM     22  F   UNL A   1      30.354  26.827  24.837  1.00  0.00    -0.168 F 
ATOM     23  F   UNL A   1      29.997  24.951  25.847  1.00  0.00    -0.168 F 
ATOM     24  F   UNL A   1      31.813  26.069  26.268  1.00  0.00    -0.168 F 
ENDBRANCH   8  21
ENDBRANCH   5   8
ENDBRANCH   3   4
ENDBRANCH   2   3
ENDBRANCH   1   2
BRANCH   1  25
ATOM     25  C   UNL A   1      32.426  29.915  26.693  1.00  0.00     0.116 C 
BRANCH  25  26
ATOM     26  N   UNL A   1      32.334  31.353  26.924  1.00  0.00    -0.352 N 
ATOM     27  C   UNL A   1      33.253  32.222  27.465  1.00  0.00     0.251 C 
ATOM     28  H   UNL A   1      31.483  31.765  26.650  1.00  0.00     0.163 HD
ATOM     29  O   UNL A   1      32.972  33.403  27.643  1.00  0.00    -0.269 OA
BRANCH  27  30
ATOM     30  C   UNL A   1      34.574  31.714  27.885  1.00  0.00     0.039 A 
ATOM     31  C   UNL A   1      35.636  32.613  28.000  1.00  0.00     0.014 A 
ATOM     32  C   UNL A   1      34.740  30.372  28.234  1.00  0.00     0.014 A 
ATOM     33  C   UNL A   1      36.830  32.196  28.590  1.00  0.00     0.010 A 
ATOM     34  C   UNL A   1      35.899  29.979  28.894  1.00  0.00     0.010 A 
ATOM     35  C   UNL A   1      36.943  30.894  29.106  1.00  0.00    -0.014 A 
BRANCH  35  36
ATOM     36  C   UNL A   1      38.113  30.478  29.919  1.00  0.00     0.031 A 
ATOM     37  C   UNL A   1      39.111  29.506  29.363  1.00  0.00     0.074 A 
ATOM     38  C   UNL A   1      38.215  30.894  31.196  1.00  0.00     0.049 A 
ATOM     39  N   UNL A   1      40.114  28.914  29.962  1.00  0.00    -0.248 NA
ATOM     40  C   UNL A   1      38.941  29.123  27.952  1.00  0.00     0.031 C 
ATOM     41  C   UNL A   1      37.285  31.803  31.870  1.00  0.00     0.029 A 
ATOM     42  N   UNL A   1      39.139  30.589  32.167  1.00  0.00    -0.354 N 
ATOM     43  C   UNL A   1      40.680  28.078  29.009  1.00  0.00     0.074 A 
ATOM     44  C   UNL A   1      39.883  28.202  27.808  1.00  0.00     0.031 C 
ATOM     45  C   UNL A   1      37.695  31.999  33.132  1.00  0.00     0.029 A 
ATOM     46  C   UNL A   1      38.889  31.195  33.375  1.00  0.00     0.049 A 
ATOM     47  H   UNL A   1      39.906  29.993  32.012  1.00  0.00     0.167 HD
ATOM     48  C   UNL A   1      41.778  27.294  29.122  1.00  0.00     0.037 A 
ATOM     49  C   UNL A   1      39.539  31.099  34.550  1.00  0.00     0.037 A 
ATOM     50  C   UNL A   1      42.587  27.194  30.308  1.00  0.00     0.049 A 
ATOM     51  C   UNL A   1      40.742  30.203  34.654  1.00  0.00     0.074 A 
ATOM     52  C   UNL A   1      43.758  26.483  30.496  1.00  0.00     0.029 A 
ATOM     53  N   UNL A   1      42.304  27.827  31.510  1.00  0.00    -0.354 N 
ATOM     54  N   UNL A   1      41.303  29.462  33.731  1.00  0.00    -0.248 NA
ATOM     55  C   UNL A   1      41.397  30.124  35.967  1.00  0.00     0.031 C 
ATOM     56  C   UNL A   1      44.165  26.655  31.824  1.00  0.00     0.029 A 
ATOM     57  C   UNL A   1      43.267  27.503  32.451  1.00  0.00     0.049 A 
ATOM     58  H   UNL A   1      41.533  28.419  31.669  1.00  0.00     0.167 HD
ATOM     59  C   UNL A   1      42.387  28.846  34.341  1.00  0.00     0.074 A 
ATOM     60  C   UNL A   1      42.411  29.310  35.714  1.00  0.00     0.031 C 
ATOM     61  C   UNL A   1      43.279  27.976  33.812  1.00  0.00     0.037 A 
BRANCH  48  62
ATOM     62  C   UNL A   1      42.172  26.485  27.922  1.00  0.00     0.064 A 
ATOM     63  C   UNL A   1      43.118  26.956  26.999  1.00  0.00     0.173 A 
ATOM     64  C   UNL A   1      41.613  25.217  27.702  1.00  0.00     0.173 A 
ATOM     65  F   UNL A   1      43.671  28.168  27.158  1.00  0.00    -0.203 F 
ATOM     66  C   UNL A   1      43.469  26.200  25.885  1.00  0.00     0.198 A 
ATOM     67  C   UNL A   1      41.987  24.452  26.600  1.00  0.00     0.198 A 
ATOM     68  F   UNL A   1      40.707  24.719  28.557  1.00  0.00    -0.203 F 
ATOM     69  F   UNL A   1      44.339  26.691  24.991  1.00  0.00    -0.200 F 
ATOM     70  C   UNL A   1      42.908  24.947  25.690  1.00  0.00     0.200 A 
ATOM     71  F   UNL A   1      41.452  23.237  26.418  1.00  0.00    -0.200 F 
ATOM     72  F   UNL A   1      43.249  24.219  24.617  1.00  0.00    -0.200 F 
ENDBRANCH  48  62
BRANCH  49  73
ATOM     73  C   UNL A   1      39.077  31.889  35.720  1.00  0.00     0.064 A 
ATOM     74  C   UNL A   1      39.494  33.215  35.895  1.00  0.00     0.173 A 
ATOM     75  C   UNL A   1      38.216  31.341  36.681  1.00  0.00     0.173 A 
ATOM     76  F   UNL A   1      40.336  33.774  35.014  1.00  0.00    -0.203 F 
ATOM     77  C   UNL A   1      39.077  33.962  36.995  1.00  0.00     0.198 A 
ATOM     78  C   UNL A   1      37.780  32.097  37.768  1.00  0.00     0.198 A 
ATOM     79  F   UNL A   1      37.787  30.078  36.558  1.00  0.00    -0.203 F 
ATOM     80  F   UNL A   1      39.520  35.216  37.157  1.00  0.00    -0.200 F 
ATOM     81  C   UNL A   1      38.215  33.404  37.927  1.00  0.00     0.200 A 
ATOM     82  F   UNL A   1      36.939  31.558  38.662  1.00  0.00    -0.200 F 
ATOM     83  F   UNL A   1      37.811  34.124  38.983  1.00  0.00    -0.200 F 
ENDBRANCH  49  73
BRANCH  61  84
ATOM     84  C   UNL A   1      44.373  27.482  34.710  1.00  0.00     0.064 A 
ATOM     85  C   UNL A   1      44.242  26.289  35.434  1.00  0.00     0.173 A 
ATOM     86  C   UNL A   1      45.584  28.184  34.807  1.00  0.00     0.173 A 
ATOM     87  F   UNL A   1      43.096  25.593  35.387  1.00  0.00    -0.203 F 
ATOM     88  C   UNL A   1      45.282  25.821  36.232  1.00  0.00     0.198 A 
ATOM     89  C   UNL A   1      46.630  27.701  35.588  1.00  0.00     0.198 A 
ATOM     90  F   UNL A   1      45.758  29.330  34.131  1.00  0.00    -0.203 F 
ATOM     91  F   UNL A   1      45.124  24.696  36.943  1.00  0.00    -0.200 F 
ATOM     92  C   UNL A   1      46.476  26.523  36.303  1.00  0.00     0.200 A 
ATOM     93  F   UNL A   1      47.787  28.375  35.646  1.00  0.00    -0.200 F 
ATOM     94  F   UNL A   1      47.480  26.065  37.064  1.00  0.00    -0.200 F 
ENDBRANCH  61  84
ENDBRANCH  35  36
ENDBRANCH  27  30
ENDBRANCH  25  26
ENDBRANCH   1  25
TORSDOF 13
ENDMDL
MODEL 2
REMARK VINA RESULT:     -12.7      1.293      2.059
REMARK SMILES C=C1c2ccccc2C(=O)N1[C@](C)(C(=O)NCCCCNC(=O)c1ccc(-c2c3nc(c(-c4c(F)c(F)c(F)c(F)c4F)c4ccc([nH]4)c(-c4c(F)c(F)c(F)c(F)c4F)c4nc(c(-c5c(F)c(F)c(F)c(F)c5F)c5ccc2[nH]5)C=C4)C=C3)cc1)C(F)(F)F
REMARK SMILES IDX 19 1 18 2 17 3 16 4 14 5 15 6 12 8 13 9 11 10 1 11 2 12 3 13
REMARK SMILES IDX 4 14 8 15 9 16 5 17 7 18 10 19 6 20 87 21 88 22 89 23 90 24
REMARK SMILES IDX 20 25 21 26 22 27 23 29 24 30 25 31 86 32 26 33 85 34 27 35
REMARK SMILES IDX 28 36 29 37 79 38 30 39 84 40 78 41 80 42 31 43 83 44 77 45
REMARK SMILES IDX 76 46 32 48 64 49 44 50 63 51 45 52 48 53 62 54 81 55 46 56
REMARK SMILES IDX 47 57 61 59 82 60 49 61 33 62 34 63 42 64 35 65 36 66 40 67
REMARK SMILES IDX 43 68 37 69 38 70 41 71 39 72 65 73 66 74 74 75 67 76 68 77
REMARK SMILES IDX 72 78 75 79 69 80 70 81 73 82 71 83 50 84 51 85 59 86 52 87
REMARK SMILES IDX 53 88 57 89 60 90 54 91 55 92 58 93 56 94
REMARK H PARENT 16 7 21 28 80 47 48 58
REMARK Flexibility Score: inf
ROOT
ATOM      1  C   UNL A   1      31.727  28.814  26.679  1.00  0.00     0.023 C 
ENDROOT
BRANCH   1   2
ATOM      2  C   UNL A   1      32.269  27.400  26.875  1.00  0.00     0.023 C 
BRANCH   2   3
ATOM      3  C   UNL A   1      31.519  26.299  26.139  1.00  0.00     0.116 C 
BRANCH   3   4
ATOM      4  N   UNL A   1      31.451  25.029  26.836  1.00  0.00    -0.354 N 
ATOM      5  C   UNL A   1      32.117  23.856  26.597  1.00  0.00     0.255 C 
ATOM      6  O   UNL A   1      32.351  23.204  27.625  1.00  0.00    -0.272 OA
ATOM      7  H   UNL A   1      30.829  25.005  27.599  1.00  0.00     0.163 HD
BRANCH   5   8
ATOM      8  C   UNL A   1      32.634  23.368  25.203  1.00  0.00     0.219 C 
ATOM      9  C   UNL A   1      32.350  24.329  24.030  1.00  0.00     0.056 C 
BRANCH   8  10
ATOM     10  N   UNL A   1      34.102  23.065  25.315  1.00  0.00    -0.285 N 
ATOM     11  C   UNL A   1      34.427  20.698  24.609  1.00  0.00     0.038 C 
ATOM     12  C   UNL A   1      34.814  21.883  25.086  1.00  0.00     0.046 C 
ATOM     13  C   UNL A   1      36.224  22.145  25.427  1.00  0.00     0.010 A 
ATOM     14  C   UNL A   1      37.368  21.361  25.455  1.00  0.00     0.011 A 
ATOM     15  C   UNL A   1      36.321  23.479  25.791  1.00  0.00     0.049 A 
ATOM     16  C   UNL A   1      35.005  24.078  25.653  1.00  0.00     0.260 C 
ATOM     17  C   UNL A   1      38.577  21.943  25.869  1.00  0.00     0.001 A 
ATOM     18  C   UNL A   1      37.496  24.084  26.211  1.00  0.00     0.014 A 
ATOM     19  O   UNL A   1      34.833  25.274  25.797  1.00  0.00    -0.269 OA
ATOM     20  C   UNL A   1      38.639  23.294  26.252  1.00  0.00     0.001 A 
ENDBRANCH   8  10
BRANCH   8  21
ATOM     21  C   UNL A   1      31.663  22.178  24.961  1.00  0.00     0.420 C 
ATOM     22  F   UNL A   1      31.964  21.124  25.766  1.00  0.00    -0.168 F 
ATOM     23  F   UNL A   1      30.381  22.511  25.282  1.00  0.00    -0.168 F 
ATOM     24  F   UNL A   1      31.631  21.712  23.694  1.00  0.00    -0.168 F 
ENDBRANCH   8  21
ENDBRANCH   5   8
ENDBRANCH   3   4
ENDBRANCH   2   3
ENDBRANCH   1   2
BRANCH   1  25
ATOM     25  C   UNL A   1      32.708  29.848  26.131  1.00  0.00     0.116 C 
BRANCH  25  26
ATOM     26  N   UNL A   1      32.467  31.208  26.599  1.00  0.00    -0.352 N 
ATOM     27  C   UNL A   1      33.268  32.041  27.346  1.00  0.00     0.251 C 
ATOM     28  H   UNL A   1      31.597  31.589  26.341  1.00  0.00     0.163 HD
ATOM     29  O   UNL A   1      32.867  33.143  27.705  1.00  0.00    -0.269 OA
BRANCH  27  30
ATOM     30  C   UNL A   1      34.606  31.579  27.765  1.00  0.00     0.039 A 
ATOM     31  C   UNL A   1      35.632  32.517  27.895  1.00  0.00     0.014 A 
ATOM     32  C   UNL A   1      34.823  30.240  28.097  1.00  0.00     0.014 A 
ATOM     33  C   UNL A   1      36.840  32.138  28.485  1.00  0.00     0.010 A 
ATOM     34  C   UNL A   1      35.994  29.884  28.757  1.00  0.00     0.010 A 
ATOM     35  C   UNL A   1      37.001  30.835  28.984  1.00  0.00    -0.014 A 
BRANCH  35  36
ATOM     36  C   UNL A   1      38.184  30.454  29.797  1.00  0.00     0.031 A 
ATOM     37  C   UNL A   1      39.198  29.494  29.249  1.00  0.00     0.074 A 
ATOM     38  C   UNL A   1      38.284  30.890  31.067  1.00  0.00     0.049 A 
ATOM     39  N   UNL A   1      40.215  28.931  29.850  1.00  0.00    -0.248 NA
ATOM     40  C   UNL A   1      39.027  29.088  27.845  1.00  0.00     0.031 C 
ATOM     41  C   UNL A   1      37.340  31.791  31.733  1.00  0.00     0.029 A 
ATOM     42  N   UNL A   1      39.219  30.618  32.037  1.00  0.00    -0.354 N 
ATOM     43  C   UNL A   1      40.792  28.093  28.906  1.00  0.00     0.074 A 
ATOM     44  C   UNL A   1      39.986  28.184  27.708  1.00  0.00     0.031 C 
ATOM     45  C   UNL A   1      37.753  32.013  32.990  1.00  0.00     0.029 A 
ATOM     46  C   UNL A   1      38.963  31.237  33.237  1.00  0.00     0.049 A 
ATOM     47  H   UNL A   1      39.997  30.036  31.886  1.00  0.00     0.167 HD
ATOM     48  C   UNL A   1      41.907  27.332  29.024  1.00  0.00     0.037 A 
ATOM     49  C   UNL A   1      39.622  31.170  34.410  1.00  0.00     0.037 A 
ATOM     50  C   UNL A   1      42.724  27.266  30.207  1.00  0.00     0.049 A 
ATOM     51  C   UNL A   1      40.843  30.300  34.520  1.00  0.00     0.074 A 
ATOM     52  C   UNL A   1      43.910  26.581  30.398  1.00  0.00     0.029 A 
ATOM     53  N   UNL A   1      42.435  27.910  31.401  1.00  0.00    -0.354 N 
ATOM     54  N   UNL A   1      41.414  29.557  33.604  1.00  0.00    -0.248 NA
ATOM     55  C   UNL A   1      41.507  30.253  35.831  1.00  0.00     0.031 C 
ATOM     56  C   UNL A   1      44.320  26.780  31.721  1.00  0.00     0.029 A 
ATOM     57  C   UNL A   1      43.409  27.619  32.342  1.00  0.00     0.049 A 
ATOM     58  H   UNL A   1      41.653  28.489  31.557  1.00  0.00     0.167 HD
ATOM     59  C   UNL A   1      42.513  28.972  34.217  1.00  0.00     0.074 A 
ATOM     60  C   UNL A   1      42.536  29.455  35.583  1.00  0.00     0.031 C 
ATOM     61  C   UNL A   1      43.419  28.112  33.696  1.00  0.00     0.037 A 
BRANCH  48  62
ATOM     62  C   UNL A   1      42.310  26.515  27.834  1.00  0.00     0.064 A 
ATOM     63  C   UNL A   1      43.186  27.019  26.861  1.00  0.00     0.173 A 
ATOM     64  C   UNL A   1      41.833  25.205  27.674  1.00  0.00     0.173 A 
ATOM     65  F   UNL A   1      43.659  28.270  26.962  1.00  0.00    -0.203 F 
ATOM     66  C   UNL A   1      43.546  26.253  25.755  1.00  0.00     0.198 A 
ATOM     67  C   UNL A   1      42.217  24.432  26.581  1.00  0.00     0.198 A 
ATOM     68  F   UNL A   1      40.997  24.674  28.578  1.00  0.00    -0.203 F 
ATOM     69  F   UNL A   1      44.345  26.774  24.813  1.00  0.00    -0.200 F 
ATOM     70  C   UNL A   1      43.067  24.959  25.620  1.00  0.00     0.200 A 
ATOM     71  F   UNL A   1      41.761  23.178  26.456  1.00  0.00    -0.200 F 
ATOM     72  F   UNL A   1      43.416  24.222  24.556  1.00  0.00    -0.200 F 
ENDBRANCH  48  62
BRANCH  49  73
ATOM     73  C   UNL A   1      39.151  31.968  35.571  1.00  0.00     0.064 A 
ATOM     74  C   UNL A   1      39.518  33.313  35.709  1.00  0.00     0.173 A 
ATOM     75  C   UNL A   1      38.330  31.409  36.561  1.00  0.00     0.173 A 
ATOM     76  F   UNL A   1      40.321  33.884  34.799  1.00  0.00    -0.203 F 
ATOM     77  C   UNL A   1      39.091  34.067  36.800  1.00  0.00     0.198 A 
ATOM     78  C   UNL A   1      37.885  32.171  37.639  1.00  0.00     0.198 A 
ATOM     79  F   UNL A   1      37.950  30.126  36.473  1.00  0.00    -0.203 F 
ATOM     80  F   UNL A   1      39.488  35.341  36.927  1.00  0.00    -0.200 F 
ATOM     81  C   UNL A   1      38.271  33.497  37.761  1.00  0.00     0.200 A 
ATOM     82  F   UNL A   1      37.083  31.620  38.561  1.00  0.00    -0.200 F 
ATOM     83  F   UNL A   1      37.857  34.224  38.808  1.00  0.00    -0.200 F 
ENDBRANCH  49  73
BRANCH  61  84
ATOM     84  C   UNL A   1      44.528  27.652  34.594  1.00  0.00     0.064 A 
ATOM     85  C   UNL A   1      45.715  28.386  34.724  1.00  0.00     0.173 A 
ATOM     86  C   UNL A   1      44.379  26.493  35.371  1.00  0.00     0.173 A 
ATOM     87  F   UNL A   1      45.910  29.491  33.989  1.00  0.00    -0.203 F 
ATOM     88  C   UNL A   1      46.720  27.969  35.593  1.00  0.00     0.198 A 
ATOM     89  C   UNL A   1      45.376  26.093  36.255  1.00  0.00     0.198 A 
ATOM     90  F   UNL A   1      43.260  25.759  35.282  1.00  0.00    -0.203 F 
ATOM     91  F   UNL A   1      47.861  28.667  35.678  1.00  0.00    -0.200 F 
ATOM     92  C   UNL A   1      46.547  26.828  36.362  1.00  0.00     0.200 A 
ATOM     93  F   UNL A   1      45.202  24.996  37.006  1.00  0.00    -0.200 F 
ATOM     94  F   UNL A   1      47.511  26.435  37.206  1.00  0.00    -0.200 F 
ENDBRANCH  61  84
ENDBRANCH  35  36
ENDBRANCH  27  30
ENDBRANCH  25  26
ENDBRANCH   1  25
TORSDOF 13
ENDMDL
MODEL 3
REMARK VINA RESULT:     -12.7      4.684      9.794
REMARK SMILES C=C1c2ccccc2C(=O)N1[C@](C)(C(=O)NCCCCNC(=O)c1ccc(-c2c3nc(c(-c4c(F)c(F)c(F)c(F)c4F)c4ccc([nH]4)c(-c4c(F)c(F)c(F)c(F)c4F)c4nc(c(-c5c(F)c(F)c(F)c(F)c5F)c5ccc2[nH]5)C=C4)C=C3)cc1)C(F)(F)F
REMARK SMILES IDX 19 1 18 2 17 3 16 4 14 5 15 6 12 8 13 9 11 10 1 11 2 12 3 13
REMARK SMILES IDX 4 14 8 15 9 16 5 17 7 18 10 19 6 20 87 21 88 22 89 23 90 24
REMARK SMILES IDX 20 25 21 26 22 27 23 29 24 30 25 31 86 32 26 33 85 34 27 35
REMARK SMILES IDX 28 36 29 37 79 38 30 39 84 40 78 41 80 42 31 43 83 44 77 45
REMARK SMILES IDX 76 46 32 48 64 49 44 50 63 51 45 52 48 53 62 54 81 55 46 56
REMARK SMILES IDX 47 57 61 59 82 60 49 61 33 62 34 63 42 64 35 65 36 66 40 67
REMARK SMILES IDX 43 68 37 69 38 70 41 71 39 72 65 73 66 74 74 75 67 76 68 77
REMARK SMILES IDX 72 78 75 79 69 80 70 81 73 82 71 83 50 84 51 85 59 86 52 87
REMARK SMILES IDX 53 88 57 89 60 90 54 91 55 92 58 93 56 94
REMARK H PARENT 16 7 21 28 80 47 48 58
REMARK Flexibility Score: inf
ROOT
ATOM      1  C   UNL A   1      37.765  20.850  25.078  1.00  0.00     0.023 C 
ENDROOT
BRANCH   1   2
ATOM      2  C   UNL A   1      37.260  22.094  24.351  1.00  0.00     0.023 C 
BRANCH   2   3
ATOM      3  C   UNL A   1      35.814  22.477  24.628  1.00  0.00     0.116 C 
BRANCH   3   4
ATOM      4  N   UNL A   1      35.118  23.096  23.516  1.00  0.00    -0.354 N 
ATOM      5  C   UNL A   1      33.977  23.853  23.502  1.00  0.00     0.255 C 
ATOM      6  O   UNL A   1      33.969  24.716  22.612  1.00  0.00    -0.272 OA
ATOM      7  H   UNL A   1      35.528  22.947  22.633  1.00  0.00     0.163 HD
BRANCH   5   8
ATOM      8  C   UNL A   1      32.801  23.750  24.529  1.00  0.00     0.219 C 
ATOM      9  C   UNL A   1      32.906  22.577  25.525  1.00  0.00     0.056 C 
BRANCH   8  10
ATOM     10  N   UNL A   1      32.674  25.064  25.248  1.00  0.00    -0.285 N 
ATOM     11  C   UNL A   1      30.264  25.385  25.790  1.00  0.00     0.038 C 
ATOM     12  C   UNL A   1      31.549  25.740  25.732  1.00  0.00     0.046 C 
ATOM     13  C   UNL A   1      32.012  27.026  26.283  1.00  0.00     0.010 A 
ATOM     14  C   UNL A   1      31.367  28.120  26.841  1.00  0.00     0.011 A 
ATOM     15  C   UNL A   1      33.393  27.056  26.165  1.00  0.00     0.049 A 
ATOM     16  C   UNL A   1      33.819  25.795  25.581  1.00  0.00     0.260 C 
ATOM     17  C   UNL A   1      32.136  29.223  27.247  1.00  0.00     0.001 A 
ATOM     18  C   UNL A   1      34.181  28.129  26.549  1.00  0.00     0.014 A 
ATOM     19  O   UNL A   1      34.997  25.511  25.476  1.00  0.00    -0.269 OA
ATOM     20  C   UNL A   1      33.533  29.231  27.095  1.00  0.00     0.001 A 
ENDBRANCH   8  10
BRANCH   8  21
ATOM     21  C   UNL A   1      31.648  23.331  23.572  1.00  0.00     0.420 C 
ATOM     22  F   UNL A   1      32.058  22.376  22.695  1.00  0.00    -0.168 F 
ATOM     23  F   UNL A   1      30.619  22.760  24.259  1.00  0.00    -0.168 F 
ATOM     24  F   UNL A   1      31.113  24.335  22.844  1.00  0.00    -0.168 F 
ENDBRANCH   8  21
ENDBRANCH   5   8
ENDBRANCH   3   4
ENDBRANCH   2   3
ENDBRANCH   1   2
BRANCH   1  25
ATOM     25  C   UNL A   1      39.111  20.976  25.788  1.00  0.00     0.116 C 
BRANCH  25  26
ATOM     26  N   UNL A   1      39.925  19.767  25.745  1.00  0.00    -0.352 N 
ATOM     27  C   UNL A   1      41.259  19.588  26.034  1.00  0.00     0.251 C 
ATOM     28  H   UNL A   1      39.448  18.952  25.468  1.00  0.00     0.163 HD
ATOM     29  O   UNL A   1      41.795  18.496  25.878  1.00  0.00    -0.269 OA
BRANCH  27  30
ATOM     30  C   UNL A   1      42.065  20.739  26.486  1.00  0.00     0.039 A 
ATOM     31  C   UNL A   1      42.658  21.565  25.528  1.00  0.00     0.014 A 
ATOM     32  C   UNL A   1      42.170  21.042  27.845  1.00  0.00     0.014 A 
ATOM     33  C   UNL A   1      43.245  22.767  25.925  1.00  0.00     0.010 A 
ATOM     34  C   UNL A   1      42.682  22.276  28.230  1.00  0.00     0.010 A 
ATOM     35  C   UNL A   1      43.197  23.163  27.272  1.00  0.00    -0.014 A 
BRANCH  35  36
ATOM     36  C   UNL A   1      43.624  24.519  27.700  1.00  0.00     0.031 A 
ATOM     37  C   UNL A   1      42.599  25.561  28.040  1.00  0.00     0.074 A 
ATOM     38  C   UNL A   1      44.932  24.842  27.675  1.00  0.00     0.049 A 
ATOM     39  N   UNL A   1      42.765  26.834  28.295  1.00  0.00    -0.248 NA
ATOM     40  C   UNL A   1      41.196  25.118  28.068  1.00  0.00     0.031 C 
ATOM     41  C   UNL A   1      46.024  23.933  27.318  1.00  0.00     0.029 A 
ATOM     42  N   UNL A   1      45.566  26.032  27.938  1.00  0.00    -0.354 N 
ATOM     43  C   UNL A   1      41.490  27.346  28.494  1.00  0.00     0.074 A 
ATOM     44  C   UNL A   1      40.559  26.259  28.284  1.00  0.00     0.031 C 
ATOM     45  C   UNL A   1      47.191  24.589  27.404  1.00  0.00     0.029 A 
ATOM     46  C   UNL A   1      46.930  25.976  27.776  1.00  0.00     0.049 A 
ATOM     47  H   UNL A   1      45.090  26.847  28.215  1.00  0.00     0.167 HD
ATOM     48  C   UNL A   1      41.133  28.606  28.840  1.00  0.00     0.037 A 
ATOM     49  C   UNL A   1      47.863  26.940  27.897  1.00  0.00     0.037 A 
ATOM     50  C   UNL A   1      42.063  29.678  29.077  1.00  0.00     0.049 A 
ATOM     51  C   UNL A   1      47.436  28.335  28.259  1.00  0.00     0.074 A 
ATOM     52  C   UNL A   1      41.802  30.968  29.501  1.00  0.00     0.029 A 
ATOM     53  N   UNL A   1      43.436  29.582  28.907  1.00  0.00    -0.354 N 
ATOM     54  N   UNL A   1      46.234  28.795  28.502  1.00  0.00    -0.248 NA
ATOM     55  C   UNL A   1      48.497  29.348  28.357  1.00  0.00     0.031 C 
ATOM     56  C   UNL A   1      43.014  31.665  29.552  1.00  0.00     0.029 A 
ATOM     57  C   UNL A   1      44.034  30.798  29.195  1.00  0.00     0.049 A 
ATOM     58  H   UNL A   1      43.915  28.769  28.624  1.00  0.00     0.167 HD
ATOM     59  C   UNL A   1      46.393  30.141  28.801  1.00  0.00     0.074 A 
ATOM     60  C   UNL A   1      47.811  30.422  28.721  1.00  0.00     0.031 C 
ATOM     61  C   UNL A   1      45.448  31.060  29.114  1.00  0.00     0.037 A 
BRANCH  48  62
ATOM     62  C   UNL A   1      39.668  28.888  28.990  1.00  0.00     0.064 A 
ATOM     63  C   UNL A   1      39.021  28.764  30.229  1.00  0.00     0.173 A 
ATOM     64  C   UNL A   1      38.906  29.306  27.889  1.00  0.00     0.173 A 
ATOM     65  F   UNL A   1      39.703  28.356  31.309  1.00  0.00    -0.203 F 
ATOM     66  C   UNL A   1      37.659  29.021  30.354  1.00  0.00     0.198 A 
ATOM     67  C   UNL A   1      37.548  29.588  28.024  1.00  0.00     0.198 A 
ATOM     68  F   UNL A   1      39.476  29.444  26.683  1.00  0.00    -0.203 F 
ATOM     69  F   UNL A   1      37.052  28.849  31.538  1.00  0.00    -0.200 F 
ATOM     70  C   UNL A   1      36.925  29.438  29.254  1.00  0.00     0.200 A 
ATOM     71  F   UNL A   1      36.843  30.001  26.962  1.00  0.00    -0.200 F 
ATOM     72  F   UNL A   1      35.614  29.687  29.377  1.00  0.00    -0.200 F 
ENDBRANCH  48  62
BRANCH  49  73
ATOM     73  C   UNL A   1      49.297  26.614  27.692  1.00  0.00     0.064 A 
ATOM     74  C   UNL A   1      50.142  26.390  28.787  1.00  0.00     0.173 A 
ATOM     75  C   UNL A   1      49.852  26.519  26.408  1.00  0.00     0.173 A 
ATOM     76  F   UNL A   1      49.661  26.493  30.035  1.00  0.00    -0.203 F 
ATOM     77  C   UNL A   1      51.491  26.095  28.607  1.00  0.00     0.198 A 
ATOM     78  C   UNL A   1      51.196  26.200  26.228  1.00  0.00     0.198 A 
ATOM     79  F   UNL A   1      49.085  26.722  25.327  1.00  0.00    -0.203 F 
ATOM     80  F   UNL A   1      52.285  25.922  29.673  1.00  0.00    -0.200 F 
ATOM     81  C   UNL A   1      52.017  25.994  27.327  1.00  0.00     0.200 A 
ATOM     82  F   UNL A   1      51.699  26.093  24.990  1.00  0.00    -0.200 F 
ATOM     83  F   UNL A   1      53.314  25.706  27.154  1.00  0.00    -0.200 F 
ENDBRANCH  49  73
BRANCH  61  84
ATOM     84  C   UNL A   1      45.916  32.452  29.415  1.00  0.00     0.064 A 
ATOM     85  C   UNL A   1      46.310  32.828  30.706  1.00  0.00     0.173 A 
ATOM     86  C   UNL A   1      46.018  33.404  28.389  1.00  0.00     0.173 A 
ATOM     87  F   UNL A   1      46.213  31.957  31.722  1.00  0.00    -0.203 F 
ATOM     88  C   UNL A   1      46.780  34.113  30.963  1.00  0.00     0.198 A 
ATOM     89  C   UNL A   1      46.510  34.680  28.646  1.00  0.00     0.198 A 
ATOM     90  F   UNL A   1      45.655  33.091  27.136  1.00  0.00    -0.203 F 
ATOM     91  F   UNL A   1      47.120  34.462  32.211  1.00  0.00    -0.200 F 
ATOM     92  C   UNL A   1      46.887  35.035  29.932  1.00  0.00     0.200 A 
ATOM     93  F   UNL A   1      46.623  35.566  27.646  1.00  0.00    -0.200 F 
ATOM     94  F   UNL A   1      47.350  36.268  30.180  1.00  0.00    -0.200 F 
ENDBRANCH  61  84
ENDBRANCH  35  36
ENDBRANCH  27  30
ENDBRANCH  25  26
ENDBRANCH   1  25
TORSDOF 13
ENDMDL
