MODEL 1
REMARK VINA RESULT:     -12.8      0.000      0.000
REMARK SMILES Cc1ccc(S(=O)(=O)n2cc(C(=O)C(=O)NCC(=O)N[C@@H](Cc3c[nH]c4ccccc34)C(=O)NCCCCNC(=O)c3ccc(-c4c5nc(c(-c6c(F)c(F)c(F)c(F)c6F)c6ccc([nH]6)c(-c6c(F)c(F)c(F)c(F)c6F)c6nc(c(-c7c(F)c(F)c(F)c(F)c7F)c7ccc4[nH]7)C=C6)C=C5)cc3)c3ccccc32)cc1
REMARK SMILES IDX 32 1 33 2 34 3 21 5 20 6 18 7 19 8 17 10 16 11 14 12 15 13
REMARK SMILES IDX 12 15 13 16 11 17 9 18 10 19 110 20 105 21 109 22 106 23
REMARK SMILES IDX 108 24 107 25 6 26 7 27 8 28 5 29 1 30 2 31 3 32 112 33 4 34
REMARK SMILES IDX 111 35 22 36 23 37 24 38 31 39 25 40 26 41 30 42 27 44 29 45
REMARK SMILES IDX 28 46 35 47 36 48 37 49 38 50 39 51 40 52 41 54 42 55 43 56
REMARK SMILES IDX 104 57 44 58 103 59 45 60 46 61 47 62 97 63 48 64 102 65
REMARK SMILES IDX 96 66 98 67 49 68 101 69 95 70 94 71 50 73 82 74 62 75 81 76
REMARK SMILES IDX 63 77 66 78 80 79 99 80 64 81 65 82 79 84 100 85 67 86 51 87
REMARK SMILES IDX 52 88 60 89 53 90 54 91 58 92 61 93 55 94 56 95 59 96 57 97
REMARK SMILES IDX 83 98 84 99 92 100 85 101 86 102 90 103 93 104 87 105 88 106
REMARK SMILES IDX 91 107 89 108 68 109 69 110 77 111 70 112 71 113 75 114
REMARK SMILES IDX 78 115 72 116 73 117 76 118 74 119
REMARK H PARENT 34 4 20 9 16 14 25 43 39 53 98 72 66 83
REMARK Flexibility Score: inf
ROOT
ATOM      1  C   UNL A   1      42.321  23.491  28.453  1.00  0.00     0.242 C 
ATOM      2  O   UNL A   1      42.759  22.521  29.084  1.00  0.00    -0.273 OA
ATOM      3  N   UNL A   1      42.683  24.721  28.920  1.00  0.00    -0.354 N 
ATOM      4  H   UNL A   1      42.850  24.760  29.890  1.00  0.00     0.163 HD
ENDROOT
BRANCH   1   5
ATOM      5  C   UNL A   1      41.497  23.241  27.164  1.00  0.00     0.175 C 
BRANCH   5   6
ATOM      6  N   UNL A   1      40.472  24.251  26.885  1.00  0.00    -0.342 N 
ATOM      7  C   UNL A   1      39.128  24.049  26.740  1.00  0.00     0.240 C 
ATOM      8  O   UNL A   1      38.373  25.012  26.877  1.00  0.00    -0.273 OA
ATOM      9  H   UNL A   1      40.788  25.178  26.790  1.00  0.00     0.164 HD
BRANCH   7  10
ATOM     10  C   UNL A   1      38.598  22.629  26.467  1.00  0.00     0.216 C 
BRANCH  10  11
ATOM     11  N   UNL A   1      38.280  22.480  25.042  1.00  0.00    -0.340 N 
ATOM     12  C   UNL A   1      37.043  22.470  24.422  1.00  0.00     0.292 C 
ATOM     13  O   UNL A   1      36.940  22.201  23.231  1.00  0.00    -0.265 OA
ATOM     14  H   UNL A   1      39.056  22.372  24.444  1.00  0.00     0.164 HD
BRANCH  12  15
ATOM     15  C   UNL A   1      35.791  22.785  25.246  1.00  0.00     0.252 C 
ATOM     16  O   UNL A   1      35.410  21.900  26.013  1.00  0.00    -0.283 OA
BRANCH  15  17
ATOM     17  C   UNL A   1      34.996  23.997  24.999  1.00  0.00     0.054 A 
ATOM     18  N   UNL A   1      33.974  26.014  25.077  1.00  0.00    -0.240 N 
ATOM     19  C   UNL A   1      34.778  25.130  25.794  1.00  0.00     0.117 A 
ATOM     20  C   UNL A   1      33.870  25.523  23.764  1.00  0.00     0.065 A 
ATOM     21  C   UNL A   1      34.182  24.169  23.838  1.00  0.00     0.012 A 
ATOM     22  C   UNL A   1      33.256  26.077  22.624  1.00  0.00     0.028 A 
ATOM     23  C   UNL A   1      33.703  23.313  22.823  1.00  0.00     0.011 A 
ATOM     24  C   UNL A   1      32.723  25.204  21.678  1.00  0.00     0.002 A 
ATOM     25  C   UNL A   1      32.908  23.834  21.797  1.00  0.00     0.001 A 
BRANCH  18  26
ATOM     26  S   UNL A   1      32.465  26.711  25.600  1.00  0.00     0.268 S 
ATOM     27  O   UNL A   1      32.886  27.949  26.237  1.00  0.00    -0.201 OA
ATOM     28  O   UNL A   1      31.877  25.627  26.375  1.00  0.00    -0.201 OA
BRANCH  26  29
ATOM     29  C   UNL A   1      31.111  27.174  24.586  1.00  0.00     0.088 A 
ATOM     30  C   UNL A   1      28.045  29.347  22.456  1.00  0.00     0.044 C 
ATOM     31  C   UNL A   1      29.112  28.544  23.146  1.00  0.00    -0.051 A 
ATOM     32  C   UNL A   1      30.278  29.209  23.493  1.00  0.00     0.005 A 
ATOM     33  C   UNL A   1      28.966  27.185  23.503  1.00  0.00     0.005 A 
ATOM     34  C   UNL A   1      31.258  28.527  24.188  1.00  0.00     0.022 A 
ATOM     35  C   UNL A   1      29.963  26.486  24.233  1.00  0.00     0.022 A 
ENDBRANCH  26  29
ENDBRANCH  18  26
ENDBRANCH  15  17
ENDBRANCH  12  15
ENDBRANCH  10  11
ENDBRANCH   7  10
ENDBRANCH   5   6
BRANCH   5  36
ATOM     36  C   UNL A   1      42.322  22.834  25.928  1.00  0.00     0.072 C 
BRANCH  36  37
ATOM     37  C   UNL A   1      42.602  21.374  25.823  1.00  0.00    -0.020 A 
ATOM     38  C   UNL A   1      41.697  20.373  26.113  1.00  0.00     0.087 A 
ATOM     39  C   UNL A   1      43.811  20.732  25.411  1.00  0.00     0.003 A 
ATOM     40  N   UNL A   1      42.363  19.183  26.093  1.00  0.00    -0.361 N 
ATOM     41  C   UNL A   1      43.662  19.373  25.691  1.00  0.00     0.046 A 
ATOM     42  C   UNL A   1      45.034  21.172  24.862  1.00  0.00     0.010 A 
ATOM     43  H   UNL A   1      41.968  18.313  26.332  1.00  0.00     0.166 HD
ATOM     44  C   UNL A   1      44.706  18.455  25.548  1.00  0.00     0.026 A 
ATOM     45  C   UNL A   1      46.062  20.248  24.635  1.00  0.00     0.001 A 
ATOM     46  C   UNL A   1      45.907  18.914  25.000  1.00  0.00     0.002 A 
ENDBRANCH  36  37
ENDBRANCH   5  36
ENDBRANCH   1   5
BRANCH   3  47
ATOM     47  C   UNL A   1      42.862  25.984  28.223  1.00  0.00     0.116 C 
BRANCH  47  48
ATOM     48  C   UNL A   1      43.785  25.908  27.007  1.00  0.00     0.023 C 
BRANCH  48  49
ATOM     49  C   UNL A   1      43.276  26.614  25.746  1.00  0.00     0.023 C 
BRANCH  49  50
ATOM     50  C   UNL A   1      43.072  28.120  25.877  1.00  0.00     0.116 C 
BRANCH  50  51
ATOM     51  N   UNL A   1      41.694  28.573  25.798  1.00  0.00    -0.352 N 
ATOM     52  C   UNL A   1      40.798  28.924  26.798  1.00  0.00     0.251 C 
ATOM     53  H   UNL A   1      41.336  28.641  24.884  1.00  0.00     0.163 HD
ATOM     54  O   UNL A   1      39.633  29.121  26.496  1.00  0.00    -0.269 OA
BRANCH  52  55
ATOM     55  C   UNL A   1      41.251  29.219  28.191  1.00  0.00     0.039 A 
ATOM     56  C   UNL A   1      40.512  28.661  29.251  1.00  0.00     0.014 A 
ATOM     57  C   UNL A   1      42.238  30.152  28.480  1.00  0.00     0.014 A 
ATOM     58  C   UNL A   1      40.589  29.218  30.528  1.00  0.00     0.010 A 
ATOM     59  C   UNL A   1      42.235  30.783  29.701  1.00  0.00     0.010 A 
ATOM     60  C   UNL A   1      41.360  30.358  30.703  1.00  0.00    -0.014 A 
BRANCH  60  61
ATOM     61  C   UNL A   1      41.251  31.274  31.827  1.00  0.00     0.031 A 
ATOM     62  C   UNL A   1      42.123  31.109  33.008  1.00  0.00     0.074 A 
ATOM     63  C   UNL A   1      40.531  32.398  31.626  1.00  0.00     0.049 A 
ATOM     64  N   UNL A   1      41.982  31.758  34.110  1.00  0.00    -0.248 NA
ATOM     65  C   UNL A   1      43.221  30.150  33.043  1.00  0.00     0.031 C 
ATOM     66  C   UNL A   1      40.637  33.669  32.333  1.00  0.00     0.029 A 
ATOM     67  N   UNL A   1      39.413  32.549  30.797  1.00  0.00    -0.354 N 
ATOM     68  C   UNL A   1      43.073  31.489  34.908  1.00  0.00     0.074 A 
ATOM     69  C   UNL A   1      43.798  30.454  34.210  1.00  0.00     0.031 C 
ATOM     70  C   UNL A   1      39.529  34.390  32.099  1.00  0.00     0.029 A 
ATOM     71  C   UNL A   1      38.595  33.528  31.392  1.00  0.00     0.049 A 
ATOM     72  H   UNL A   1      39.233  32.065  29.959  1.00  0.00     0.167 HD
ATOM     73  C   UNL A   1      43.285  32.256  36.017  1.00  0.00     0.037 A 
ATOM     74  C   UNL A   1      37.358  33.192  31.862  1.00  0.00     0.037 A 
ATOM     75  C   UNL A   1      42.197  33.214  36.188  1.00  0.00     0.049 A 
ATOM     76  C   UNL A   1      37.217  33.366  33.352  1.00  0.00     0.074 A 
ATOM     77  C   UNL A   1      42.047  34.531  35.784  1.00  0.00     0.029 A 
ATOM     78  N   UNL A   1      40.930  32.756  36.530  1.00  0.00    -0.354 N 
ATOM     79  N   UNL A   1      38.221  33.360  34.184  1.00  0.00    -0.248 NA
ATOM     80  C   UNL A   1      35.931  33.545  34.016  1.00  0.00     0.031 C 
ATOM     81  C   UNL A   1      40.664  34.841  35.815  1.00  0.00     0.029 A 
ATOM     82  C   UNL A   1      39.981  33.726  36.271  1.00  0.00     0.049 A 
ATOM     83  H   UNL A   1      40.736  31.866  36.904  1.00  0.00     0.167 HD
ATOM     84  C   UNL A   1      37.748  33.507  35.459  1.00  0.00     0.074 A 
ATOM     85  C   UNL A   1      36.311  33.633  35.302  1.00  0.00     0.031 C 
ATOM     86  C   UNL A   1      38.573  33.489  36.545  1.00  0.00     0.037 A 
BRANCH  73  87
ATOM     87  C   UNL A   1      44.584  32.328  36.791  1.00  0.00     0.064 A 
ATOM     88  C   UNL A   1      44.825  31.451  37.872  1.00  0.00     0.173 A 
ATOM     89  C   UNL A   1      45.612  33.261  36.556  1.00  0.00     0.173 A 
ATOM     90  F   UNL A   1      43.987  30.446  38.159  1.00  0.00    -0.203 F 
ATOM     91  C   UNL A   1      45.939  31.571  38.709  1.00  0.00     0.198 A 
ATOM     92  C   UNL A   1      46.699  33.417  37.424  1.00  0.00     0.198 A 
ATOM     93  F   UNL A   1      45.633  34.010  35.449  1.00  0.00    -0.203 F 
ATOM     94  F   UNL A   1      46.107  30.708  39.722  1.00  0.00    -0.200 F 
ATOM     95  C   UNL A   1      46.858  32.578  38.507  1.00  0.00     0.200 A 
ATOM     96  F   UNL A   1      47.597  34.387  37.195  1.00  0.00    -0.200 F 
ATOM     97  F   UNL A   1      47.904  32.722  39.332  1.00  0.00    -0.200 F 
ENDBRANCH  73  87
BRANCH  74  98
ATOM     98  C   UNL A   1      36.699  32.112  31.076  1.00  0.00     0.064 A 
ATOM     99  C   UNL A   1      36.079  32.463  29.866  1.00  0.00     0.173 A 
ATOM    100  C   UNL A   1      37.036  30.765  31.262  1.00  0.00     0.173 A 
ATOM    101  F   UNL A   1      35.722  33.738  29.644  1.00  0.00    -0.203 F 
ATOM    102  C   UNL A   1      35.937  31.541  28.829  1.00  0.00     0.198 A 
ATOM    103  C   UNL A   1      36.875  29.839  30.228  1.00  0.00     0.198 A 
ATOM    104  F   UNL A   1      37.646  30.369  32.389  1.00  0.00    -0.203 F 
ATOM    105  F   UNL A   1      35.472  31.943  27.638  1.00  0.00    -0.200 F 
ATOM    106  C   UNL A   1      36.367  30.237  29.000  1.00  0.00     0.200 A 
ATOM    107  F   UNL A   1      37.313  28.581  30.386  1.00  0.00    -0.200 F 
ATOM    108  F   UNL A   1      36.337  29.378  27.972  1.00  0.00    -0.200 F 
ENDBRANCH  74  98
BRANCH  86 109
ATOM    109  C   UNL A   1      38.120  33.323  37.972  1.00  0.00     0.064 A 
ATOM    110  C   UNL A   1      37.585  32.126  38.477  1.00  0.00     0.173 A 
ATOM    111  C   UNL A   1      38.382  34.331  38.928  1.00  0.00     0.173 A 
ATOM    112  F   UNL A   1      37.402  31.057  37.691  1.00  0.00    -0.203 F 
ATOM    113  C   UNL A   1      37.278  31.970  39.829  1.00  0.00     0.198 A 
ATOM    114  C   UNL A   1      38.132  34.148  40.287  1.00  0.00     0.198 A 
ATOM    115  F   UNL A   1      38.919  35.508  38.576  1.00  0.00    -0.203 F 
ATOM    116  F   UNL A   1      36.732  30.822  40.255  1.00  0.00    -0.200 F 
ATOM    117  C   UNL A   1      37.565  32.973  40.736  1.00  0.00     0.200 A 
ATOM    118  F   UNL A   1      38.468  35.108  41.161  1.00  0.00    -0.200 F 
ATOM    119  F   UNL A   1      37.317  32.798  42.040  1.00  0.00    -0.200 F 
ENDBRANCH  86 109
ENDBRANCH  60  61
ENDBRANCH  52  55
ENDBRANCH  50  51
ENDBRANCH  49  50
ENDBRANCH  48  49
ENDBRANCH  47  48
ENDBRANCH   3  47
TORSDOF 20
ENDMDL
MODEL 2
REMARK VINA RESULT:     -12.5      5.347     10.388
REMARK SMILES Cc1ccc(S(=O)(=O)n2cc(C(=O)C(=O)NCC(=O)N[C@@H](Cc3c[nH]c4ccccc34)C(=O)NCCCCNC(=O)c3ccc(-c4c5nc(c(-c6c(F)c(F)c(F)c(F)c6F)c6ccc([nH]6)c(-c6c(F)c(F)c(F)c(F)c6F)c6nc(c(-c7c(F)c(F)c(F)c(F)c7F)c7ccc4[nH]7)C=C6)C=C5)cc3)c3ccccc32)cc1
REMARK SMILES IDX 32 1 33 2 34 3 21 5 20 6 18 7 19 8 17 10 16 11 14 12 15 13
REMARK SMILES IDX 12 15 13 16 11 17 9 18 10 19 110 20 105 21 109 22 106 23
REMARK SMILES IDX 108 24 107 25 6 26 7 27 8 28 5 29 1 30 2 31 3 32 112 33 4 34
REMARK SMILES IDX 111 35 22 36 23 37 24 38 31 39 25 40 26 41 30 42 27 44 29 45
REMARK SMILES IDX 28 46 35 47 36 48 37 49 38 50 39 51 40 52 41 54 42 55 43 56
REMARK SMILES IDX 104 57 44 58 103 59 45 60 46 61 47 62 97 63 48 64 102 65
REMARK SMILES IDX 96 66 98 67 49 68 101 69 95 70 94 71 50 73 82 74 62 75 81 76
REMARK SMILES IDX 63 77 66 78 80 79 99 80 64 81 65 82 79 84 100 85 67 86 51 87
REMARK SMILES IDX 52 88 60 89 53 90 54 91 58 92 61 93 55 94 56 95 59 96 57 97
REMARK SMILES IDX 83 98 84 99 92 100 85 101 86 102 90 103 93 104 87 105 88 106
REMARK SMILES IDX 91 107 89 108 68 109 69 110 77 111 70 112 71 113 75 114
REMARK SMILES IDX 78 115 72 116 73 117 76 118 74 119
REMARK H PARENT 34 4 20 9 16 14 25 43 39 53 98 72 66 83
REMARK Flexibility Score: inf
ROOT
ATOM      1  C   UNL A   1      37.448  29.696  30.801  1.00  0.00     0.242 C 
ATOM      2  O   UNL A   1      36.480  28.965  31.047  1.00  0.00    -0.273 OA
ATOM      3  N   UNL A   1      38.038  30.289  31.880  1.00  0.00    -0.354 N 
ATOM      4  H   UNL A   1      37.433  30.460  32.637  1.00  0.00     0.163 HD
ENDROOT
BRANCH   1   5
ATOM      5  C   UNL A   1      37.959  29.802  29.342  1.00  0.00     0.175 C 
BRANCH   5   6
ATOM      6  N   UNL A   1      37.351  30.877  28.555  1.00  0.00    -0.342 N 
ATOM      7  C   UNL A   1      36.151  30.849  27.900  1.00  0.00     0.240 C 
ATOM      8  O   UNL A   1      35.619  31.919  27.605  1.00  0.00    -0.273 OA
ATOM      9  H   UNL A   1      37.865  31.714  28.489  1.00  0.00     0.164 HD
BRANCH   7  10
ATOM     10  C   UNL A   1      35.480  29.495  27.604  1.00  0.00     0.216 C 
BRANCH  10  11
ATOM     11  N   UNL A   1      34.038  29.586  27.864  1.00  0.00    -0.340 N 
ATOM     12  C   UNL A   1      32.980  29.286  27.024  1.00  0.00     0.292 C 
ATOM     13  O   UNL A   1      31.827  29.545  27.349  1.00  0.00    -0.265 OA
ATOM     14  H   UNL A   1      33.789  29.906  28.762  1.00  0.00     0.164 HD
BRANCH  12  15
ATOM     15  C   UNL A   1      33.265  28.636  25.666  1.00  0.00     0.252 C 
ATOM     16  O   UNL A   1      33.303  29.397  24.699  1.00  0.00    -0.283 OA
BRANCH  15  17
ATOM     17  C   UNL A   1      33.308  27.175  25.510  1.00  0.00     0.054 A 
ATOM     18  N   UNL A   1      33.874  25.015  25.144  1.00  0.00    -0.240 N 
ATOM     19  C   UNL A   1      34.332  26.330  25.064  1.00  0.00     0.117 A 
ATOM     20  C   UNL A   1      32.651  25.034  25.835  1.00  0.00     0.065 A 
ATOM     21  C   UNL A   1      32.172  26.336  25.728  1.00  0.00     0.012 A 
ATOM     22  C   UNL A   1      31.823  23.978  26.263  1.00  0.00     0.028 A 
ATOM     23  C   UNL A   1      30.787  26.558  25.877  1.00  0.00     0.011 A 
ATOM     24  C   UNL A   1      30.450  24.205  26.323  1.00  0.00     0.002 A 
ATOM     25  C   UNL A   1      29.932  25.471  26.092  1.00  0.00     0.001 A 
BRANCH  18  26
ATOM     26  S   UNL A   1      33.841  23.841  23.855  1.00  0.00     0.268 S 
ATOM     27  O   UNL A   1      35.102  24.082  23.170  1.00  0.00    -0.201 OA
ATOM     28  O   UNL A   1      32.566  24.126  23.211  1.00  0.00    -0.201 OA
BRANCH  26  29
ATOM     29  C   UNL A   1      33.754  22.098  24.022  1.00  0.00     0.088 A 
ATOM     30  C   UNL A   1      32.445  17.986  24.212  1.00  0.00     0.044 C 
ATOM     31  C   UNL A   1      32.962  19.394  24.124  1.00  0.00    -0.051 A 
ATOM     32  C   UNL A   1      32.234  20.288  23.354  1.00  0.00     0.005 A 
ATOM     33  C   UNL A   1      34.100  19.858  24.822  1.00  0.00     0.005 A 
ATOM     34  C   UNL A   1      32.635  21.609  23.299  1.00  0.00     0.022 A 
ATOM     35  C   UNL A   1      34.505  21.219  24.782  1.00  0.00     0.022 A 
ENDBRANCH  26  29
ENDBRANCH  18  26
ENDBRANCH  15  17
ENDBRANCH  12  15
ENDBRANCH  10  11
ENDBRANCH   7  10
ENDBRANCH   5   6
BRANCH   5  36
ATOM     36  C   UNL A   1      39.488  29.695  29.175  1.00  0.00     0.072 C 
BRANCH  36  37
ATOM     37  C   UNL A   1      39.955  28.426  28.549  1.00  0.00    -0.020 A 
ATOM     38  C   UNL A   1      39.315  27.772  27.515  1.00  0.00     0.087 A 
ATOM     39  C   UNL A   1      41.118  27.659  28.868  1.00  0.00     0.003 A 
ATOM     40  N   UNL A   1      39.920  26.560  27.345  1.00  0.00    -0.361 N 
ATOM     41  C   UNL A   1      41.009  26.453  28.173  1.00  0.00     0.046 A 
ATOM     42  C   UNL A   1      42.237  27.849  29.705  1.00  0.00     0.010 A 
ATOM     43  H   UNL A   1      39.617  25.865  26.718  1.00  0.00     0.166 HD
ATOM     44  C   UNL A   1      41.902  25.394  28.356  1.00  0.00     0.026 A 
ATOM     45  C   UNL A   1      43.186  26.826  29.835  1.00  0.00     0.001 A 
ATOM     46  C   UNL A   1      43.004  25.607  29.189  1.00  0.00     0.002 A 
ENDBRANCH  36  37
ENDBRANCH   5  36
ENDBRANCH   1   5
BRANCH   3  47
ATOM     47  C   UNL A   1      39.413  30.712  32.093  1.00  0.00     0.116 C 
BRANCH  47  48
ATOM     48  C   UNL A   1      39.994  30.306  33.447  1.00  0.00     0.023 C 
BRANCH  48  49
ATOM     49  C   UNL A   1      41.248  31.071  33.883  1.00  0.00     0.023 C 
BRANCH  49  50
ATOM     50  C   UNL A   1      41.060  32.015  35.066  1.00  0.00     0.116 C 
BRANCH  50  51
ATOM     51  N   UNL A   1      39.740  32.606  35.191  1.00  0.00    -0.352 N 
ATOM     52  C   UNL A   1      39.191  33.731  34.594  1.00  0.00     0.251 C 
ATOM     53  H   UNL A   1      39.133  32.128  35.802  1.00  0.00     0.163 HD
ATOM     54  O   UNL A   1      38.103  34.126  34.979  1.00  0.00    -0.269 OA
BRANCH  52  55
ATOM     55  C   UNL A   1      39.817  34.370  33.397  1.00  0.00     0.039 A 
ATOM     56  C   UNL A   1      39.100  34.336  32.186  1.00  0.00     0.014 A 
ATOM     57  C   UNL A   1      41.129  34.822  33.386  1.00  0.00     0.014 A 
ATOM     58  C   UNL A   1      39.766  34.504  30.972  1.00  0.00     0.010 A 
ATOM     59  C   UNL A   1      41.818  34.872  32.197  1.00  0.00     0.010 A 
ATOM     60  C   UNL A   1      41.147  34.645  30.994  1.00  0.00    -0.014 A 
BRANCH  60  61
ATOM     61  C   UNL A   1      42.023  34.443  29.851  1.00  0.00     0.031 A 
ATOM     62  C   UNL A   1      42.610  33.114  29.590  1.00  0.00     0.074 A 
ATOM     63  C   UNL A   1      42.051  35.427  28.927  1.00  0.00     0.049 A 
ATOM     64  N   UNL A   1      43.523  32.883  28.712  1.00  0.00    -0.248 NA
ATOM     65  C   UNL A   1      42.227  31.926  30.344  1.00  0.00     0.031 C 
ATOM     66  C   UNL A   1      42.411  35.324  27.518  1.00  0.00     0.029 A 
ATOM     67  N   UNL A   1      41.889  36.800  29.148  1.00  0.00    -0.354 N 
ATOM     68  C   UNL A   1      43.689  31.518  28.616  1.00  0.00     0.074 A 
ATOM     69  C   UNL A   1      42.882  30.969  29.679  1.00  0.00     0.031 C 
ATOM     70  C   UNL A   1      42.666  36.553  27.042  1.00  0.00     0.029 A 
ATOM     71  C   UNL A   1      42.664  37.462  28.178  1.00  0.00     0.049 A 
ATOM     72  H   UNL A   1      41.339  37.222  29.847  1.00  0.00     0.167 HD
ATOM     73  C   UNL A   1      44.412  31.014  27.574  1.00  0.00     0.037 A 
ATOM     74  C   UNL A   1      43.739  38.215  28.558  1.00  0.00     0.037 A 
ATOM     75  C   UNL A   1      44.966  32.098  26.768  1.00  0.00     0.049 A 
ATOM     76  C   UNL A   1      45.050  37.687  28.037  1.00  0.00     0.074 A 
ATOM     77  C   UNL A   1      44.505  32.737  25.629  1.00  0.00     0.029 A 
ATOM     78  N   UNL A   1      45.965  32.904  27.300  1.00  0.00    -0.354 N 
ATOM     79  N   UNL A   1      45.251  36.445  27.692  1.00  0.00    -0.248 NA
ATOM     80  C   UNL A   1      46.239  38.518  27.882  1.00  0.00     0.031 C 
ATOM     81  C   UNL A   1      45.185  33.976  25.520  1.00  0.00     0.029 A 
ATOM     82  C   UNL A   1      46.082  34.071  26.570  1.00  0.00     0.049 A 
ATOM     83  H   UNL A   1      46.512  32.676  28.087  1.00  0.00     0.167 HD
ATOM     84  C   UNL A   1      46.553  36.294  27.300  1.00  0.00     0.074 A 
ATOM     85  C   UNL A   1      47.127  37.621  27.422  1.00  0.00     0.031 C 
ATOM     86  C   UNL A   1      47.061  35.084  26.928  1.00  0.00     0.037 A 
BRANCH  73  87
ATOM     87  C   UNL A   1      44.403  29.567  27.126  1.00  0.00     0.064 A 
ATOM     88  C   UNL A   1      45.511  28.730  27.382  1.00  0.00     0.173 A 
ATOM     89  C   UNL A   1      43.362  28.953  26.404  1.00  0.00     0.173 A 
ATOM     90  F   UNL A   1      46.537  29.138  28.142  1.00  0.00    -0.203 F 
ATOM     91  C   UNL A   1      45.615  27.434  26.866  1.00  0.00     0.198 A 
ATOM     92  C   UNL A   1      43.488  27.678  25.841  1.00  0.00     0.198 A 
ATOM     93  F   UNL A   1      42.167  29.539  26.270  1.00  0.00    -0.203 F 
ATOM     94  F   UNL A   1      46.697  26.692  27.142  1.00  0.00    -0.200 F 
ATOM     95  C   UNL A   1      44.619  26.921  26.064  1.00  0.00     0.200 A 
ATOM     96  F   UNL A   1      42.495  27.186  25.084  1.00  0.00    -0.200 F 
ATOM     97  F   UNL A   1      44.734  25.697  25.532  1.00  0.00    -0.200 F 
ENDBRANCH  73  87
BRANCH  74  98
ATOM     98  C   UNL A   1      43.562  38.873  29.882  1.00  0.00     0.064 A 
ATOM     99  C   UNL A   1      44.203  38.301  30.992  1.00  0.00     0.173 A 
ATOM    100  C   UNL A   1      43.167  40.213  29.982  1.00  0.00     0.173 A 
ATOM    101  F   UNL A   1      44.587  37.016  30.952  1.00  0.00    -0.203 F 
ATOM    102  C   UNL A   1      44.567  39.073  32.096  1.00  0.00     0.198 A 
ATOM    103  C   UNL A   1      43.517  40.979  31.097  1.00  0.00     0.198 A 
ATOM    104  F   UNL A   1      42.565  40.822  28.950  1.00  0.00    -0.203 F 
ATOM    105  F   UNL A   1      45.304  38.529  33.075  1.00  0.00    -0.200 F 
ATOM    106  C   UNL A   1      44.253  40.420  32.131  1.00  0.00     0.200 A 
ATOM    107  F   UNL A   1      43.233  42.290  31.123  1.00  0.00    -0.200 F 
ATOM    108  F   UNL A   1      44.698  41.188  33.135  1.00  0.00    -0.200 F 
ENDBRANCH  74  98
BRANCH  86 109
ATOM    109  C   UNL A   1      48.527  34.767  26.795  1.00  0.00     0.064 A 
ATOM    110  C   UNL A   1      49.222  34.825  25.575  1.00  0.00     0.173 A 
ATOM    111  C   UNL A   1      49.323  34.563  27.946  1.00  0.00     0.173 A 
ATOM    112  F   UNL A   1      48.597  35.129  24.430  1.00  0.00    -0.203 F 
ATOM    113  C   UNL A   1      50.602  34.633  25.504  1.00  0.00     0.198 A 
ATOM    114  C   UNL A   1      50.709  34.433  27.877  1.00  0.00     0.198 A 
ATOM    115  F   UNL A   1      48.782  34.517  29.172  1.00  0.00    -0.203 F 
ATOM    116  F   UNL A   1      51.213  34.658  24.311  1.00  0.00    -0.200 F 
ATOM    117  C   UNL A   1      51.347  34.453  26.654  1.00  0.00     0.200 A 
ATOM    118  F   UNL A   1      51.424  34.316  29.005  1.00  0.00    -0.200 F 
ATOM    119  F   UNL A   1      52.679  34.322  26.585  1.00  0.00    -0.200 F 
ENDBRANCH  86 109
ENDBRANCH  60  61
ENDBRANCH  52  55
ENDBRANCH  50  51
ENDBRANCH  49  50
ENDBRANCH  48  49
ENDBRANCH  47  48
ENDBRANCH   3  47
TORSDOF 20
ENDMDL
MODEL 3
REMARK VINA RESULT:     -12.3      5.275     11.571
REMARK SMILES Cc1ccc(S(=O)(=O)n2cc(C(=O)C(=O)NCC(=O)N[C@@H](Cc3c[nH]c4ccccc34)C(=O)NCCCCNC(=O)c3ccc(-c4c5nc(c(-c6c(F)c(F)c(F)c(F)c6F)c6ccc([nH]6)c(-c6c(F)c(F)c(F)c(F)c6F)c6nc(c(-c7c(F)c(F)c(F)c(F)c7F)c7ccc4[nH]7)C=C6)C=C5)cc3)c3ccccc32)cc1
REMARK SMILES IDX 32 1 33 2 34 3 21 5 20 6 18 7 19 8 17 10 16 11 14 12 15 13
REMARK SMILES IDX 12 15 13 16 11 17 9 18 10 19 110 20 105 21 109 22 106 23
REMARK SMILES IDX 108 24 107 25 6 26 7 27 8 28 5 29 1 30 2 31 3 32 112 33 4 34
REMARK SMILES IDX 111 35 22 36 23 37 24 38 31 39 25 40 26 41 30 42 27 44 29 45
REMARK SMILES IDX 28 46 35 47 36 48 37 49 38 50 39 51 40 52 41 54 42 55 43 56
REMARK SMILES IDX 104 57 44 58 103 59 45 60 46 61 47 62 97 63 48 64 102 65
REMARK SMILES IDX 96 66 98 67 49 68 101 69 95 70 94 71 50 73 82 74 62 75 81 76
REMARK SMILES IDX 63 77 66 78 80 79 99 80 64 81 65 82 79 84 100 85 67 86 51 87
REMARK SMILES IDX 52 88 60 89 53 90 54 91 58 92 61 93 55 94 56 95 59 96 57 97
REMARK SMILES IDX 83 98 84 99 92 100 85 101 86 102 90 103 93 104 87 105 88 106
REMARK SMILES IDX 91 107 89 108 68 109 69 110 77 111 70 112 71 113 75 114
REMARK SMILES IDX 78 115 72 116 73 117 76 118 74 119
REMARK H PARENT 34 4 20 9 16 14 25 43 39 53 98 72 66 83
REMARK Flexibility Score: inf
ROOT
ATOM      1  C   UNL A   1      36.807  30.973  29.773  1.00  0.00     0.242 C 
ATOM      2  O   UNL A   1      37.331  30.794  28.666  1.00  0.00    -0.273 OA
ATOM      3  N   UNL A   1      36.893  29.931  30.651  1.00  0.00    -0.354 N 
ATOM      4  H   UNL A   1      36.936  29.042  30.230  1.00  0.00     0.163 HD
ENDROOT
BRANCH   1   5
ATOM      5  C   UNL A   1      36.196  32.359  30.102  1.00  0.00     0.175 C 
BRANCH   5   6
ATOM      6  N   UNL A   1      36.013  33.239  28.946  1.00  0.00    -0.342 N 
ATOM      7  C   UNL A   1      34.960  33.253  28.073  1.00  0.00     0.240 C 
ATOM      8  O   UNL A   1      34.773  34.265  27.396  1.00  0.00    -0.273 OA
ATOM      9  H   UNL A   1      36.728  33.894  28.778  1.00  0.00     0.164 HD
BRANCH   7  10
ATOM     10  C   UNL A   1      34.017  32.038  28.002  1.00  0.00     0.216 C 
BRANCH  10  11
ATOM     11  N   UNL A   1      34.718  30.897  27.399  1.00  0.00    -0.340 N 
ATOM     12  C   UNL A   1      34.190  29.745  26.843  1.00  0.00     0.292 C 
ATOM     13  O   UNL A   1      34.919  28.822  26.501  1.00  0.00    -0.265 OA
ATOM     14  H   UNL A   1      35.701  30.962  27.388  1.00  0.00     0.164 HD
BRANCH  12  15
ATOM     15  C   UNL A   1      32.672  29.623  26.674  1.00  0.00     0.252 C 
ATOM     16  O   UNL A   1      32.002  30.565  27.099  1.00  0.00    -0.283 OA
BRANCH  15  17
ATOM     17  C   UNL A   1      32.051  28.378  26.199  1.00  0.00     0.054 A 
ATOM     18  N   UNL A   1      31.003  26.385  25.978  1.00  0.00    -0.240 N 
ATOM     19  C   UNL A   1      31.495  27.303  26.905  1.00  0.00     0.117 A 
ATOM     20  C   UNL A   1      31.066  26.989  24.710  1.00  0.00     0.065 A 
ATOM     21  C   UNL A   1      32.004  28.010  24.820  1.00  0.00     0.012 A 
ATOM     22  C   UNL A   1      30.614  26.535  23.455  1.00  0.00     0.028 A 
ATOM     23  C   UNL A   1      32.643  28.466  23.647  1.00  0.00     0.011 A 
ATOM     24  C   UNL A   1      31.315  26.939  22.322  1.00  0.00     0.002 A 
ATOM     25  C   UNL A   1      32.345  27.864  22.420  1.00  0.00     0.001 A 
BRANCH  18  26
ATOM     26  S   UNL A   1      31.395  24.690  25.879  1.00  0.00     0.268 S 
ATOM     27  O   UNL A   1      30.197  24.117  25.287  1.00  0.00    -0.201 OA
ATOM     28  O   UNL A   1      31.780  24.382  27.250  1.00  0.00    -0.201 OA
BRANCH  26  29
ATOM     29  C   UNL A   1      32.720  23.967  24.986  1.00  0.00     0.088 A 
ATOM     30  C   UNL A   1      36.589  22.948  23.357  1.00  0.00     0.044 C 
ATOM     31  C   UNL A   1      35.223  23.236  23.915  1.00  0.00    -0.051 A 
ATOM     32  C   UNL A   1      35.165  23.823  25.170  1.00  0.00     0.005 A 
ATOM     33  C   UNL A   1      34.021  22.997  23.213  1.00  0.00     0.005 A 
ATOM     34  C   UNL A   1      33.933  24.167  25.693  1.00  0.00     0.022 A 
ATOM     35  C   UNL A   1      32.754  23.366  23.740  1.00  0.00     0.022 A 
ENDBRANCH  26  29
ENDBRANCH  18  26
ENDBRANCH  15  17
ENDBRANCH  12  15
ENDBRANCH  10  11
ENDBRANCH   7  10
ENDBRANCH   5   6
BRANCH   5  36
ATOM     36  C   UNL A   1      34.991  32.332  31.062  1.00  0.00     0.072 C 
BRANCH  36  37
ATOM     37  C   UNL A   1      34.932  33.477  32.015  1.00  0.00    -0.020 A 
ATOM     38  C   UNL A   1      35.456  33.470  33.292  1.00  0.00     0.087 A 
ATOM     39  C   UNL A   1      34.354  34.768  31.811  1.00  0.00     0.003 A 
ATOM     40  N   UNL A   1      35.042  34.606  33.924  1.00  0.00    -0.361 N 
ATOM     41  C   UNL A   1      34.347  35.407  33.053  1.00  0.00     0.046 A 
ATOM     42  C   UNL A   1      33.801  35.448  30.706  1.00  0.00     0.010 A 
ATOM     43  H   UNL A   1      35.217  34.820  34.869  1.00  0.00     0.166 HD
ATOM     44  C   UNL A   1      33.722  36.640  33.262  1.00  0.00     0.026 A 
ATOM     45  C   UNL A   1      33.245  36.721  30.884  1.00  0.00     0.001 A 
ATOM     46  C   UNL A   1      33.183  37.294  32.151  1.00  0.00     0.002 A 
ENDBRANCH  36  37
ENDBRANCH   5  36
ENDBRANCH   1   5
BRANCH   3  47
ATOM     47  C   UNL A   1      36.931  29.918  32.104  1.00  0.00     0.116 C 
BRANCH  47  48
ATOM     48  C   UNL A   1      37.859  30.965  32.721  1.00  0.00     0.023 C 
BRANCH  48  49
ATOM     49  C   UNL A   1      39.196  30.433  33.249  1.00  0.00     0.023 C 
BRANCH  49  50
ATOM     50  C   UNL A   1      39.911  31.337  34.247  1.00  0.00     0.116 C 
BRANCH  50  51
ATOM     51  N   UNL A   1      39.093  32.374  34.849  1.00  0.00    -0.352 N 
ATOM     52  C   UNL A   1      39.052  33.742  34.622  1.00  0.00     0.251 C 
ATOM     53  H   UNL A   1      38.461  32.054  35.533  1.00  0.00     0.163 HD
ATOM     54  O   UNL A   1      38.389  34.440  35.371  1.00  0.00    -0.269 OA
BRANCH  52  55
ATOM     55  C   UNL A   1      39.665  34.355  33.405  1.00  0.00     0.039 A 
ATOM     56  C   UNL A   1      38.957  34.253  32.193  1.00  0.00     0.014 A 
ATOM     57  C   UNL A   1      40.963  34.848  33.383  1.00  0.00     0.014 A 
ATOM     58  C   UNL A   1      39.625  34.395  30.976  1.00  0.00     0.010 A 
ATOM     59  C   UNL A   1      41.656  34.874  32.196  1.00  0.00     0.010 A 
ATOM     60  C   UNL A   1      41.000  34.581  30.999  1.00  0.00    -0.014 A 
BRANCH  60  61
ATOM     61  C   UNL A   1      41.889  34.364  29.869  1.00  0.00     0.031 A 
ATOM     62  C   UNL A   1      42.483  33.033  29.635  1.00  0.00     0.074 A 
ATOM     63  C   UNL A   1      41.923  35.333  28.930  1.00  0.00     0.049 A 
ATOM     64  N   UNL A   1      43.406  32.791  28.771  1.00  0.00    -0.248 NA
ATOM     65  C   UNL A   1      42.095  31.855  30.404  1.00  0.00     0.031 C 
ATOM     66  C   UNL A   1      42.298  35.209  27.526  1.00  0.00     0.029 A 
ATOM     67  N   UNL A   1      41.755  36.709  29.127  1.00  0.00    -0.354 N 
ATOM     68  C   UNL A   1      43.577  31.425  28.698  1.00  0.00     0.074 A 
ATOM     69  C   UNL A   1      42.760  30.890  29.761  1.00  0.00     0.031 C 
ATOM     70  C   UNL A   1      42.554  36.431  27.034  1.00  0.00     0.029 A 
ATOM     71  C   UNL A   1      42.538  37.358  28.155  1.00  0.00     0.049 A 
ATOM     72  H   UNL A   1      41.196  37.140  29.814  1.00  0.00     0.167 HD
ATOM     73  C   UNL A   1      44.313  30.907  27.672  1.00  0.00     0.037 A 
ATOM     74  C   UNL A   1      43.606  38.120  28.534  1.00  0.00     0.037 A 
ATOM     75  C   UNL A   1      44.872  31.980  26.854  1.00  0.00     0.049 A 
ATOM     76  C   UNL A   1      44.925  37.589  28.036  1.00  0.00     0.074 A 
ATOM     77  C   UNL A   1      44.420  32.599  25.700  1.00  0.00     0.029 A 
ATOM     78  N   UNL A   1      45.862  32.798  27.384  1.00  0.00    -0.354 N 
ATOM     79  N   UNL A   1      45.133  36.342  27.713  1.00  0.00    -0.248 NA
ATOM     80  C   UNL A   1      46.112  38.421  27.880  1.00  0.00     0.031 C 
ATOM     81  C   UNL A   1      45.097  33.839  25.579  1.00  0.00     0.029 A 
ATOM     82  C   UNL A   1      45.983  33.954  26.637  1.00  0.00     0.049 A 
ATOM     83  H   UNL A   1      46.402  32.584  28.180  1.00  0.00     0.167 HD
ATOM     84  C   UNL A   1      46.439  36.189  27.337  1.00  0.00     0.074 A 
ATOM     85  C   UNL A   1      47.008  37.520  27.444  1.00  0.00     0.031 C 
ATOM     86  C   UNL A   1      46.955  34.975  26.989  1.00  0.00     0.037 A 
BRANCH  73  87
ATOM     87  C   UNL A   1      44.312  29.453  27.247  1.00  0.00     0.064 A 
ATOM     88  C   UNL A   1      43.212  28.911  26.547  1.00  0.00     0.173 A 
ATOM     89  C   UNL A   1      45.334  28.529  27.534  1.00  0.00     0.173 A 
ATOM     90  F   UNL A   1      42.206  29.684  26.116  1.00  0.00    -0.203 F 
ATOM     91  C   UNL A   1      43.096  27.547  26.260  1.00  0.00     0.198 A 
ATOM     92  C   UNL A   1      45.196  27.156  27.297  1.00  0.00     0.198 A 
ATOM     93  F   UNL A   1      46.525  28.927  27.996  1.00  0.00    -0.203 F 
ATOM     94  F   UNL A   1      42.022  27.095  25.597  1.00  0.00    -0.200 F 
ATOM     95  C   UNL A   1      44.071  26.663  26.669  1.00  0.00     0.200 A 
ATOM     96  F   UNL A   1      46.169  26.316  27.679  1.00  0.00    -0.200 F 
ATOM     97  F   UNL A   1      43.944  25.351  26.434  1.00  0.00    -0.200 F 
ENDBRANCH  73  87
BRANCH  74  98
ATOM     98  C   UNL A   1      43.414  38.799  29.845  1.00  0.00     0.064 A 
ATOM     99  C   UNL A   1      44.049  38.250  30.970  1.00  0.00     0.173 A 
ATOM    100  C   UNL A   1      43.009  40.138  29.920  1.00  0.00     0.173 A 
ATOM    101  F   UNL A   1      44.441  36.967  30.955  1.00  0.00    -0.203 F 
ATOM    102  C   UNL A   1      44.398  39.041  32.065  1.00  0.00     0.198 A 
ATOM    103  C   UNL A   1      43.344  40.924  31.026  1.00  0.00     0.198 A 
ATOM    104  F   UNL A   1      42.413  40.725  28.873  1.00  0.00    -0.203 F 
ATOM    105  F   UNL A   1      45.129  38.519  33.059  1.00  0.00    -0.200 F 
ATOM    106  C   UNL A   1      44.075  40.387  32.075  1.00  0.00     0.200 A 
ATOM    107  F   UNL A   1      43.051  42.233  31.027  1.00  0.00    -0.200 F 
ATOM    108  F   UNL A   1      44.505  41.175  33.070  1.00  0.00    -0.200 F 
ENDBRANCH  74  98
BRANCH  86 109
ATOM    109  C   UNL A   1      48.424  34.661  26.876  1.00  0.00     0.064 A 
ATOM    110  C   UNL A   1      49.155  34.014  27.887  1.00  0.00     0.173 A 
ATOM    111  C   UNL A   1      49.105  34.851  25.651  1.00  0.00     0.173 A 
ATOM    112  F   UNL A   1      48.585  33.673  29.051  1.00  0.00    -0.203 F 
ATOM    113  C   UNL A   1      50.487  33.640  27.708  1.00  0.00     0.198 A 
ATOM    114  C   UNL A   1      50.415  34.419  25.456  1.00  0.00     0.198 A 
ATOM    115  F   UNL A   1      48.507  35.430  24.600  1.00  0.00    -0.203 F 
ATOM    116  F   UNL A   1      51.153  33.061  28.716  1.00  0.00    -0.200 F 
ATOM    117  C   UNL A   1      51.112  33.827  26.489  1.00  0.00     0.200 A 
ATOM    118  F   UNL A   1      50.989  34.556  24.252  1.00  0.00    -0.200 F 
ATOM    119  F   UNL A   1      52.374  33.417  26.305  1.00  0.00    -0.200 F 
ENDBRANCH  86 109
ENDBRANCH  60  61
ENDBRANCH  52  55
ENDBRANCH  50  51
ENDBRANCH  49  50
ENDBRANCH  48  49
ENDBRANCH  47  48
ENDBRANCH   3  47
TORSDOF 20
ENDMDL
