MODEL 1
REMARK VINA RESULT:     -12.1      0.000      0.000
REMARK SMILES O=C(Cc1ccc(=O)n(C(F)F)c1)NCCCCNC(=O)c1ccc(-c2c3nc(c(-c4c(F)c(F)c(F)c(F)c4F)c4ccc([nH]4)c(-c4c(F)c(F)c(F)c(F)c4F)c4nc(c(-c5c(F)c(F)c(F)c(F)c5F)c5ccc2[nH]5)C=C4)C=C3)cc1
REMARK SMILES IDX 16 1 15 2 14 3 1 4 2 5 3 7 4 8 5 9 13 10 6 11 9 12 7 13 8 14
REMARK SMILES IDX 10 15 11 16 12 17 17 18 18 19 19 20 20 21 21 23 22 24 23 25
REMARK SMILES IDX 84 26 24 27 83 28 25 29 26 30 27 31 77 32 28 33 82 34 76 35
REMARK SMILES IDX 78 36 29 37 81 38 75 39 74 40 30 42 62 43 42 44 61 45 43 46
REMARK SMILES IDX 46 47 60 48 79 49 44 50 45 51 59 53 80 54 47 55 31 56 32 57
REMARK SMILES IDX 40 58 33 59 34 60 38 61 41 62 35 63 36 64 39 65 37 66 63 67
REMARK SMILES IDX 64 68 72 69 65 70 66 71 70 72 73 73 67 74 68 75 71 76 69 77
REMARK SMILES IDX 48 78 49 79 57 80 50 81 51 82 55 83 58 84 52 85 53 86 56 87
REMARK SMILES IDX 54 88
REMARK H PARENT 14 6 19 22 78 41 46 52
REMARK Flexibility Score: inf
ROOT
ATOM      1  C   UNL A   1      32.202  30.283  27.120  1.00  0.00     0.023 C 
ENDROOT
BRANCH   1   2
ATOM      2  C   UNL A   1      33.129  29.763  26.024  1.00  0.00     0.116 C 
BRANCH   2   3
ATOM      3  N   UNL A   1      32.465  29.647  24.737  1.00  0.00    -0.356 N 
ATOM      4  O   UNL A   1      33.951  28.130  23.863  1.00  0.00    -0.275 OA
ATOM      5  C   UNL A   1      32.932  28.805  23.750  1.00  0.00     0.224 C 
ATOM      6  H   UNL A   1      31.659  30.186  24.566  1.00  0.00     0.163 HD
BRANCH   5   7
ATOM      7  C   UNL A   1      32.086  28.769  22.479  1.00  0.00     0.137 C 
BRANCH   7   8
ATOM      8  C   UNL A   1      30.590  28.792  22.692  1.00  0.00    -0.022 A 
ATOM      9  C   UNL A   1      29.901  27.623  23.203  1.00  0.00     0.011 A 
ATOM     10  C   UNL A   1      29.858  29.875  22.373  1.00  0.00     0.099 A 
ATOM     11  C   UNL A   1      28.575  27.630  23.391  1.00  0.00     0.072 A 
ATOM     12  N   UNL A   1      28.481  29.899  22.529  1.00  0.00    -0.258 N 
ATOM     13  C   UNL A   1      27.768  28.830  23.046  1.00  0.00     0.254 A 
ATOM     14  O   UNL A   1      26.556  28.796  23.230  1.00  0.00    -0.269 OA
BRANCH  12  15
ATOM     15  C   UNL A   1      27.714  31.046  22.110  1.00  0.00     0.451 C 
ATOM     16  F   UNL A   1      27.358  31.805  23.173  1.00  0.00    -0.185 F 
ATOM     17  F   UNL A   1      28.422  31.822  21.255  1.00  0.00    -0.185 F 
ENDBRANCH  12  15
ENDBRANCH   7   8
ENDBRANCH   5   7
ENDBRANCH   2   3
ENDBRANCH   1   2
BRANCH   1  18
ATOM     18  C   UNL A   1      31.818  31.758  27.002  1.00  0.00     0.023 C 
BRANCH  18  19
ATOM     19  C   UNL A   1      32.954  32.755  27.204  1.00  0.00     0.116 C 
BRANCH  19  20
ATOM     20  N   UNL A   1      32.505  34.072  27.627  1.00  0.00    -0.352 N 
ATOM     21  C   UNL A   1      33.009  34.886  28.620  1.00  0.00     0.251 C 
ATOM     22  H   UNL A   1      31.733  34.435  27.135  1.00  0.00     0.163 HD
ATOM     23  O   UNL A   1      32.438  35.932  28.912  1.00  0.00    -0.269 OA
BRANCH  21  24
ATOM     24  C   UNL A   1      34.213  34.469  29.374  1.00  0.00     0.039 A 
ATOM     25  C   UNL A   1      35.494  34.717  28.876  1.00  0.00     0.014 A 
ATOM     26  C   UNL A   1      34.053  33.781  30.581  1.00  0.00     0.014 A 
ATOM     27  C   UNL A   1      36.595  34.120  29.484  1.00  0.00     0.010 A 
ATOM     28  C   UNL A   1      35.170  33.249  31.233  1.00  0.00     0.010 A 
ATOM     29  C   UNL A   1      36.444  33.362  30.656  1.00  0.00    -0.014 A 
BRANCH  29  30
ATOM     30  C   UNL A   1      37.624  32.667  31.236  1.00  0.00     0.031 A 
ATOM     31  C   UNL A   1      38.100  32.995  32.627  1.00  0.00     0.074 A 
ATOM     32  C   UNL A   1      38.226  31.685  30.538  1.00  0.00     0.049 A 
ATOM     33  N   UNL A   1      39.084  32.463  33.311  1.00  0.00    -0.248 NA
ATOM     34  C   UNL A   1      37.380  34.056  33.348  1.00  0.00     0.031 C 
ATOM     35  C   UNL A   1      37.850  31.262  29.190  1.00  0.00     0.029 A 
ATOM     36  N   UNL A   1      39.258  30.846  30.876  1.00  0.00    -0.354 N 
ATOM     37  C   UNL A   1      39.109  33.133  34.529  1.00  0.00     0.074 A 
ATOM     38  C   UNL A   1      38.061  34.129  34.483  1.00  0.00     0.031 C 
ATOM     39  C   UNL A   1      38.598  30.205  28.837  1.00  0.00     0.029 A 
ATOM     40  C   UNL A   1      39.543  29.913  29.910  1.00  0.00     0.049 A 
ATOM     41  H   UNL A   1      39.746  30.907  31.729  1.00  0.00     0.167 HD
ATOM     42  C   UNL A   1      39.920  32.923  35.593  1.00  0.00     0.037 A 
ATOM     43  C   UNL A   1      40.467  28.933  29.887  1.00  0.00     0.037 A 
ATOM     44  C   UNL A   1      40.946  31.915  35.652  1.00  0.00     0.049 A 
ATOM     45  C   UNL A   1      41.383  28.753  31.064  1.00  0.00     0.074 A 
ATOM     46  C   UNL A   1      41.804  31.619  36.698  1.00  0.00     0.029 A 
ATOM     47  N   UNL A   1      41.249  31.036  34.625  1.00  0.00    -0.354 N 
ATOM     48  N   UNL A   1      41.395  29.394  32.206  1.00  0.00    -0.248 NA
ATOM     49  C   UNL A   1      42.422  27.721  30.942  1.00  0.00     0.031 C 
ATOM     50  C   UNL A   1      42.650  30.583  36.290  1.00  0.00     0.029 A 
ATOM     51  C   UNL A   1      42.294  30.208  35.005  1.00  0.00     0.049 A 
ATOM     52  H   UNL A   1      40.791  31.004  33.754  1.00  0.00     0.167 HD
ATOM     53  C   UNL A   1      42.433  28.841  32.942  1.00  0.00     0.074 A 
ATOM     54  C   UNL A   1      43.016  27.797  32.126  1.00  0.00     0.031 C 
ATOM     55  C   UNL A   1      42.867  29.176  34.181  1.00  0.00     0.037 A 
BRANCH  42  56
ATOM     56  C   UNL A   1      39.737  33.802  36.796  1.00  0.00     0.064 A 
ATOM     57  C   UNL A   1      40.335  35.068  36.874  1.00  0.00     0.173 A 
ATOM     58  C   UNL A   1      38.897  33.403  37.847  1.00  0.00     0.173 A 
ATOM     59  F   UNL A   1      41.155  35.489  35.900  1.00  0.00    -0.203 F 
ATOM     60  C   UNL A   1      40.108  35.899  37.968  1.00  0.00     0.198 A 
ATOM     61  C   UNL A   1      38.655  34.248  38.928  1.00  0.00     0.198 A 
ATOM     62  F   UNL A   1      38.297  32.205  37.816  1.00  0.00    -0.203 F 
ATOM     63  F   UNL A   1      40.713  37.094  38.037  1.00  0.00    -0.200 F 
ATOM     64  C   UNL A   1      39.262  35.493  38.989  1.00  0.00     0.200 A 
ATOM     65  F   UNL A   1      37.828  33.857  39.909  1.00  0.00    -0.200 F 
ATOM     66  F   UNL A   1      39.035  36.300  40.035  1.00  0.00    -0.200 F 
ENDBRANCH  42  56
BRANCH  43  67
ATOM     67  C   UNL A   1      40.558  28.041  28.704  1.00  0.00     0.064 A 
ATOM     68  C   UNL A   1      39.860  26.827  28.666  1.00  0.00     0.173 A 
ATOM     69  C   UNL A   1      41.319  28.395  27.581  1.00  0.00     0.173 A 
ATOM     70  F   UNL A   1      39.137  26.437  29.727  1.00  0.00    -0.203 F 
ATOM     71  C   UNL A   1      39.922  25.998  27.549  1.00  0.00     0.198 A 
ATOM     72  C   UNL A   1      41.360  27.577  26.455  1.00  0.00     0.198 A 
ATOM     73  F   UNL A   1      42.005  29.548  27.571  1.00  0.00    -0.203 F 
ATOM     74  F   UNL A   1      39.268  24.828  27.547  1.00  0.00    -0.200 F 
ATOM     75  C   UNL A   1      40.664  26.378  26.440  1.00  0.00     0.200 A 
ATOM     76  F   UNL A   1      42.068  27.954  25.381  1.00  0.00    -0.200 F 
ATOM     77  F   UNL A   1      40.713  25.586  25.360  1.00  0.00    -0.200 F 
ENDBRANCH  43  67
BRANCH  55  78
ATOM     78  C   UNL A   1      44.025  28.405  34.739  1.00  0.00     0.064 A 
ATOM     79  C   UNL A   1      45.342  28.868  34.598  1.00  0.00     0.173 A 
ATOM     80  C   UNL A   1      43.814  27.229  35.472  1.00  0.00     0.173 A 
ATOM     81  F   UNL A   1      45.594  29.980  33.893  1.00  0.00    -0.203 F 
ATOM     82  C   UNL A   1      46.407  28.172  35.164  1.00  0.00     0.198 A 
ATOM     83  C   UNL A   1      44.879  26.549  36.056  1.00  0.00     0.198 A 
ATOM     84  F   UNL A   1      42.572  26.750  35.640  1.00  0.00    -0.203 F 
ATOM     85  F   UNL A   1      47.660  28.615  34.992  1.00  0.00    -0.200 F 
ATOM     86  C   UNL A   1      46.174  27.020  35.898  1.00  0.00     0.200 A 
ATOM     87  F   UNL A   1      44.651  25.441  36.775  1.00  0.00    -0.200 F 
ATOM     88  F   UNL A   1      47.199  26.358  36.452  1.00  0.00    -0.200 F 
ENDBRANCH  55  78
ENDBRANCH  29  30
ENDBRANCH  21  24
ENDBRANCH  19  20
ENDBRANCH  18  19
ENDBRANCH   1  18
TORSDOF 13
ENDMDL
MODEL 2
REMARK VINA RESULT:     -11.8      2.325      7.905
REMARK SMILES O=C(Cc1ccc(=O)n(C(F)F)c1)NCCCCNC(=O)c1ccc(-c2c3nc(c(-c4c(F)c(F)c(F)c(F)c4F)c4ccc([nH]4)c(-c4c(F)c(F)c(F)c(F)c4F)c4nc(c(-c5c(F)c(F)c(F)c(F)c5F)c5ccc2[nH]5)C=C4)C=C3)cc1
REMARK SMILES IDX 16 1 15 2 14 3 1 4 2 5 3 7 4 8 5 9 13 10 6 11 9 12 7 13 8 14
REMARK SMILES IDX 10 15 11 16 12 17 17 18 18 19 19 20 20 21 21 23 22 24 23 25
REMARK SMILES IDX 84 26 24 27 83 28 25 29 26 30 27 31 77 32 28 33 82 34 76 35
REMARK SMILES IDX 78 36 29 37 81 38 75 39 74 40 30 42 62 43 42 44 61 45 43 46
REMARK SMILES IDX 46 47 60 48 79 49 44 50 45 51 59 53 80 54 47 55 31 56 32 57
REMARK SMILES IDX 40 58 33 59 34 60 38 61 41 62 35 63 36 64 39 65 37 66 63 67
REMARK SMILES IDX 64 68 72 69 65 70 66 71 70 72 73 73 67 74 68 75 71 76 69 77
REMARK SMILES IDX 48 78 49 79 57 80 50 81 51 82 55 83 58 84 52 85 53 86 56 87
REMARK SMILES IDX 54 88
REMARK H PARENT 14 6 19 22 78 41 46 52
REMARK Flexibility Score: inf
ROOT
ATOM      1  C   UNL A   1      31.834  30.640  26.134  1.00  0.00     0.023 C 
ENDROOT
BRANCH   1   2
ATOM      2  C   UNL A   1      31.886  29.568  27.220  1.00  0.00     0.116 C 
BRANCH   2   3
ATOM      3  N   UNL A   1      32.322  28.279  26.715  1.00  0.00    -0.356 N 
ATOM      4  O   UNL A   1      34.567  28.737  26.861  1.00  0.00    -0.275 OA
ATOM      5  C   UNL A   1      33.657  27.957  26.594  1.00  0.00     0.224 C 
ATOM      6  H   UNL A   1      31.644  27.615  26.450  1.00  0.00     0.163 HD
BRANCH   5   7
ATOM      7  C   UNL A   1      33.939  26.541  26.094  1.00  0.00     0.137 C 
BRANCH   7   8
ATOM      8  C   UNL A   1      33.725  26.319  24.615  1.00  0.00    -0.022 A 
ATOM      9  C   UNL A   1      33.548  27.446  23.720  1.00  0.00     0.011 A 
ATOM     10  C   UNL A   1      33.650  25.078  24.100  1.00  0.00     0.099 A 
ATOM     11  C   UNL A   1      33.352  27.262  22.407  1.00  0.00     0.072 A 
ATOM     12  N   UNL A   1      33.419  24.858  22.752  1.00  0.00    -0.258 N 
ATOM     13  C   UNL A   1      33.277  25.890  21.838  1.00  0.00     0.254 A 
ATOM     14  O   UNL A   1      33.095  25.763  20.632  1.00  0.00    -0.269 OA
BRANCH  12  15
ATOM     15  C   UNL A   1      33.270  23.518  22.241  1.00  0.00     0.451 C 
ATOM     16  F   UNL A   1      34.196  22.689  22.779  1.00  0.00    -0.185 F 
ATOM     17  F   UNL A   1      32.042  23.020  22.525  1.00  0.00    -0.185 F 
ENDBRANCH  12  15
ENDBRANCH   7   8
ENDBRANCH   5   7
ENDBRANCH   2   3
ENDBRANCH   1   2
BRANCH   1  18
ATOM     18  C   UNL A   1      31.495  32.048  26.624  1.00  0.00     0.023 C 
BRANCH  18  19
ATOM     19  C   UNL A   1      32.622  32.789  27.336  1.00  0.00     0.116 C 
BRANCH  19  20
ATOM     20  N   UNL A   1      32.315  34.182  27.621  1.00  0.00    -0.352 N 
ATOM     21  C   UNL A   1      32.897  35.031  28.537  1.00  0.00     0.251 C 
ATOM     22  H   UNL A   1      31.589  34.574  27.084  1.00  0.00     0.163 HD
ATOM     23  O   UNL A   1      32.441  36.156  28.716  1.00  0.00    -0.269 OA
BRANCH  21  24
ATOM     24  C   UNL A   1      34.046  34.566  29.347  1.00  0.00     0.039 A 
ATOM     25  C   UNL A   1      35.330  34.501  28.802  1.00  0.00     0.014 A 
ATOM     26  C   UNL A   1      33.823  34.149  30.663  1.00  0.00     0.014 A 
ATOM     27  C   UNL A   1      36.343  33.851  29.502  1.00  0.00     0.010 A 
ATOM     28  C   UNL A   1      34.863  33.568  31.395  1.00  0.00     0.010 A 
ATOM     29  C   UNL A   1      36.116  33.358  30.798  1.00  0.00    -0.014 A 
BRANCH  29  30
ATOM     30  C   UNL A   1      37.189  32.595  31.489  1.00  0.00     0.031 A 
ATOM     31  C   UNL A   1      37.915  31.481  30.782  1.00  0.00     0.074 A 
ATOM     32  C   UNL A   1      37.564  32.953  32.732  1.00  0.00     0.049 A 
ATOM     33  N   UNL A   1      38.904  30.734  31.210  1.00  0.00    -0.248 NA
ATOM     34  C   UNL A   1      37.478  31.160  29.414  1.00  0.00     0.031 C 
ATOM     35  C   UNL A   1      36.952  34.024  33.517  1.00  0.00     0.029 A 
ATOM     36  N   UNL A   1      38.566  32.477  33.540  1.00  0.00    -0.354 N 
ATOM     37  C   UNL A   1      39.193  29.853  30.176  1.00  0.00     0.074 A 
ATOM     38  C   UNL A   1      38.260  30.134  29.108  1.00  0.00     0.031 C 
ATOM     39  C   UNL A   1      37.627  34.165  34.669  1.00  0.00     0.029 A 
ATOM     40  C   UNL A   1      38.683  33.158  34.726  1.00  0.00     0.049 A 
ATOM     41  H   UNL A   1      39.146  31.721  33.292  1.00  0.00     0.167 HD
ATOM     42  C   UNL A   1      40.161  28.906  30.117  1.00  0.00     0.037 A 
ATOM     43  C   UNL A   1      39.541  32.989  35.751  1.00  0.00     0.037 A 
ATOM     44  C   UNL A   1      41.109  28.641  31.168  1.00  0.00     0.049 A 
ATOM     45  C   UNL A   1      40.575  31.902  35.676  1.00  0.00     0.074 A 
ATOM     46  C   UNL A   1      42.136  27.713  31.188  1.00  0.00     0.029 A 
ATOM     47  N   UNL A   1      41.148  29.307  32.383  1.00  0.00    -0.354 N 
ATOM     48  N   UNL A   1      40.835  31.076  34.693  1.00  0.00    -0.248 NA
ATOM     49  C   UNL A   1      41.425  31.715  36.860  1.00  0.00     0.031 C 
ATOM     50  C   UNL A   1      42.775  27.794  32.428  1.00  0.00     0.029 A 
ATOM     51  C   UNL A   1      42.171  28.798  33.167  1.00  0.00     0.049 A 
ATOM     52  H   UNL A   1      40.540  30.034  32.649  1.00  0.00     0.167 HD
ATOM     53  C   UNL A   1      41.882  30.278  35.134  1.00  0.00     0.074 A 
ATOM     54  C   UNL A   1      42.224  30.733  36.465  1.00  0.00     0.031 C 
ATOM     55  C   UNL A   1      42.498  29.256  34.491  1.00  0.00     0.037 A 
BRANCH  42  56
ATOM     56  C   UNL A   1      40.253  28.077  28.870  1.00  0.00     0.064 A 
ATOM     57  C   UNL A   1      41.010  28.496  27.767  1.00  0.00     0.173 A 
ATOM     58  C   UNL A   1      39.635  26.818  28.806  1.00  0.00     0.173 A 
ATOM     59  F   UNL A   1      41.609  29.695  27.775  1.00  0.00    -0.203 F 
ATOM     60  C   UNL A   1      41.137  27.688  26.640  1.00  0.00     0.198 A 
ATOM     61  C   UNL A   1      39.784  26.004  27.686  1.00  0.00     0.198 A 
ATOM     62  F   UNL A   1      38.905  26.369  29.838  1.00  0.00    -0.203 F 
ATOM     63  F   UNL A   1      41.843  28.120  25.584  1.00  0.00    -0.200 F 
ATOM     64  C   UNL A   1      40.532  26.441  26.603  1.00  0.00     0.200 A 
ATOM     65  F   UNL A   1      39.208  24.794  27.657  1.00  0.00    -0.200 F 
ATOM     66  F   UNL A   1      40.667  25.660  25.522  1.00  0.00    -0.200 F 
ENDBRANCH  42  56
BRANCH  43  67
ATOM     67  C   UNL A   1      39.458  33.886  36.930  1.00  0.00     0.064 A 
ATOM     68  C   UNL A   1      38.737  33.506  38.070  1.00  0.00     0.173 A 
ATOM     69  C   UNL A   1      40.118  35.123  36.954  1.00  0.00     0.173 A 
ATOM     70  F   UNL A   1      38.071  32.341  38.084  1.00  0.00    -0.203 F 
ATOM     71  C   UNL A   1      38.676  34.333  39.189  1.00  0.00     0.198 A 
ATOM     72  C   UNL A   1      40.077  35.937  38.083  1.00  0.00     0.198 A 
ATOM     73  F   UNL A   1      40.821  35.529  35.886  1.00  0.00    -0.203 F 
ATOM     74  F   UNL A   1      37.957  33.961  40.257  1.00  0.00    -0.200 F 
ATOM     75  C   UNL A   1      39.355  35.543  39.198  1.00  0.00     0.200 A 
ATOM     76  F   UNL A   1      40.745  37.099  38.092  1.00  0.00    -0.200 F 
ATOM     77  F   UNL A   1      39.307  36.332  40.280  1.00  0.00    -0.200 F 
ENDBRANCH  43  67
BRANCH  55  78
ATOM     78  C   UNL A   1      43.610  28.558  35.215  1.00  0.00     0.064 A 
ATOM     79  C   UNL A   1      44.935  29.008  35.118  1.00  0.00     0.173 A 
ATOM     80  C   UNL A   1      43.342  27.472  36.061  1.00  0.00     0.173 A 
ATOM     81  F   UNL A   1      45.241  30.034  34.310  1.00  0.00    -0.203 F 
ATOM     82  C   UNL A   1      45.954  28.386  35.833  1.00  0.00     0.198 A 
ATOM     83  C   UNL A   1      44.360  26.869  36.793  1.00  0.00     0.198 A 
ATOM     84  F   UNL A   1      42.089  27.011  36.192  1.00  0.00    -0.203 F 
ATOM     85  F   UNL A   1      47.218  28.812  35.703  1.00  0.00    -0.200 F 
ATOM     86  C   UNL A   1      45.665  27.324  36.676  1.00  0.00     0.200 A 
ATOM     87  F   UNL A   1      44.077  25.849  37.616  1.00  0.00    -0.200 F 
ATOM     88  F   UNL A   1      46.645  26.734  37.374  1.00  0.00    -0.200 F 
ENDBRANCH  55  78
ENDBRANCH  29  30
ENDBRANCH  21  24
ENDBRANCH  19  20
ENDBRANCH  18  19
ENDBRANCH   1  18
TORSDOF 13
ENDMDL
MODEL 3
REMARK VINA RESULT:     -11.8      2.306      3.159
REMARK SMILES O=C(Cc1ccc(=O)n(C(F)F)c1)NCCCCNC(=O)c1ccc(-c2c3nc(c(-c4c(F)c(F)c(F)c(F)c4F)c4ccc([nH]4)c(-c4c(F)c(F)c(F)c(F)c4F)c4nc(c(-c5c(F)c(F)c(F)c(F)c5F)c5ccc2[nH]5)C=C4)C=C3)cc1
REMARK SMILES IDX 16 1 15 2 14 3 1 4 2 5 3 7 4 8 5 9 13 10 6 11 9 12 7 13 8 14
REMARK SMILES IDX 10 15 11 16 12 17 17 18 18 19 19 20 20 21 21 23 22 24 23 25
REMARK SMILES IDX 84 26 24 27 83 28 25 29 26 30 27 31 77 32 28 33 82 34 76 35
REMARK SMILES IDX 78 36 29 37 81 38 75 39 74 40 30 42 62 43 42 44 61 45 43 46
REMARK SMILES IDX 46 47 60 48 79 49 44 50 45 51 59 53 80 54 47 55 31 56 32 57
REMARK SMILES IDX 40 58 33 59 34 60 38 61 41 62 35 63 36 64 39 65 37 66 63 67
REMARK SMILES IDX 64 68 72 69 65 70 66 71 70 72 73 73 67 74 68 75 71 76 69 77
REMARK SMILES IDX 48 78 49 79 57 80 50 81 51 82 55 83 58 84 52 85 53 86 56 87
REMARK SMILES IDX 54 88
REMARK H PARENT 14 6 19 22 78 41 46 52
REMARK Flexibility Score: inf
ROOT
ATOM      1  C   UNL A   1      31.930  30.549  26.171  1.00  0.00     0.023 C 
ENDROOT
BRANCH   1   2
ATOM      2  C   UNL A   1      31.813  29.424  27.196  1.00  0.00     0.116 C 
BRANCH   2   3
ATOM      3  N   UNL A   1      32.264  28.145  26.678  1.00  0.00    -0.356 N 
ATOM      4  O   UNL A   1      34.496  28.682  26.685  1.00  0.00    -0.275 OA
ATOM      5  C   UNL A   1      33.600  27.868  26.481  1.00  0.00     0.224 C 
ATOM      6  H   UNL A   1      31.595  27.455  26.461  1.00  0.00     0.163 HD
BRANCH   5   7
ATOM      7  C   UNL A   1      33.901  26.458  25.978  1.00  0.00     0.137 C 
BRANCH   7   8
ATOM      8  C   UNL A   1      33.688  26.235  24.499  1.00  0.00    -0.022 A 
ATOM      9  C   UNL A   1      33.512  27.361  23.603  1.00  0.00     0.011 A 
ATOM     10  C   UNL A   1      33.614  24.993  23.985  1.00  0.00     0.099 A 
ATOM     11  C   UNL A   1      33.317  27.175  22.290  1.00  0.00     0.072 A 
ATOM     12  N   UNL A   1      33.384  24.772  22.637  1.00  0.00    -0.258 N 
ATOM     13  C   UNL A   1      33.243  25.803  21.723  1.00  0.00     0.254 A 
ATOM     14  O   UNL A   1      33.061  25.675  20.517  1.00  0.00    -0.269 OA
BRANCH  12  15
ATOM     15  C   UNL A   1      33.236  23.432  22.127  1.00  0.00     0.451 C 
ATOM     16  F   UNL A   1      34.198  22.616  22.620  1.00  0.00    -0.185 F 
ATOM     17  F   UNL A   1      32.031  22.912  22.461  1.00  0.00    -0.185 F 
ENDBRANCH  12  15
ENDBRANCH   7   8
ENDBRANCH   5   7
ENDBRANCH   2   3
ENDBRANCH   1   2
BRANCH   1  18
ATOM     18  C   UNL A   1      31.559  31.941  26.686  1.00  0.00     0.023 C 
BRANCH  18  19
ATOM     19  C   UNL A   1      32.689  32.725  27.344  1.00  0.00     0.116 C 
BRANCH  19  20
ATOM     20  N   UNL A   1      32.348  34.109  27.631  1.00  0.00    -0.352 N 
ATOM     21  C   UNL A   1      32.938  34.985  28.517  1.00  0.00     0.251 C 
ATOM     22  H   UNL A   1      31.589  34.473  27.120  1.00  0.00     0.163 HD
ATOM     23  O   UNL A   1      32.453  36.095  28.706  1.00  0.00    -0.269 OA
BRANCH  21  24
ATOM     24  C   UNL A   1      34.133  34.564  29.284  1.00  0.00     0.039 A 
ATOM     25  C   UNL A   1      35.420  34.799  28.797  1.00  0.00     0.014 A 
ATOM     26  C   UNL A   1      33.956  33.883  30.493  1.00  0.00     0.014 A 
ATOM     27  C   UNL A   1      36.511  34.198  29.417  1.00  0.00     0.010 A 
ATOM     28  C   UNL A   1      35.064  33.347  31.158  1.00  0.00     0.010 A 
ATOM     29  C   UNL A   1      36.344  33.448  30.593  1.00  0.00    -0.014 A 
BRANCH  29  30
ATOM     30  C   UNL A   1      37.514  32.748  31.187  1.00  0.00     0.031 A 
ATOM     31  C   UNL A   1      37.996  33.098  32.570  1.00  0.00     0.074 A 
ATOM     32  C   UNL A   1      38.101  31.742  30.510  1.00  0.00     0.049 A 
ATOM     33  N   UNL A   1      38.972  32.566  33.265  1.00  0.00    -0.248 NA
ATOM     34  C   UNL A   1      37.293  34.185  33.269  1.00  0.00     0.031 C 
ATOM     35  C   UNL A   1      37.717  31.295  29.171  1.00  0.00     0.029 A 
ATOM     36  N   UNL A   1      39.120  30.894  30.865  1.00  0.00    -0.354 N 
ATOM     37  C   UNL A   1      39.008  33.261  34.468  1.00  0.00     0.074 A 
ATOM     38  C   UNL A   1      37.975  34.272  34.402  1.00  0.00     0.031 C 
ATOM     39  C   UNL A   1      38.449  30.220  28.840  1.00  0.00     0.029 A 
ATOM     40  C   UNL A   1      39.390  29.936  29.919  1.00  0.00     0.049 A 
ATOM     41  H   UNL A   1      39.609  30.966  31.716  1.00  0.00     0.167 HD
ATOM     42  C   UNL A   1      39.816  33.062  35.536  1.00  0.00     0.037 A 
ATOM     43  C   UNL A   1      40.299  28.942  29.917  1.00  0.00     0.037 A 
ATOM     44  C   UNL A   1      40.827  32.040  35.617  1.00  0.00     0.049 A 
ATOM     45  C   UNL A   1      41.212  28.774  31.097  1.00  0.00     0.074 A 
ATOM     46  C   UNL A   1      41.681  31.753  36.668  1.00  0.00     0.029 A 
ATOM     47  N   UNL A   1      41.116  31.135  34.608  1.00  0.00    -0.354 N 
ATOM     48  N   UNL A   1      41.235  29.439  32.226  1.00  0.00    -0.248 NA
ATOM     49  C   UNL A   1      42.236  27.724  30.997  1.00  0.00     0.031 C 
ATOM     50  C   UNL A   1      42.510  30.696  36.282  1.00  0.00     0.029 A 
ATOM     51  C   UNL A   1      42.148  30.299  35.006  1.00  0.00     0.049 A 
ATOM     52  H   UNL A   1      40.657  31.091  33.739  1.00  0.00     0.167 HD
ATOM     53  C   UNL A   1      42.265  28.886  32.972  1.00  0.00     0.074 A 
ATOM     54  C   UNL A   1      42.831  27.816  32.179  1.00  0.00     0.031 C 
ATOM     55  C   UNL A   1      42.705  29.241  34.204  1.00  0.00     0.037 A 
BRANCH  42  56
ATOM     56  C   UNL A   1      39.648  33.969  36.720  1.00  0.00     0.064 A 
ATOM     57  C   UNL A   1      38.840  33.609  37.808  1.00  0.00     0.173 A 
ATOM     58  C   UNL A   1      40.357  35.178  36.796  1.00  0.00     0.173 A 
ATOM     59  F   UNL A   1      38.134  32.470  37.778  1.00  0.00    -0.203 F 
ATOM     60  C   UNL A   1      38.741  34.432  38.927  1.00  0.00     0.198 A 
ATOM     61  C   UNL A   1      40.271  35.987  37.927  1.00  0.00     0.198 A 
ATOM     62  F   UNL A   1      41.147  35.564  35.784  1.00  0.00    -0.203 F 
ATOM     63  F   UNL A   1      37.941  34.082  39.945  1.00  0.00    -0.200 F 
ATOM     64  C   UNL A   1      39.462  35.615  38.990  1.00  0.00     0.200 A 
ATOM     65  F   UNL A   1      40.978  37.124  37.990  1.00  0.00    -0.200 F 
ATOM     66  F   UNL A   1      39.375  36.399  40.073  1.00  0.00    -0.200 F 
ENDBRANCH  42  56
BRANCH  43  67
ATOM     67  C   UNL A   1      40.375  28.024  28.754  1.00  0.00     0.064 A 
ATOM     68  C   UNL A   1      41.131  28.360  27.623  1.00  0.00     0.173 A 
ATOM     69  C   UNL A   1      39.720  26.784  28.760  1.00  0.00     0.173 A 
ATOM     70  F   UNL A   1      41.756  29.545  27.564  1.00  0.00    -0.203 F 
ATOM     71  C   UNL A   1      41.226  27.490  26.539  1.00  0.00     0.198 A 
ATOM     72  C   UNL A   1      39.837  25.905  27.686  1.00  0.00     0.198 A 
ATOM     73  F   UNL A   1      38.985  26.418  29.821  1.00  0.00    -0.203 F 
ATOM     74  F   UNL A   1      41.932  27.846  25.456  1.00  0.00    -0.200 F 
ATOM     75  C   UNL A   1      40.587  26.260  26.575  1.00  0.00     0.200 A 
ATOM     76  F   UNL A   1      39.229  24.711  27.731  1.00  0.00    -0.200 F 
ATOM     77  F   UNL A   1      40.690  25.418  25.538  1.00  0.00    -0.200 F 
ENDBRANCH  43  67
BRANCH  55  78
ATOM     78  C   UNL A   1      43.852  28.464  34.777  1.00  0.00     0.064 A 
ATOM     79  C   UNL A   1      45.176  28.899  34.619  1.00  0.00     0.173 A 
ATOM     80  C   UNL A   1      43.623  27.313  35.545  1.00  0.00     0.173 A 
ATOM     81  F   UNL A   1      45.445  29.987  33.882  1.00  0.00    -0.203 F 
ATOM     82  C   UNL A   1      46.231  28.200  35.199  1.00  0.00     0.198 A 
ATOM     83  C   UNL A   1      44.678  26.631  36.142  1.00  0.00     0.198 A 
ATOM     84  F   UNL A   1      42.373  26.862  35.730  1.00  0.00    -0.203 F 
ATOM     85  F   UNL A   1      47.491  28.615  35.010  1.00  0.00    -0.200 F 
ATOM     86  C   UNL A   1      45.981  27.073  35.966  1.00  0.00     0.200 A 
ATOM     87  F   UNL A   1      44.434  25.547  36.893  1.00  0.00    -0.200 F 
ATOM     88  F   UNL A   1      46.997  26.408  36.533  1.00  0.00    -0.200 F 
ENDBRANCH  55  78
ENDBRANCH  29  30
ENDBRANCH  21  24
ENDBRANCH  19  20
ENDBRANCH  18  19
ENDBRANCH   1  18
TORSDOF 13
ENDMDL
