MODEL 1
REMARK VINA RESULT:     -13.1      0.000      0.000
REMARK SMILES C[C@H]1[C@H](C(=O)NCCCCNC(=O)c2ccc(-c3c4nc(c(-c5c(F)c(F)c(F)c(F)c5F)c5ccc([nH]5)c(-c5c(F)c(F)c(F)c(F)c5F)c5nc(c(-c6c(F)c(F)c(F)c(F)c6F)c6ccc3[nH]6)C=C5)C=C4)cc2)CC[N@@H+]1Cc1cnn(-c2ccccc2)c1
REMARK SMILES IDX 8 1 7 2 6 3 4 4 5 5 3 7 1 8 2 9 79 10 77 11 78 12 80 14
REMARK SMILES IDX 81 15 82 16 91 17 83 18 84 19 85 20 86 21 90 22 87 23 89 24
REMARK SMILES IDX 88 25 9 26 10 27 11 28 12 29 13 31 14 32 15 33 76 34 16 35
REMARK SMILES IDX 75 36 17 37 18 38 19 39 69 40 20 41 74 42 68 43 70 44 21 45
REMARK SMILES IDX 73 46 67 47 66 48 22 50 54 51 34 52 53 53 35 54 38 55 52 56
REMARK SMILES IDX 71 57 36 58 37 59 51 61 72 62 39 63 23 64 24 65 32 66 25 67
REMARK SMILES IDX 26 68 30 69 33 70 27 71 28 72 31 73 29 74 55 75 56 76 64 77
REMARK SMILES IDX 57 78 58 79 62 80 65 81 59 82 60 83 63 84 61 85 40 86 41 87
REMARK SMILES IDX 49 88 42 89 43 90 47 91 50 92 44 93 45 94 48 95 46 96
REMARK H PARENT 6 6 79 13 11 30 70 49 38 60
REMARK Flexibility Score: inf
ROOT
ATOM      1  C   UNL A   1      32.157  30.608  26.003  1.00  0.00     0.023 C 
ENDROOT
BRANCH   1   2
ATOM      2  C   UNL A   1      33.537  30.073  26.377  1.00  0.00     0.116 C 
BRANCH   2   3
ATOM      3  N   UNL A   1      34.162  29.052  25.570  1.00  0.00    -0.356 N 
ATOM      4  C   UNL A   1      33.639  27.829  25.235  1.00  0.00     0.229 C 
ATOM      5  O   UNL A   1      33.868  27.438  24.083  1.00  0.00    -0.275 OA
ATOM      6  H   UNL A   1      35.061  29.254  25.224  1.00  0.00     0.163 HD
BRANCH   4   7
ATOM      7  C   UNL A   1      32.860  26.911  26.186  1.00  0.00     0.142 C 
ATOM      8  C   UNL A   1      31.128  27.558  27.874  1.00  0.00     0.076 C 
ATOM      9  C   UNL A   1      31.356  27.125  26.408  1.00  0.00     0.193 C 
ATOM     10  N   UNL A   1      30.710  25.815  26.164  1.00  0.00    -0.328 N 
ATOM     11  C   UNL A   1      33.022  25.409  25.939  1.00  0.00     0.081 C 
ATOM     12  C   UNL A   1      31.726  24.812  26.476  1.00  0.00     0.263 C 
ATOM     13  H   UNL A   1      29.897  25.739  26.775  1.00  0.00     0.348 HD
BRANCH  10  14
ATOM     14  C   UNL A   1      29.979  25.609  24.890  1.00  0.00     0.302 C 
BRANCH  14  15
ATOM     15  C   UNL A   1      29.942  26.751  23.895  1.00  0.00     0.045 A 
ATOM     16  C   UNL A   1      30.779  26.983  22.771  1.00  0.00     0.145 A 
ATOM     17  C   UNL A   1      28.991  27.739  23.715  1.00  0.00     0.124 A 
ATOM     18  N   UNL A   1      30.462  28.080  22.071  1.00  0.00    -0.176 NA
ATOM     19  N   UNL A   1      29.473  28.649  22.793  1.00  0.00    -0.240 N 
BRANCH  19  20
ATOM     20  C   UNL A   1      29.012  29.975  22.546  1.00  0.00     0.065 A 
ATOM     21  C   UNL A   1      29.125  30.952  23.535  1.00  0.00     0.028 A 
ATOM     22  C   UNL A   1      28.426  30.329  21.321  1.00  0.00     0.028 A 
ATOM     23  C   UNL A   1      28.751  32.274  23.255  1.00  0.00     0.002 A 
ATOM     24  C   UNL A   1      28.073  31.650  21.032  1.00  0.00     0.002 A 
ATOM     25  C   UNL A   1      28.244  32.626  22.001  1.00  0.00     0.000 A 
ENDBRANCH  19  20
ENDBRANCH  14  15
ENDBRANCH  10  14
ENDBRANCH   4   7
ENDBRANCH   2   3
ENDBRANCH   1   2
BRANCH   1  26
ATOM     26  C   UNL A   1      31.705  31.926  26.682  1.00  0.00     0.023 C 
BRANCH  26  27
ATOM     27  C   UNL A   1      32.718  32.933  27.273  1.00  0.00     0.116 C 
BRANCH  27  28
ATOM     28  N   UNL A   1      32.227  34.239  27.678  1.00  0.00    -0.352 N 
ATOM     29  C   UNL A   1      32.831  35.128  28.560  1.00  0.00     0.251 C 
ATOM     30  H   UNL A   1      31.372  34.526  27.284  1.00  0.00     0.163 HD
ATOM     31  O   UNL A   1      32.353  36.239  28.747  1.00  0.00    -0.269 OA
BRANCH  29  32
ATOM     32  C   UNL A   1      34.041  34.721  29.326  1.00  0.00     0.039 A 
ATOM     33  C   UNL A   1      33.909  34.333  30.660  1.00  0.00     0.014 A 
ATOM     34  C   UNL A   1      35.309  34.738  28.749  1.00  0.00     0.014 A 
ATOM     35  C   UNL A   1      35.024  33.848  31.368  1.00  0.00     0.010 A 
ATOM     36  C   UNL A   1      36.413  34.209  29.446  1.00  0.00     0.010 A 
ATOM     37  C   UNL A   1      36.281  33.701  30.746  1.00  0.00    -0.014 A 
BRANCH  37  38
ATOM     38  C   UNL A   1      37.368  32.881  31.394  1.00  0.00     0.031 A 
ATOM     39  C   UNL A   1      38.044  31.699  30.734  1.00  0.00     0.074 A 
ATOM     40  C   UNL A   1      37.705  33.151  32.676  1.00  0.00     0.049 A 
ATOM     41  N   UNL A   1      39.008  30.933  31.199  1.00  0.00    -0.248 NA
ATOM     42  C   UNL A   1      37.560  31.295  29.409  1.00  0.00     0.031 C 
ATOM     43  C   UNL A   1      37.064  34.158  33.521  1.00  0.00     0.029 A 
ATOM     44  N   UNL A   1      38.671  32.608  33.495  1.00  0.00    -0.354 N 
ATOM     45  C   UNL A   1      39.225  29.947  30.241  1.00  0.00     0.074 A 
ATOM     46  C   UNL A   1      38.260  30.189  29.185  1.00  0.00     0.031 C 
ATOM     47  C   UNL A   1      37.694  34.212  34.704  1.00  0.00     0.029 A 
ATOM     48  C   UNL A   1      38.760  33.215  34.725  1.00  0.00     0.049 A 
ATOM     49  H   UNL A   1      39.246  31.855  33.224  1.00  0.00     0.167 HD
ATOM     50  C   UNL A   1      40.148  28.950  30.224  1.00  0.00     0.037 A 
ATOM     51  C   UNL A   1      39.602  33.019  35.759  1.00  0.00     0.037 A 
ATOM     52  C   UNL A   1      41.155  28.724  31.236  1.00  0.00     0.049 A 
ATOM     53  C   UNL A   1      40.678  31.973  35.677  1.00  0.00     0.074 A 
ATOM     54  C   UNL A   1      42.201  27.813  31.222  1.00  0.00     0.029 A 
ATOM     55  N   UNL A   1      41.244  29.404  32.440  1.00  0.00    -0.354 N 
ATOM     56  N   UNL A   1      40.948  31.139  34.706  1.00  0.00    -0.248 NA
ATOM     57  C   UNL A   1      41.573  31.848  36.839  1.00  0.00     0.031 C 
ATOM     58  C   UNL A   1      42.899  27.915  32.432  1.00  0.00     0.029 A 
ATOM     59  C   UNL A   1      42.316  28.921  33.180  1.00  0.00     0.049 A 
ATOM     60  H   UNL A   1      40.639  30.123  32.728  1.00  0.00     0.167 HD
ATOM     61  C   UNL A   1      42.053  30.411  35.126  1.00  0.00     0.074 A 
ATOM     62  C   UNL A   1      42.418  30.912  36.433  1.00  0.00     0.031 C 
ATOM     63  C   UNL A   1      42.700  29.414  34.477  1.00  0.00     0.037 A 
BRANCH  50  64
ATOM     64  C   UNL A   1      40.155  28.016  29.043  1.00  0.00     0.064 A 
ATOM     65  C   UNL A   1      40.903  28.298  27.891  1.00  0.00     0.173 A 
ATOM     66  C   UNL A   1      39.484  26.784  29.101  1.00  0.00     0.173 A 
ATOM     67  F   UNL A   1      41.572  29.457  27.788  1.00  0.00    -0.203 F 
ATOM     68  C   UNL A   1      40.952  27.399  26.827  1.00  0.00     0.198 A 
ATOM     69  C   UNL A   1      39.561  25.873  28.048  1.00  0.00     0.198 A 
ATOM     70  F   UNL A   1      38.773  26.449  30.189  1.00  0.00    -0.203 F 
ATOM     71  F   UNL A   1      41.642  27.710  25.722  1.00  0.00    -0.200 F 
ATOM     72  C   UNL A   1      40.288  26.185  26.910  1.00  0.00     0.200 A 
ATOM     73  F   UNL A   1      38.938  24.690  28.140  1.00  0.00    -0.200 F 
ATOM     74  F   UNL A   1      40.349  25.316  25.892  1.00  0.00    -0.200 F 
ENDBRANCH  50  64
BRANCH  51  75
ATOM     75  C   UNL A   1      39.500  33.884  36.963  1.00  0.00     0.064 A 
ATOM     76  C   UNL A   1      40.148  35.126  37.004  1.00  0.00     0.173 A 
ATOM     77  C   UNL A   1      38.764  33.490  38.089  1.00  0.00     0.173 A 
ATOM     78  F   UNL A   1      40.881  35.533  35.958  1.00  0.00    -0.203 F 
ATOM     79  C   UNL A   1      40.082  35.934  38.136  1.00  0.00     0.198 A 
ATOM     80  C   UNL A   1      38.676  34.312  39.210  1.00  0.00     0.198 A 
ATOM     81  F   UNL A   1      38.119  32.315  38.093  1.00  0.00    -0.203 F 
ATOM     82  F   UNL A   1      40.750  37.095  38.168  1.00  0.00    -0.200 F 
ATOM     83  C   UNL A   1      39.342  35.529  39.236  1.00  0.00     0.200 A 
ATOM     84  F   UNL A   1      37.946  33.925  40.265  1.00  0.00    -0.200 F 
ATOM     85  F   UNL A   1      39.275  36.308  40.325  1.00  0.00    -0.200 F 
ENDBRANCH  51  75
BRANCH  63  86
ATOM     86  C   UNL A   1      43.898  28.807  35.151  1.00  0.00     0.064 A 
ATOM     87  C   UNL A   1      45.192  29.312  34.950  1.00  0.00     0.173 A 
ATOM     88  C   UNL A   1      43.749  27.721  36.027  1.00  0.00     0.173 A 
ATOM     89  F   UNL A   1      45.393  30.338  34.109  1.00  0.00    -0.203 F 
ATOM     90  C   UNL A   1      46.293  28.739  35.584  1.00  0.00     0.198 A 
ATOM     91  C   UNL A   1      44.849  27.167  36.680  1.00  0.00     0.198 A 
ATOM     92  F   UNL A   1      42.535  27.199  36.256  1.00  0.00    -0.203 F 
ATOM     93  F   UNL A   1      47.525  29.210  35.342  1.00  0.00    -0.200 F 
ATOM     94  C   UNL A   1      46.120  27.672  36.452  1.00  0.00     0.200 A 
ATOM     95  F   UNL A   1      44.678  26.141  37.525  1.00  0.00    -0.200 F 
ATOM     96  F   UNL A   1      47.179  27.124  37.063  1.00  0.00    -0.200 F 
ENDBRANCH  63  86
ENDBRANCH  37  38
ENDBRANCH  29  32
ENDBRANCH  27  28
ENDBRANCH  26  27
ENDBRANCH   1  26
TORSDOF 14
ENDMDL
MODEL 2
REMARK VINA RESULT:     -12.9      6.373     11.840
REMARK SMILES C[C@H]1[C@H](C(=O)NCCCCNC(=O)c2ccc(-c3c4nc(c(-c5c(F)c(F)c(F)c(F)c5F)c5ccc([nH]5)c(-c5c(F)c(F)c(F)c(F)c5F)c5nc(c(-c6c(F)c(F)c(F)c(F)c6F)c6ccc3[nH]6)C=C5)C=C4)cc2)CC[N@@H+]1Cc1cnn(-c2ccccc2)c1
REMARK SMILES IDX 8 1 7 2 6 3 4 4 5 5 3 7 1 8 2 9 79 10 77 11 78 12 80 14
REMARK SMILES IDX 81 15 82 16 91 17 83 18 84 19 85 20 86 21 90 22 87 23 89 24
REMARK SMILES IDX 88 25 9 26 10 27 11 28 12 29 13 31 14 32 15 33 76 34 16 35
REMARK SMILES IDX 75 36 17 37 18 38 19 39 69 40 20 41 74 42 68 43 70 44 21 45
REMARK SMILES IDX 73 46 67 47 66 48 22 50 54 51 34 52 53 53 35 54 38 55 52 56
REMARK SMILES IDX 71 57 36 58 37 59 51 61 72 62 39 63 23 64 24 65 32 66 25 67
REMARK SMILES IDX 26 68 30 69 33 70 27 71 28 72 31 73 29 74 55 75 56 76 64 77
REMARK SMILES IDX 57 78 58 79 62 80 65 81 59 82 60 83 63 84 61 85 40 86 41 87
REMARK SMILES IDX 49 88 42 89 43 90 47 91 50 92 44 93 45 94 48 95 46 96
REMARK H PARENT 6 6 79 13 11 30 70 49 38 60
REMARK Flexibility Score: inf
ROOT
ATOM      1  C   UNL A   1      37.125  20.954  25.145  1.00  0.00     0.023 C 
ENDROOT
BRANCH   1   2
ATOM      2  C   UNL A   1      37.485  22.271  25.828  1.00  0.00     0.116 C 
BRANCH   2   3
ATOM      3  N   UNL A   1      36.469  23.031  26.519  1.00  0.00    -0.356 N 
ATOM      4  C   UNL A   1      35.293  23.503  25.996  1.00  0.00     0.229 C 
ATOM      5  O   UNL A   1      34.306  23.444  26.741  1.00  0.00    -0.275 OA
ATOM      6  H   UNL A   1      36.640  23.232  27.468  1.00  0.00     0.163 HD
BRANCH   4   7
ATOM      7  C   UNL A   1      35.135  24.138  24.608  1.00  0.00     0.142 C 
ATOM      8  C   UNL A   1      36.017  23.297  22.422  1.00  0.00     0.076 C 
ATOM      9  C   UNL A   1      34.813  23.262  23.390  1.00  0.00     0.193 C 
ATOM     10  N   UNL A   1      33.629  23.873  22.741  1.00  0.00    -0.328 N 
ATOM     11  C   UNL A   1      34.164  25.318  24.526  1.00  0.00     0.081 C 
ATOM     12  C   UNL A   1      33.686  25.293  23.078  1.00  0.00     0.263 C 
ATOM     13  H   UNL A   1      33.696  23.715  21.736  1.00  0.00     0.348 HD
BRANCH  10  14
ATOM     14  C   UNL A   1      32.306  23.225  22.922  1.00  0.00     0.302 C 
BRANCH  14  15
ATOM     15  C   UNL A   1      32.243  21.943  23.728  1.00  0.00     0.045 A 
ATOM     16  C   UNL A   1      31.847  21.756  25.079  1.00  0.00     0.145 A 
ATOM     17  C   UNL A   1      32.369  20.629  23.312  1.00  0.00     0.124 A 
ATOM     18  N   UNL A   1      31.876  20.480  25.484  1.00  0.00    -0.176 NA
ATOM     19  N   UNL A   1      32.400  19.818  24.431  1.00  0.00    -0.240 N 
BRANCH  19  20
ATOM     20  C   UNL A   1      32.845  18.467  24.522  1.00  0.00     0.065 A 
ATOM     21  C   UNL A   1      32.596  17.723  25.676  1.00  0.00     0.028 A 
ATOM     22  C   UNL A   1      33.550  17.857  23.474  1.00  0.00     0.028 A 
ATOM     23  C   UNL A   1      32.959  16.369  25.725  1.00  0.00     0.002 A 
ATOM     24  C   UNL A   1      33.893  16.503  23.511  1.00  0.00     0.002 A 
ATOM     25  C   UNL A   1      33.589  15.756  24.637  1.00  0.00     0.000 A 
ENDBRANCH  19  20
ENDBRANCH  14  15
ENDBRANCH  10  14
ENDBRANCH   4   7
ENDBRANCH   2   3
ENDBRANCH   1   2
BRANCH   1  26
ATOM     26  C   UNL A   1      38.259  19.908  24.992  1.00  0.00     0.023 C 
BRANCH  26  27
ATOM     27  C   UNL A   1      39.524  19.934  25.880  1.00  0.00     0.116 C 
BRANCH  27  28
ATOM     28  N   UNL A   1      40.480  18.849  25.741  1.00  0.00    -0.352 N 
ATOM     29  C   UNL A   1      41.837  18.882  26.039  1.00  0.00     0.251 C 
ATOM     30  H   UNL A   1      40.127  17.997  25.398  1.00  0.00     0.163 HD
ATOM     31  O   UNL A   1      42.516  17.866  25.959  1.00  0.00    -0.269 OA
BRANCH  29  32
ATOM     32  C   UNL A   1      42.495  20.164  26.411  1.00  0.00     0.039 A 
ATOM     33  C   UNL A   1      43.290  20.824  25.472  1.00  0.00     0.014 A 
ATOM     34  C   UNL A   1      42.354  20.714  27.683  1.00  0.00     0.014 A 
ATOM     35  C   UNL A   1      43.835  22.086  25.771  1.00  0.00     0.010 A 
ATOM     36  C   UNL A   1      42.862  21.998  27.961  1.00  0.00     0.010 A 
ATOM     37  C   UNL A   1      43.561  22.733  26.994  1.00  0.00    -0.014 A 
BRANCH  37  38
ATOM     38  C   UNL A   1      43.861  24.199  27.172  1.00  0.00     0.031 A 
ATOM     39  C   UNL A   1      42.845  25.221  27.635  1.00  0.00     0.074 A 
ATOM     40  C   UNL A   1      45.082  24.659  26.815  1.00  0.00     0.049 A 
ATOM     41  N   UNL A   1      43.004  26.511  27.840  1.00  0.00    -0.248 NA
ATOM     42  C   UNL A   1      41.471  24.756  27.859  1.00  0.00     0.031 C 
ATOM     43  C   UNL A   1      46.144  23.850  26.215  1.00  0.00     0.029 A 
ATOM     44  N   UNL A   1      45.643  25.915  26.904  1.00  0.00    -0.354 N 
ATOM     45  C   UNL A   1      41.755  27.013  28.187  1.00  0.00     0.074 A 
ATOM     46  C   UNL A   1      40.836  25.892  28.125  1.00  0.00     0.031 C 
ATOM     47  C   UNL A   1      47.242  24.604  26.058  1.00  0.00     0.029 A 
ATOM     48  C   UNL A   1      46.958  25.964  26.504  1.00  0.00     0.049 A 
ATOM     49  H   UNL A   1      45.148  26.704  27.225  1.00  0.00     0.167 HD
ATOM     50  C   UNL A   1      41.402  28.275  28.547  1.00  0.00     0.037 A 
ATOM     51  C   UNL A   1      47.853  26.972  26.502  1.00  0.00     0.037 A 
ATOM     52  C   UNL A   1      42.308  29.394  28.671  1.00  0.00     0.049 A 
ATOM     53  C   UNL A   1      47.464  28.337  26.996  1.00  0.00     0.074 A 
ATOM     54  C   UNL A   1      42.043  30.668  29.152  1.00  0.00     0.029 A 
ATOM     55  N   UNL A   1      43.646  29.383  28.312  1.00  0.00    -0.354 N 
ATOM     56  N   UNL A   1      46.308  28.755  27.445  1.00  0.00    -0.248 NA
ATOM     57  C   UNL A   1      48.513  29.370  26.988  1.00  0.00     0.031 C 
ATOM     58  C   UNL A   1      43.208  31.438  29.048  1.00  0.00     0.029 A 
ATOM     59  C   UNL A   1      44.211  30.630  28.546  1.00  0.00     0.049 A 
ATOM     60  H   UNL A   1      44.125  28.605  27.947  1.00  0.00     0.167 HD
ATOM     61  C   UNL A   1      46.496  30.086  27.794  1.00  0.00     0.074 A 
ATOM     62  C   UNL A   1      47.881  30.403  27.525  1.00  0.00     0.031 C 
ATOM     63  C   UNL A   1      45.590  30.961  28.293  1.00  0.00     0.037 A 
BRANCH  50  64
ATOM     64  C   UNL A   1      39.956  28.536  28.877  1.00  0.00     0.064 A 
ATOM     65  C   UNL A   1      39.453  28.334  30.170  1.00  0.00     0.173 A 
ATOM     66  C   UNL A   1      39.089  29.082  27.916  1.00  0.00     0.173 A 
ATOM     67  F   UNL A   1      40.241  27.825  31.129  1.00  0.00    -0.203 F 
ATOM     68  C   UNL A   1      38.128  28.636  30.481  1.00  0.00     0.198 A 
ATOM     69  C   UNL A   1      37.774  29.412  28.239  1.00  0.00     0.198 A 
ATOM     70  F   UNL A   1      39.524  29.320  26.669  1.00  0.00    -0.203 F 
ATOM     71  F   UNL A   1      37.661  28.397  31.715  1.00  0.00    -0.200 F 
ATOM     72  C   UNL A   1      37.293  29.182  29.518  1.00  0.00     0.200 A 
ATOM     73  F   UNL A   1      36.975  29.962  27.314  1.00  0.00    -0.200 F 
ATOM     74  F   UNL A   1      36.025  29.485  29.825  1.00  0.00    -0.200 F 
ENDBRANCH  50  64
BRANCH  51  75
ATOM     75  C   UNL A   1      49.248  26.713  26.063  1.00  0.00     0.064 A 
ATOM     76  C   UNL A   1      49.640  26.977  24.743  1.00  0.00     0.173 A 
ATOM     77  C   UNL A   1      50.210  26.199  26.943  1.00  0.00     0.173 A 
ATOM     78  F   UNL A   1      48.746  27.449  23.862  1.00  0.00    -0.203 F 
ATOM     79  C   UNL A   1      50.937  26.714  24.312  1.00  0.00     0.198 A 
ATOM     80  C   UNL A   1      51.516  25.963  26.517  1.00  0.00     0.198 A 
ATOM     81  F   UNL A   1      49.886  25.941  28.218  1.00  0.00    -0.203 F 
ATOM     82  F   UNL A   1      51.273  26.929  23.033  1.00  0.00    -0.200 F 
ATOM     83  C   UNL A   1      51.876  26.212  25.201  1.00  0.00     0.200 A 
ATOM     84  F   UNL A   1      52.425  25.495  27.383  1.00  0.00    -0.200 F 
ATOM     85  F   UNL A   1      53.126  25.963  24.788  1.00  0.00    -0.200 F 
ENDBRANCH  51  75
BRANCH  63  86
ATOM     86  C   UNL A   1      46.067  32.348  28.616  1.00  0.00     0.064 A 
ATOM     87  C   UNL A   1      46.590  32.675  29.877  1.00  0.00     0.173 A 
ATOM     88  C   UNL A   1      46.022  33.361  27.646  1.00  0.00     0.173 A 
ATOM     89  F   UNL A   1      46.639  31.749  30.847  1.00  0.00    -0.203 F 
ATOM     90  C   UNL A   1      47.029  33.967  30.160  1.00  0.00     0.198 A 
ATOM     91  C   UNL A   1      46.486  34.645  27.923  1.00  0.00     0.198 A 
ATOM     92  F   UNL A   1      45.533  33.104  26.423  1.00  0.00    -0.203 F 
ATOM     93  F   UNL A   1      47.483  34.265  31.385  1.00  0.00    -0.200 F 
ATOM     94  C   UNL A   1      46.983  34.948  29.182  1.00  0.00     0.200 A 
ATOM     95  F   UNL A   1      46.449  35.591  26.974  1.00  0.00    -0.200 F 
ATOM     96  F   UNL A   1      47.409  36.189  29.454  1.00  0.00    -0.200 F 
ENDBRANCH  63  86
ENDBRANCH  37  38
ENDBRANCH  29  32
ENDBRANCH  27  28
ENDBRANCH  26  27
ENDBRANCH   1  26
TORSDOF 14
ENDMDL
MODEL 3
REMARK VINA RESULT:     -12.8      4.975      8.433
REMARK SMILES C[C@H]1[C@H](C(=O)NCCCCNC(=O)c2ccc(-c3c4nc(c(-c5c(F)c(F)c(F)c(F)c5F)c5ccc([nH]5)c(-c5c(F)c(F)c(F)c(F)c5F)c5nc(c(-c6c(F)c(F)c(F)c(F)c6F)c6ccc3[nH]6)C=C5)C=C4)cc2)CC[N@@H+]1Cc1cnn(-c2ccccc2)c1
REMARK SMILES IDX 8 1 7 2 6 3 4 4 5 5 3 7 1 8 2 9 79 10 77 11 78 12 80 14
REMARK SMILES IDX 81 15 82 16 91 17 83 18 84 19 85 20 86 21 90 22 87 23 89 24
REMARK SMILES IDX 88 25 9 26 10 27 11 28 12 29 13 31 14 32 15 33 76 34 16 35
REMARK SMILES IDX 75 36 17 37 18 38 19 39 69 40 20 41 74 42 68 43 70 44 21 45
REMARK SMILES IDX 73 46 67 47 66 48 22 50 54 51 34 52 53 53 35 54 38 55 52 56
REMARK SMILES IDX 71 57 36 58 37 59 51 61 72 62 39 63 23 64 24 65 32 66 25 67
REMARK SMILES IDX 26 68 30 69 33 70 27 71 28 72 31 73 29 74 55 75 56 76 64 77
REMARK SMILES IDX 57 78 58 79 62 80 65 81 59 82 60 83 63 84 61 85 40 86 41 87
REMARK SMILES IDX 49 88 42 89 43 90 47 91 50 92 44 93 45 94 48 95 46 96
REMARK H PARENT 6 6 79 13 11 30 70 49 38 60
REMARK Flexibility Score: inf
ROOT
ATOM      1  C   UNL A   1      35.031  19.989  24.952  1.00  0.00     0.023 C 
ENDROOT
BRANCH   1   2
ATOM      2  C   UNL A   1      33.530  19.734  25.058  1.00  0.00     0.116 C 
BRANCH   2   3
ATOM      3  N   UNL A   1      32.620  20.362  24.129  1.00  0.00    -0.356 N 
ATOM      4  C   UNL A   1      32.351  21.702  24.015  1.00  0.00     0.229 C 
ATOM      5  O   UNL A   1      32.205  22.129  22.863  1.00  0.00    -0.275 OA
ATOM      6  H   UNL A   1      32.140  19.763  23.512  1.00  0.00     0.163 HD
BRANCH   4   7
ATOM      7  C   UNL A   1      32.166  22.669  25.192  1.00  0.00     0.142 C 
ATOM      8  C   UNL A   1      33.651  24.563  25.875  1.00  0.00     0.076 C 
ATOM      9  C   UNL A   1      32.434  24.168  25.009  1.00  0.00     0.193 C 
ATOM     10  N   UNL A   1      31.222  24.869  25.495  1.00  0.00    -0.328 N 
ATOM     11  C   UNL A   1      30.818  22.584  25.913  1.00  0.00     0.081 C 
ATOM     12  C   UNL A   1      30.629  23.982  26.492  1.00  0.00     0.263 C 
ATOM     13  H   UNL A   1      31.508  25.762  25.898  1.00  0.00     0.348 HD
BRANCH  10  14
ATOM     14  C   UNL A   1      30.279  25.432  24.498  1.00  0.00     0.302 C 
BRANCH  14  15
ATOM     15  C   UNL A   1      30.343  26.919  24.213  1.00  0.00     0.045 A 
ATOM     16  C   UNL A   1      31.204  27.899  24.775  1.00  0.00     0.145 A 
ATOM     17  C   UNL A   1      29.725  27.658  23.221  1.00  0.00     0.124 A 
ATOM     18  N   UNL A   1      31.023  29.131  24.283  1.00  0.00    -0.176 NA
ATOM     19  N   UNL A   1      29.958  28.999  23.464  1.00  0.00    -0.240 N 
BRANCH  19  20
ATOM     20  C   UNL A   1      29.263  30.121  22.927  1.00  0.00     0.065 A 
ATOM     21  C   UNL A   1      29.078  31.267  23.700  1.00  0.00     0.028 A 
ATOM     22  C   UNL A   1      28.739  30.102  21.625  1.00  0.00     0.028 A 
ATOM     23  C   UNL A   1      28.471  32.399  23.136  1.00  0.00     0.002 A 
ATOM     24  C   UNL A   1      28.154  31.235  21.053  1.00  0.00     0.002 A 
ATOM     25  C   UNL A   1      28.028  32.389  21.810  1.00  0.00     0.000 A 
ENDBRANCH  19  20
ENDBRANCH  14  15
ENDBRANCH  10  14
ENDBRANCH   4   7
ENDBRANCH   2   3
ENDBRANCH   1   2
BRANCH   1  26
ATOM     26  C   UNL A   1      35.565  21.311  25.560  1.00  0.00     0.023 C 
BRANCH  26  27
ATOM     27  C   UNL A   1      37.002  21.815  25.293  1.00  0.00     0.116 C 
BRANCH  27  28
ATOM     28  N   UNL A   1      38.092  20.860  25.393  1.00  0.00    -0.352 N 
ATOM     29  C   UNL A   1      39.310  21.040  26.037  1.00  0.00     0.251 C 
ATOM     30  H   UNL A   1      37.953  19.990  24.954  1.00  0.00     0.163 HD
ATOM     31  O   UNL A   1      40.111  20.117  26.121  1.00  0.00    -0.269 OA
BRANCH  29  32
ATOM     32  C   UNL A   1      39.680  22.371  26.590  1.00  0.00     0.039 A 
ATOM     33  C   UNL A   1      40.637  22.451  27.603  1.00  0.00     0.014 A 
ATOM     34  C   UNL A   1      39.077  23.542  26.137  1.00  0.00     0.014 A 
ATOM     35  C   UNL A   1      41.073  23.706  28.065  1.00  0.00     0.010 A 
ATOM     36  C   UNL A   1      39.549  24.797  26.569  1.00  0.00     0.010 A 
ATOM     37  C   UNL A   1      40.594  24.905  27.497  1.00  0.00    -0.014 A 
BRANCH  37  38
ATOM     38  C   UNL A   1      41.298  26.213  27.754  1.00  0.00     0.031 A 
ATOM     39  C   UNL A   1      42.698  26.529  27.276  1.00  0.00     0.074 A 
ATOM     40  C   UNL A   1      40.687  27.134  28.534  1.00  0.00     0.049 A 
ATOM     41  N   UNL A   1      43.394  27.636  27.430  1.00  0.00    -0.248 NA
ATOM     42  C   UNL A   1      43.432  25.466  26.578  1.00  0.00     0.031 C 
ATOM     43  C   UNL A   1      39.397  26.952  29.200  1.00  0.00     0.029 A 
ATOM     44  N   UNL A   1      41.062  28.409  28.897  1.00  0.00    -0.354 N 
ATOM     45  C   UNL A   1      44.646  27.395  26.874  1.00  0.00     0.074 A 
ATOM     46  C   UNL A   1      44.628  26.019  26.417  1.00  0.00     0.031 C 
ATOM     47  C   UNL A   1      39.056  28.087  29.827  1.00  0.00     0.029 A 
ATOM     48  C   UNL A   1      40.118  29.072  29.647  1.00  0.00     0.049 A 
ATOM     49  H   UNL A   1      41.925  28.810  28.644  1.00  0.00     0.167 HD
ATOM     50  C   UNL A   1      45.703  28.238  26.733  1.00  0.00     0.037 A 
ATOM     51  C   UNL A   1      40.085  30.329  30.132  1.00  0.00     0.037 A 
ATOM     52  C   UNL A   1      45.725  29.627  27.129  1.00  0.00     0.049 A 
ATOM     53  C   UNL A   1      41.226  31.272  29.880  1.00  0.00     0.074 A 
ATOM     54  C   UNL A   1      46.714  30.573  26.902  1.00  0.00     0.029 A 
ATOM     55  N   UNL A   1      44.722  30.273  27.833  1.00  0.00    -0.354 N 
ATOM     56  N   UNL A   1      42.347  31.062  29.237  1.00  0.00    -0.248 NA
ATOM     57  C   UNL A   1      41.093  32.636  30.419  1.00  0.00     0.031 C 
ATOM     58  C   UNL A   1      46.328  31.778  27.502  1.00  0.00     0.029 A 
ATOM     59  C   UNL A   1      45.077  31.596  28.062  1.00  0.00     0.049 A 
ATOM     60  H   UNL A   1      43.881  29.856  28.127  1.00  0.00     0.167 HD
ATOM     61  C   UNL A   1      43.036  32.267  29.272  1.00  0.00     0.074 A 
ATOM     62  C   UNL A   1      42.203  33.212  29.982  1.00  0.00     0.031 C 
ATOM     63  C   UNL A   1      44.257  32.553  28.758  1.00  0.00     0.037 A 
BRANCH  50  64
ATOM     64  C   UNL A   1      46.951  27.700  26.084  1.00  0.00     0.064 A 
ATOM     65  C   UNL A   1      47.977  27.118  26.843  1.00  0.00     0.173 A 
ATOM     66  C   UNL A   1      47.080  27.681  24.686  1.00  0.00     0.173 A 
ATOM     67  F   UNL A   1      47.899  27.100  28.182  1.00  0.00    -0.203 F 
ATOM     68  C   UNL A   1      49.101  26.568  26.229  1.00  0.00     0.198 A 
ATOM     69  C   UNL A   1      48.191  27.101  24.075  1.00  0.00     0.198 A 
ATOM     70  F   UNL A   1      46.117  28.200  23.909  1.00  0.00    -0.203 F 
ATOM     71  F   UNL A   1      50.086  26.053  26.979  1.00  0.00    -0.200 F 
ATOM     72  C   UNL A   1      49.203  26.553  24.847  1.00  0.00     0.200 A 
ATOM     73  F   UNL A   1      48.277  27.065  22.738  1.00  0.00    -0.200 F 
ATOM     74  F   UNL A   1      50.278  26.010  24.259  1.00  0.00    -0.200 F 
ENDBRANCH  50  64
BRANCH  51  75
ATOM     75  C   UNL A   1      38.884  30.799  30.870  1.00  0.00     0.064 A 
ATOM     76  C   UNL A   1      38.831  30.719  32.269  1.00  0.00     0.173 A 
ATOM     77  C   UNL A   1      37.774  31.331  30.200  1.00  0.00     0.173 A 
ATOM     78  F   UNL A   1      39.862  30.197  32.948  1.00  0.00    -0.203 F 
ATOM     79  C   UNL A   1      37.701  31.132  32.970  1.00  0.00     0.198 A 
ATOM     80  C   UNL A   1      36.655  31.770  30.905  1.00  0.00     0.198 A 
ATOM     81  F   UNL A   1      37.782  31.437  28.864  1.00  0.00    -0.203 F 
ATOM     82  F   UNL A   1      37.656  31.000  34.302  1.00  0.00    -0.200 F 
ATOM     83  C   UNL A   1      36.616  31.662  32.288  1.00  0.00     0.200 A 
ATOM     84  F   UNL A   1      35.615  32.297  30.245  1.00  0.00    -0.200 F 
ATOM     85  F   UNL A   1      35.530  32.064  32.963  1.00  0.00    -0.200 F 
ENDBRANCH  51  75
BRANCH  63  86
ATOM     86  C   UNL A   1      44.764  33.959  28.911  1.00  0.00     0.064 A 
ATOM     87  C   UNL A   1      45.544  34.347  30.012  1.00  0.00     0.173 A 
ATOM     88  C   UNL A   1      44.487  34.926  27.933  1.00  0.00     0.173 A 
ATOM     89  F   UNL A   1      45.824  33.467  30.985  1.00  0.00    -0.203 F 
ATOM     90  C   UNL A   1      46.009  35.655  30.138  1.00  0.00     0.198 A 
ATOM     91  C   UNL A   1      44.975  36.226  28.048  1.00  0.00     0.198 A 
ATOM     92  F   UNL A   1      43.748  34.610  26.860  1.00  0.00    -0.203 F 
ATOM     93  F   UNL A   1      46.714  36.013  31.219  1.00  0.00    -0.200 F 
ATOM     94  C   UNL A   1      45.729  36.591  29.154  1.00  0.00     0.200 A 
ATOM     95  F   UNL A   1      44.711  37.128  27.092  1.00  0.00    -0.200 F 
ATOM     96  F   UNL A   1      46.179  37.847  29.274  1.00  0.00    -0.200 F 
ENDBRANCH  63  86
ENDBRANCH  37  38
ENDBRANCH  29  32
ENDBRANCH  27  28
ENDBRANCH  26  27
ENDBRANCH   1  26
TORSDOF 14
ENDMDL
