MODEL 1
REMARK VINA RESULT:     -13.6      0.000      0.000
REMARK SMILES O=C(NCCCCNC(=O)c1cc(F)cc(-c2cccc(F)c2F)c1)c1ccc(-c2c3nc(c(-c4c(F)c(F)c(F)c(F)c4F)c4ccc([nH]4)c(-c4c(F)c(F)c(F)c(F)c4F)c4nc(c(-c5c(F)c(F)c(F)c(F)c5F)c5ccc2[nH]5)C=C4)C=C3)cc1
REMARK SMILES IDX 5 1 4 2 3 3 1 4 2 5 26 7 27 8 88 9 28 10 87 11 29 12 30 13
REMARK SMILES IDX 31 14 81 15 32 16 86 17 80 18 82 19 33 20 85 21 79 22 78 23
REMARK SMILES IDX 34 25 66 26 46 27 65 28 47 29 50 30 64 31 83 32 48 33 49 34
REMARK SMILES IDX 63 36 84 37 51 38 35 39 36 40 44 41 37 42 38 43 42 44 45 45
REMARK SMILES IDX 39 46 40 47 43 48 41 49 67 50 68 51 76 52 69 53 70 54 74 55
REMARK SMILES IDX 77 56 71 57 72 58 75 59 73 60 52 61 53 62 61 63 54 64 55 65
REMARK SMILES IDX 59 66 62 67 56 68 57 69 60 70 58 71 6 72 7 73 8 74 9 75
REMARK SMILES IDX 10 77 11 78 12 79 25 80 13 81 16 82 14 83 15 84 17 85 18 86
REMARK SMILES IDX 23 87 19 88 21 89 24 90 20 91 22 92
REMARK H PARENT 3 6 82 24 50 35 8 76
REMARK Flexibility Score: inf
ROOT
ATOM      1  C   UNL A   1      32.128  29.704  25.266  1.00  0.00     0.023 C 
ENDROOT
BRANCH   1   2
ATOM      2  C   UNL A   1      32.367  30.183  26.691  1.00  0.00     0.116 C 
BRANCH   2   3
ATOM      3  N   UNL A   1      32.282  31.628  26.838  1.00  0.00    -0.352 N 
ATOM      4  O   UNL A   1      32.877  33.687  27.551  1.00  0.00    -0.269 OA
ATOM      5  C   UNL A   1      33.171  32.502  27.419  1.00  0.00     0.251 C 
ATOM      6  H   UNL A   1      31.468  32.041  26.467  1.00  0.00     0.163 HD
BRANCH   5   7
ATOM      7  C   UNL A   1      34.466  32.002  27.926  1.00  0.00     0.039 A 
ATOM      8  C   UNL A   1      34.606  30.673  28.329  1.00  0.00     0.014 A 
ATOM      9  C   UNL A   1      35.544  32.885  28.034  1.00  0.00     0.014 A 
ATOM     10  C   UNL A   1      35.750  30.282  29.012  1.00  0.00     0.010 A 
ATOM     11  C   UNL A   1      36.733  32.460  28.634  1.00  0.00     0.010 A 
ATOM     12  C   UNL A   1      36.826  31.169  29.176  1.00  0.00    -0.014 A 
BRANCH  12  13
ATOM     13  C   UNL A   1      38.037  30.708  29.905  1.00  0.00     0.031 A 
ATOM     14  C   UNL A   1      38.267  31.077  31.345  1.00  0.00     0.074 A 
ATOM     15  C   UNL A   1      38.898  29.888  29.273  1.00  0.00     0.049 A 
ATOM     16  N   UNL A   1      39.236  30.705  32.144  1.00  0.00    -0.248 NA
ATOM     17  C   UNL A   1      37.291  31.983  31.969  1.00  0.00     0.031 C 
ATOM     18  C   UNL A   1      38.782  29.466  27.876  1.00  0.00     0.029 A 
ATOM     19  N   UNL A   1      40.015  29.234  29.727  1.00  0.00    -0.354 N 
ATOM     20  C   UNL A   1      38.998  31.343  33.355  1.00  0.00     0.074 A 
ATOM     21  C   UNL A   1      37.809  32.148  33.180  1.00  0.00     0.031 C 
ATOM     22  C   UNL A   1      39.742  28.572  27.606  1.00  0.00     0.029 A 
ATOM     23  C   UNL A   1      40.578  28.403  28.791  1.00  0.00     0.049 A 
ATOM     24  H   UNL A   1      40.376  29.349  30.635  1.00  0.00     0.167 HD
ATOM     25  C   UNL A   1      39.704  31.255  34.508  1.00  0.00     0.037 A 
ATOM     26  C   UNL A   1      41.649  27.592  28.872  1.00  0.00     0.037 A 
ATOM     27  C   UNL A   1      40.874  30.434  34.686  1.00  0.00     0.049 A 
ATOM     28  C   UNL A   1      42.412  27.513  30.162  1.00  0.00     0.074 A 
ATOM     29  C   UNL A   1      41.648  30.269  35.822  1.00  0.00     0.029 A 
ATOM     30  N   UNL A   1      41.437  29.636  33.701  1.00  0.00    -0.354 N 
ATOM     31  N   UNL A   1      42.174  28.121  31.298  1.00  0.00    -0.248 NA
ATOM     32  C   UNL A   1      43.594  26.641  30.179  1.00  0.00     0.031 C 
ATOM     33  C   UNL A   1      42.700  29.399  35.515  1.00  0.00     0.029 A 
ATOM     34  C   UNL A   1      42.555  28.985  34.201  1.00  0.00     0.049 A 
ATOM     35  H   UNL A   1      41.093  29.543  32.783  1.00  0.00     0.167 HD
ATOM     36  C   UNL A   1      43.169  27.702  32.168  1.00  0.00     0.074 A 
ATOM     37  C   UNL A   1      44.003  26.770  31.435  1.00  0.00     0.031 C 
ATOM     38  C   UNL A   1      43.376  28.063  33.458  1.00  0.00     0.037 A 
BRANCH  25  39
ATOM     39  C   UNL A   1      39.237  32.072  35.678  1.00  0.00     0.064 A 
ATOM     40  C   UNL A   1      39.715  33.377  35.869  1.00  0.00     0.173 A 
ATOM     41  C   UNL A   1      38.370  31.543  36.645  1.00  0.00     0.173 A 
ATOM     42  F   UNL A   1      40.552  33.928  34.978  1.00  0.00    -0.203 F 
ATOM     43  C   UNL A   1      39.349  34.119  36.991  1.00  0.00     0.198 A 
ATOM     44  C   UNL A   1      37.986  32.296  37.752  1.00  0.00     0.198 A 
ATOM     45  F   UNL A   1      37.876  30.304  36.502  1.00  0.00    -0.203 F 
ATOM     46  F   UNL A   1      39.840  35.353  37.165  1.00  0.00    -0.200 F 
ATOM     47  C   UNL A   1      38.483  33.579  37.928  1.00  0.00     0.200 A 
ATOM     48  F   UNL A   1      37.130  31.782  38.646  1.00  0.00    -0.200 F 
ATOM     49  F   UNL A   1      38.121  34.297  39.001  1.00  0.00    -0.200 F 
ENDBRANCH  25  39
BRANCH  26  50
ATOM     50  C   UNL A   1      42.032  26.780  27.691  1.00  0.00     0.064 A 
ATOM     51  C   UNL A   1      41.470  25.516  27.465  1.00  0.00     0.173 A 
ATOM     52  C   UNL A   1      43.017  27.229  26.800  1.00  0.00     0.173 A 
ATOM     53  F   UNL A   1      40.530  25.041  28.297  1.00  0.00    -0.203 F 
ATOM     54  C   UNL A   1      41.900  24.716  26.410  1.00  0.00     0.198 A 
ATOM     55  C   UNL A   1      43.427  26.438  25.729  1.00  0.00     0.198 A 
ATOM     56  F   UNL A   1      43.570  28.438  26.967  1.00  0.00    -0.203 F 
ATOM     57  F   UNL A   1      41.380  23.492  26.244  1.00  0.00    -0.200 F 
ATOM     58  C   UNL A   1      42.877  25.179  25.541  1.00  0.00     0.200 A 
ATOM     59  F   UNL A   1      44.358  26.896  24.880  1.00  0.00    -0.200 F 
ATOM     60  F   UNL A   1      43.289  24.410  24.524  1.00  0.00    -0.200 F 
ENDBRANCH  26  50
BRANCH  38  61
ATOM     61  C   UNL A   1      44.542  27.445  34.167  1.00  0.00     0.064 A 
ATOM     62  C   UNL A   1      44.391  26.237  34.866  1.00  0.00     0.173 A 
ATOM     63  C   UNL A   1      45.794  28.075  34.202  1.00  0.00     0.173 A 
ATOM     64  F   UNL A   1      43.211  25.600  34.866  1.00  0.00    -0.203 F 
ATOM     65  C   UNL A   1      45.450  25.689  35.582  1.00  0.00     0.198 A 
ATOM     66  C   UNL A   1      46.859  27.511  34.901  1.00  0.00     0.198 A 
ATOM     67  F   UNL A   1      45.990  29.224  33.538  1.00  0.00    -0.203 F 
ATOM     68  F   UNL A   1      45.277  24.547  36.263  1.00  0.00    -0.200 F 
ATOM     69  C   UNL A   1      46.684  26.324  35.596  1.00  0.00     0.200 A 
ATOM     70  F   UNL A   1      48.055  28.113  34.894  1.00  0.00    -0.200 F 
ATOM     71  F   UNL A   1      47.707  25.787  36.275  1.00  0.00    -0.200 F 
ENDBRANCH  38  61
ENDBRANCH  12  13
ENDBRANCH   5   7
ENDBRANCH   2   3
ENDBRANCH   1   2
BRANCH   1  72
ATOM     72  C   UNL A   1      33.232  28.831  24.676  1.00  0.00     0.023 C 
BRANCH  72  73
ATOM     73  C   UNL A   1      32.952  27.333  24.690  1.00  0.00     0.116 C 
BRANCH  73  74
ATOM     74  N   UNL A   1      32.954  26.751  23.357  1.00  0.00    -0.352 N 
ATOM     75  C   UNL A   1      31.905  26.590  22.489  1.00  0.00     0.251 C 
ATOM     76  H   UNL A   1      33.827  26.430  23.035  1.00  0.00     0.163 HD
ATOM     77  O   UNL A   1      32.040  25.952  21.451  1.00  0.00    -0.269 OA
BRANCH  75  78
ATOM     78  C   UNL A   1      30.594  27.166  22.835  1.00  0.00     0.043 A 
ATOM     79  C   UNL A   1      29.673  26.427  23.577  1.00  0.00     0.053 A 
ATOM     80  C   UNL A   1      30.290  28.458  22.392  1.00  0.00     0.023 A 
ATOM     81  C   UNL A   1      28.418  26.967  23.802  1.00  0.00     0.124 A 
ATOM     82  C   UNL A   1      29.023  29.015  22.636  1.00  0.00    -0.012 A 
ATOM     83  F   UNL A   1      27.504  26.245  24.462  1.00  0.00    -0.207 F 
ATOM     84  C   UNL A   1      28.086  28.236  23.336  1.00  0.00     0.048 A 
BRANCH  82  85
ATOM     85  C   UNL A   1      28.689  30.371  22.174  1.00  0.00     0.021 A 
ATOM     86  C   UNL A   1      28.129  30.588  20.900  1.00  0.00     0.012 A 
ATOM     87  C   UNL A   1      28.917  31.494  22.983  1.00  0.00     0.166 A 
ATOM     88  C   UNL A   1      27.811  31.879  20.457  1.00  0.00     0.004 A 
ATOM     89  C   UNL A   1      28.603  32.776  22.541  1.00  0.00     0.159 A 
ATOM     90  F   UNL A   1      29.457  31.347  24.205  1.00  0.00    -0.203 F 
ATOM     91  C   UNL A   1      28.050  32.976  21.282  1.00  0.00     0.042 A 
ATOM     92  F   UNL A   1      28.832  33.834  23.330  1.00  0.00    -0.204 F 
ENDBRANCH  82  85
ENDBRANCH  75  78
ENDBRANCH  73  74
ENDBRANCH  72  73
ENDBRANCH   1  72
TORSDOF 12
ENDMDL
MODEL 2
REMARK VINA RESULT:     -13.4      0.411      2.004
REMARK SMILES O=C(NCCCCNC(=O)c1cc(F)cc(-c2cccc(F)c2F)c1)c1ccc(-c2c3nc(c(-c4c(F)c(F)c(F)c(F)c4F)c4ccc([nH]4)c(-c4c(F)c(F)c(F)c(F)c4F)c4nc(c(-c5c(F)c(F)c(F)c(F)c5F)c5ccc2[nH]5)C=C4)C=C3)cc1
REMARK SMILES IDX 5 1 4 2 3 3 1 4 2 5 26 7 27 8 88 9 28 10 87 11 29 12 30 13
REMARK SMILES IDX 31 14 81 15 32 16 86 17 80 18 82 19 33 20 85 21 79 22 78 23
REMARK SMILES IDX 34 25 66 26 46 27 65 28 47 29 50 30 64 31 83 32 48 33 49 34
REMARK SMILES IDX 63 36 84 37 51 38 35 39 36 40 44 41 37 42 38 43 42 44 45 45
REMARK SMILES IDX 39 46 40 47 43 48 41 49 67 50 68 51 76 52 69 53 70 54 74 55
REMARK SMILES IDX 77 56 71 57 72 58 75 59 73 60 52 61 53 62 61 63 54 64 55 65
REMARK SMILES IDX 59 66 62 67 56 68 57 69 60 70 58 71 6 72 7 73 8 74 9 75
REMARK SMILES IDX 10 77 11 78 12 79 25 80 13 81 16 82 14 83 15 84 17 85 18 86
REMARK SMILES IDX 23 87 19 88 21 89 24 90 20 91 22 92
REMARK H PARENT 3 6 82 24 50 35 8 76
REMARK Flexibility Score: inf
ROOT
ATOM      1  C   UNL A   1      32.904  29.336  24.844  1.00  0.00     0.023 C 
ENDROOT
BRANCH   1   2
ATOM      2  C   UNL A   1      32.734  29.626  26.329  1.00  0.00     0.116 C 
BRANCH   2   3
ATOM      3  N   UNL A   1      32.520  31.035  26.622  1.00  0.00    -0.352 N 
ATOM      4  O   UNL A   1      32.905  33.045  27.578  1.00  0.00    -0.269 OA
ATOM      5  C   UNL A   1      33.305  31.909  27.338  1.00  0.00     0.251 C 
ATOM      6  H   UNL A   1      31.690  31.419  26.255  1.00  0.00     0.163 HD
BRANCH   5   7
ATOM      7  C   UNL A   1      34.615  31.462  27.856  1.00  0.00     0.039 A 
ATOM      8  C   UNL A   1      34.793  30.152  28.302  1.00  0.00     0.014 A 
ATOM      9  C   UNL A   1      35.668  32.379  27.930  1.00  0.00     0.014 A 
ATOM     10  C   UNL A   1      35.949  29.816  28.994  1.00  0.00     0.010 A 
ATOM     11  C   UNL A   1      36.870  32.007  28.540  1.00  0.00     0.010 A 
ATOM     12  C   UNL A   1      37.001  30.738  29.123  1.00  0.00    -0.014 A 
BRANCH  12  13
ATOM     13  C   UNL A   1      38.226  30.335  29.863  1.00  0.00     0.031 A 
ATOM     14  C   UNL A   1      38.466  30.784  31.278  1.00  0.00     0.074 A 
ATOM     15  C   UNL A   1      39.094  29.496  29.267  1.00  0.00     0.049 A 
ATOM     16  N   UNL A   1      39.449  30.471  32.085  1.00  0.00    -0.248 NA
ATOM     17  C   UNL A   1      37.482  31.708  31.864  1.00  0.00     0.031 C 
ATOM     18  C   UNL A   1      38.970  28.997  27.896  1.00  0.00     0.029 A 
ATOM     19  N   UNL A   1      40.225  28.884  29.742  1.00  0.00    -0.354 N 
ATOM     20  C   UNL A   1      39.213  31.169  33.263  1.00  0.00     0.074 A 
ATOM     21  C   UNL A   1      38.009  31.946  33.058  1.00  0.00     0.031 C 
ATOM     22  C   UNL A   1      39.942  28.104  27.664  1.00  0.00     0.029 A 
ATOM     23  C   UNL A   1      40.792  28.013  28.846  1.00  0.00     0.049 A 
ATOM     24  H   UNL A   1      40.594  29.053  30.639  1.00  0.00     0.167 HD
ATOM     25  C   UNL A   1      39.932  31.155  34.411  1.00  0.00     0.037 A 
ATOM     26  C   UNL A   1      41.877  27.224  28.959  1.00  0.00     0.037 A 
ATOM     27  C   UNL A   1      41.116  30.362  34.620  1.00  0.00     0.049 A 
ATOM     28  C   UNL A   1      42.654  27.225  30.242  1.00  0.00     0.074 A 
ATOM     29  C   UNL A   1      41.905  30.271  35.754  1.00  0.00     0.029 A 
ATOM     30  N   UNL A   1      41.682  29.521  33.673  1.00  0.00    -0.354 N 
ATOM     31  N   UNL A   1      42.418  27.890  31.347  1.00  0.00    -0.248 NA
ATOM     32  C   UNL A   1      43.849  26.374  30.293  1.00  0.00     0.031 C 
ATOM     33  C   UNL A   1      42.967  29.402  35.482  1.00  0.00     0.029 A 
ATOM     34  C   UNL A   1      42.815  28.915  34.194  1.00  0.00     0.049 A 
ATOM     35  H   UNL A   1      41.330  29.374  32.765  1.00  0.00     0.167 HD
ATOM     36  C   UNL A   1      43.429  27.534  32.227  1.00  0.00     0.074 A 
ATOM     37  C   UNL A   1      44.269  26.577  31.536  1.00  0.00     0.031 C 
ATOM     38  C   UNL A   1      43.642  27.968  33.493  1.00  0.00     0.037 A 
BRANCH  25  39
ATOM     39  C   UNL A   1      39.464  32.026  35.540  1.00  0.00     0.064 A 
ATOM     40  C   UNL A   1      38.573  31.525  36.502  1.00  0.00     0.173 A 
ATOM     41  C   UNL A   1      39.841  33.374  35.635  1.00  0.00     0.173 A 
ATOM     42  F   UNL A   1      38.174  30.245  36.453  1.00  0.00    -0.203 F 
ATOM     43  C   UNL A   1      38.070  32.344  37.511  1.00  0.00     0.198 A 
ATOM     44  C   UNL A   1      39.357  34.183  36.660  1.00  0.00     0.198 A 
ATOM     45  F   UNL A   1      40.699  33.898  34.747  1.00  0.00    -0.203 F 
ATOM     46  F   UNL A   1      37.200  31.850  38.402  1.00  0.00    -0.200 F 
ATOM     47  C   UNL A   1      38.466  33.670  37.591  1.00  0.00     0.200 A 
ATOM     48  F   UNL A   1      39.757  35.459  36.750  1.00  0.00    -0.200 F 
ATOM     49  F   UNL A   1      37.992  34.455  38.569  1.00  0.00    -0.200 F 
ENDBRANCH  25  39
BRANCH  26  50
ATOM     50  C   UNL A   1      42.260  26.355  27.819  1.00  0.00     0.064 A 
ATOM     51  C   UNL A   1      43.210  26.772  26.875  1.00  0.00     0.173 A 
ATOM     52  C   UNL A   1      41.635  25.117  27.618  1.00  0.00     0.173 A 
ATOM     53  F   UNL A   1      43.828  27.953  27.022  1.00  0.00    -0.203 F 
ATOM     54  C   UNL A   1      43.499  25.996  25.755  1.00  0.00     0.198 A 
ATOM     55  C   UNL A   1      41.945  24.330  26.510  1.00  0.00     0.198 A 
ATOM     56  F   UNL A   1      40.733  24.670  28.503  1.00  0.00    -0.203 F 
ATOM     57  F   UNL A   1      44.375  26.440  24.844  1.00  0.00    -0.200 F 
ATOM     58  C   UNL A   1      42.867  24.775  25.575  1.00  0.00     0.200 A 
ATOM     59  F   UNL A   1      41.346  23.142  26.348  1.00  0.00    -0.200 F 
ATOM     60  F   UNL A   1      43.146  24.028  24.498  1.00  0.00    -0.200 F 
ENDBRANCH  26  50
BRANCH  38  61
ATOM     61  C   UNL A   1      44.826  27.406  34.222  1.00  0.00     0.064 A 
ATOM     62  C   UNL A   1      46.077  28.036  34.139  1.00  0.00     0.173 A 
ATOM     63  C   UNL A   1      44.735  26.215  34.956  1.00  0.00     0.173 A 
ATOM     64  F   UNL A   1      46.215  29.176  33.445  1.00  0.00    -0.203 F 
ATOM     65  C   UNL A   1      47.195  27.488  34.758  1.00  0.00     0.198 A 
ATOM     66  C   UNL A   1      45.852  25.681  35.593  1.00  0.00     0.198 A 
ATOM     67  F   UNL A   1      43.557  25.583  35.074  1.00  0.00    -0.203 F 
ATOM     68  F   UNL A   1      48.386  28.094  34.646  1.00  0.00    -0.200 F 
ATOM     69  C   UNL A   1      47.082  26.313  35.487  1.00  0.00     0.200 A 
ATOM     70  F   UNL A   1      45.735  24.560  36.317  1.00  0.00    -0.200 F 
ATOM     71  F   UNL A   1      48.157  25.793  36.094  1.00  0.00    -0.200 F 
ENDBRANCH  38  61
ENDBRANCH  12  13
ENDBRANCH   5   7
ENDBRANCH   2   3
ENDBRANCH   1   2
BRANCH   1  72
ATOM     72  C   UNL A   1      33.846  28.183  24.507  1.00  0.00     0.023 C 
BRANCH  72  73
ATOM     73  C   UNL A   1      33.178  26.819  24.367  1.00  0.00     0.116 C 
BRANCH  73  74
ATOM     74  N   UNL A   1      33.065  26.392  22.982  1.00  0.00    -0.352 N 
ATOM     75  C   UNL A   1      31.957  26.384  22.173  1.00  0.00     0.251 C 
ATOM     76  H   UNL A   1      33.897  26.064  22.569  1.00  0.00     0.163 HD
ATOM     77  O   UNL A   1      31.991  25.860  21.065  1.00  0.00    -0.269 OA
BRANCH  75  78
ATOM     78  C   UNL A   1      30.706  26.984  22.667  1.00  0.00     0.043 A 
ATOM     79  C   UNL A   1      29.857  26.257  23.501  1.00  0.00     0.053 A 
ATOM     80  C   UNL A   1      30.382  28.286  22.269  1.00  0.00     0.023 A 
ATOM     81  C   UNL A   1      28.647  26.821  23.869  1.00  0.00     0.124 A 
ATOM     82  C   UNL A   1      29.163  28.867  22.656  1.00  0.00    -0.012 A 
ATOM     83  F   UNL A   1      27.796  26.113  24.621  1.00  0.00    -0.207 F 
ATOM     84  C   UNL A   1      28.293  28.102  23.451  1.00  0.00     0.048 A 
BRANCH  82  85
ATOM     85  C   UNL A   1      28.809  30.234  22.243  1.00  0.00     0.021 A 
ATOM     86  C   UNL A   1      28.193  30.482  21.002  1.00  0.00     0.012 A 
ATOM     87  C   UNL A   1      29.074  31.337  23.069  1.00  0.00     0.166 A 
ATOM     88  C   UNL A   1      27.857  31.783  20.605  1.00  0.00     0.004 A 
ATOM     89  C   UNL A   1      28.741  32.629  22.673  1.00  0.00     0.159 A 
ATOM     90  F   UNL A   1      29.668  31.159  24.261  1.00  0.00    -0.203 F 
ATOM     91  C   UNL A   1      28.133  32.860  21.446  1.00  0.00     0.042 A 
ATOM     92  F   UNL A   1      29.005  33.667  23.478  1.00  0.00    -0.204 F 
ENDBRANCH  82  85
ENDBRANCH  75  78
ENDBRANCH  73  74
ENDBRANCH  72  73
ENDBRANCH   1  72
TORSDOF 12
ENDMDL
MODEL 3
REMARK VINA RESULT:     -13.4      2.306      4.665
REMARK SMILES O=C(NCCCCNC(=O)c1cc(F)cc(-c2cccc(F)c2F)c1)c1ccc(-c2c3nc(c(-c4c(F)c(F)c(F)c(F)c4F)c4ccc([nH]4)c(-c4c(F)c(F)c(F)c(F)c4F)c4nc(c(-c5c(F)c(F)c(F)c(F)c5F)c5ccc2[nH]5)C=C4)C=C3)cc1
REMARK SMILES IDX 5 1 4 2 3 3 1 4 2 5 26 7 27 8 88 9 28 10 87 11 29 12 30 13
REMARK SMILES IDX 31 14 81 15 32 16 86 17 80 18 82 19 33 20 85 21 79 22 78 23
REMARK SMILES IDX 34 25 66 26 46 27 65 28 47 29 50 30 64 31 83 32 48 33 49 34
REMARK SMILES IDX 63 36 84 37 51 38 35 39 36 40 44 41 37 42 38 43 42 44 45 45
REMARK SMILES IDX 39 46 40 47 43 48 41 49 67 50 68 51 76 52 69 53 70 54 74 55
REMARK SMILES IDX 77 56 71 57 72 58 75 59 73 60 52 61 53 62 61 63 54 64 55 65
REMARK SMILES IDX 59 66 62 67 56 68 57 69 60 70 58 71 6 72 7 73 8 74 9 75
REMARK SMILES IDX 10 77 11 78 12 79 25 80 13 81 16 82 14 83 15 84 17 85 18 86
REMARK SMILES IDX 23 87 19 88 21 89 24 90 20 91 22 92
REMARK H PARENT 3 6 82 24 50 35 8 76
REMARK Flexibility Score: inf
ROOT
ATOM      1  C   UNL A   1      32.244  28.855  24.434  1.00  0.00     0.023 C 
ENDROOT
BRANCH   1   2
ATOM      2  C   UNL A   1      33.147  29.393  25.536  1.00  0.00     0.116 C 
BRANCH   2   3
ATOM      3  N   UNL A   1      32.670  30.639  26.118  1.00  0.00    -0.352 N 
ATOM      4  O   UNL A   1      32.630  32.389  27.545  1.00  0.00    -0.269 OA
ATOM      5  C   UNL A   1      33.237  31.420  27.098  1.00  0.00     0.251 C 
ATOM      6  H   UNL A   1      31.816  30.971  25.758  1.00  0.00     0.163 HD
BRANCH   5   7
ATOM      7  C   UNL A   1      34.564  31.063  27.643  1.00  0.00     0.039 A 
ATOM      8  C   UNL A   1      34.842  29.754  28.037  1.00  0.00     0.014 A 
ATOM      9  C   UNL A   1      35.530  32.063  27.797  1.00  0.00     0.014 A 
ATOM     10  C   UNL A   1      36.000  29.486  28.754  1.00  0.00     0.010 A 
ATOM     11  C   UNL A   1      36.739  31.767  28.433  1.00  0.00     0.010 A 
ATOM     12  C   UNL A   1      36.962  30.488  28.964  1.00  0.00    -0.014 A 
BRANCH  12  13
ATOM     13  C   UNL A   1      38.193  30.158  29.729  1.00  0.00     0.031 A 
ATOM     14  C   UNL A   1      38.387  30.640  31.140  1.00  0.00     0.074 A 
ATOM     15  C   UNL A   1      39.111  29.353  29.160  1.00  0.00     0.049 A 
ATOM     16  N   UNL A   1      39.370  30.388  31.968  1.00  0.00    -0.248 NA
ATOM     17  C   UNL A   1      37.349  31.522  31.695  1.00  0.00     0.031 C 
ATOM     18  C   UNL A   1      39.034  28.828  27.795  1.00  0.00     0.029 A 
ATOM     19  N   UNL A   1      40.263  28.806  29.663  1.00  0.00    -0.354 N 
ATOM     20  C   UNL A   1      39.081  31.092  33.130  1.00  0.00     0.074 A 
ATOM     21  C   UNL A   1      37.844  31.804  32.894  1.00  0.00     0.031 C 
ATOM     22  C   UNL A   1      40.053  27.982  27.593  1.00  0.00     0.029 A 
ATOM     23  C   UNL A   1      40.887  27.950  28.790  1.00  0.00     0.049 A 
ATOM     24  H   UNL A   1      40.608  29.006  30.563  1.00  0.00     0.167 HD
ATOM     25  C   UNL A   1      39.781  31.130  34.290  1.00  0.00     0.037 A 
ATOM     26  C   UNL A   1      42.007  27.218  28.933  1.00  0.00     0.037 A 
ATOM     27  C   UNL A   1      40.999  30.400  34.530  1.00  0.00     0.049 A 
ATOM     28  C   UNL A   1      42.761  27.277  30.228  1.00  0.00     0.074 A 
ATOM     29  C   UNL A   1      41.772  30.365  35.678  1.00  0.00     0.029 A 
ATOM     30  N   UNL A   1      41.621  29.574  33.606  1.00  0.00    -0.354 N 
ATOM     31  N   UNL A   1      42.475  27.946  31.318  1.00  0.00    -0.248 NA
ATOM     32  C   UNL A   1      43.997  26.487  30.311  1.00  0.00     0.031 C 
ATOM     33  C   UNL A   1      42.880  29.546  35.437  1.00  0.00     0.029 A 
ATOM     34  C   UNL A   1      42.774  29.033  34.155  1.00  0.00     0.049 A 
ATOM     35  H   UNL A   1      41.292  29.396  32.695  1.00  0.00     0.167 HD
ATOM     36  C   UNL A   1      43.487  27.654  32.219  1.00  0.00     0.074 A 
ATOM     37  C   UNL A   1      44.385  26.729  31.557  1.00  0.00     0.031 C 
ATOM     38  C   UNL A   1      43.658  28.117  33.481  1.00  0.00     0.037 A 
BRANCH  25  39
ATOM     39  C   UNL A   1      39.251  31.994  35.397  1.00  0.00     0.064 A 
ATOM     40  C   UNL A   1      39.620  33.346  35.482  1.00  0.00     0.173 A 
ATOM     41  C   UNL A   1      38.435  31.473  36.411  1.00  0.00     0.173 A 
ATOM     42  F   UNL A   1      40.406  33.892  34.542  1.00  0.00    -0.203 F 
ATOM     43  C   UNL A   1      39.199  34.140  36.546  1.00  0.00     0.198 A 
ATOM     44  C   UNL A   1      37.994  32.276  37.460  1.00  0.00     0.198 A 
ATOM     45  F   UNL A   1      38.045  30.190  36.370  1.00  0.00    -0.203 F 
ATOM     46  F   UNL A   1      39.586  35.421  36.619  1.00  0.00    -0.200 F 
ATOM     47  C   UNL A   1      38.383  33.606  37.531  1.00  0.00     0.200 A 
ATOM     48  F   UNL A   1      37.187  31.765  38.400  1.00  0.00    -0.200 F 
ATOM     49  F   UNL A   1      37.968  34.373  38.549  1.00  0.00    -0.200 F 
ENDBRANCH  25  39
BRANCH  26  50
ATOM     50  C   UNL A   1      42.452  26.351  27.813  1.00  0.00     0.064 A 
ATOM     51  C   UNL A   1      43.384  26.806  26.869  1.00  0.00     0.173 A 
ATOM     52  C   UNL A   1      41.903  25.075  27.630  1.00  0.00     0.173 A 
ATOM     53  F   UNL A   1      43.930  28.024  26.999  1.00  0.00    -0.203 F 
ATOM     54  C   UNL A   1      43.729  26.028  25.767  1.00  0.00     0.198 A 
ATOM     55  C   UNL A   1      42.268  24.287  26.541  1.00  0.00     0.198 A 
ATOM     56  F   UNL A   1      41.020  24.593  28.516  1.00  0.00    -0.203 F 
ATOM     57  F   UNL A   1      44.586  26.505  24.855  1.00  0.00    -0.200 F 
ATOM     58  C   UNL A   1      43.172  24.768  25.605  1.00  0.00     0.200 A 
ATOM     59  F   UNL A   1      41.742  23.063  26.397  1.00  0.00    -0.200 F 
ATOM     60  F   UNL A   1      43.504  24.018  24.545  1.00  0.00    -0.200 F 
ENDBRANCH  26  50
BRANCH  38  61
ATOM     61  C   UNL A   1      44.856  27.626  34.238  1.00  0.00     0.064 A 
ATOM     62  C   UNL A   1      44.774  26.467  35.026  1.00  0.00     0.173 A 
ATOM     63  C   UNL A   1      46.067  28.332  34.227  1.00  0.00     0.173 A 
ATOM     64  F   UNL A   1      43.634  25.761  35.072  1.00  0.00    -0.203 F 
ATOM     65  C   UNL A   1      45.859  26.040  35.783  1.00  0.00     0.198 A 
ATOM     66  C   UNL A   1      47.160  27.888  34.968  1.00  0.00     0.198 A 
ATOM     67  F   UNL A   1      46.197  29.437  33.478  1.00  0.00    -0.203 F 
ATOM     68  F   UNL A   1      45.751  24.945  36.548  1.00  0.00    -0.200 F 
ATOM     69  C   UNL A   1      47.052  26.748  35.751  1.00  0.00     0.200 A 
ATOM     70  F   UNL A   1      48.317  28.559  34.918  1.00  0.00    -0.200 F 
ATOM     71  F   UNL A   1      48.101  26.327  36.471  1.00  0.00    -0.200 F 
ENDBRANCH  38  61
ENDBRANCH  12  13
ENDBRANCH   5   7
ENDBRANCH   2   3
ENDBRANCH   1   2
BRANCH   1  72
ATOM     72  C   UNL A   1      32.794  28.987  23.016  1.00  0.00     0.023 C 
BRANCH  72  73
ATOM     73  C   UNL A   1      33.892  27.994  22.651  1.00  0.00     0.116 C 
BRANCH  73  74
ATOM     74  N   UNL A   1      33.427  26.953  21.749  1.00  0.00    -0.352 N 
ATOM     75  C   UNL A   1      33.282  25.611  21.988  1.00  0.00     0.251 C 
ATOM     76  H   UNL A   1      33.181  27.253  20.844  1.00  0.00     0.163 HD
ATOM     77  O   UNL A   1      33.009  24.835  21.079  1.00  0.00    -0.269 OA
BRANCH  75  78
ATOM     78  C   UNL A   1      33.495  25.100  23.353  1.00  0.00     0.043 A 
ATOM     79  C   UNL A   1      32.521  25.282  24.334  1.00  0.00     0.053 A 
ATOM     80  C   UNL A   1      34.696  24.445  23.646  1.00  0.00     0.023 A 
ATOM     81  C   UNL A   1      32.796  24.869  25.626  1.00  0.00     0.124 A 
ATOM     82  C   UNL A   1      34.970  24.008  24.953  1.00  0.00    -0.012 A 
ATOM     83  F   UNL A   1      31.894  25.090  26.591  1.00  0.00    -0.207 F 
ATOM     84  C   UNL A   1      34.003  24.249  25.943  1.00  0.00     0.048 A 
BRANCH  82  85
ATOM     85  C   UNL A   1      36.230  23.321  25.275  1.00  0.00     0.021 A 
ATOM     86  C   UNL A   1      37.274  23.990  25.942  1.00  0.00     0.012 A 
ATOM     87  C   UNL A   1      36.437  21.977  24.929  1.00  0.00     0.166 A 
ATOM     88  C   UNL A   1      38.476  23.338  26.248  1.00  0.00     0.004 A 
ATOM     89  C   UNL A   1      37.632  21.331  25.231  1.00  0.00     0.159 A 
ATOM     90  F   UNL A   1      35.478  21.292  24.284  1.00  0.00    -0.203 F 
ATOM     91  C   UNL A   1      38.654  22.003  25.890  1.00  0.00     0.042 A 
ATOM     92  F   UNL A   1      37.807  20.048  24.889  1.00  0.00    -0.204 F 
ENDBRANCH  82  85
ENDBRANCH  75  78
ENDBRANCH  73  74
ENDBRANCH  72  73
ENDBRANCH   1  72
TORSDOF 12
ENDMDL
