MODEL 1
REMARK VINA RESULT:     -12.8      0.000      0.000
REMARK SMILES CCOC(=O)c1c(NC(=O)[C@@H]2[C@@H]3CC[C@@H](C3)[C@@H]2C(=O)NCCCCNC(=O)c2ccc(-c3c4nc(c(-c5c(F)c(F)c(F)c(F)c5F)c5ccc([nH]5)c(-c5c(F)c(F)c(F)c(F)c5F)c5nc(c(-c6c(F)c(F)c(F)c(F)c6F)c6ccc3[nH]6)C=C5)C=C4)cc2)sc2c1CCCC2
REMARK SMILES IDX 21 1 20 2 18 3 19 4 17 6 11 7 12 8 13 9 16 10 15 11 14 12
REMARK SMILES IDX 9 13 8 14 10 16 7 17 6 18 93 19 91 20 92 21 94 22 97 23
REMARK SMILES IDX 95 24 96 25 4 26 5 27 3 28 2 29 1 30 22 31 23 32 24 33 25 34
REMARK SMILES IDX 26 35 27 37 28 38 29 39 90 40 30 41 89 42 31 43 32 44 33 45
REMARK SMILES IDX 83 46 34 47 88 48 82 49 84 50 35 51 87 52 81 53 80 54 36 56
REMARK SMILES IDX 68 57 48 58 67 59 49 60 52 61 66 62 85 63 50 64 51 65 65 67
REMARK SMILES IDX 86 68 53 69 37 70 38 71 46 72 39 73 40 74 44 75 47 76 41 77
REMARK SMILES IDX 42 78 45 79 43 80 69 81 70 82 78 83 71 84 72 85 76 86 79 87
REMARK SMILES IDX 73 88 74 89 77 90 75 91 54 92 55 93 63 94 56 95 57 96 61 97
REMARK SMILES IDX 64 98 58 99 59 100 62 101 60 102
REMARK H PARENT 20 5 8 15 25 36 84 55 52 66
REMARK Flexibility Score: inf
ROOT
ATOM      1  C   UNL A   1      37.213  23.415  25.678  1.00  0.00     0.116 C 
ENDROOT
BRANCH   1   2
ATOM      2  N   UNL A   1      35.895  24.009  25.586  1.00  0.00    -0.356 N 
ATOM      3  C   UNL A   1      34.806  23.281  25.974  1.00  0.00     0.224 C 
ATOM      4  O   UNL A   1      34.658  22.961  27.152  1.00  0.00    -0.275 OA
ATOM      5  H   UNL A   1      35.785  24.927  25.249  1.00  0.00     0.163 HD
BRANCH   3   6
ATOM      6  C   UNL A   1      33.708  23.050  24.940  1.00  0.00     0.094 C 
ATOM      7  C   UNL A   1      32.227  22.884  25.345  1.00  0.00     0.094 C 
ATOM      8  C   UNL A   1      31.938  21.413  24.968  1.00  0.00     0.002 C 
ATOM      9  C   UNL A   1      32.842  20.408  25.711  1.00  0.00     0.005 C 
ATOM     10  C   UNL A   1      32.560  21.410  23.568  1.00  0.00     0.009 C 
ATOM     11  C   UNL A   1      33.958  21.765  24.093  1.00  0.00     0.002 C 
ATOM     12  C   UNL A   1      34.195  20.550  24.999  1.00  0.00     0.005 C 
BRANCH   7  13
ATOM     13  C   UNL A   1      31.705  23.352  26.682  1.00  0.00     0.229 C 
ATOM     14  N   UNL A   1      31.301  24.642  26.875  1.00  0.00    -0.317 N 
ATOM     15  H   UNL A   1      31.046  24.838  27.806  1.00  0.00     0.170 HD
ATOM     16  O   UNL A   1      31.652  22.587  27.650  1.00  0.00    -0.274 OA
BRANCH  14  17
ATOM     17  C   UNL A   1      31.179  25.724  26.033  1.00  0.00     0.110 A 
ATOM     18  C   UNL A   1      31.854  26.900  25.738  1.00  0.00     0.098 A 
ATOM     19  C   UNL A   1      31.098  27.696  24.784  1.00  0.00    -0.017 A 
ATOM     20  S   UNL A   1      29.792  25.515  25.044  1.00  0.00    -0.122 S 
ATOM     21  C   UNL A   1      29.925  27.076  24.410  1.00  0.00     0.011 A 
ATOM     22  C   UNL A   1      31.530  28.995  24.154  1.00  0.00     0.038 C 
ATOM     23  C   UNL A   1      28.890  27.660  23.500  1.00  0.00     0.047 C 
ATOM     24  C   UNL A   1      30.389  29.701  23.404  1.00  0.00     0.005 C 
ATOM     25  C   UNL A   1      29.525  28.724  22.597  1.00  0.00     0.006 C 
BRANCH  18  26
ATOM     26  C   UNL A   1      33.187  27.265  26.190  1.00  0.00     0.341 C 
ATOM     27  O   UNL A   1      34.215  26.788  25.714  1.00  0.00    -0.246 OA
BRANCH  26  28
ATOM     28  O   UNL A   1      33.151  28.178  27.202  1.00  0.00    -0.462 OA
BRANCH  28  29
ATOM     29  C   UNL A   1      33.851  29.407  26.970  1.00  0.00     0.230 C 
ATOM     30  C   UNL A   1      32.903  30.560  27.250  1.00  0.00     0.049 C 
ENDBRANCH  28  29
ENDBRANCH  26  28
ENDBRANCH  18  26
ENDBRANCH  14  17
ENDBRANCH   7  13
ENDBRANCH   3   6
ENDBRANCH   1   2
BRANCH   1  31
ATOM     31  C   UNL A   1      37.405  22.327  24.621  1.00  0.00     0.023 C 
BRANCH  31  32
ATOM     32  C   UNL A   1      37.827  20.989  25.220  1.00  0.00     0.023 C 
BRANCH  32  33
ATOM     33  C   UNL A   1      39.145  21.022  25.981  1.00  0.00     0.116 C 
BRANCH  33  34
ATOM     34  N   UNL A   1      39.866  19.759  25.943  1.00  0.00    -0.352 N 
ATOM     35  C   UNL A   1      41.219  19.561  26.125  1.00  0.00     0.251 C 
ATOM     36  H   UNL A   1      39.327  18.955  25.766  1.00  0.00     0.163 HD
ATOM     37  O   UNL A   1      41.727  18.454  26.007  1.00  0.00    -0.269 OA
BRANCH  35  38
ATOM     38  C   UNL A   1      42.059  20.740  26.417  1.00  0.00     0.039 A 
ATOM     39  C   UNL A   1      42.478  21.545  25.356  1.00  0.00     0.014 A 
ATOM     40  C   UNL A   1      42.299  21.114  27.741  1.00  0.00     0.014 A 
ATOM     41  C   UNL A   1      43.061  22.784  25.627  1.00  0.00     0.010 A 
ATOM     42  C   UNL A   1      42.832  22.373  28.007  1.00  0.00     0.010 A 
ATOM     43  C   UNL A   1      43.193  23.227  26.954  1.00  0.00    -0.014 A 
BRANCH  43  44
ATOM     44  C   UNL A   1      43.656  24.605  27.259  1.00  0.00     0.031 A 
ATOM     45  C   UNL A   1      42.683  25.637  27.748  1.00  0.00     0.074 A 
ATOM     46  C   UNL A   1      44.933  24.948  27.000  1.00  0.00     0.049 A 
ATOM     47  N   UNL A   1      42.878  26.908  27.985  1.00  0.00    -0.248 NA
ATOM     48  C   UNL A   1      41.300  25.187  27.970  1.00  0.00     0.031 C 
ATOM     49  C   UNL A   1      45.956  24.055  26.453  1.00  0.00     0.029 A 
ATOM     50  N   UNL A   1      45.583  26.148  27.145  1.00  0.00    -0.354 N 
ATOM     51  C   UNL A   1      41.639  27.417  28.350  1.00  0.00     0.074 A 
ATOM     52  C   UNL A   1      40.693  26.324  28.280  1.00  0.00     0.031 C 
ATOM     53  C   UNL A   1      47.108  24.736  26.319  1.00  0.00     0.029 A 
ATOM     54  C   UNL A   1      46.898  26.114  26.751  1.00  0.00     0.049 A 
ATOM     55  H   UNL A   1      45.149  26.958  27.498  1.00  0.00     0.167 HD
ATOM     56  C   UNL A   1      41.323  28.680  28.722  1.00  0.00     0.037 A 
ATOM     57  C   UNL A   1      47.830  27.086  26.739  1.00  0.00     0.037 A 
ATOM     58  C   UNL A   1      42.273  29.752  28.849  1.00  0.00     0.049 A 
ATOM     59  C   UNL A   1      47.468  28.461  27.232  1.00  0.00     0.074 A 
ATOM     60  C   UNL A   1      42.065  31.038  29.317  1.00  0.00     0.029 A 
ATOM     61  N   UNL A   1      43.615  29.659  28.513  1.00  0.00    -0.354 N 
ATOM     62  N   UNL A   1      46.313  28.906  27.661  1.00  0.00    -0.248 NA
ATOM     63  C   UNL A   1      48.541  29.465  27.248  1.00  0.00     0.031 C 
ATOM     64  C   UNL A   1      43.278  31.731  29.244  1.00  0.00     0.029 A 
ATOM     65  C   UNL A   1      44.245  30.868  28.753  1.00  0.00     0.049 A 
ATOM     66  H   UNL A   1      44.054  28.853  28.157  1.00  0.00     0.167 HD
ATOM     67  C   UNL A   1      46.526  30.228  28.024  1.00  0.00     0.074 A 
ATOM     68  C   UNL A   1      47.923  30.514  27.772  1.00  0.00     0.031 C 
ATOM     69  C   UNL A   1      45.641  31.126  28.520  1.00  0.00     0.037 A 
BRANCH  56  70
ATOM     70  C   UNL A   1      39.887  28.971  29.030  1.00  0.00     0.064 A 
ATOM     71  C   UNL A   1      39.005  29.431  28.042  1.00  0.00     0.173 A 
ATOM     72  C   UNL A   1      39.379  28.749  30.318  1.00  0.00     0.173 A 
ATOM     73  F   UNL A   1      39.450  29.669  26.798  1.00  0.00    -0.203 F 
ATOM     74  C   UNL A   1      37.668  29.679  28.338  1.00  0.00     0.198 A 
ATOM     75  C   UNL A   1      38.036  28.979  30.605  1.00  0.00     0.198 A 
ATOM     76  F   UNL A   1      40.184  28.307  31.295  1.00  0.00    -0.203 F 
ATOM     77  F   UNL A   1      36.850  30.153  27.388  1.00  0.00    -0.200 F 
ATOM     78  C   UNL A   1      37.184  29.448  29.616  1.00  0.00     0.200 A 
ATOM     79  F   UNL A   1      37.568  28.749  31.839  1.00  0.00    -0.200 F 
ATOM     80  F   UNL A   1      35.895  29.683  29.899  1.00  0.00    -0.200 F 
ENDBRANCH  56  70
BRANCH  57  81
ATOM     81  C   UNL A   1      49.210  26.792  26.279  1.00  0.00     0.064 A 
ATOM     82  C   UNL A   1      49.567  26.959  24.934  1.00  0.00     0.173 A 
ATOM     83  C   UNL A   1      50.189  26.320  27.164  1.00  0.00     0.173 A 
ATOM     84  F   UNL A   1      48.656  27.388  24.049  1.00  0.00    -0.203 F 
ATOM     85  C   UNL A   1      50.847  26.640  24.485  1.00  0.00     0.198 A 
ATOM     86  C   UNL A   1      51.475  26.023  26.718  1.00  0.00     0.198 A 
ATOM     87  F   UNL A   1      49.896  26.149  28.461  1.00  0.00    -0.203 F 
ATOM     88  F   UNL A   1      51.149  26.765  23.187  1.00  0.00    -0.200 F 
ATOM     89  C   UNL A   1      51.801  26.175  25.378  1.00  0.00     0.200 A 
ATOM     90  F   UNL A   1      52.398  25.580  27.583  1.00  0.00    -0.200 F 
ATOM     91  F   UNL A   1      53.030  25.863  24.946  1.00  0.00    -0.200 F 
ENDBRANCH  57  81
BRANCH  69  92
ATOM     92  C   UNL A   1      46.163  32.487  28.860  1.00  0.00     0.064 A 
ATOM     93  C   UNL A   1      46.695  32.772  30.125  1.00  0.00     0.173 A 
ATOM     94  C   UNL A   1      46.173  33.504  27.894  1.00  0.00     0.173 A 
ATOM     95  F   UNL A   1      46.690  31.834  31.085  1.00  0.00    -0.203 F 
ATOM     96  C   UNL A   1      47.208  34.033  30.415  1.00  0.00     0.198 A 
ATOM     97  C   UNL A   1      46.704  34.757  28.182  1.00  0.00     0.198 A 
ATOM     98  F   UNL A   1      45.675  33.277  26.669  1.00  0.00    -0.203 F 
ATOM     99  F   UNL A   1      47.685  34.293  31.641  1.00  0.00    -0.200 F 
ATOM    100  C   UNL A   1      47.218  35.021  29.443  1.00  0.00     0.200 A 
ATOM    101  F   UNL A   1      46.720  35.711  27.240  1.00  0.00    -0.200 F 
ATOM    102  F   UNL A   1      47.718  36.233  29.723  1.00  0.00    -0.200 F 
ENDBRANCH  69  92
ENDBRANCH  43  44
ENDBRANCH  35  38
ENDBRANCH  33  34
ENDBRANCH  32  33
ENDBRANCH  31  32
ENDBRANCH   1  31
TORSDOF 16
ENDMDL
MODEL 2
REMARK VINA RESULT:     -12.8      0.113      1.870
REMARK SMILES CCOC(=O)c1c(NC(=O)[C@@H]2[C@@H]3CC[C@@H](C3)[C@@H]2C(=O)NCCCCNC(=O)c2ccc(-c3c4nc(c(-c5c(F)c(F)c(F)c(F)c5F)c5ccc([nH]5)c(-c5c(F)c(F)c(F)c(F)c5F)c5nc(c(-c6c(F)c(F)c(F)c(F)c6F)c6ccc3[nH]6)C=C5)C=C4)cc2)sc2c1CCCC2
REMARK SMILES IDX 21 1 20 2 18 3 19 4 17 6 11 7 12 8 13 9 16 10 15 11 14 12
REMARK SMILES IDX 9 13 8 14 10 16 7 17 6 18 93 19 91 20 92 21 94 22 97 23
REMARK SMILES IDX 95 24 96 25 4 26 5 27 3 28 2 29 1 30 22 31 23 32 24 33 25 34
REMARK SMILES IDX 26 35 27 37 28 38 29 39 90 40 30 41 89 42 31 43 32 44 33 45
REMARK SMILES IDX 83 46 34 47 88 48 82 49 84 50 35 51 87 52 81 53 80 54 36 56
REMARK SMILES IDX 68 57 48 58 67 59 49 60 52 61 66 62 85 63 50 64 51 65 65 67
REMARK SMILES IDX 86 68 53 69 37 70 38 71 46 72 39 73 40 74 44 75 47 76 41 77
REMARK SMILES IDX 42 78 45 79 43 80 69 81 70 82 78 83 71 84 72 85 76 86 79 87
REMARK SMILES IDX 73 88 74 89 77 90 75 91 54 92 55 93 63 94 56 95 57 96 61 97
REMARK SMILES IDX 64 98 58 99 59 100 62 101 60 102
REMARK H PARENT 20 5 8 15 25 36 84 55 52 66
REMARK Flexibility Score: inf
ROOT
ATOM      1  C   UNL A   1      37.274  23.453  25.782  1.00  0.00     0.116 C 
ENDROOT
BRANCH   1   2
ATOM      2  N   UNL A   1      35.954  24.038  25.680  1.00  0.00    -0.356 N 
ATOM      3  C   UNL A   1      34.864  23.293  26.032  1.00  0.00     0.224 C 
ATOM      4  O   UNL A   1      34.699  22.945  27.200  1.00  0.00    -0.275 OA
ATOM      5  H   UNL A   1      35.842  24.963  25.362  1.00  0.00     0.163 HD
BRANCH   3   6
ATOM      6  C   UNL A   1      33.786  23.078  24.974  1.00  0.00     0.094 C 
ATOM      7  C   UNL A   1      32.298  22.906  25.348  1.00  0.00     0.094 C 
ATOM      8  C   UNL A   1      32.016  21.440  24.944  1.00  0.00     0.002 C 
ATOM      9  C   UNL A   1      32.906  20.424  25.690  1.00  0.00     0.005 C 
ATOM     10  C   UNL A   1      32.665  21.457  23.556  1.00  0.00     0.009 C 
ATOM     11  C   UNL A   1      34.053  21.804  24.114  1.00  0.00     0.002 C 
ATOM     12  C   UNL A   1      34.272  20.577  25.006  1.00  0.00     0.005 C 
BRANCH   7  13
ATOM     13  C   UNL A   1      31.750  23.355  26.681  1.00  0.00     0.229 C 
ATOM     14  N   UNL A   1      31.315  24.634  26.876  1.00  0.00    -0.317 N 
ATOM     15  H   UNL A   1      31.045  24.819  27.805  1.00  0.00     0.170 HD
ATOM     16  O   UNL A   1      31.703  22.584  27.644  1.00  0.00    -0.274 OA
BRANCH  14  17
ATOM     17  C   UNL A   1      31.178  25.717  26.038  1.00  0.00     0.110 A 
ATOM     18  C   UNL A   1      31.833  26.907  25.753  1.00  0.00     0.098 A 
ATOM     19  C   UNL A   1      31.068  27.694  24.798  1.00  0.00    -0.017 A 
ATOM     20  S   UNL A   1      29.802  25.487  25.040  1.00  0.00    -0.122 S 
ATOM     21  C   UNL A   1      29.909  27.054  24.413  1.00  0.00     0.011 A 
ATOM     22  C   UNL A   1      31.480  29.004  24.176  1.00  0.00     0.038 C 
ATOM     23  C   UNL A   1      28.870  27.623  23.500  1.00  0.00     0.047 C 
ATOM     24  C   UNL A   1      30.331  29.691  23.423  1.00  0.00     0.005 C 
ATOM     25  C   UNL A   1      29.490  28.703  22.605  1.00  0.00     0.006 C 
BRANCH  18  26
ATOM     26  C   UNL A   1      33.156  27.295  26.216  1.00  0.00     0.341 C 
ATOM     27  O   UNL A   1      34.192  26.773  25.810  1.00  0.00    -0.246 OA
BRANCH  26  28
ATOM     28  O   UNL A   1      33.100  28.285  27.150  1.00  0.00    -0.462 OA
BRANCH  28  29
ATOM     29  C   UNL A   1      33.925  29.432  26.908  1.00  0.00     0.230 C 
ATOM     30  C   UNL A   1      33.130  30.679  27.251  1.00  0.00     0.049 C 
ENDBRANCH  28  29
ENDBRANCH  26  28
ENDBRANCH  18  26
ENDBRANCH  14  17
ENDBRANCH   7  13
ENDBRANCH   3   6
ENDBRANCH   1   2
BRANCH   1  31
ATOM     31  C   UNL A   1      37.499  22.401  24.695  1.00  0.00     0.023 C 
BRANCH  31  32
ATOM     32  C   UNL A   1      37.868  21.034  25.261  1.00  0.00     0.023 C 
BRANCH  32  33
ATOM     33  C   UNL A   1      39.150  21.013  26.083  1.00  0.00     0.116 C 
BRANCH  33  34
ATOM     34  N   UNL A   1      39.875  19.754  25.991  1.00  0.00    -0.352 N 
ATOM     35  C   UNL A   1      41.232  19.556  26.126  1.00  0.00     0.251 C 
ATOM     36  H   UNL A   1      39.333  18.952  25.813  1.00  0.00     0.163 HD
ATOM     37  O   UNL A   1      41.741  18.455  25.965  1.00  0.00    -0.269 OA
BRANCH  35  38
ATOM     38  C   UNL A   1      42.078  20.732  26.418  1.00  0.00     0.039 A 
ATOM     39  C   UNL A   1      42.529  21.517  25.355  1.00  0.00     0.014 A 
ATOM     40  C   UNL A   1      42.291  21.124  27.742  1.00  0.00     0.014 A 
ATOM     41  C   UNL A   1      43.118  22.754  25.621  1.00  0.00     0.010 A 
ATOM     42  C   UNL A   1      42.831  22.381  28.001  1.00  0.00     0.010 A 
ATOM     43  C   UNL A   1      43.224  23.216  26.943  1.00  0.00    -0.014 A 
BRANCH  43  44
ATOM     44  C   UNL A   1      43.694  24.594  27.237  1.00  0.00     0.031 A 
ATOM     45  C   UNL A   1      42.727  25.634  27.720  1.00  0.00     0.074 A 
ATOM     46  C   UNL A   1      44.972  24.929  26.975  1.00  0.00     0.049 A 
ATOM     47  N   UNL A   1      42.928  26.906  27.948  1.00  0.00    -0.248 NA
ATOM     48  C   UNL A   1      41.342  25.192  27.947  1.00  0.00     0.031 C 
ATOM     49  C   UNL A   1      45.991  24.028  26.433  1.00  0.00     0.029 A 
ATOM     50  N   UNL A   1      45.629  26.127  27.111  1.00  0.00    -0.354 N 
ATOM     51  C   UNL A   1      41.692  27.423  28.311  1.00  0.00     0.074 A 
ATOM     52  C   UNL A   1      40.741  26.334  28.250  1.00  0.00     0.031 C 
ATOM     53  C   UNL A   1      47.146  24.702  26.293  1.00  0.00     0.029 A 
ATOM     54  C   UNL A   1      46.943  26.084  26.715  1.00  0.00     0.049 A 
ATOM     55  H   UNL A   1      45.198  26.941  27.458  1.00  0.00     0.167 HD
ATOM     56  C   UNL A   1      41.382  28.690  28.674  1.00  0.00     0.037 A 
ATOM     57  C   UNL A   1      47.879  27.052  26.695  1.00  0.00     0.037 A 
ATOM     58  C   UNL A   1      42.337  29.759  28.792  1.00  0.00     0.049 A 
ATOM     59  C   UNL A   1      47.524  28.432  27.179  1.00  0.00     0.074 A 
ATOM     60  C   UNL A   1      42.136  31.049  29.250  1.00  0.00     0.029 A 
ATOM     61  N   UNL A   1      43.678  29.657  28.455  1.00  0.00    -0.354 N 
ATOM     62  N   UNL A   1      46.372  28.885  27.605  1.00  0.00    -0.248 NA
ATOM     63  C   UNL A   1      48.602  29.430  27.186  1.00  0.00     0.031 C 
ATOM     64  C   UNL A   1      43.353  31.736  29.171  1.00  0.00     0.029 A 
ATOM     65  C   UNL A   1      44.315  30.865  28.686  1.00  0.00     0.049 A 
ATOM     66  H   UNL A   1      44.113  28.846  28.104  1.00  0.00     0.167 HD
ATOM     67  C   UNL A   1      46.591  30.208  27.958  1.00  0.00     0.074 A 
ATOM     68  C   UNL A   1      47.989  30.486  27.703  1.00  0.00     0.031 C 
ATOM     69  C   UNL A   1      45.711  31.114  28.449  1.00  0.00     0.037 A 
BRANCH  56  70
ATOM     70  C   UNL A   1      39.948  28.990  28.981  1.00  0.00     0.064 A 
ATOM     71  C   UNL A   1      39.451  28.930  30.291  1.00  0.00     0.173 A 
ATOM     72  C   UNL A   1      39.071  29.381  27.959  1.00  0.00     0.173 A 
ATOM     73  F   UNL A   1      40.251  28.550  31.299  1.00  0.00    -0.203 F 
ATOM     74  C   UNL A   1      38.119  29.231  30.564  1.00  0.00     0.198 A 
ATOM     75  C   UNL A   1      37.745  29.701  28.240  1.00  0.00     0.198 A 
ATOM     76  F   UNL A   1      39.501  29.456  26.691  1.00  0.00    -0.203 F 
ATOM     77  F   UNL A   1      37.656  29.132  31.817  1.00  0.00    -0.200 F 
ATOM     78  C   UNL A   1      37.270  29.620  29.540  1.00  0.00     0.200 A 
ATOM     79  F   UNL A   1      36.927  30.084  27.250  1.00  0.00    -0.200 F 
ATOM     80  F   UNL A   1      35.990  29.914  29.805  1.00  0.00    -0.200 F 
ENDBRANCH  56  70
BRANCH  57  81
ATOM     81  C   UNL A   1      49.258  26.748  26.236  1.00  0.00     0.064 A 
ATOM     82  C   UNL A   1      50.218  26.257  27.131  1.00  0.00     0.173 A 
ATOM     83  C   UNL A   1      49.649  26.963  24.907  1.00  0.00     0.173 A 
ATOM     84  F   UNL A   1      49.892  26.057  28.416  1.00  0.00    -0.203 F 
ATOM     85  C   UNL A   1      51.526  26.014  26.719  1.00  0.00     0.198 A 
ATOM     86  C   UNL A   1      50.952  26.699  24.492  1.00  0.00     0.198 A 
ATOM     87  F   UNL A   1      48.765  27.429  24.013  1.00  0.00    -0.203 F 
ATOM     88  F   UNL A   1      52.436  25.587  27.605  1.00  0.00    -0.200 F 
ATOM     89  C   UNL A   1      51.892  26.233  25.400  1.00  0.00     0.200 A 
ATOM     90  F   UNL A   1      51.302  26.905  23.215  1.00  0.00    -0.200 F 
ATOM     91  F   UNL A   1      53.151  26.005  25.005  1.00  0.00    -0.200 F 
ENDBRANCH  57  81
BRANCH  69  92
ATOM     92  C   UNL A   1      46.240  32.476  28.778  1.00  0.00     0.064 A 
ATOM     93  C   UNL A   1      46.231  33.512  27.835  1.00  0.00     0.173 A 
ATOM     94  C   UNL A   1      46.720  32.757  30.066  1.00  0.00     0.173 A 
ATOM     95  F   UNL A   1      45.797  33.283  26.586  1.00  0.00    -0.203 F 
ATOM     96  C   UNL A   1      46.694  34.782  28.166  1.00  0.00     0.198 A 
ATOM     97  C   UNL A   1      47.164  34.032  30.399  1.00  0.00     0.198 A 
ATOM     98  F   UNL A   1      46.747  31.797  31.002  1.00  0.00    -0.203 F 
ATOM     99  F   UNL A   1      46.704  35.752  27.241  1.00  0.00    -0.200 F 
ATOM    100  C   UNL A   1      47.154  35.043  29.448  1.00  0.00     0.200 A 
ATOM    101  F   UNL A   1      47.603  34.286  31.640  1.00  0.00    -0.200 F 
ATOM    102  F   UNL A   1      47.594  36.268  29.767  1.00  0.00    -0.200 F 
ENDBRANCH  69  92
ENDBRANCH  43  44
ENDBRANCH  35  38
ENDBRANCH  33  34
ENDBRANCH  32  33
ENDBRANCH  31  32
ENDBRANCH   1  31
TORSDOF 16
ENDMDL
MODEL 3
REMARK VINA RESULT:     -12.6      5.201     10.685
REMARK SMILES CCOC(=O)c1c(NC(=O)[C@@H]2[C@@H]3CC[C@@H](C3)[C@@H]2C(=O)NCCCCNC(=O)c2ccc(-c3c4nc(c(-c5c(F)c(F)c(F)c(F)c5F)c5ccc([nH]5)c(-c5c(F)c(F)c(F)c(F)c5F)c5nc(c(-c6c(F)c(F)c(F)c(F)c6F)c6ccc3[nH]6)C=C5)C=C4)cc2)sc2c1CCCC2
REMARK SMILES IDX 21 1 20 2 18 3 19 4 17 6 11 7 12 8 13 9 16 10 15 11 14 12
REMARK SMILES IDX 9 13 8 14 10 16 7 17 6 18 93 19 91 20 92 21 94 22 97 23
REMARK SMILES IDX 95 24 96 25 4 26 5 27 3 28 2 29 1 30 22 31 23 32 24 33 25 34
REMARK SMILES IDX 26 35 27 37 28 38 29 39 90 40 30 41 89 42 31 43 32 44 33 45
REMARK SMILES IDX 83 46 34 47 88 48 82 49 84 50 35 51 87 52 81 53 80 54 36 56
REMARK SMILES IDX 68 57 48 58 67 59 49 60 52 61 66 62 85 63 50 64 51 65 65 67
REMARK SMILES IDX 86 68 53 69 37 70 38 71 46 72 39 73 40 74 44 75 47 76 41 77
REMARK SMILES IDX 42 78 45 79 43 80 69 81 70 82 78 83 71 84 72 85 76 86 79 87
REMARK SMILES IDX 73 88 74 89 77 90 75 91 54 92 55 93 63 94 56 95 57 96 61 97
REMARK SMILES IDX 64 98 58 99 59 100 62 101 60 102
REMARK H PARENT 20 5 8 15 25 36 84 55 52 66
REMARK Flexibility Score: inf
ROOT
ATOM      1  C   UNL A   1      33.717  29.221  26.795  1.00  0.00     0.116 C 
ENDROOT
BRANCH   1   2
ATOM      2  N   UNL A   1      33.560  27.901  26.221  1.00  0.00    -0.356 N 
ATOM      3  C   UNL A   1      33.280  27.780  24.889  1.00  0.00     0.224 C 
ATOM      4  O   UNL A   1      34.105  28.127  24.046  1.00  0.00    -0.275 OA
ATOM      5  H   UNL A   1      33.654  27.099  26.784  1.00  0.00     0.163 HD
BRANCH   3   6
ATOM      6  C   UNL A   1      32.006  27.036  24.501  1.00  0.00     0.094 C 
ATOM      7  C   UNL A   1      31.826  26.397  23.107  1.00  0.00     0.094 C 
ATOM      8  C   UNL A   1      30.695  27.250  22.488  1.00  0.00     0.002 C 
ATOM      9  C   UNL A   1      31.054  28.747  22.380  1.00  0.00     0.005 C 
ATOM     10  C   UNL A   1      29.732  27.250  23.680  1.00  0.00     0.009 C 
ATOM     11  C   UNL A   1      30.741  27.942  24.607  1.00  0.00     0.002 C 
ATOM     12  C   UNL A   1      30.935  29.248  23.827  1.00  0.00     0.005 C 
BRANCH   7  13
ATOM     13  C   UNL A   1      33.001  26.085  22.212  1.00  0.00     0.229 C 
ATOM     14  N   UNL A   1      33.716  24.931  22.354  1.00  0.00    -0.317 N 
ATOM     15  H   UNL A   1      34.497  24.876  21.756  1.00  0.00     0.170 HD
ATOM     16  O   UNL A   1      33.367  26.878  21.339  1.00  0.00    -0.274 OA
BRANCH  14  17
ATOM     17  C   UNL A   1      33.568  23.828  23.165  1.00  0.00     0.110 A 
ATOM     18  C   UNL A   1      33.911  23.418  24.445  1.00  0.00     0.098 A 
ATOM     19  C   UNL A   1      33.537  22.028  24.654  1.00  0.00    -0.017 A 
ATOM     20  S   UNL A   1      32.656  22.636  22.333  1.00  0.00    -0.122 S 
ATOM     21  C   UNL A   1      32.927  21.486  23.542  1.00  0.00     0.011 A 
ATOM     22  C   UNL A   1      33.666  21.244  25.934  1.00  0.00     0.038 C 
ATOM     23  C   UNL A   1      32.487  20.063  23.405  1.00  0.00     0.047 C 
ATOM     24  C   UNL A   1      33.429  19.739  25.735  1.00  0.00     0.005 C 
ATOM     25  C   UNL A   1      32.256  19.448  24.791  1.00  0.00     0.006 C 
BRANCH  18  26
ATOM     26  C   UNL A   1      34.449  24.258  25.504  1.00  0.00     0.341 C 
ATOM     27  O   UNL A   1      33.763  24.719  26.414  1.00  0.00    -0.246 OA
BRANCH  26  28
ATOM     28  O   UNL A   1      35.786  24.478  25.351  1.00  0.00    -0.462 OA
BRANCH  28  29
ATOM     29  C   UNL A   1      36.657  23.563  26.029  1.00  0.00     0.230 C 
ATOM     30  C   UNL A   1      37.402  22.747  24.987  1.00  0.00     0.049 C 
ENDBRANCH  28  29
ENDBRANCH  26  28
ENDBRANCH  18  26
ENDBRANCH  14  17
ENDBRANCH   7  13
ENDBRANCH   3   6
ENDBRANCH   1   2
BRANCH   1  31
ATOM     31  C   UNL A   1      32.373  29.788  27.256  1.00  0.00     0.023 C 
BRANCH  31  32
ATOM     32  C   UNL A   1      32.168  31.239  26.834  1.00  0.00     0.023 C 
BRANCH  32  33
ATOM     33  C   UNL A   1      33.139  32.227  27.466  1.00  0.00     0.116 C 
BRANCH  33  34
ATOM     34  N   UNL A   1      32.592  33.569  27.603  1.00  0.00    -0.352 N 
ATOM     35  C   UNL A   1      33.040  34.576  28.431  1.00  0.00     0.251 C 
ATOM     36  H   UNL A   1      31.813  33.781  27.039  1.00  0.00     0.163 HD
ATOM     37  O   UNL A   1      32.458  35.651  28.508  1.00  0.00    -0.269 OA
BRANCH  35  38
ATOM     38  C   UNL A   1      34.221  34.305  29.275  1.00  0.00     0.039 A 
ATOM     39  C   UNL A   1      34.033  33.709  30.523  1.00  0.00     0.014 A 
ATOM     40  C   UNL A   1      35.505  34.511  28.763  1.00  0.00     0.014 A 
ATOM     41  C   UNL A   1      35.139  33.227  31.225  1.00  0.00     0.010 A 
ATOM     42  C   UNL A   1      36.601  33.983  29.440  1.00  0.00     0.010 A 
ATOM     43  C   UNL A   1      36.424  33.315  30.663  1.00  0.00    -0.014 A 
BRANCH  43  44
ATOM     44  C   UNL A   1      37.590  32.665  31.313  1.00  0.00     0.031 A 
ATOM     45  C   UNL A   1      38.271  31.502  30.653  1.00  0.00     0.074 A 
ATOM     46  C   UNL A   1      37.971  33.062  32.543  1.00  0.00     0.049 A 
ATOM     47  N   UNL A   1      39.245  30.752  31.101  1.00  0.00    -0.248 NA
ATOM     48  C   UNL A   1      37.769  31.110  29.326  1.00  0.00     0.031 C 
ATOM     49  C   UNL A   1      37.342  34.131  33.321  1.00  0.00     0.029 A 
ATOM     50  N   UNL A   1      38.969  32.598  33.364  1.00  0.00    -0.354 N 
ATOM     51  C   UNL A   1      39.449  29.782  30.130  1.00  0.00     0.074 A 
ATOM     52  C   UNL A   1      38.482  30.020  29.080  1.00  0.00     0.031 C 
ATOM     53  C   UNL A   1      37.976  34.248  34.501  1.00  0.00     0.029 A 
ATOM     54  C   UNL A   1      39.039  33.251  34.570  1.00  0.00     0.049 A 
ATOM     55  H   UNL A   1      39.576  31.865  33.113  1.00  0.00     0.167 HD
ATOM     56  C   UNL A   1      40.368  28.788  30.113  1.00  0.00     0.037 A 
ATOM     57  C   UNL A   1      39.869  33.065  35.614  1.00  0.00     0.037 A 
ATOM     58  C   UNL A   1      41.367  28.586  31.128  1.00  0.00     0.049 A 
ATOM     59  C   UNL A   1      40.932  32.003  35.532  1.00  0.00     0.074 A 
ATOM     60  C   UNL A   1      42.404  27.670  31.147  1.00  0.00     0.029 A 
ATOM     61  N   UNL A   1      41.456  29.318  32.301  1.00  0.00    -0.354 N 
ATOM     62  N   UNL A   1      41.173  31.150  34.568  1.00  0.00    -0.248 NA
ATOM     63  C   UNL A   1      41.843  31.886  36.679  1.00  0.00     0.031 C 
ATOM     64  C   UNL A   1      43.110  27.833  32.344  1.00  0.00     0.029 A 
ATOM     65  C   UNL A   1      42.525  28.868  33.058  1.00  0.00     0.049 A 
ATOM     66  H   UNL A   1      40.849  30.049  32.559  1.00  0.00     0.167 HD
ATOM     67  C   UNL A   1      42.276  30.416  34.977  1.00  0.00     0.074 A 
ATOM     68  C   UNL A   1      42.665  30.927  36.275  1.00  0.00     0.031 C 
ATOM     69  C   UNL A   1      42.910  29.406  34.335  1.00  0.00     0.037 A 
BRANCH  56  70
ATOM     70  C   UNL A   1      40.345  27.844  28.950  1.00  0.00     0.064 A 
ATOM     71  C   UNL A   1      41.073  28.105  27.781  1.00  0.00     0.173 A 
ATOM     72  C   UNL A   1      39.617  26.648  29.023  1.00  0.00     0.173 A 
ATOM     73  F   UNL A   1      41.773  29.242  27.662  1.00  0.00    -0.203 F 
ATOM     74  C   UNL A   1      41.056  27.209  26.715  1.00  0.00     0.198 A 
ATOM     75  C   UNL A   1      39.620  25.745  27.964  1.00  0.00     0.198 A 
ATOM     76  F   UNL A   1      38.908  26.354  30.123  1.00  0.00    -0.203 F 
ATOM     77  F   UNL A   1      41.730  27.494  25.593  1.00  0.00    -0.200 F 
ATOM     78  C   UNL A   1      40.335  26.029  26.810  1.00  0.00     0.200 A 
ATOM     79  F   UNL A   1      38.928  24.601  28.059  1.00  0.00    -0.200 F 
ATOM     80  F   UNL A   1      40.324  25.165  25.785  1.00  0.00    -0.200 F 
ENDBRANCH  56  70
BRANCH  57  81
ATOM     81  C   UNL A   1      39.759  33.927  36.817  1.00  0.00     0.064 A 
ATOM     82  C   UNL A   1      38.974  33.534  37.909  1.00  0.00     0.173 A 
ATOM     83  C   UNL A   1      40.414  35.164  36.892  1.00  0.00     0.173 A 
ATOM     84  F   UNL A   1      38.312  32.368  37.872  1.00  0.00    -0.203 F 
ATOM     85  C   UNL A   1      38.827  34.358  39.023  1.00  0.00     0.198 A 
ATOM     86  C   UNL A   1      40.284  35.978  38.016  1.00  0.00     0.198 A 
ATOM     87  F   UNL A   1      41.180  35.581  35.873  1.00  0.00    -0.203 F 
ATOM     88  F   UNL A   1      38.035  33.979  40.034  1.00  0.00    -0.200 F 
ATOM     89  C   UNL A   1      39.484  35.578  39.077  1.00  0.00     0.200 A 
ATOM     90  F   UNL A   1      40.925  37.153  38.068  1.00  0.00    -0.200 F 
ATOM     91  F   UNL A   1      39.339  36.373  40.145  1.00  0.00    -0.200 F 
ENDBRANCH  57  81
BRANCH  69  92
ATOM     92  C   UNL A   1      44.111  28.813  35.005  1.00  0.00     0.064 A 
ATOM     93  C   UNL A   1      45.391  29.358  34.828  1.00  0.00     0.173 A 
ATOM     94  C   UNL A   1      43.972  27.717  35.869  1.00  0.00     0.173 A 
ATOM     95  F   UNL A   1      45.572  30.396  33.998  1.00  0.00    -0.203 F 
ATOM     96  C   UNL A   1      46.492  28.818  35.484  1.00  0.00     0.198 A 
ATOM     97  C   UNL A   1      45.073  27.192  36.538  1.00  0.00     0.198 A 
ATOM     98  F   UNL A   1      42.767  27.164  36.070  1.00  0.00    -0.203 F 
ATOM     99  F   UNL A   1      47.712  29.335  35.279  1.00  0.00    -0.200 F 
ATOM    100  C   UNL A   1      46.332  27.741  36.343  1.00  0.00     0.200 A 
ATOM    101  F   UNL A   1      44.917  26.155  37.373  1.00  0.00    -0.200 F 
ATOM    102  F   UNL A   1      47.393  27.226  36.979  1.00  0.00    -0.200 F 
ENDBRANCH  69  92
ENDBRANCH  43  44
ENDBRANCH  35  38
ENDBRANCH  33  34
ENDBRANCH  32  33
ENDBRANCH  31  32
ENDBRANCH   1  31
TORSDOF 16
ENDMDL
