MODEL 1
REMARK VINA RESULT:     -14.1      0.000      0.000
REMARK SMILES O=C(NCCCCNC(=O)c1ccc(-c2c3nc(c(-c4c(F)c(F)c(F)c(F)c4F)c4ccc([nH]4)c(-c4c(F)c(F)c(F)c(F)c4F)c4nc(c(-c5c(F)c(F)c(F)c(F)c5F)c5ccc2[nH]5)C=C4)C=C3)cc1)C1=Cc2cc(S(F)(F)(F)(F)F)cc(Br)c2O[C@@H]1C(F)(F)F
REMARK SMILES IDX 6 1 5 2 4 3 3 4 1 5 2 6 74 8 75 9 90 10 76 11 89 12 77 13
REMARK SMILES IDX 88 14 78 15 86 16 85 17 87 18 91 19 92 20 93 21 94 22 79 23
REMARK SMILES IDX 80 24 81 25 82 26 83 27 84 28 7 29 8 30 9 31 10 33 11 34
REMARK SMILES IDX 12 35 73 36 13 37 72 38 14 39 15 40 16 41 66 42 17 43 71 44
REMARK SMILES IDX 65 45 67 46 18 47 70 48 64 49 63 50 19 52 51 53 31 54 50 55
REMARK SMILES IDX 32 56 35 57 49 58 68 59 33 60 34 61 48 63 69 64 36 65 20 66
REMARK SMILES IDX 21 67 29 68 22 69 23 70 27 71 30 72 24 73 25 74 28 75 26 76
REMARK SMILES IDX 52 77 53 78 61 79 54 80 55 81 59 82 62 83 56 84 57 85 60 86
REMARK SMILES IDX 58 87 37 88 38 89 46 90 39 91 40 92 44 93 47 94 41 95 42 96
REMARK SMILES IDX 45 97 43 98
REMARK H PARENT 3 7 8 32 67 51 35 62
REMARK Flexibility Score: inf
ROOT
ATOM      1  C   UNL A   1      39.086  22.354  25.920  1.00  0.00     0.023 C 
ENDROOT
BRANCH   1   2
ATOM      2  C   UNL A   1      38.535  23.743  26.196  1.00  0.00     0.023 C 
BRANCH   2   3
ATOM      3  C   UNL A   1      37.046  23.769  25.888  1.00  0.00     0.116 C 
BRANCH   3   4
ATOM      4  N   UNL A   1      36.846  23.707  24.433  1.00  0.00    -0.352 N 
ATOM      5  O   UNL A   1      35.566  22.863  22.619  1.00  0.00    -0.270 OA
ATOM      6  C   UNL A   1      35.739  22.916  23.877  1.00  0.00     0.251 C 
ATOM      7  H   UNL A   1      37.454  24.194  23.831  1.00  0.00     0.163 HD
BRANCH   6   8
ATOM      8  C   UNL A   1      34.801  22.164  24.806  1.00  0.00     0.067 C 
ATOM      9  C   UNL A   1      33.768  22.817  25.406  1.00  0.00     0.025 C 
ATOM     10  C   UNL A   1      35.015  20.682  25.066  1.00  0.00     0.314 C 
ATOM     11  C   UNL A   1      33.553  24.300  25.146  1.00  0.00     0.020 A 
ATOM     12  O   UNL A   1      34.110  23.839  22.881  1.00  0.00    -0.474 OA
ATOM     13  C   UNL A   1      33.244  25.171  26.176  1.00  0.00     0.036 A 
ATOM     14  C   UNL A   1      33.637  24.720  23.889  1.00  0.00     0.142 A 
ATOM     15  C   UNL A   1      32.752  26.424  25.739  1.00  0.00     0.109 A 
ATOM     16  C   UNL A   1      33.267  26.001  23.554  1.00  0.00     0.062 A 
ATOM     17  C   UNL A   1      32.894  26.899  24.515  1.00  0.00     0.044 A 
ATOM     18  Br  UNL A   1      33.275  26.549  21.672  1.00  0.00    -0.047 Br
BRANCH  10  19
ATOM     19  C   UNL A   1      33.785  19.906  24.626  1.00  0.00     0.429 C 
ATOM     20  F   UNL A   1      34.150  18.701  24.197  1.00  0.00    -0.167 F 
ATOM     21  F   UNL A   1      32.950  19.777  25.653  1.00  0.00    -0.167 F 
ATOM     22  F   UNL A   1      33.177  20.561  23.640  1.00  0.00    -0.167 F 
ENDBRANCH  10  19
BRANCH  15  23
ATOM     23  S   UNL A   1      31.868  27.447  26.942  1.00  0.00     0.310 S 
ATOM     24  F   UNL A   1      31.717  28.645  25.914  1.00  0.00    -0.094 F 
ATOM     25  F   UNL A   1      33.245  28.079  27.373  1.00  0.00    -0.094 F 
ATOM     26  F   UNL A   1      31.109  28.322  27.980  1.00  0.00    -0.094 F 
ATOM     27  F   UNL A   1      30.485  26.905  26.402  1.00  0.00    -0.094 F 
ATOM     28  F   UNL A   1      32.612  26.635  25.808  1.00  0.00    -0.094 F 
ENDBRANCH  15  23
ENDBRANCH   6   8
ENDBRANCH   3   4
ENDBRANCH   2   3
ENDBRANCH   1   2
BRANCH   1  29
ATOM     29  C   UNL A   1      40.410  22.181  26.646  1.00  0.00     0.116 C 
BRANCH  29  30
ATOM     30  N   UNL A   1      41.514  22.253  25.678  1.00  0.00    -0.352 N 
ATOM     31  C   UNL A   1      42.381  23.439  25.638  1.00  0.00     0.251 C 
ATOM     32  H   UNL A   1      41.671  21.507  25.055  1.00  0.00     0.163 HD
ATOM     33  O   UNL A   1      43.335  23.501  24.801  1.00  0.00    -0.269 OA
BRANCH  31  34
ATOM     34  C   UNL A   1      42.138  24.591  26.600  1.00  0.00     0.039 A 
ATOM     35  C   UNL A   1      41.696  24.281  27.875  1.00  0.00     0.014 A 
ATOM     36  C   UNL A   1      42.307  25.851  26.216  1.00  0.00     0.014 A 
ATOM     37  C   UNL A   1      41.178  25.388  28.588  1.00  0.00     0.010 A 
ATOM     38  C   UNL A   1      41.902  26.888  27.023  1.00  0.00     0.010 A 
ATOM     39  C   UNL A   1      41.399  26.651  28.272  1.00  0.00    -0.014 A 
BRANCH  39  40
ATOM     40  C   UNL A   1      41.113  27.782  29.248  1.00  0.00     0.031 A 
ATOM     41  C   UNL A   1      40.050  28.659  29.026  1.00  0.00     0.074 A 
ATOM     42  C   UNL A   1      41.942  27.834  30.355  1.00  0.00     0.049 A 
ATOM     43  N   UNL A   1      39.631  29.647  29.819  1.00  0.00    -0.248 NA
ATOM     44  C   UNL A   1      39.189  28.627  27.835  1.00  0.00     0.031 C 
ATOM     45  C   UNL A   1      43.010  26.947  30.590  1.00  0.00     0.029 A 
ATOM     46  N   UNL A   1      41.895  28.724  31.405  1.00  0.00    -0.354 N 
ATOM     47  C   UNL A   1      38.574  30.256  29.279  1.00  0.00     0.074 A 
ATOM     48  C   UNL A   1      38.278  29.613  27.991  1.00  0.00     0.031 C 
ATOM     49  C   UNL A   1      43.606  27.304  31.758  1.00  0.00     0.029 A 
ATOM     50  C   UNL A   1      42.919  28.420  32.273  1.00  0.00     0.049 A 
ATOM     51  H   UNL A   1      41.241  29.452  31.516  1.00  0.00     0.167 HD
ATOM     52  C   UNL A   1      37.844  31.320  29.809  1.00  0.00     0.037 A 
ATOM     53  C   UNL A   1      43.253  29.067  33.452  1.00  0.00     0.037 A 
ATOM     54  C   UNL A   1      38.151  31.940  31.010  1.00  0.00     0.049 A 
ATOM     55  C   UNL A   1      42.558  30.169  33.955  1.00  0.00     0.074 A 
ATOM     56  C   UNL A   1      37.421  33.010  31.563  1.00  0.00     0.029 A 
ATOM     57  N   UNL A   1      39.191  31.651  31.867  1.00  0.00    -0.354 N 
ATOM     58  N   UNL A   1      41.477  30.753  33.433  1.00  0.00    -0.248 NA
ATOM     59  C   UNL A   1      42.922  30.883  35.186  1.00  0.00     0.031 C 
ATOM     60  C   UNL A   1      38.017  33.366  32.732  1.00  0.00     0.029 A 
ATOM     61  C   UNL A   1      39.130  32.526  32.928  1.00  0.00     0.049 A 
ATOM     62  H   UNL A   1      39.861  30.941  31.742  1.00  0.00     0.167 HD
ATOM     63  C   UNL A   1      41.084  31.766  34.207  1.00  0.00     0.074 A 
ATOM     64  C   UNL A   1      42.013  31.870  35.342  1.00  0.00     0.031 C 
ATOM     65  C   UNL A   1      39.986  32.607  34.015  1.00  0.00     0.037 A 
BRANCH  52  66
ATOM     66  C   UNL A   1      36.644  31.828  29.027  1.00  0.00     0.064 A 
ATOM     67  C   UNL A   1      36.660  33.114  28.513  1.00  0.00     0.173 A 
ATOM     68  C   UNL A   1      35.573  31.052  28.907  1.00  0.00     0.173 A 
ATOM     69  F   UNL A   1      37.774  33.830  28.385  1.00  0.00    -0.203 F 
ATOM     70  C   UNL A   1      35.384  33.598  28.137  1.00  0.00     0.198 A 
ATOM     71  C   UNL A   1      34.397  31.554  28.404  1.00  0.00     0.198 A 
ATOM     72  F   UNL A   1      35.640  29.776  29.276  1.00  0.00    -0.203 F 
ATOM     73  F   UNL A   1      35.242  34.910  27.978  1.00  0.00    -0.200 F 
ATOM     74  C   UNL A   1      34.326  32.835  27.932  1.00  0.00     0.200 A 
ATOM     75  F   UNL A   1      33.314  30.784  28.376  1.00  0.00    -0.200 F 
ATOM     76  F   UNL A   1      33.247  33.290  27.301  1.00  0.00    -0.200 F 
ENDBRANCH  52  66
BRANCH  53  77
ATOM     77  C   UNL A   1      44.443  28.549  34.242  1.00  0.00     0.064 A 
ATOM     78  C   UNL A   1      45.690  29.103  34.001  1.00  0.00     0.173 A 
ATOM     79  C   UNL A   1      44.269  27.631  35.185  1.00  0.00     0.173 A 
ATOM     80  F   UNL A   1      45.869  30.190  33.256  1.00  0.00    -0.203 F 
ATOM     81  C   UNL A   1      46.756  28.408  34.619  1.00  0.00     0.198 A 
ATOM     82  C   UNL A   1      45.347  27.091  35.844  1.00  0.00     0.198 A 
ATOM     83  F   UNL A   1      43.039  27.229  35.494  1.00  0.00    -0.203 F 
ATOM     84  F   UNL A   1      47.986  28.633  34.167  1.00  0.00    -0.200 F 
ATOM     85  C   UNL A   1      46.614  27.549  35.614  1.00  0.00     0.200 A 
ATOM     86  F   UNL A   1      45.155  26.109  36.721  1.00  0.00    -0.200 F 
ATOM     87  F   UNL A   1      47.649  27.153  36.350  1.00  0.00    -0.200 F 
ENDBRANCH  53  77
BRANCH  65  88
ATOM     88  C   UNL A   1      39.713  33.676  35.061  1.00  0.00     0.064 A 
ATOM     89  C   UNL A   1      40.287  34.924  34.878  1.00  0.00     0.173 A 
ATOM     90  C   UNL A   1      38.975  33.407  36.132  1.00  0.00     0.173 A 
ATOM     91  F   UNL A   1      40.813  35.317  33.723  1.00  0.00    -0.203 F 
ATOM     92  C   UNL A   1      40.261  35.740  36.033  1.00  0.00     0.198 A 
ATOM     93  C   UNL A   1      38.886  34.309  37.165  1.00  0.00     0.198 A 
ATOM     94  F   UNL A   1      38.318  32.253  36.206  1.00  0.00    -0.203 F 
ATOM     95  F   UNL A   1      41.085  36.784  36.070  1.00  0.00    -0.200 F 
ATOM     96  C   UNL A   1      39.477  35.539  37.077  1.00  0.00     0.200 A 
ATOM     97  F   UNL A   1      38.215  33.981  38.264  1.00  0.00    -0.200 F 
ATOM     98  F   UNL A   1      39.274  36.482  37.993  1.00  0.00    -0.200 F 
ENDBRANCH  65  88
ENDBRANCH  39  40
ENDBRANCH  31  34
ENDBRANCH  29  30
ENDBRANCH   1  29
TORSDOF 13
ENDMDL
MODEL 2
REMARK VINA RESULT:     -14.1      2.579      3.542
REMARK SMILES O=C(NCCCCNC(=O)c1ccc(-c2c3nc(c(-c4c(F)c(F)c(F)c(F)c4F)c4ccc([nH]4)c(-c4c(F)c(F)c(F)c(F)c4F)c4nc(c(-c5c(F)c(F)c(F)c(F)c5F)c5ccc2[nH]5)C=C4)C=C3)cc1)C1=Cc2cc(S(F)(F)(F)(F)F)cc(Br)c2O[C@@H]1C(F)(F)F
REMARK SMILES IDX 6 1 5 2 4 3 3 4 1 5 2 6 74 8 75 9 90 10 76 11 89 12 77 13
REMARK SMILES IDX 88 14 78 15 86 16 85 17 87 18 91 19 92 20 93 21 94 22 79 23
REMARK SMILES IDX 80 24 81 25 82 26 83 27 84 28 7 29 8 30 9 31 10 33 11 34
REMARK SMILES IDX 12 35 73 36 13 37 72 38 14 39 15 40 16 41 66 42 17 43 71 44
REMARK SMILES IDX 65 45 67 46 18 47 70 48 64 49 63 50 19 52 51 53 31 54 50 55
REMARK SMILES IDX 32 56 35 57 49 58 68 59 33 60 34 61 48 63 69 64 36 65 20 66
REMARK SMILES IDX 21 67 29 68 22 69 23 70 27 71 30 72 24 73 25 74 28 75 26 76
REMARK SMILES IDX 52 77 53 78 61 79 54 80 55 81 59 82 62 83 56 84 57 85 60 86
REMARK SMILES IDX 58 87 37 88 38 89 46 90 39 91 40 92 44 93 47 94 41 95 42 96
REMARK SMILES IDX 45 97 43 98
REMARK H PARENT 3 7 8 32 67 51 35 62
REMARK Flexibility Score: inf
ROOT
ATOM      1  C   UNL A   1      35.575  23.414  25.612  1.00  0.00     0.023 C 
ENDROOT
BRANCH   1   2
ATOM      2  C   UNL A   1      35.041  23.590  24.200  1.00  0.00     0.023 C 
BRANCH   2   3
ATOM      3  C   UNL A   1      34.456  24.985  24.049  1.00  0.00     0.116 C 
BRANCH   3   4
ATOM      4  N   UNL A   1      33.233  24.918  23.236  1.00  0.00    -0.352 N 
ATOM      5  O   UNL A   1      30.889  24.537  23.166  1.00  0.00    -0.270 OA
ATOM      6  C   UNL A   1      31.947  24.595  23.869  1.00  0.00     0.251 C 
ATOM      7  H   UNL A   1      33.276  25.090  22.268  1.00  0.00     0.163 HD
BRANCH   6   8
ATOM      8  C   UNL A   1      31.881  24.330  25.364  1.00  0.00     0.067 C 
ATOM      9  C   UNL A   1      32.053  25.353  26.245  1.00  0.00     0.025 C 
ATOM     10  C   UNL A   1      31.624  22.922  25.876  1.00  0.00     0.314 C 
ATOM     11  C   UNL A   1      32.310  26.761  25.733  1.00  0.00     0.020 A 
ATOM     12  O   UNL A   1      30.693  26.294  24.054  1.00  0.00    -0.474 OA
ATOM     13  C   UNL A   1      33.270  27.572  26.315  1.00  0.00     0.036 A 
ATOM     14  C   UNL A   1      31.554  27.197  24.732  1.00  0.00     0.142 A 
ATOM     15  C   UNL A   1      33.160  28.937  25.958  1.00  0.00     0.109 A 
ATOM     16  C   UNL A   1      31.597  28.516  24.346  1.00  0.00     0.062 A 
ATOM     17  C   UNL A   1      32.481  29.388  24.920  1.00  0.00     0.044 A 
ATOM     18  Br  UNL A   1      30.373  29.157  22.956  1.00  0.00    -0.047 Br
BRANCH  10  19
ATOM     19  C   UNL A   1      30.351  22.909  26.706  1.00  0.00     0.429 C 
ATOM     20  F   UNL A   1      29.588  21.885  26.333  1.00  0.00    -0.167 F 
ATOM     21  F   UNL A   1      30.662  22.783  27.994  1.00  0.00    -0.167 F 
ATOM     22  F   UNL A   1      29.688  24.046  26.519  1.00  0.00    -0.167 F 
ENDBRANCH  10  19
BRANCH  15  23
ATOM     23  S   UNL A   1      34.011  30.149  26.998  1.00  0.00     0.310 S 
ATOM     24  F   UNL A   1      34.253  29.089  28.153  1.00  0.00    -0.094 F 
ATOM     25  F   UNL A   1      32.632  30.481  27.686  1.00  0.00    -0.094 F 
ATOM     26  F   UNL A   1      34.739  31.195  27.889  1.00  0.00    -0.094 F 
ATOM     27  F   UNL A   1      35.402  29.705  26.398  1.00  0.00    -0.094 F 
ATOM     28  F   UNL A   1      33.304  29.005  26.168  1.00  0.00    -0.094 F 
ENDBRANCH  15  23
ENDBRANCH   6   8
ENDBRANCH   3   4
ENDBRANCH   2   3
ENDBRANCH   1   2
BRANCH   1  29
ATOM     29  C   UNL A   1      36.991  23.963  25.689  1.00  0.00     0.116 C 
BRANCH  29  30
ATOM     30  N   UNL A   1      37.952  22.854  25.595  1.00  0.00    -0.352 N 
ATOM     31  C   UNL A   1      39.291  22.990  26.185  1.00  0.00     0.251 C 
ATOM     32  H   UNL A   1      37.698  22.021  25.135  1.00  0.00     0.163 HD
ATOM     33  O   UNL A   1      40.122  22.031  26.104  1.00  0.00    -0.269 OA
BRANCH  31  34
ATOM     34  C   UNL A   1      39.683  24.276  26.895  1.00  0.00     0.039 A 
ATOM     35  C   UNL A   1      39.359  24.394  28.236  1.00  0.00     0.014 A 
ATOM     36  C   UNL A   1      40.278  25.266  26.240  1.00  0.00     0.014 A 
ATOM     37  C   UNL A   1      39.446  25.716  28.733  1.00  0.00     0.010 A 
ATOM     38  C   UNL A   1      40.453  26.492  26.835  1.00  0.00     0.010 A 
ATOM     39  C   UNL A   1      40.101  26.697  28.140  1.00  0.00    -0.014 A 
BRANCH  39  40
ATOM     40  C   UNL A   1      40.446  27.985  28.871  1.00  0.00     0.031 A 
ATOM     41  C   UNL A   1      39.483  28.979  29.053  1.00  0.00     0.074 A 
ATOM     42  C   UNL A   1      41.739  28.061  29.358  1.00  0.00     0.049 A 
ATOM     43  N   UNL A   1      39.612  30.122  29.729  1.00  0.00    -0.248 NA
ATOM     44  C   UNL A   1      38.119  28.916  28.507  1.00  0.00     0.031 C 
ATOM     45  C   UNL A   1      42.713  27.059  29.186  1.00  0.00     0.029 A 
ATOM     46  N   UNL A   1      42.313  29.087  30.077  1.00  0.00    -0.354 N 
ATOM     47  C   UNL A   1      38.467  30.807  29.697  1.00  0.00     0.074 A 
ATOM     48  C   UNL A   1      37.493  30.045  28.905  1.00  0.00     0.031 C 
ATOM     49  C   UNL A   1      43.860  27.478  29.782  1.00  0.00     0.029 A 
ATOM     50  C   UNL A   1      43.622  28.750  30.337  1.00  0.00     0.049 A 
ATOM     51  H   UNL A   1      41.863  29.917  30.357  1.00  0.00     0.167 HD
ATOM     52  C   UNL A   1      38.198  32.038  30.297  1.00  0.00     0.037 A 
ATOM     53  C   UNL A   1      44.571  29.496  31.017  1.00  0.00     0.037 A 
ATOM     54  C   UNL A   1      39.134  32.765  31.015  1.00  0.00     0.049 A 
ATOM     55  C   UNL A   1      44.318  30.754  31.570  1.00  0.00     0.074 A 
ATOM     56  C   UNL A   1      38.876  34.004  31.634  1.00  0.00     0.029 A 
ATOM     57  N   UNL A   1      40.451  32.439  31.255  1.00  0.00    -0.354 N 
ATOM     58  N   UNL A   1      43.163  31.422  31.570  1.00  0.00    -0.248 NA
ATOM     59  C   UNL A   1      45.324  31.568  32.264  1.00  0.00     0.031 C 
ATOM     60  C   UNL A   1      40.024  34.423  32.230  1.00  0.00     0.029 A 
ATOM     61  C   UNL A   1      41.018  33.454  31.993  1.00  0.00     0.049 A 
ATOM     62  H   UNL A   1      40.908  31.622  30.951  1.00  0.00     0.167 HD
ATOM     63  C   UNL A   1      43.304  32.583  32.211  1.00  0.00     0.074 A 
ATOM     64  C   UNL A   1      44.699  32.698  32.660  1.00  0.00     0.031 C 
ATOM     65  C   UNL A   1      42.325  33.551  32.444  1.00  0.00     0.037 A 
BRANCH  52  66
ATOM     66  C   UNL A   1      36.798  32.614  30.158  1.00  0.00     0.064 A 
ATOM     67  C   UNL A   1      36.502  33.433  29.081  1.00  0.00     0.173 A 
ATOM     68  C   UNL A   1      35.901  32.373  31.107  1.00  0.00     0.173 A 
ATOM     69  F   UNL A   1      37.262  33.503  27.992  1.00  0.00    -0.203 F 
ATOM     70  C   UNL A   1      35.317  34.190  29.245  1.00  0.00     0.198 A 
ATOM     71  C   UNL A   1      34.705  33.051  31.129  1.00  0.00     0.198 A 
ATOM     72  F   UNL A   1      36.162  31.467  32.045  1.00  0.00    -0.203 F 
ATOM     73  F   UNL A   1      35.142  35.245  28.454  1.00  0.00    -0.200 F 
ATOM     74  C   UNL A   1      34.373  33.920  30.128  1.00  0.00     0.200 A 
ATOM     75  F   UNL A   1      33.862  32.858  32.138  1.00  0.00    -0.200 F 
ATOM     76  F   UNL A   1      33.162  34.466  30.047  1.00  0.00    -0.200 F 
ENDBRANCH  52  66
BRANCH  53  77
ATOM     77  C   UNL A   1      45.966  28.913  31.171  1.00  0.00     0.064 A 
ATOM     78  C   UNL A   1      46.916  29.207  30.206  1.00  0.00     0.173 A 
ATOM     79  C   UNL A   1      46.275  28.194  32.244  1.00  0.00     0.173 A 
ATOM     80  F   UNL A   1      46.729  30.120  29.258  1.00  0.00    -0.203 F 
ATOM     81  C   UNL A   1      48.104  28.445  30.320  1.00  0.00     0.198 A 
ATOM     82  C   UNL A   1      47.503  27.589  32.351  1.00  0.00     0.198 A 
ATOM     83  F   UNL A   1      45.385  28.057  33.223  1.00  0.00    -0.203 F 
ATOM     84  F   UNL A   1      48.906  28.388  29.261  1.00  0.00    -0.200 F 
ATOM     85  C   UNL A   1      48.470  27.787  31.405  1.00  0.00     0.200 A 
ATOM     86  F   UNL A   1      47.757  26.800  33.392  1.00  0.00    -0.200 F 
ATOM     87  F   UNL A   1      49.712  27.340  31.567  1.00  0.00    -0.200 F 
ENDBRANCH  53  77
BRANCH  65  88
ATOM     88  C   UNL A   1      42.716  34.786  33.239  1.00  0.00     0.064 A 
ATOM     89  C   UNL A   1      42.548  34.753  34.614  1.00  0.00     0.173 A 
ATOM     90  C   UNL A   1      43.173  35.873  32.627  1.00  0.00     0.173 A 
ATOM     91  F   UNL A   1      42.340  33.629  35.291  1.00  0.00    -0.203 F 
ATOM     92  C   UNL A   1      42.618  36.025  35.229  1.00  0.00     0.198 A 
ATOM     93  C   UNL A   1      43.346  37.046  33.320  1.00  0.00     0.198 A 
ATOM     94  F   UNL A   1      43.464  35.824  31.330  1.00  0.00    -0.203 F 
ATOM     95  F   UNL A   1      42.121  36.144  36.458  1.00  0.00    -0.200 F 
ATOM     96  C   UNL A   1      43.141  37.101  34.671  1.00  0.00     0.200 A 
ATOM     97  F   UNL A   1      43.718  38.143  32.668  1.00  0.00    -0.200 F 
ATOM     98  F   UNL A   1      43.453  38.180  35.384  1.00  0.00    -0.200 F 
ENDBRANCH  65  88
ENDBRANCH  39  40
ENDBRANCH  31  34
ENDBRANCH  29  30
ENDBRANCH   1  29
TORSDOF 13
ENDMDL
MODEL 3
REMARK VINA RESULT:     -14.0      3.914      9.118
REMARK SMILES O=C(NCCCCNC(=O)c1ccc(-c2c3nc(c(-c4c(F)c(F)c(F)c(F)c4F)c4ccc([nH]4)c(-c4c(F)c(F)c(F)c(F)c4F)c4nc(c(-c5c(F)c(F)c(F)c(F)c5F)c5ccc2[nH]5)C=C4)C=C3)cc1)C1=Cc2cc(S(F)(F)(F)(F)F)cc(Br)c2O[C@@H]1C(F)(F)F
REMARK SMILES IDX 6 1 5 2 4 3 3 4 1 5 2 6 74 8 75 9 90 10 76 11 89 12 77 13
REMARK SMILES IDX 88 14 78 15 86 16 85 17 87 18 91 19 92 20 93 21 94 22 79 23
REMARK SMILES IDX 80 24 81 25 82 26 83 27 84 28 7 29 8 30 9 31 10 33 11 34
REMARK SMILES IDX 12 35 73 36 13 37 72 38 14 39 15 40 16 41 66 42 17 43 71 44
REMARK SMILES IDX 65 45 67 46 18 47 70 48 64 49 63 50 19 52 51 53 31 54 50 55
REMARK SMILES IDX 32 56 35 57 49 58 68 59 33 60 34 61 48 63 69 64 36 65 20 66
REMARK SMILES IDX 21 67 29 68 22 69 23 70 27 71 30 72 24 73 25 74 28 75 26 76
REMARK SMILES IDX 52 77 53 78 61 79 54 80 55 81 59 82 62 83 56 84 57 85 60 86
REMARK SMILES IDX 58 87 37 88 38 89 46 90 39 91 40 92 44 93 47 94 41 95 42 96
REMARK SMILES IDX 45 97 43 98
REMARK H PARENT 3 7 8 32 67 51 35 62
REMARK Flexibility Score: inf
ROOT
ATOM      1  C   UNL A   1      33.043  27.744  26.181  1.00  0.00     0.023 C 
ENDROOT
BRANCH   1   2
ATOM      2  C   UNL A   1      33.622  26.994  24.993  1.00  0.00     0.023 C 
BRANCH   2   3
ATOM      3  C   UNL A   1      33.809  25.531  25.360  1.00  0.00     0.116 C 
BRANCH   3   4
ATOM      4  N   UNL A   1      34.171  24.767  24.157  1.00  0.00    -0.352 N 
ATOM      5  O   UNL A   1      33.646  22.980  22.682  1.00  0.00    -0.270 OA
ATOM      6  C   UNL A   1      33.333  23.641  23.722  1.00  0.00     0.251 C 
ATOM      7  H   UNL A   1      34.975  25.009  23.644  1.00  0.00     0.163 HD
BRANCH   6   8
ATOM      8  C   UNL A   1      32.091  23.267  24.515  1.00  0.00     0.067 C 
ATOM      9  C   UNL A   1      31.947  22.002  24.997  1.00  0.00     0.025 C 
ATOM     10  C   UNL A   1      31.010  24.305  24.770  1.00  0.00     0.314 C 
ATOM     11  C   UNL A   1      33.027  20.964  24.742  1.00  0.00     0.020 A 
ATOM     12  O   UNL A   1      34.596  22.704  25.144  1.00  0.00    -0.474 OA
ATOM     13  C   UNL A   1      32.705  19.669  24.374  1.00  0.00     0.036 A 
ATOM     14  C   UNL A   1      34.289  21.335  24.923  1.00  0.00     0.142 A 
ATOM     15  C   UNL A   1      33.776  18.753  24.501  1.00  0.00     0.109 A 
ATOM     16  C   UNL A   1      35.302  20.406  24.900  1.00  0.00     0.062 A 
ATOM     17  C   UNL A   1      35.048  19.096  24.601  1.00  0.00     0.044 A 
ATOM     18  Br  UNL A   1      37.137  20.966  25.303  1.00  0.00    -0.047 Br
BRANCH  10  19
ATOM     19  C   UNL A   1      30.837  24.500  26.267  1.00  0.00     0.429 C 
ATOM     20  F   UNL A   1      29.829  23.748  26.698  1.00  0.00    -0.167 F 
ATOM     21  F   UNL A   1      31.956  24.145  26.893  1.00  0.00    -0.167 F 
ATOM     22  F   UNL A   1      30.574  25.780  26.519  1.00  0.00    -0.167 F 
ENDBRANCH  10  19
BRANCH  15  23
ATOM     23  S   UNL A   1      33.376  16.988  24.529  1.00  0.00     0.310 S 
ATOM     24  F   UNL A   1      34.866  16.587  24.899  1.00  0.00    -0.094 F 
ATOM     25  F   UNL A   1      33.801  16.899  23.014  1.00  0.00    -0.094 F 
ATOM     26  F   UNL A   1      33.028  15.473  24.550  1.00  0.00    -0.094 F 
ATOM     27  F   UNL A   1      33.089  17.067  26.080  1.00  0.00    -0.094 F 
ATOM     28  F   UNL A   1      33.833  18.501  24.552  1.00  0.00    -0.094 F 
ENDBRANCH  15  23
ENDBRANCH   6   8
ENDBRANCH   3   4
ENDBRANCH   2   3
ENDBRANCH   1   2
BRANCH   1  29
ATOM     29  C   UNL A   1      34.160  28.462  26.921  1.00  0.00     0.116 C 
BRANCH  29  30
ATOM     30  N   UNL A   1      33.686  29.780  27.366  1.00  0.00    -0.352 N 
ATOM     31  C   UNL A   1      34.576  30.659  28.138  1.00  0.00     0.251 C 
ATOM     32  H   UNL A   1      32.772  30.074  27.148  1.00  0.00     0.163 HD
ATOM     33  O   UNL A   1      34.166  31.799  28.523  1.00  0.00    -0.269 OA
BRANCH  31  34
ATOM     34  C   UNL A   1      35.987  30.206  28.476  1.00  0.00     0.039 A 
ATOM     35  C   UNL A   1      36.975  30.423  27.529  1.00  0.00     0.014 A 
ATOM     36  C   UNL A   1      36.254  29.590  29.621  1.00  0.00     0.014 A 
ATOM     37  C   UNL A   1      38.162  29.689  27.761  1.00  0.00     0.010 A 
ATOM     38  C   UNL A   1      37.482  29.013  29.835  1.00  0.00     0.010 A 
ATOM     39  C   UNL A   1      38.487  29.136  28.915  1.00  0.00    -0.014 A 
BRANCH  39  40
ATOM     40  C   UNL A   1      39.902  28.663  29.206  1.00  0.00     0.031 A 
ATOM     41  C   UNL A   1      40.358  27.439  28.713  1.00  0.00     0.074 A 
ATOM     42  C   UNL A   1      40.682  29.540  29.939  1.00  0.00     0.049 A 
ATOM     43  N   UNL A   1      41.584  26.924  28.820  1.00  0.00    -0.248 NA
ATOM     44  C   UNL A   1      39.522  26.490  27.963  1.00  0.00     0.031 C 
ATOM     45  C   UNL A   1      40.232  30.781  30.432  1.00  0.00     0.029 A 
ATOM     46  N   UNL A   1      41.997  29.388  30.320  1.00  0.00    -0.354 N 
ATOM     47  C   UNL A   1      41.643  25.742  28.205  1.00  0.00     0.074 A 
ATOM     48  C   UNL A   1      40.316  25.442  27.650  1.00  0.00     0.031 C 
ATOM     49  C   UNL A   1      41.256  31.362  31.110  1.00  0.00     0.029 A 
ATOM     50  C   UNL A   1      42.364  30.495  31.052  1.00  0.00     0.049 A 
ATOM     51  H   UNL A   1      42.574  28.620  30.105  1.00  0.00     0.167 HD
ATOM     52  C   UNL A   1      42.751  24.903  28.083  1.00  0.00     0.037 A 
ATOM     53  C   UNL A   1      43.590  30.752  31.644  1.00  0.00     0.037 A 
ATOM     54  C   UNL A   1      43.991  25.180  28.638  1.00  0.00     0.049 A 
ATOM     55  C   UNL A   1      44.683  29.885  31.571  1.00  0.00     0.074 A 
ATOM     56  C   UNL A   1      45.121  24.348  28.518  1.00  0.00     0.029 A 
ATOM     57  N   UNL A   1      44.351  26.276  29.391  1.00  0.00    -0.354 N 
ATOM     58  N   UNL A   1      44.753  28.722  30.922  1.00  0.00    -0.248 NA
ATOM     59  C   UNL A   1      45.977  30.132  32.221  1.00  0.00     0.031 C 
ATOM     60  C   UNL A   1      46.146  24.930  29.196  1.00  0.00     0.029 A 
ATOM     61  C   UNL A   1      45.672  26.134  29.752  1.00  0.00     0.049 A 
ATOM     62  H   UNL A   1      43.765  27.030  29.629  1.00  0.00     0.167 HD
ATOM     63  C   UNL A   1      45.968  28.188  31.066  1.00  0.00     0.074 A 
ATOM     64  C   UNL A   1      46.770  29.084  31.910  1.00  0.00     0.031 C 
ATOM     65  C   UNL A   1      46.440  26.992  30.523  1.00  0.00     0.037 A 
BRANCH  52  66
ATOM     66  C   UNL A   1      42.592  23.612  27.296  1.00  0.00     0.064 A 
ATOM     67  C   UNL A   1      42.113  22.480  27.934  1.00  0.00     0.173 A 
ATOM     68  C   UNL A   1      42.976  23.576  26.026  1.00  0.00     0.173 A 
ATOM     69  F   UNL A   1      41.487  22.517  29.107  1.00  0.00    -0.203 F 
ATOM     70  C   UNL A   1      42.349  21.278  27.224  1.00  0.00     0.198 A 
ATOM     71  C   UNL A   1      43.054  22.381  25.351  1.00  0.00     0.198 A 
ATOM     72  F   UNL A   1      43.288  24.707  25.400  1.00  0.00    -0.203 F 
ATOM     73  F   UNL A   1      42.258  20.134  27.896  1.00  0.00    -0.200 F 
ATOM     74  C   UNL A   1      42.652  21.215  25.941  1.00  0.00     0.200 A 
ATOM     75  F   UNL A   1      43.526  22.359  24.109  1.00  0.00    -0.200 F 
ATOM     76  F   UNL A   1      42.573  20.075  25.258  1.00  0.00    -0.200 F 
ENDBRANCH  52  66
BRANCH  53  77
ATOM     77  C   UNL A   1      43.755  32.050  32.417  1.00  0.00     0.064 A 
ATOM     78  C   UNL A   1      43.479  32.052  33.775  1.00  0.00     0.173 A 
ATOM     79  C   UNL A   1      44.215  33.136  31.807  1.00  0.00     0.173 A 
ATOM     80  F   UNL A   1      43.263  30.940  34.472  1.00  0.00    -0.203 F 
ATOM     81  C   UNL A   1      43.448  33.343  34.352  1.00  0.00     0.198 A 
ATOM     82  C   UNL A   1      44.284  34.336  32.472  1.00  0.00     0.198 A 
ATOM     83  F   UNL A   1      44.612  33.061  30.539  1.00  0.00    -0.203 F 
ATOM     84  F   UNL A   1      42.851  33.479  35.532  1.00  0.00    -0.200 F 
ATOM     85  C   UNL A   1      43.971  34.424  33.800  1.00  0.00     0.200 A 
ATOM     86  F   UNL A   1      44.664  35.429  31.814  1.00  0.00    -0.200 F 
ATOM     87  F   UNL A   1      44.180  35.536  34.498  1.00  0.00    -0.200 F 
ENDBRANCH  53  77
BRANCH  65  88
ATOM     88  C   UNL A   1      47.886  26.607  30.795  1.00  0.00     0.064 A 
ATOM     89  C   UNL A   1      48.854  27.051  29.908  1.00  0.00     0.173 A 
ATOM     90  C   UNL A   1      48.202  25.840  31.832  1.00  0.00     0.173 A 
ATOM     91  F   UNL A   1      48.632  28.011  29.015  1.00  0.00    -0.203 F 
ATOM     92  C   UNL A   1      50.097  26.389  30.039  1.00  0.00     0.198 A 
ATOM     93  C   UNL A   1      49.474  25.339  31.970  1.00  0.00     0.198 A 
ATOM     94  F   UNL A   1      47.279  25.555  32.746  1.00  0.00    -0.203 F 
ATOM     95  F   UNL A   1      50.955  26.480  29.026  1.00  0.00    -0.200 F 
ATOM     96  C   UNL A   1      50.466  25.688  31.096  1.00  0.00     0.200 A 
ATOM     97  F   UNL A   1      49.743  24.502  32.967  1.00  0.00    -0.200 F 
ATOM     98  F   UNL A   1      51.734  25.342  31.299  1.00  0.00    -0.200 F 
ENDBRANCH  65  88
ENDBRANCH  39  40
ENDBRANCH  31  34
ENDBRANCH  29  30
ENDBRANCH   1  29
TORSDOF 13
ENDMDL
