MODEL 1
REMARK VINA RESULT:     -13.5      0.000      0.000
REMARK SMILES C[C@H](Sc1ccccc1C(=O)NCCCCNC(=O)c1ccc(-c2c3nc(c(-c4c(F)c(F)c(F)c(F)c4F)c4ccc([nH]4)c(-c4c(F)c(F)c(F)c(F)c4F)c4nc(c(-c5c(F)c(F)c(F)c(F)c5F)c5ccc2[nH]5)C=C4)C=C3)cc1)C(=O)Nc1ccc(N2CCCCC2)cc1
REMARK SMILES IDX 13 1 12 2 10 3 11 4 9 6 4 7 5 8 6 9 8 10 7 11 3 12 2 13 1 14
REMARK SMILES IDX 83 15 84 16 85 17 86 19 87 20 97 21 88 22 96 23 89 24 90 25
REMARK SMILES IDX 91 26 95 27 92 28 94 29 93 30 14 31 15 32 16 33 17 34 18 35
REMARK SMILES IDX 19 37 20 38 21 39 82 40 22 41 81 42 23 43 24 44 25 45 75 46
REMARK SMILES IDX 26 47 80 48 74 49 76 50 27 51 79 52 73 53 72 54 28 56 60 57
REMARK SMILES IDX 40 58 59 59 41 60 44 61 58 62 77 63 42 64 43 65 57 67 78 68
REMARK SMILES IDX 45 69 29 70 30 71 38 72 31 73 32 74 36 75 39 76 33 77 34 78
REMARK SMILES IDX 37 79 35 80 61 81 62 82 70 83 63 84 64 85 68 86 71 87 65 88
REMARK SMILES IDX 66 89 69 90 67 91 46 92 47 93 55 94 48 95 49 96 53 97 56 98
REMARK SMILES IDX 50 99 51 100 54 101 52 102
REMARK H PARENT 12 5 85 18 17 36 76 55 44 66
REMARK Flexibility Score: inf
ROOT
ATOM      1  C   UNL A   1      32.345  26.922  26.773  1.00  0.00     0.116 C 
ENDROOT
BRANCH   1   2
ATOM      2  N   UNL A   1      31.485  25.774  26.889  1.00  0.00    -0.352 N 
ATOM      3  C   UNL A   1      31.651  24.422  26.809  1.00  0.00     0.252 C 
ATOM      4  O   UNL A   1      30.602  23.789  26.989  1.00  0.00    -0.269 OA
ATOM      5  H   UNL A   1      30.552  26.024  27.070  1.00  0.00     0.163 HD
BRANCH   3   6
ATOM      6  C   UNL A   1      32.915  23.628  26.607  1.00  0.00     0.053 A 
ATOM      7  C   UNL A   1      33.873  23.657  25.569  1.00  0.00     0.021 A 
ATOM      8  C   UNL A   1      34.814  22.603  25.488  1.00  0.00     0.016 A 
ATOM      9  C   UNL A   1      34.882  21.585  26.436  1.00  0.00     0.001 A 
ATOM     10  C   UNL A   1      33.029  22.588  27.571  1.00  0.00     0.015 A 
ATOM     11  C   UNL A   1      33.994  21.583  27.491  1.00  0.00     0.001 A 
BRANCH   7  12
ATOM     12  S   UNL A   1      33.882  24.738  24.156  1.00  0.00    -0.112 SA
BRANCH  12  13
ATOM     13  C   UNL A   1      32.671  24.071  22.933  1.00  0.00     0.138 C 
ATOM     14  C   UNL A   1      33.363  23.163  21.916  1.00  0.00     0.030 C 
BRANCH  13  15
ATOM     15  C   UNL A   1      31.270  23.633  23.385  1.00  0.00     0.237 C 
ATOM     16  O   UNL A   1      31.039  22.433  23.593  1.00  0.00    -0.273 OA
ATOM     17  N   UNL A   1      30.303  24.512  23.791  1.00  0.00    -0.325 N 
ATOM     18  H   UNL A   1      29.656  24.134  24.429  1.00  0.00     0.169 HD
BRANCH  17  19
ATOM     19  C   UNL A   1      30.073  25.848  23.463  1.00  0.00     0.041 A 
ATOM     20  C   UNL A   1      28.861  26.429  23.814  1.00  0.00     0.028 A 
ATOM     21  C   UNL A   1      30.965  26.577  22.694  1.00  0.00     0.028 A 
ATOM     22  C   UNL A   1      28.620  27.780  23.524  1.00  0.00     0.028 A 
ATOM     23  C   UNL A   1      30.699  27.921  22.379  1.00  0.00     0.028 A 
ATOM     24  C   UNL A   1      29.546  28.575  22.831  1.00  0.00     0.037 A 
BRANCH  24  25
ATOM     25  N   UNL A   1      29.309  29.919  22.597  1.00  0.00    -0.372 N 
ATOM     26  C   UNL A   1      29.109  30.852  23.710  1.00  0.00     0.116 C 
ATOM     27  C   UNL A   1      29.451  30.536  21.277  1.00  0.00     0.116 C 
ATOM     28  C   UNL A   1      27.851  31.674  23.469  1.00  0.00     0.021 C 
ATOM     29  C   UNL A   1      28.229  31.416  20.991  1.00  0.00     0.021 C 
ATOM     30  C   UNL A   1      27.938  32.399  22.126  1.00  0.00     0.004 C 
ENDBRANCH  24  25
ENDBRANCH  17  19
ENDBRANCH  13  15
ENDBRANCH  12  13
ENDBRANCH   7  12
ENDBRANCH   3   6
ENDBRANCH   1   2
BRANCH   1  31
ATOM     31  C   UNL A   1      31.668  28.042  25.981  1.00  0.00     0.023 C 
BRANCH  31  32
ATOM     32  C   UNL A   1      31.671  29.391  26.690  1.00  0.00     0.023 C 
BRANCH  32  33
ATOM     33  C   UNL A   1      32.860  30.285  26.354  1.00  0.00     0.116 C 
BRANCH  33  34
ATOM     34  N   UNL A   1      32.724  31.664  26.802  1.00  0.00    -0.352 N 
ATOM     35  C   UNL A   1      33.596  32.396  27.574  1.00  0.00     0.251 C 
ATOM     36  H   UNL A   1      31.906  32.131  26.516  1.00  0.00     0.163 HD
ATOM     37  O   UNL A   1      33.323  33.539  27.925  1.00  0.00    -0.269 OA
BRANCH  35  38
ATOM     38  C   UNL A   1      34.858  31.766  28.016  1.00  0.00     0.039 A 
ATOM     39  C   UNL A   1      36.013  32.544  28.108  1.00  0.00     0.014 A 
ATOM     40  C   UNL A   1      34.872  30.428  28.416  1.00  0.00     0.014 A 
ATOM     41  C   UNL A   1      37.159  32.001  28.690  1.00  0.00     0.010 A 
ATOM     42  C   UNL A   1      35.992  29.905  29.045  1.00  0.00     0.010 A 
ATOM     43  C   UNL A   1      37.139  30.694  29.204  1.00  0.00    -0.014 A 
BRANCH  43  44
ATOM     44  C   UNL A   1      38.279  30.145  29.971  1.00  0.00     0.031 A 
ATOM     45  C   UNL A   1      38.543  30.614  31.370  1.00  0.00     0.074 A 
ATOM     46  C   UNL A   1      39.138  29.312  29.352  1.00  0.00     0.049 A 
ATOM     47  N   UNL A   1      39.525  30.298  32.175  1.00  0.00    -0.248 NA
ATOM     48  C   UNL A   1      37.598  31.593  31.929  1.00  0.00     0.031 C 
ATOM     49  C   UNL A   1      39.024  28.862  27.963  1.00  0.00     0.029 A 
ATOM     50  N   UNL A   1      40.286  28.713  29.803  1.00  0.00    -0.354 N 
ATOM     51  C   UNL A   1      39.316  31.038  33.330  1.00  0.00     0.074 A 
ATOM     52  C   UNL A   1      38.151  31.863  33.103  1.00  0.00     0.031 C 
ATOM     53  C   UNL A   1      40.054  28.048  27.680  1.00  0.00     0.029 A 
ATOM     54  C   UNL A   1      40.910  27.937  28.857  1.00  0.00     0.049 A 
ATOM     55  H   UNL A   1      40.631  28.830  30.718  1.00  0.00     0.167 HD
ATOM     56  C   UNL A   1      40.024  31.007  34.485  1.00  0.00     0.037 A 
ATOM     57  C   UNL A   1      42.045  27.219  28.934  1.00  0.00     0.037 A 
ATOM     58  C   UNL A   1      41.173  30.170  34.704  1.00  0.00     0.049 A 
ATOM     59  C   UNL A   1      42.800  27.189  30.236  1.00  0.00     0.074 A 
ATOM     60  C   UNL A   1      41.915  30.007  35.860  1.00  0.00     0.029 A 
ATOM     61  N   UNL A   1      41.752  29.357  33.739  1.00  0.00    -0.354 N 
ATOM     62  N   UNL A   1      42.534  27.811  31.360  1.00  0.00    -0.248 NA
ATOM     63  C   UNL A   1      44.003  26.348  30.284  1.00  0.00     0.031 C 
ATOM     64  C   UNL A   1      42.968  29.128  35.584  1.00  0.00     0.029 A 
ATOM     65  C   UNL A   1      42.853  28.706  34.269  1.00  0.00     0.049 A 
ATOM     66  H   UNL A   1      41.426  29.258  32.815  1.00  0.00     0.167 HD
ATOM     67  C   UNL A   1      43.516  27.411  32.256  1.00  0.00     0.074 A 
ATOM     68  C   UNL A   1      44.374  26.485  31.549  1.00  0.00     0.031 C 
ATOM     69  C   UNL A   1      43.689  27.778  33.550  1.00  0.00     0.037 A 
BRANCH  56  70
ATOM     70  C   UNL A   1      39.563  31.892  35.606  1.00  0.00     0.064 A 
ATOM     71  C   UNL A   1      40.070  33.190  35.768  1.00  0.00     0.173 A 
ATOM     72  C   UNL A   1      38.571  31.458  36.497  1.00  0.00     0.173 A 
ATOM     73  F   UNL A   1      41.030  33.648  34.951  1.00  0.00    -0.203 F 
ATOM     74  C   UNL A   1      39.616  34.014  36.795  1.00  0.00     0.198 A 
ATOM     75  C   UNL A   1      38.099  32.296  37.506  1.00  0.00     0.198 A 
ATOM     76  F   UNL A   1      38.051  30.227  36.385  1.00  0.00    -0.203 F 
ATOM     77  F   UNL A   1      40.146  35.234  36.957  1.00  0.00    -0.200 F 
ATOM     78  C   UNL A   1      38.626  33.570  37.657  1.00  0.00     0.200 A 
ATOM     79  F   UNL A   1      37.134  31.868  38.331  1.00  0.00    -0.200 F 
ATOM     80  F   UNL A   1      38.183  34.367  38.639  1.00  0.00    -0.200 F 
ENDBRANCH  56  70
BRANCH  57  81
ATOM     81  C   UNL A   1      42.510  26.434  27.763  1.00  0.00     0.064 A 
ATOM     82  C   UNL A   1      43.458  26.963  26.875  1.00  0.00     0.173 A 
ATOM     83  C   UNL A   1      42.017  25.147  27.501  1.00  0.00     0.173 A 
ATOM     84  F   UNL A   1      43.946  28.196  27.076  1.00  0.00    -0.203 F 
ATOM     85  C   UNL A   1      43.878  26.245  25.758  1.00  0.00     0.198 A 
ATOM     86  C   UNL A   1      42.459  24.420  26.397  1.00  0.00     0.198 A 
ATOM     87  F   UNL A   1      41.115  24.593  28.324  1.00  0.00    -0.203 F 
ATOM     88  F   UNL A   1      44.750  26.794  24.902  1.00  0.00    -0.200 F 
ATOM     89  C   UNL A   1      43.382  24.972  25.522  1.00  0.00     0.200 A 
ATOM     90  F   UNL A   1      41.987  23.185  26.180  1.00  0.00    -0.200 F 
ATOM     91  F   UNL A   1      43.787  24.282  24.448  1.00  0.00    -0.200 F 
ENDBRANCH  57  81
BRANCH  69  92
ATOM     92  C   UNL A   1      44.829  27.148  34.292  1.00  0.00     0.064 A 
ATOM     93  C   UNL A   1      46.091  27.756  34.357  1.00  0.00     0.173 A 
ATOM     94  C   UNL A   1      44.644  25.940  34.982  1.00  0.00     0.173 A 
ATOM     95  F   UNL A   1      46.321  28.905  33.701  1.00  0.00    -0.203 F 
ATOM     96  C   UNL A   1      47.133  27.165  35.064  1.00  0.00     0.198 A 
ATOM     97  C   UNL A   1      45.680  25.367  35.712  1.00  0.00     0.198 A 
ATOM     98  F   UNL A   1      43.453  25.323  34.956  1.00  0.00    -0.203 F 
ATOM     99  F   UNL A   1      48.344  27.739  35.074  1.00  0.00    -0.200 F 
ATOM    100  C   UNL A   1      46.926  25.975  35.747  1.00  0.00     0.200 A 
ATOM    101  F   UNL A   1      45.473  24.225  36.382  1.00  0.00    -0.200 F 
ATOM    102  F   UNL A   1      47.929  25.411  36.433  1.00  0.00    -0.200 F 
ENDBRANCH  69  92
ENDBRANCH  43  44
ENDBRANCH  35  38
ENDBRANCH  33  34
ENDBRANCH  32  33
ENDBRANCH  31  32
ENDBRANCH   1  31
TORSDOF 16
ENDMDL
MODEL 2
REMARK VINA RESULT:     -13.3      2.416      8.744
REMARK SMILES C[C@H](Sc1ccccc1C(=O)NCCCCNC(=O)c1ccc(-c2c3nc(c(-c4c(F)c(F)c(F)c(F)c4F)c4ccc([nH]4)c(-c4c(F)c(F)c(F)c(F)c4F)c4nc(c(-c5c(F)c(F)c(F)c(F)c5F)c5ccc2[nH]5)C=C4)C=C3)cc1)C(=O)Nc1ccc(N2CCCCC2)cc1
REMARK SMILES IDX 13 1 12 2 10 3 11 4 9 6 4 7 5 8 6 9 8 10 7 11 3 12 2 13 1 14
REMARK SMILES IDX 83 15 84 16 85 17 86 19 87 20 97 21 88 22 96 23 89 24 90 25
REMARK SMILES IDX 91 26 95 27 92 28 94 29 93 30 14 31 15 32 16 33 17 34 18 35
REMARK SMILES IDX 19 37 20 38 21 39 82 40 22 41 81 42 23 43 24 44 25 45 75 46
REMARK SMILES IDX 26 47 80 48 74 49 76 50 27 51 79 52 73 53 72 54 28 56 60 57
REMARK SMILES IDX 40 58 59 59 41 60 44 61 58 62 77 63 42 64 43 65 57 67 78 68
REMARK SMILES IDX 45 69 29 70 30 71 38 72 31 73 32 74 36 75 39 76 33 77 34 78
REMARK SMILES IDX 37 79 35 80 61 81 62 82 70 83 63 84 64 85 68 86 71 87 65 88
REMARK SMILES IDX 66 89 69 90 67 91 46 92 47 93 55 94 48 95 49 96 53 97 56 98
REMARK SMILES IDX 50 99 51 100 54 101 52 102
REMARK H PARENT 12 5 85 18 17 36 76 55 44 66
REMARK Flexibility Score: inf
ROOT
ATOM      1  C   UNL A   1      33.380  29.357  26.742  1.00  0.00     0.116 C 
ENDROOT
BRANCH   1   2
ATOM      2  N   UNL A   1      33.541  29.424  25.314  1.00  0.00    -0.352 N 
ATOM      3  C   UNL A   1      32.808  29.033  24.232  1.00  0.00     0.252 C 
ATOM      4  O   UNL A   1      33.346  29.309  23.151  1.00  0.00    -0.269 OA
ATOM      5  H   UNL A   1      34.385  29.857  25.055  1.00  0.00     0.163 HD
BRANCH   3   6
ATOM      6  C   UNL A   1      31.445  28.393  24.186  1.00  0.00     0.053 A 
ATOM      7  C   UNL A   1      30.997  27.130  24.637  1.00  0.00     0.021 A 
ATOM      8  C   UNL A   1      29.728  26.674  24.210  1.00  0.00     0.016 A 
ATOM      9  C   UNL A   1      28.873  27.451  23.432  1.00  0.00     0.001 A 
ATOM     10  C   UNL A   1      30.537  29.170  23.414  1.00  0.00     0.015 A 
ATOM     11  C   UNL A   1      29.274  28.712  23.042  1.00  0.00     0.001 A 
BRANCH   7  12
ATOM     12  S   UNL A   1      31.960  25.895  25.478  1.00  0.00    -0.112 SA
BRANCH  12  13
ATOM     13  C   UNL A   1      33.588  25.770  24.616  1.00  0.00     0.138 C 
ATOM     14  C   UNL A   1      34.629  25.093  25.507  1.00  0.00     0.030 C 
BRANCH  13  15
ATOM     15  C   UNL A   1      33.652  25.425  23.120  1.00  0.00     0.237 C 
ATOM     16  O   UNL A   1      33.523  26.324  22.277  1.00  0.00    -0.273 OA
ATOM     17  N   UNL A   1      34.066  24.210  22.648  1.00  0.00    -0.325 N 
ATOM     18  H   UNL A   1      34.463  24.241  21.747  1.00  0.00     0.169 HD
BRANCH  17  19
ATOM     19  C   UNL A   1      34.027  22.936  23.214  1.00  0.00     0.041 A 
ATOM     20  C   UNL A   1      32.827  22.236  23.219  1.00  0.00     0.028 A 
ATOM     21  C   UNL A   1      35.117  22.397  23.878  1.00  0.00     0.028 A 
ATOM     22  C   UNL A   1      32.772  20.941  23.754  1.00  0.00     0.028 A 
ATOM     23  C   UNL A   1      35.041  21.111  24.442  1.00  0.00     0.028 A 
ATOM     24  C   UNL A   1      33.885  20.326  24.347  1.00  0.00     0.037 A 
BRANCH  24  25
ATOM     25  N   UNL A   1      33.822  19.029  24.825  1.00  0.00    -0.372 N 
ATOM     26  C   UNL A   1      34.934  18.096  24.621  1.00  0.00     0.116 C 
ATOM     27  C   UNL A   1      32.770  18.563  25.732  1.00  0.00     0.116 C 
ATOM     28  C   UNL A   1      34.406  16.787  24.051  1.00  0.00     0.021 C 
ATOM     29  C   UNL A   1      32.225  17.220  25.234  1.00  0.00     0.021 C 
ATOM     30  C   UNL A   1      33.334  16.202  24.968  1.00  0.00     0.004 C 
ENDBRANCH  24  25
ENDBRANCH  17  19
ENDBRANCH  13  15
ENDBRANCH  12  13
ENDBRANCH   7  12
ENDBRANCH   3   6
ENDBRANCH   1   2
BRANCH   1  31
ATOM     31  C   UNL A   1      32.076  30.025  27.184  1.00  0.00     0.023 C 
BRANCH  31  32
ATOM     32  C   UNL A   1      31.963  31.489  26.776  1.00  0.00     0.023 C 
BRANCH  32  33
ATOM     33  C   UNL A   1      32.993  32.411  27.420  1.00  0.00     0.116 C 
BRANCH  33  34
ATOM     34  N   UNL A   1      32.537  33.780  27.619  1.00  0.00    -0.352 N 
ATOM     35  C   UNL A   1      33.041  34.725  28.482  1.00  0.00     0.251 C 
ATOM     36  H   UNL A   1      31.773  34.064  27.068  1.00  0.00     0.163 HD
ATOM     37  O   UNL A   1      32.517  35.830  28.586  1.00  0.00    -0.269 OA
BRANCH  35  38
ATOM     38  C   UNL A   1      34.206  34.376  29.321  1.00  0.00     0.039 A 
ATOM     39  C   UNL A   1      33.996  33.837  30.591  1.00  0.00     0.014 A 
ATOM     40  C   UNL A   1      35.500  34.507  28.813  1.00  0.00     0.014 A 
ATOM     41  C   UNL A   1      35.083  33.343  31.313  1.00  0.00     0.010 A 
ATOM     42  C   UNL A   1      36.575  33.967  29.505  1.00  0.00     0.010 A 
ATOM     43  C   UNL A   1      36.371  33.363  30.753  1.00  0.00    -0.014 A 
BRANCH  43  44
ATOM     44  C   UNL A   1      37.516  32.702  31.418  1.00  0.00     0.031 A 
ATOM     45  C   UNL A   1      38.188  31.528  30.773  1.00  0.00     0.074 A 
ATOM     46  C   UNL A   1      37.863  33.097  32.658  1.00  0.00     0.049 A 
ATOM     47  N   UNL A   1      39.162  30.781  31.228  1.00  0.00    -0.248 NA
ATOM     48  C   UNL A   1      37.679  31.115  29.456  1.00  0.00     0.031 C 
ATOM     49  C   UNL A   1      37.216  34.171  33.415  1.00  0.00     0.029 A 
ATOM     50  N   UNL A   1      38.831  32.627  33.509  1.00  0.00    -0.354 N 
ATOM     51  C   UNL A   1      39.379  29.814  30.258  1.00  0.00     0.074 A 
ATOM     52  C   UNL A   1      38.400  30.029  29.216  1.00  0.00     0.031 C 
ATOM     53  C   UNL A   1      37.813  34.287  34.612  1.00  0.00     0.029 A 
ATOM     54  C   UNL A   1      38.867  33.282  34.715  1.00  0.00     0.049 A 
ATOM     55  H   UNL A   1      39.440  31.890  33.277  1.00  0.00     0.167 HD
ATOM     56  C   UNL A   1      40.331  28.850  30.233  1.00  0.00     0.037 A 
ATOM     57  C   UNL A   1      39.663  33.091  35.783  1.00  0.00     0.037 A 
ATOM     58  C   UNL A   1      41.309  28.657  31.269  1.00  0.00     0.049 A 
ATOM     59  C   UNL A   1      40.723  32.025  35.719  1.00  0.00     0.074 A 
ATOM     60  C   UNL A   1      42.363  27.761  31.305  1.00  0.00     0.029 A 
ATOM     61  N   UNL A   1      41.349  29.371  32.458  1.00  0.00    -0.354 N 
ATOM     62  N   UNL A   1      40.991  31.184  34.749  1.00  0.00    -0.248 NA
ATOM     63  C   UNL A   1      41.601  31.893  36.889  1.00  0.00     0.031 C 
ATOM     64  C   UNL A   1      43.015  27.902  32.535  1.00  0.00     0.029 A 
ATOM     65  C   UNL A   1      42.398  28.920  33.244  1.00  0.00     0.049 A 
ATOM     66  H   UNL A   1      40.726  30.090  32.707  1.00  0.00     0.167 HD
ATOM     67  C   UNL A   1      42.085  30.445  35.179  1.00  0.00     0.074 A 
ATOM     68  C   UNL A   1      42.439  30.947  36.490  1.00  0.00     0.031 C 
ATOM     69  C   UNL A   1      42.739  29.442  34.543  1.00  0.00     0.037 A 
BRANCH  56  70
ATOM     70  C   UNL A   1      40.371  27.944  29.037  1.00  0.00     0.064 A 
ATOM     71  C   UNL A   1      39.639  26.747  29.003  1.00  0.00     0.173 A 
ATOM     72  C   UNL A   1      41.105  28.297  27.896  1.00  0.00     0.173 A 
ATOM     73  F   UNL A   1      38.931  26.356  30.073  1.00  0.00    -0.203 F 
ATOM     74  C   UNL A   1      39.661  25.926  27.878  1.00  0.00     0.198 A 
ATOM     75  C   UNL A   1      41.100  27.488  26.762  1.00  0.00     0.198 A 
ATOM     76  F   UNL A   1      41.819  29.433  27.875  1.00  0.00    -0.203 F 
ATOM     77  F   UNL A   1      38.989  24.765  27.885  1.00  0.00    -0.200 F 
ATOM     78  C   UNL A   1      40.383  26.301  26.757  1.00  0.00     0.200 A 
ATOM     79  F   UNL A   1      41.792  27.857  25.676  1.00  0.00    -0.200 F 
ATOM     80  F   UNL A   1      40.395  25.515  25.672  1.00  0.00    -0.200 F 
ENDBRANCH  56  70
BRANCH  57  81
ATOM     81  C   UNL A   1      39.520  33.956  36.982  1.00  0.00     0.064 A 
ATOM     82  C   UNL A   1      40.141  35.212  37.039  1.00  0.00     0.173 A 
ATOM     83  C   UNL A   1      38.769  33.548  38.095  1.00  0.00     0.173 A 
ATOM     84  F   UNL A   1      40.883  35.638  36.006  1.00  0.00    -0.203 F 
ATOM     85  C   UNL A   1      40.035  36.017  38.171  1.00  0.00     0.198 A 
ATOM     86  C   UNL A   1      38.643  34.366  39.216  1.00  0.00     0.198 A 
ATOM     87  F   UNL A   1      38.150  32.359  38.086  1.00  0.00    -0.203 F 
ATOM     88  F   UNL A   1      40.677  37.192  38.215  1.00  0.00    -0.200 F 
ATOM     89  C   UNL A   1      39.283  35.596  39.257  1.00  0.00     0.200 A 
ATOM     90  F   UNL A   1      37.904  33.961  40.257  1.00  0.00    -0.200 F 
ATOM     91  F   UNL A   1      39.182  36.370  40.345  1.00  0.00    -0.200 F 
ENDBRANCH  57  81
BRANCH  69  92
ATOM     92  C   UNL A   1      43.925  28.847  35.242  1.00  0.00     0.064 A 
ATOM     93  C   UNL A   1      43.795  27.752  36.109  1.00  0.00     0.173 A 
ATOM     94  C   UNL A   1      45.212  29.354  35.011  1.00  0.00     0.173 A 
ATOM     95  F   UNL A   1      42.582  27.241  36.374  1.00  0.00    -0.203 F 
ATOM     96  C   UNL A   1      44.908  27.203  36.737  1.00  0.00     0.198 A 
ATOM     97  C   UNL A   1      46.326  28.784  35.618  1.00  0.00     0.198 A 
ATOM     98  F   UNL A   1      45.389  30.397  34.185  1.00  0.00    -0.203 F 
ATOM     99  F   UNL A   1      44.757  26.187  37.598  1.00  0.00    -0.200 F 
ATOM    100  C   UNL A   1      46.173  27.714  36.486  1.00  0.00     0.200 A 
ATOM    101  F   UNL A   1      47.548  29.271  35.363  1.00  0.00    -0.200 F 
ATOM    102  F   UNL A   1      47.245  27.179  37.087  1.00  0.00    -0.200 F 
ENDBRANCH  69  92
ENDBRANCH  43  44
ENDBRANCH  35  38
ENDBRANCH  33  34
ENDBRANCH  32  33
ENDBRANCH  31  32
ENDBRANCH   1  31
TORSDOF 16
ENDMDL
MODEL 3
REMARK VINA RESULT:     -13.1      4.621      9.291
REMARK SMILES C[C@H](Sc1ccccc1C(=O)NCCCCNC(=O)c1ccc(-c2c3nc(c(-c4c(F)c(F)c(F)c(F)c4F)c4ccc([nH]4)c(-c4c(F)c(F)c(F)c(F)c4F)c4nc(c(-c5c(F)c(F)c(F)c(F)c5F)c5ccc2[nH]5)C=C4)C=C3)cc1)C(=O)Nc1ccc(N2CCCCC2)cc1
REMARK SMILES IDX 13 1 12 2 10 3 11 4 9 6 4 7 5 8 6 9 8 10 7 11 3 12 2 13 1 14
REMARK SMILES IDX 83 15 84 16 85 17 86 19 87 20 97 21 88 22 96 23 89 24 90 25
REMARK SMILES IDX 91 26 95 27 92 28 94 29 93 30 14 31 15 32 16 33 17 34 18 35
REMARK SMILES IDX 19 37 20 38 21 39 82 40 22 41 81 42 23 43 24 44 25 45 75 46
REMARK SMILES IDX 26 47 80 48 74 49 76 50 27 51 79 52 73 53 72 54 28 56 60 57
REMARK SMILES IDX 40 58 59 59 41 60 44 61 58 62 77 63 42 64 43 65 57 67 78 68
REMARK SMILES IDX 45 69 29 70 30 71 38 72 31 73 32 74 36 75 39 76 33 77 34 78
REMARK SMILES IDX 37 79 35 80 61 81 62 82 70 83 63 84 64 85 68 86 71 87 65 88
REMARK SMILES IDX 66 89 69 90 67 91 46 92 47 93 55 94 48 95 49 96 53 97 56 98
REMARK SMILES IDX 50 99 51 100 54 101 52 102
REMARK H PARENT 12 5 85 18 17 36 76 55 44 66
REMARK Flexibility Score: inf
ROOT
ATOM      1  C   UNL A   1      37.076  22.743  25.296  1.00  0.00     0.116 C 
ENDROOT
BRANCH   1   2
ATOM      2  N   UNL A   1      36.128  22.265  26.267  1.00  0.00    -0.352 N 
ATOM      3  C   UNL A   1      34.889  21.695  26.220  1.00  0.00     0.252 C 
ATOM      4  O   UNL A   1      34.431  21.426  27.339  1.00  0.00    -0.269 OA
ATOM      5  H   UNL A   1      36.451  22.376  27.189  1.00  0.00     0.163 HD
BRANCH   3   6
ATOM      6  C   UNL A   1      34.067  21.302  25.021  1.00  0.00     0.053 A 
ATOM      7  C   UNL A   1      33.398  22.089  24.055  1.00  0.00     0.021 A 
ATOM      8  C   UNL A   1      32.465  21.458  23.200  1.00  0.00     0.016 A 
ATOM      9  C   UNL A   1      32.239  20.084  23.218  1.00  0.00     0.001 A 
ATOM     10  C   UNL A   1      33.831  19.899  24.995  1.00  0.00     0.015 A 
ATOM     11  C   UNL A   1      32.935  19.297  24.112  1.00  0.00     0.001 A 
BRANCH   7  12
ATOM     12  S   UNL A   1      33.384  23.864  23.951  1.00  0.00    -0.112 SA
BRANCH  12  13
ATOM     13  C   UNL A   1      33.327  24.526  25.674  1.00  0.00     0.138 C 
ATOM     14  C   UNL A   1      34.095  25.843  25.780  1.00  0.00     0.030 C 
BRANCH  13  15
ATOM     15  C   UNL A   1      32.038  24.427  26.504  1.00  0.00     0.237 C 
ATOM     16  O   UNL A   1      31.857  23.448  27.241  1.00  0.00    -0.273 OA
ATOM     17  N   UNL A   1      31.162  25.466  26.655  1.00  0.00    -0.325 N 
ATOM     18  H   UNL A   1      30.648  25.442  27.495  1.00  0.00     0.169 HD
BRANCH  17  19
ATOM     19  C   UNL A   1      30.868  26.555  25.833  1.00  0.00     0.041 A 
ATOM     20  C   UNL A   1      30.049  26.363  24.728  1.00  0.00     0.028 A 
ATOM     21  C   UNL A   1      31.463  27.792  26.018  1.00  0.00     0.028 A 
ATOM     22  C   UNL A   1      29.714  27.449  23.906  1.00  0.00     0.028 A 
ATOM     23  C   UNL A   1      31.146  28.867  25.168  1.00  0.00     0.028 A 
ATOM     24  C   UNL A   1      30.222  28.739  24.123  1.00  0.00     0.037 A 
BRANCH  24  25
ATOM     25  N   UNL A   1      29.839  29.807  23.329  1.00  0.00    -0.372 N 
ATOM     26  C   UNL A   1      29.543  31.115  23.919  1.00  0.00     0.116 C 
ATOM     27  C   UNL A   1      29.909  29.778  21.866  1.00  0.00     0.116 C 
ATOM     28  C   UNL A   1      28.202  31.618  23.403  1.00  0.00     0.021 C 
ATOM     29  C   UNL A   1      28.598  30.316  21.283  1.00  0.00     0.021 C 
ATOM     30  C   UNL A   1      28.206  31.670  21.876  1.00  0.00     0.004 C 
ENDBRANCH  24  25
ENDBRANCH  17  19
ENDBRANCH  13  15
ENDBRANCH  12  13
ENDBRANCH   7  12
ENDBRANCH   3   6
ENDBRANCH   1   2
BRANCH   1  31
ATOM     31  C   UNL A   1      38.513  22.490  25.754  1.00  0.00     0.023 C 
BRANCH  31  32
ATOM     32  C   UNL A   1      39.057  21.123  25.354  1.00  0.00     0.023 C 
BRANCH  32  33
ATOM     33  C   UNL A   1      39.589  20.285  26.512  1.00  0.00     0.116 C 
BRANCH  33  34
ATOM     34  N   UNL A   1      40.545  19.258  26.124  1.00  0.00    -0.352 N 
ATOM     35  C   UNL A   1      41.914  19.360  26.043  1.00  0.00     0.251 C 
ATOM     36  H   UNL A   1      40.165  18.380  25.892  1.00  0.00     0.163 HD
ATOM     37  O   UNL A   1      42.596  18.421  25.644  1.00  0.00    -0.269 OA
BRANCH  35  38
ATOM     38  C   UNL A   1      42.557  20.641  26.405  1.00  0.00     0.039 A 
ATOM     39  C   UNL A   1      43.079  21.451  25.396  1.00  0.00     0.014 A 
ATOM     40  C   UNL A   1      42.565  21.070  27.734  1.00  0.00     0.014 A 
ATOM     41  C   UNL A   1      43.525  22.735  25.712  1.00  0.00     0.010 A 
ATOM     42  C   UNL A   1      42.956  22.366  28.041  1.00  0.00     0.010 A 
ATOM     43  C   UNL A   1      43.421  23.215  27.028  1.00  0.00    -0.014 A 
BRANCH  43  44
ATOM     44  C   UNL A   1      43.730  24.622  27.367  1.00  0.00     0.031 A 
ATOM     45  C   UNL A   1      45.155  25.078  27.469  1.00  0.00     0.074 A 
ATOM     46  C   UNL A   1      42.719  25.448  27.698  1.00  0.00     0.049 A 
ATOM     47  N   UNL A   1      45.623  26.250  27.815  1.00  0.00    -0.248 NA
ATOM     48  C   UNL A   1      46.192  24.077  27.175  1.00  0.00     0.031 C 
ATOM     49  C   UNL A   1      41.301  25.080  27.720  1.00  0.00     0.029 A 
ATOM     50  N   UNL A   1      42.729  26.759  28.100  1.00  0.00    -0.354 N 
ATOM     51  C   UNL A   1      47.005  26.127  27.781  1.00  0.00     0.074 A 
ATOM     52  C   UNL A   1      47.301  24.753  27.440  1.00  0.00     0.031 C 
ATOM     53  C   UNL A   1      40.578  26.145  28.102  1.00  0.00     0.029 A 
ATOM     54  C   UNL A   1      41.480  27.260  28.373  1.00  0.00     0.049 A 
ATOM     55  H   UNL A   1      43.553  27.290  28.186  1.00  0.00     0.167 HD
ATOM     56  C   UNL A   1      47.938  27.086  27.992  1.00  0.00     0.037 A 
ATOM     57  C   UNL A   1      41.108  28.483  28.794  1.00  0.00     0.037 A 
ATOM     58  C   UNL A   1      47.629  28.453  28.316  1.00  0.00     0.049 A 
ATOM     59  C   UNL A   1      42.165  29.533  29.002  1.00  0.00     0.074 A 
ATOM     60  C   UNL A   1      48.496  29.519  28.474  1.00  0.00     0.029 A 
ATOM     61  N   UNL A   1      46.349  28.940  28.538  1.00  0.00    -0.354 N 
ATOM     62  N   UNL A   1      43.465  29.436  28.863  1.00  0.00    -0.248 NA
ATOM     63  C   UNL A   1      41.702  30.866  29.410  1.00  0.00     0.031 C 
ATOM     64  C   UNL A   1      47.744  30.644  28.834  1.00  0.00     0.029 A 
ATOM     65  C   UNL A   1      46.405  30.288  28.852  1.00  0.00     0.049 A 
ATOM     66  H   UNL A   1      45.523  28.408  28.480  1.00  0.00     0.167 HD
ATOM     67  C   UNL A   1      43.972  30.699  29.135  1.00  0.00     0.074 A 
ATOM     68  C   UNL A   1      42.839  31.548  29.434  1.00  0.00     0.031 C 
ATOM     69  C   UNL A   1      45.262  31.118  29.136  1.00  0.00     0.037 A 
BRANCH  56  70
ATOM     70  C   UNL A   1      49.381  26.693  27.860  1.00  0.00     0.064 A 
ATOM     71  C   UNL A   1      50.012  26.638  26.608  1.00  0.00     0.173 A 
ATOM     72  C   UNL A   1      50.153  26.419  28.998  1.00  0.00     0.173 A 
ATOM     73  F   UNL A   1      49.314  26.879  25.488  1.00  0.00    -0.203 F 
ATOM     74  C   UNL A   1      51.358  26.300  26.499  1.00  0.00     0.198 A 
ATOM     75  C   UNL A   1      51.507  26.109  28.886  1.00  0.00     0.198 A 
ATOM     76  F   UNL A   1      49.600  26.460  30.219  1.00  0.00    -0.203 F 
ATOM     77  F   UNL A   1      51.928  26.212  25.289  1.00  0.00    -0.200 F 
ATOM     78  C   UNL A   1      52.106  26.045  27.637  1.00  0.00     0.200 A 
ATOM     79  F   UNL A   1      52.231  25.872  29.989  1.00  0.00    -0.200 F 
ATOM     80  F   UNL A   1      53.404  25.729  27.531  1.00  0.00    -0.200 F 
ENDBRANCH  56  70
BRANCH  57  81
ATOM     81  C   UNL A   1      39.671  28.793  29.001  1.00  0.00     0.064 A 
ATOM     82  C   UNL A   1      38.883  29.280  27.948  1.00  0.00     0.173 A 
ATOM     83  C   UNL A   1      39.055  28.616  30.249  1.00  0.00     0.173 A 
ATOM     84  F   UNL A   1      39.432  29.482  26.741  1.00  0.00    -0.203 F 
ATOM     85  C   UNL A   1      37.542  29.601  28.141  1.00  0.00     0.198 A 
ATOM     86  C   UNL A   1      37.706  28.912  30.433  1.00  0.00     0.198 A 
ATOM     87  F   UNL A   1      39.763  28.145  31.285  1.00  0.00    -0.203 F 
ATOM     88  F   UNL A   1      36.825  30.109  27.128  1.00  0.00    -0.200 F 
ATOM     89  C   UNL A   1      36.952  29.413  29.381  1.00  0.00     0.200 A 
ATOM     90  F   UNL A   1      37.137  28.716  31.629  1.00  0.00    -0.200 F 
ATOM     91  F   UNL A   1      35.662  29.721  29.566  1.00  0.00    -0.200 F 
ENDBRANCH  57  81
BRANCH  69  92
ATOM     92  C   UNL A   1      45.510  32.567  29.434  1.00  0.00     0.064 A 
ATOM     93  C   UNL A   1      45.777  33.015  30.735  1.00  0.00     0.173 A 
ATOM     94  C   UNL A   1      45.519  33.512  28.397  1.00  0.00     0.173 A 
ATOM     95  F   UNL A   1      45.765  32.151  31.762  1.00  0.00    -0.203 F 
ATOM     96  C   UNL A   1      46.021  34.361  30.991  1.00  0.00     0.198 A 
ATOM     97  C   UNL A   1      45.792  34.852  28.653  1.00  0.00     0.198 A 
ATOM     98  F   UNL A   1      45.275  33.132  27.134  1.00  0.00    -0.203 F 
ATOM     99  F   UNL A   1      46.229  34.775  32.249  1.00  0.00    -0.200 F 
ATOM    100  C   UNL A   1      46.036  35.277  29.950  1.00  0.00     0.200 A 
ATOM    101  F   UNL A   1      45.818  35.733  27.644  1.00  0.00    -0.200 F 
ATOM    102  F   UNL A   1      46.277  36.571  30.198  1.00  0.00    -0.200 F 
ENDBRANCH  69  92
ENDBRANCH  43  44
ENDBRANCH  35  38
ENDBRANCH  33  34
ENDBRANCH  32  33
ENDBRANCH  31  32
ENDBRANCH   1  31
TORSDOF 16
ENDMDL
