MODEL 1
REMARK VINA RESULT:     -13.8      0.000      0.000
REMARK SMILES O=C(NCCCCNC(=O)c1ccc(-c2c3nc(c(-c4c(F)c(F)c(F)c(F)c4F)c4ccc([nH]4)c(-c4c(F)c(F)c(F)c(F)c4F)c4nc(c(-c5c(F)c(F)c(F)c(F)c5F)c5ccc2[nH]5)C=C4)C=C3)cc1)C1=Cc2cc(Cl)cc(Cl)c2O[C@@H]1C(F)(F)F
REMARK SMILES IDX 6 1 5 2 4 3 3 4 1 5 2 6 74 8 75 9 85 10 76 11 84 12 77 13
REMARK SMILES IDX 83 14 78 15 81 16 79 17 80 18 82 19 86 20 87 21 88 22 89 23
REMARK SMILES IDX 7 24 8 25 9 26 10 28 11 29 12 30 73 31 13 32 72 33 14 34
REMARK SMILES IDX 15 35 16 36 66 37 17 38 71 39 65 40 67 41 18 42 70 43 64 44
REMARK SMILES IDX 63 45 19 47 51 48 31 49 50 50 32 51 35 52 49 53 68 54 33 55
REMARK SMILES IDX 34 56 48 58 69 59 36 60 20 61 21 62 29 63 22 64 23 65 27 66
REMARK SMILES IDX 30 67 24 68 25 69 28 70 26 71 52 72 53 73 61 74 54 75 55 76
REMARK SMILES IDX 59 77 62 78 56 79 57 80 60 81 58 82 37 83 38 84 46 85 39 86
REMARK SMILES IDX 40 87 44 88 47 89 41 90 42 91 45 92 43 93
REMARK H PARENT 3 7 8 27 67 46 35 57
REMARK Flexibility Score: inf
ROOT
ATOM      1  C   UNL A   1      31.728  28.966  27.119  1.00  0.00     0.023 C 
ENDROOT
BRANCH   1   2
ATOM      2  C   UNL A   1      32.088  27.498  26.932  1.00  0.00     0.023 C 
BRANCH   2   3
ATOM      3  C   UNL A   1      31.247  26.713  25.935  1.00  0.00     0.116 C 
BRANCH   3   4
ATOM      4  N   UNL A   1      30.581  25.537  26.464  1.00  0.00    -0.352 N 
ATOM      5  O   UNL A   1      30.381  23.438  27.235  1.00  0.00    -0.270 OA
ATOM      6  C   UNL A   1      31.059  24.264  26.626  1.00  0.00     0.251 C 
ATOM      7  H   UNL A   1      29.649  25.673  26.747  1.00  0.00     0.163 HD
BRANCH   6   8
ATOM      8  C   UNL A   1      32.421  23.854  26.166  1.00  0.00     0.067 C 
ATOM      9  C   UNL A   1      33.044  22.762  26.643  1.00  0.00     0.025 C 
ATOM     10  C   UNL A   1      32.730  24.307  24.756  1.00  0.00     0.314 C 
ATOM     11  C   UNL A   1      33.068  21.674  25.628  1.00  0.00     0.020 A 
ATOM     12  O   UNL A   1      32.558  23.216  23.811  1.00  0.00    -0.474 OA
ATOM     13  C   UNL A   1      33.176  20.355  26.086  1.00  0.00     0.032 A 
ATOM     14  C   UNL A   1      32.720  21.937  24.292  1.00  0.00     0.146 A 
ATOM     15  C   UNL A   1      32.846  19.305  25.232  1.00  0.00     0.043 A 
ATOM     16  C   UNL A   1      32.415  20.865  23.444  1.00  0.00     0.085 A 
ATOM     17  Cl  UNL A   1      32.816  17.699  25.846  1.00  0.00    -0.084 Cl
ATOM     18  C   UNL A   1      32.455  19.553  23.918  1.00  0.00     0.045 A 
ATOM     19  Cl  UNL A   1      31.871  21.135  21.827  1.00  0.00    -0.080 Cl
BRANCH  10  20
ATOM     20  C   UNL A   1      34.124  24.944  24.634  1.00  0.00     0.429 C 
ATOM     21  F   UNL A   1      34.133  25.944  23.723  1.00  0.00    -0.167 F 
ATOM     22  F   UNL A   1      34.535  25.475  25.810  1.00  0.00    -0.167 F 
ATOM     23  F   UNL A   1      35.066  24.047  24.253  1.00  0.00    -0.167 F 
ENDBRANCH  10  20
ENDBRANCH   6   8
ENDBRANCH   3   4
ENDBRANCH   2   3
ENDBRANCH   1   2
BRANCH   1  24
ATOM     24  C   UNL A   1      32.528  29.983  26.306  1.00  0.00     0.116 C 
BRANCH  24  25
ATOM     25  N   UNL A   1      32.408  31.364  26.753  1.00  0.00    -0.352 N 
ATOM     26  C   UNL A   1      33.320  32.162  27.415  1.00  0.00     0.251 C 
ATOM     27  H   UNL A   1      31.545  31.794  26.552  1.00  0.00     0.163 HD
ATOM     28  O   UNL A   1      33.027  33.313  27.707  1.00  0.00    -0.269 OA
BRANCH  26  29
ATOM     29  C   UNL A   1      34.629  31.607  27.832  1.00  0.00     0.039 A 
ATOM     30  C   UNL A   1      35.698  32.489  28.013  1.00  0.00     0.014 A 
ATOM     31  C   UNL A   1      34.795  30.246  28.097  1.00  0.00     0.014 A 
ATOM     32  C   UNL A   1      36.894  32.025  28.568  1.00  0.00     0.010 A 
ATOM     33  C   UNL A   1      35.955  29.800  28.728  1.00  0.00     0.010 A 
ATOM     34  C   UNL A   1      37.009  30.689  28.989  1.00  0.00    -0.014 A 
BRANCH  34  35
ATOM     35  C   UNL A   1      38.203  30.235  29.750  1.00  0.00     0.031 A 
ATOM     36  C   UNL A   1      38.432  30.673  31.168  1.00  0.00     0.074 A 
ATOM     37  C   UNL A   1      39.122  29.465  29.132  1.00  0.00     0.049 A 
ATOM     38  N   UNL A   1      39.399  30.347  31.988  1.00  0.00    -0.248 NA
ATOM     39  C   UNL A   1      37.465  31.626  31.731  1.00  0.00     0.031 C 
ATOM     40  C   UNL A   1      39.065  29.040  27.732  1.00  0.00     0.029 A 
ATOM     41  N   UNL A   1      40.281  28.898  29.602  1.00  0.00    -0.354 N 
ATOM     42  C   UNL A   1      39.164  31.062  33.155  1.00  0.00     0.074 A 
ATOM     43  C   UNL A   1      37.995  31.882  32.918  1.00  0.00     0.031 C 
ATOM     44  C   UNL A   1      40.113  28.240  27.471  1.00  0.00     0.029 A 
ATOM     45  C   UNL A   1      40.927  28.116  28.676  1.00  0.00     0.049 A 
ATOM     46  H   UNL A   1      40.617  29.039  30.517  1.00  0.00     0.167 HD
ATOM     47  C   UNL A   1      39.844  31.020  34.327  1.00  0.00     0.037 A 
ATOM     48  C   UNL A   1      42.038  27.365  28.790  1.00  0.00     0.037 A 
ATOM     49  C   UNL A   1      40.990  30.182  34.571  1.00  0.00     0.049 A 
ATOM     50  C   UNL A   1      42.751  27.304  30.113  1.00  0.00     0.074 A 
ATOM     51  C   UNL A   1      41.696  30.005  35.748  1.00  0.00     0.029 A 
ATOM     52  N   UNL A   1      41.602  29.385  33.615  1.00  0.00    -0.354 N 
ATOM     53  N   UNL A   1      42.457  27.901  31.241  1.00  0.00    -0.248 NA
ATOM     54  C   UNL A   1      43.945  26.450  30.178  1.00  0.00     0.031 C 
ATOM     55  C   UNL A   1      42.760  29.132  35.495  1.00  0.00     0.029 A 
ATOM     56  C   UNL A   1      42.691  28.730  34.170  1.00  0.00     0.049 A 
ATOM     57  H   UNL A   1      41.307  29.297  32.680  1.00  0.00     0.167 HD
ATOM     58  C   UNL A   1      43.408  27.474  32.157  1.00  0.00     0.074 A 
ATOM     59  C   UNL A   1      44.279  26.553  31.455  1.00  0.00     0.031 C 
ATOM     60  C   UNL A   1      43.548  27.815  33.462  1.00  0.00     0.037 A 
BRANCH  47  61
ATOM     61  C   UNL A   1      39.358  31.905  35.438  1.00  0.00     0.064 A 
ATOM     62  C   UNL A   1      38.507  31.422  36.444  1.00  0.00     0.173 A 
ATOM     63  C   UNL A   1      39.763  33.246  35.510  1.00  0.00     0.173 A 
ATOM     64  F   UNL A   1      38.081  30.150  36.415  1.00  0.00    -0.203 F 
ATOM     65  C   UNL A   1      38.052  32.257  37.461  1.00  0.00     0.198 A 
ATOM     66  C   UNL A   1      39.331  34.071  36.545  1.00  0.00     0.198 A 
ATOM     67  F   UNL A   1      40.581  33.757  34.578  1.00  0.00    -0.203 F 
ATOM     68  F   UNL A   1      37.196  31.788  38.378  1.00  0.00    -0.200 F 
ATOM     69  C   UNL A   1      38.467  33.579  37.513  1.00  0.00     0.200 A 
ATOM     70  F   UNL A   1      39.741  35.345  36.601  1.00  0.00    -0.200 F 
ATOM     71  F   UNL A   1      38.029  34.382  38.493  1.00  0.00    -0.200 F 
ENDBRANCH  47  61
BRANCH  48  72
ATOM     72  C   UNL A   1      42.507  26.552  27.638  1.00  0.00     0.064 A 
ATOM     73  C   UNL A   1      41.977  25.275  27.405  1.00  0.00     0.173 A 
ATOM     74  C   UNL A   1      43.486  27.025  26.754  1.00  0.00     0.173 A 
ATOM     75  F   UNL A   1      41.052  24.773  28.237  1.00  0.00    -0.203 F 
ATOM     76  C   UNL A   1      42.422  24.493  26.342  1.00  0.00     0.198 A 
ATOM     77  C   UNL A   1      43.912  26.252  25.676  1.00  0.00     0.198 A 
ATOM     78  F   UNL A   1      44.019  28.242  26.931  1.00  0.00    -0.203 F 
ATOM     79  F   UNL A   1      41.928  23.259  26.168  1.00  0.00    -0.200 F 
ATOM     80  C   UNL A   1      43.386  24.984  25.475  1.00  0.00     0.200 A 
ATOM     81  F   UNL A   1      44.836  26.733  24.832  1.00  0.00    -0.200 F 
ATOM     82  F   UNL A   1      43.812  24.233  24.450  1.00  0.00    -0.200 F 
ENDBRANCH  48  72
BRANCH  60  83
ATOM     83  C   UNL A   1      44.669  27.162  34.219  1.00  0.00     0.064 A 
ATOM     84  C   UNL A   1      45.936  27.755  34.314  1.00  0.00     0.173 A 
ATOM     85  C   UNL A   1      44.469  25.932  34.862  1.00  0.00     0.173 A 
ATOM     86  F   UNL A   1      46.182  28.925  33.703  1.00  0.00    -0.203 F 
ATOM     87  C   UNL A   1      46.973  27.121  34.993  1.00  0.00     0.198 A 
ATOM     88  C   UNL A   1      45.499  25.315  35.564  1.00  0.00     0.198 A 
ATOM     89  F   UNL A   1      43.274  25.326  34.806  1.00  0.00    -0.203 F 
ATOM     90  F   UNL A   1      48.193  27.678  35.019  1.00  0.00    -0.200 F 
ATOM     91  C   UNL A   1      46.753  25.905  35.621  1.00  0.00     0.200 A 
ATOM     92  F   UNL A   1      45.282  24.145  36.180  1.00  0.00    -0.200 F 
ATOM     93  F   UNL A   1      47.754  25.294  36.270  1.00  0.00    -0.200 F 
ENDBRANCH  60  83
ENDBRANCH  34  35
ENDBRANCH  26  29
ENDBRANCH  24  25
ENDBRANCH   1  24
TORSDOF 12
ENDMDL
MODEL 2
REMARK VINA RESULT:     -13.7      5.345     10.766
REMARK SMILES O=C(NCCCCNC(=O)c1ccc(-c2c3nc(c(-c4c(F)c(F)c(F)c(F)c4F)c4ccc([nH]4)c(-c4c(F)c(F)c(F)c(F)c4F)c4nc(c(-c5c(F)c(F)c(F)c(F)c5F)c5ccc2[nH]5)C=C4)C=C3)cc1)C1=Cc2cc(Cl)cc(Cl)c2O[C@@H]1C(F)(F)F
REMARK SMILES IDX 6 1 5 2 4 3 3 4 1 5 2 6 74 8 75 9 85 10 76 11 84 12 77 13
REMARK SMILES IDX 83 14 78 15 81 16 79 17 80 18 82 19 86 20 87 21 88 22 89 23
REMARK SMILES IDX 7 24 8 25 9 26 10 28 11 29 12 30 73 31 13 32 72 33 14 34
REMARK SMILES IDX 15 35 16 36 66 37 17 38 71 39 65 40 67 41 18 42 70 43 64 44
REMARK SMILES IDX 63 45 19 47 51 48 31 49 50 50 32 51 35 52 49 53 68 54 33 55
REMARK SMILES IDX 34 56 48 58 69 59 36 60 20 61 21 62 29 63 22 64 23 65 27 66
REMARK SMILES IDX 30 67 24 68 25 69 28 70 26 71 52 72 53 73 61 74 54 75 55 76
REMARK SMILES IDX 59 77 62 78 56 79 57 80 60 81 58 82 37 83 38 84 46 85 39 86
REMARK SMILES IDX 40 87 44 88 47 89 41 90 42 91 45 92 43 93
REMARK H PARENT 3 7 8 27 67 46 35 57
REMARK Flexibility Score: inf
ROOT
ATOM      1  C   UNL A   1      40.702  20.356  26.043  1.00  0.00     0.023 C 
ENDROOT
BRANCH   1   2
ATOM      2  C   UNL A   1      41.771  19.559  26.776  1.00  0.00     0.023 C 
BRANCH   2   3
ATOM      3  C   UNL A   1      43.165  19.567  26.165  1.00  0.00     0.116 C 
BRANCH   3   4
ATOM      4  N   UNL A   1      43.337  20.417  25.002  1.00  0.00    -0.352 N 
ATOM      5  O   UNL A   1      44.069  22.168  23.803  1.00  0.00    -0.270 OA
ATOM      6  C   UNL A   1      43.875  21.673  24.912  1.00  0.00     0.251 C 
ATOM      7  H   UNL A   1      43.022  20.035  24.152  1.00  0.00     0.163 HD
BRANCH   6   8
ATOM      8  C   UNL A   1      44.320  22.442  26.113  1.00  0.00     0.067 C 
ATOM      9  C   UNL A   1      45.609  22.756  26.332  1.00  0.00     0.025 C 
ATOM     10  C   UNL A   1      43.249  23.362  26.657  1.00  0.00     0.314 C 
ATOM     11  C   UNL A   1      45.854  24.205  26.100  1.00  0.00     0.020 A 
ATOM     12  O   UNL A   1      43.478  24.734  26.234  1.00  0.00    -0.474 OA
ATOM     13  C   UNL A   1      47.153  24.604  25.760  1.00  0.00     0.032 A 
ATOM     14  C   UNL A   1      44.777  25.096  25.956  1.00  0.00     0.146 A 
ATOM     15  C   UNL A   1      47.358  25.858  25.192  1.00  0.00     0.043 A 
ATOM     16  C   UNL A   1      45.009  26.362  25.405  1.00  0.00     0.085 A 
ATOM     17  Cl  UNL A   1      48.925  26.279  24.623  1.00  0.00    -0.084 Cl
ATOM     18  C   UNL A   1      46.292  26.735  25.001  1.00  0.00     0.045 A 
ATOM     19  Cl  UNL A   1      43.706  27.454  25.099  1.00  0.00    -0.080 Cl
BRANCH  10  20
ATOM     20  C   UNL A   1      43.105  23.261  28.185  1.00  0.00     0.429 C 
ATOM     21  F   UNL A   1      43.122  21.973  28.599  1.00  0.00    -0.167 F 
ATOM     22  F   UNL A   1      44.115  23.896  28.824  1.00  0.00    -0.167 F 
ATOM     23  F   UNL A   1      41.948  23.809  28.628  1.00  0.00    -0.167 F 
ENDBRANCH  10  20
ENDBRANCH   6   8
ENDBRANCH   3   4
ENDBRANCH   2   3
ENDBRANCH   1   2
BRANCH   1  24
ATOM     24  C   UNL A   1      40.047  21.504  26.810  1.00  0.00     0.116 C 
BRANCH  24  25
ATOM     25  N   UNL A   1      38.834  22.039  26.207  1.00  0.00    -0.352 N 
ATOM     26  C   UNL A   1      38.367  23.338  26.162  1.00  0.00     0.251 C 
ATOM     27  H   UNL A   1      38.259  21.374  25.763  1.00  0.00     0.163 HD
ATOM     28  O   UNL A   1      37.311  23.590  25.599  1.00  0.00    -0.269 OA
BRANCH  26  29
ATOM     29  C   UNL A   1      39.109  24.419  26.852  1.00  0.00     0.039 A 
ATOM     30  C   UNL A   1      39.993  25.203  26.105  1.00  0.00     0.014 A 
ATOM     31  C   UNL A   1      38.901  24.700  28.205  1.00  0.00     0.014 A 
ATOM     32  C   UNL A   1      40.576  26.333  26.683  1.00  0.00     0.010 A 
ATOM     33  C   UNL A   1      39.414  25.873  28.755  1.00  0.00     0.010 A 
ATOM     34  C   UNL A   1      40.241  26.713  27.994  1.00  0.00    -0.014 A 
BRANCH  34  35
ATOM     35  C   UNL A   1      40.707  28.012  28.549  1.00  0.00     0.031 A 
ATOM     36  C   UNL A   1      42.164  28.269  28.801  1.00  0.00     0.074 A 
ATOM     37  C   UNL A   1      39.796  28.948  28.882  1.00  0.00     0.049 A 
ATOM     38  N   UNL A   1      42.747  29.354  29.247  1.00  0.00    -0.248 NA
ATOM     39  C   UNL A   1      43.089  27.154  28.549  1.00  0.00     0.031 C 
ATOM     40  C   UNL A   1      38.343  28.792  28.769  1.00  0.00     0.029 A 
ATOM     41  N   UNL A   1      39.953  30.218  29.379  1.00  0.00    -0.354 N 
ATOM     42  C   UNL A   1      44.098  29.048  29.340  1.00  0.00     0.074 A 
ATOM     43  C   UNL A   1      44.242  27.660  28.958  1.00  0.00     0.031 C 
ATOM     44  C   UNL A   1      37.747  29.938  29.137  1.00  0.00     0.029 A 
ATOM     45  C   UNL A   1      38.771  30.899  29.534  1.00  0.00     0.049 A 
ATOM     46  H   UNL A   1      40.831  30.603  29.604  1.00  0.00     0.167 HD
ATOM     47  C   UNL A   1      45.129  29.857  29.687  1.00  0.00     0.037 A 
ATOM     48  C   UNL A   1      38.538  32.165  29.931  1.00  0.00     0.037 A 
ATOM     49  C   UNL A   1      44.987  31.246  30.040  1.00  0.00     0.049 A 
ATOM     50  C   UNL A   1      39.701  33.054  30.272  1.00  0.00     0.074 A 
ATOM     51  C   UNL A   1      45.977  32.171  30.325  1.00  0.00     0.029 A 
ATOM     52  N   UNL A   1      43.775  31.910  30.164  1.00  0.00    -0.354 N 
ATOM     53  N   UNL A   1      40.984  32.786  30.251  1.00  0.00    -0.248 NA
ATOM     54  C   UNL A   1      39.382  34.430  30.677  1.00  0.00     0.031 C 
ATOM     55  C   UNL A   1      45.363  33.383  30.660  1.00  0.00     0.029 A 
ATOM     56  C   UNL A   1      43.991  33.226  30.541  1.00  0.00     0.049 A 
ATOM     57  H   UNL A   1      42.892  31.505  30.006  1.00  0.00     0.167 HD
ATOM     58  C   UNL A   1      41.625  33.963  30.611  1.00  0.00     0.074 A 
ATOM     59  C   UNL A   1      40.589  34.953  30.827  1.00  0.00     0.031 C 
ATOM     60  C   UNL A   1      42.952  34.202  30.751  1.00  0.00     0.037 A 
BRANCH  47  61
ATOM     61  C   UNL A   1      46.505  29.256  29.695  1.00  0.00     0.064 A 
ATOM     62  C   UNL A   1      47.104  28.807  30.882  1.00  0.00     0.173 A 
ATOM     63  C   UNL A   1      47.225  29.109  28.501  1.00  0.00     0.173 A 
ATOM     64  F   UNL A   1      46.462  28.935  32.054  1.00  0.00    -0.203 F 
ATOM     65  C   UNL A   1      48.386  28.265  30.878  1.00  0.00     0.198 A 
ATOM     66  C   UNL A   1      48.495  28.538  28.495  1.00  0.00     0.198 A 
ATOM     67  F   UNL A   1      46.697  29.516  27.337  1.00  0.00    -0.203 F 
ATOM     68  F   UNL A   1      48.959  27.894  32.031  1.00  0.00    -0.200 F 
ATOM     69  C   UNL A   1      49.079  28.126  29.684  1.00  0.00     0.200 A 
ATOM     70  F   UNL A   1      49.159  28.395  27.341  1.00  0.00    -0.200 F 
ATOM     71  F   UNL A   1      50.313  27.604  29.682  1.00  0.00    -0.200 F 
ENDBRANCH  47  61
BRANCH  48  72
ATOM     72  C   UNL A   1      37.148  32.691  29.958  1.00  0.00     0.064 A 
ATOM     73  C   UNL A   1      36.600  33.313  28.829  1.00  0.00     0.173 A 
ATOM     74  C   UNL A   1      36.345  32.587  31.103  1.00  0.00     0.173 A 
ATOM     75  F   UNL A   1      37.338  33.454  27.717  1.00  0.00    -0.203 F 
ATOM     76  C   UNL A   1      35.306  33.830  28.847  1.00  0.00     0.198 A 
ATOM     77  C   UNL A   1      35.043  33.082  31.112  1.00  0.00     0.198 A 
ATOM     78  F   UNL A   1      36.823  31.994  32.207  1.00  0.00    -0.203 F 
ATOM     79  F   UNL A   1      34.822  34.458  27.767  1.00  0.00    -0.200 F 
ATOM     80  C   UNL A   1      34.527  33.709  29.988  1.00  0.00     0.200 A 
ATOM     81  F   UNL A   1      34.287  32.953  32.212  1.00  0.00    -0.200 F 
ATOM     82  F   UNL A   1      33.282  34.203  30.005  1.00  0.00    -0.200 F 
ENDBRANCH  48  72
BRANCH  60  83
ATOM     83  C   UNL A   1      43.356  35.598  31.127  1.00  0.00     0.064 A 
ATOM     84  C   UNL A   1      43.433  36.006  32.466  1.00  0.00     0.173 A 
ATOM     85  C   UNL A   1      43.675  36.536  30.134  1.00  0.00     0.173 A 
ATOM     86  F   UNL A   1      43.122  35.150  33.452  1.00  0.00    -0.203 F 
ATOM     87  C   UNL A   1      43.779  37.314  32.797  1.00  0.00     0.198 A 
ATOM     88  C   UNL A   1      44.048  37.834  30.469  1.00  0.00     0.198 A 
ATOM     89  F   UNL A   1      43.622  36.194  28.838  1.00  0.00    -0.203 F 
ATOM     90  F   UNL A   1      43.787  37.698  34.081  1.00  0.00    -0.200 F 
ATOM     91  C   UNL A   1      44.090  38.225  31.799  1.00  0.00     0.200 A 
ATOM     92  F   UNL A   1      44.360  38.711  29.504  1.00  0.00    -0.200 F 
ATOM     93  F   UNL A   1      44.418  39.484  32.119  1.00  0.00    -0.200 F 
ENDBRANCH  60  83
ENDBRANCH  34  35
ENDBRANCH  26  29
ENDBRANCH  24  25
ENDBRANCH   1  24
TORSDOF 12
ENDMDL
MODEL 3
REMARK VINA RESULT:     -13.6      1.573      2.506
REMARK SMILES O=C(NCCCCNC(=O)c1ccc(-c2c3nc(c(-c4c(F)c(F)c(F)c(F)c4F)c4ccc([nH]4)c(-c4c(F)c(F)c(F)c(F)c4F)c4nc(c(-c5c(F)c(F)c(F)c(F)c5F)c5ccc2[nH]5)C=C4)C=C3)cc1)C1=Cc2cc(Cl)cc(Cl)c2O[C@@H]1C(F)(F)F
REMARK SMILES IDX 6 1 5 2 4 3 3 4 1 5 2 6 74 8 75 9 85 10 76 11 84 12 77 13
REMARK SMILES IDX 83 14 78 15 81 16 79 17 80 18 82 19 86 20 87 21 88 22 89 23
REMARK SMILES IDX 7 24 8 25 9 26 10 28 11 29 12 30 73 31 13 32 72 33 14 34
REMARK SMILES IDX 15 35 16 36 66 37 17 38 71 39 65 40 67 41 18 42 70 43 64 44
REMARK SMILES IDX 63 45 19 47 51 48 31 49 50 50 32 51 35 52 49 53 68 54 33 55
REMARK SMILES IDX 34 56 48 58 69 59 36 60 20 61 21 62 29 63 22 64 23 65 27 66
REMARK SMILES IDX 30 67 24 68 25 69 28 70 26 71 52 72 53 73 61 74 54 75 55 76
REMARK SMILES IDX 59 77 62 78 56 79 57 80 60 81 58 82 37 83 38 84 46 85 39 86
REMARK SMILES IDX 40 87 44 88 47 89 41 90 42 91 45 92 43 93
REMARK H PARENT 3 7 8 27 67 46 35 57
REMARK Flexibility Score: inf
ROOT
ATOM      1  C   UNL A   1      31.789  28.497  25.812  1.00  0.00     0.023 C 
ENDROOT
BRANCH   1   2
ATOM      2  C   UNL A   1      32.065  27.167  26.498  1.00  0.00     0.023 C 
BRANCH   2   3
ATOM      3  C   UNL A   1      31.122  26.020  26.164  1.00  0.00     0.116 C 
BRANCH   3   4
ATOM      4  N   UNL A   1      31.412  24.756  26.817  1.00  0.00    -0.352 N 
ATOM      5  O   UNL A   1      32.509  22.843  27.236  1.00  0.00    -0.270 OA
ATOM      6  C   UNL A   1      32.302  23.778  26.464  1.00  0.00     0.251 C 
ATOM      7  H   UNL A   1      30.894  24.576  27.633  1.00  0.00     0.163 HD
BRANCH   6   8
ATOM      8  C   UNL A   1      33.106  23.840  25.205  1.00  0.00     0.067 C 
ATOM      9  C   UNL A   1      34.262  24.522  25.121  1.00  0.00     0.025 C 
ATOM     10  C   UNL A   1      32.913  22.630  24.319  1.00  0.00     0.314 C 
ATOM     11  C   UNL A   1      35.425  23.597  25.066  1.00  0.00     0.020 A 
ATOM     12  O   UNL A   1      34.020  21.698  24.464  1.00  0.00    -0.474 OA
ATOM     13  C   UNL A   1      36.666  24.078  25.503  1.00  0.00     0.032 A 
ATOM     14  C   UNL A   1      35.233  22.221  24.849  1.00  0.00     0.146 A 
ATOM     15  C   UNL A   1      37.682  23.176  25.809  1.00  0.00     0.043 A 
ATOM     16  C   UNL A   1      36.276  21.333  25.140  1.00  0.00     0.085 A 
ATOM     17  Cl  UNL A   1      39.143  23.757  26.503  1.00  0.00    -0.084 Cl
ATOM     18  C   UNL A   1      37.490  21.806  25.641  1.00  0.00     0.045 A 
ATOM     19  Cl  UNL A   1      36.058  19.626  25.000  1.00  0.00    -0.080 Cl
BRANCH  10  20
ATOM     20  C   UNL A   1      32.684  23.007  22.846  1.00  0.00     0.429 C 
ATOM     21  F   UNL A   1      32.128  21.985  22.155  1.00  0.00    -0.167 F 
ATOM     22  F   UNL A   1      31.849  24.067  22.727  1.00  0.00    -0.167 F 
ATOM     23  F   UNL A   1      33.837  23.337  22.216  1.00  0.00    -0.167 F 
ENDBRANCH  10  20
ENDBRANCH   6   8
ENDBRANCH   3   4
ENDBRANCH   2   3
ENDBRANCH   1   2
BRANCH   1  24
ATOM     24  C   UNL A   1      32.932  29.510  25.782  1.00  0.00     0.116 C 
BRANCH  24  25
ATOM     25  N   UNL A   1      32.635  30.796  26.399  1.00  0.00    -0.352 N 
ATOM     26  C   UNL A   1      33.401  31.565  27.252  1.00  0.00     0.251 C 
ATOM     27  H   UNL A   1      31.755  31.174  26.173  1.00  0.00     0.163 HD
ATOM     28  O   UNL A   1      32.970  32.632  27.668  1.00  0.00    -0.269 OA
BRANCH  26  29
ATOM     29  C   UNL A   1      34.718  31.072  27.719  1.00  0.00     0.039 A 
ATOM     30  C   UNL A   1      35.745  32.000  27.918  1.00  0.00     0.014 A 
ATOM     31  C   UNL A   1      34.931  29.723  28.013  1.00  0.00     0.014 A 
ATOM     32  C   UNL A   1      36.939  31.593  28.518  1.00  0.00     0.010 A 
ATOM     33  C   UNL A   1      36.087  29.335  28.688  1.00  0.00     0.010 A 
ATOM     34  C   UNL A   1      37.096  30.270  28.965  1.00  0.00    -0.014 A 
BRANCH  34  35
ATOM     35  C   UNL A   1      38.282  29.878  29.771  1.00  0.00     0.031 A 
ATOM     36  C   UNL A   1      38.468  30.381  31.173  1.00  0.00     0.074 A 
ATOM     37  C   UNL A   1      39.233  29.106  29.207  1.00  0.00     0.049 A 
ATOM     38  N   UNL A   1      39.423  30.113  32.028  1.00  0.00    -0.248 NA
ATOM     39  C   UNL A   1      37.466  31.333  31.675  1.00  0.00     0.031 C 
ATOM     40  C   UNL A   1      39.218  28.621  27.824  1.00  0.00     0.029 A 
ATOM     41  N   UNL A   1      40.394  28.588  29.726  1.00  0.00    -0.354 N 
ATOM     42  C   UNL A   1      39.145  30.870  33.158  1.00  0.00     0.074 A 
ATOM     43  C   UNL A   1      37.963  31.651  32.861  1.00  0.00     0.031 C 
ATOM     44  C   UNL A   1      40.290  27.838  27.621  1.00  0.00     0.029 A 
ATOM     45  C   UNL A   1      41.079  27.784  28.847  1.00  0.00     0.049 A 
ATOM     46  H   UNL A   1      40.705  28.775  30.640  1.00  0.00     0.167 HD
ATOM     47  C   UNL A   1      39.799  30.893  34.345  1.00  0.00     0.037 A 
ATOM     48  C   UNL A   1      42.205  27.066  29.018  1.00  0.00     0.037 A 
ATOM     49  C   UNL A   1      40.958  30.095  34.650  1.00  0.00     0.049 A 
ATOM     50  C   UNL A   1      42.889  27.078  30.357  1.00  0.00     0.074 A 
ATOM     51  C   UNL A   1      41.641  29.985  35.849  1.00  0.00     0.029 A 
ATOM     52  N   UNL A   1      41.611  29.274  33.742  1.00  0.00    -0.354 N 
ATOM     53  N   UNL A   1      42.555  27.714  31.452  1.00  0.00    -0.248 NA
ATOM     54  C   UNL A   1      44.101  26.257  30.484  1.00  0.00     0.031 C 
ATOM     55  C   UNL A   1      42.731  29.128  35.656  1.00  0.00     0.029 A 
ATOM     56  C   UNL A   1      42.702  28.670  34.348  1.00  0.00     0.049 A 
ATOM     57  H   UNL A   1      41.339  29.140  32.806  1.00  0.00     0.167 HD
ATOM     58  C   UNL A   1      43.495  27.349  32.406  1.00  0.00     0.074 A 
ATOM     59  C   UNL A   1      44.403  26.421  31.763  1.00  0.00     0.031 C 
ATOM     60  C   UNL A   1      43.597  27.747  33.698  1.00  0.00     0.037 A 
BRANCH  47  61
ATOM     61  C   UNL A   1      39.267  31.812  35.407  1.00  0.00     0.064 A 
ATOM     62  C   UNL A   1      38.387  31.356  36.401  1.00  0.00     0.173 A 
ATOM     63  C   UNL A   1      39.655  33.159  35.444  1.00  0.00     0.173 A 
ATOM     64  F   UNL A   1      37.976  30.078  36.404  1.00  0.00    -0.203 F 
ATOM     65  C   UNL A   1      37.890  32.221  37.371  1.00  0.00     0.198 A 
ATOM     66  C   UNL A   1      39.179  34.016  36.433  1.00  0.00     0.198 A 
ATOM     67  F   UNL A   1      40.497  33.646  34.522  1.00  0.00    -0.203 F 
ATOM     68  F   UNL A   1      37.009  31.775  38.276  1.00  0.00    -0.200 F 
ATOM     69  C   UNL A   1      38.289  33.549  37.390  1.00  0.00     0.200 A 
ATOM     70  F   UNL A   1      39.574  35.296  36.457  1.00  0.00    -0.200 F 
ATOM     71  F   UNL A   1      37.810  34.381  38.325  1.00  0.00    -0.200 F 
ENDBRANCH  47  61
BRANCH  48  72
ATOM     72  C   UNL A   1      42.719  26.217  27.912  1.00  0.00     0.064 A 
ATOM     73  C   UNL A   1      43.604  26.743  26.961  1.00  0.00     0.173 A 
ATOM     74  C   UNL A   1      42.339  24.874  27.779  1.00  0.00     0.173 A 
ATOM     75  F   UNL A   1      43.980  28.029  27.037  1.00  0.00    -0.203 F 
ATOM     76  C   UNL A   1      44.077  25.965  25.907  1.00  0.00     0.198 A 
ATOM     77  C   UNL A   1      42.832  24.090  26.738  1.00  0.00     0.198 A 
ATOM     78  F   UNL A   1      41.499  24.322  28.666  1.00  0.00    -0.203 F 
ATOM     79  F   UNL A   1      44.889  26.506  24.989  1.00  0.00    -0.200 F 
ATOM     80  C   UNL A   1      43.695  24.636  25.800  1.00  0.00     0.200 A 
ATOM     81  F   UNL A   1      42.471  22.802  26.643  1.00  0.00    -0.200 F 
ATOM     82  F   UNL A   1      44.151  23.887  24.788  1.00  0.00    -0.200 F 
ENDBRANCH  48  72
BRANCH  60  83
ATOM     83  C   UNL A   1      44.714  27.155  34.507  1.00  0.00     0.064 A 
ATOM     84  C   UNL A   1      44.556  25.953  35.212  1.00  0.00     0.173 A 
ATOM     85  C   UNL A   1      45.960  27.797  34.572  1.00  0.00     0.173 A 
ATOM     86  F   UNL A   1      43.378  25.310  35.194  1.00  0.00    -0.203 F 
ATOM     87  C   UNL A   1      45.593  25.434  35.983  1.00  0.00     0.198 A 
ATOM     88  C   UNL A   1      47.004  27.260  35.320  1.00  0.00     0.198 A 
ATOM     89  F   UNL A   1      46.165  28.946  33.911  1.00  0.00    -0.203 F 
ATOM     90  F   UNL A   1      45.399  24.316  36.696  1.00  0.00    -0.200 F 
ATOM     91  C   UNL A   1      46.816  26.085  36.033  1.00  0.00     0.200 A 
ATOM     92  F   UNL A   1      48.189  27.884  35.358  1.00  0.00    -0.200 F 
ATOM     93  F   UNL A   1      47.812  25.587  36.779  1.00  0.00    -0.200 F 
ENDBRANCH  60  83
ENDBRANCH  34  35
ENDBRANCH  26  29
ENDBRANCH  24  25
ENDBRANCH   1  24
TORSDOF 12
ENDMDL
