MODEL 1
REMARK VINA RESULT:     -11.9      0.000      0.000
REMARK SMILES CC(C)c1ccc(C(=O)[C@H](Br)CC(=O)NCCCCNC(=O)c2ccc(-c3c4nc(c(-c5c(F)c(F)c(F)c(F)c5F)c5ccc([nH]5)c(-c5c(F)c(F)c(F)c(F)c5F)c5nc(c(-c6c(F)c(F)c(F)c(F)c6F)c6ccc3[nH]6)C=C5)C=C4)cc2)cc1
REMARK SMILES IDX 16 1 15 2 13 3 14 4 12 6 10 7 11 8 8 9 9 10 7 11 4 12 5 13
REMARK SMILES IDX 87 14 6 15 86 16 2 17 1 18 3 19 17 20 18 21 19 22 20 23
REMARK SMILES IDX 21 24 22 26 23 27 24 28 85 29 25 30 84 31 26 32 27 33 28 34
REMARK SMILES IDX 78 35 29 36 83 37 77 38 79 39 30 40 82 41 76 42 75 43 31 45
REMARK SMILES IDX 63 46 43 47 62 48 44 49 47 50 61 51 80 52 45 53 46 54 60 56
REMARK SMILES IDX 81 57 48 58 32 59 33 60 41 61 34 62 35 63 39 64 42 65 36 66
REMARK SMILES IDX 37 67 40 68 38 69 64 70 65 71 73 72 66 73 67 74 71 75 74 76
REMARK SMILES IDX 68 77 69 78 72 79 70 80 49 81 50 82 58 83 51 84 52 85 56 86
REMARK SMILES IDX 59 87 53 88 54 89 57 90 55 91
REMARK H PARENT 15 5 20 25 79 44 47 55
REMARK Flexibility Score: inf
ROOT
ATOM      1  C   UNL A   1      31.828  29.942  25.491  1.00  0.00     0.116 C 
ENDROOT
BRANCH   1   2
ATOM      2  N   UNL A   1      33.169  29.420  25.663  1.00  0.00    -0.356 N 
ATOM      3  C   UNL A   1      33.508  28.129  25.935  1.00  0.00     0.221 C 
ATOM      4  O   UNL A   1      34.611  27.872  26.413  1.00  0.00    -0.275 OA
ATOM      5  H   UNL A   1      33.909  30.063  25.573  1.00  0.00     0.163 HD
BRANCH   3   6
ATOM      6  C   UNL A   1      32.545  27.039  25.552  1.00  0.00     0.123 C 
BRANCH   6   7
ATOM      7  C   UNL A   1      32.946  26.292  24.296  1.00  0.00     0.138 C 
ATOM      8  Br  UNL A   1      33.928  24.643  24.674  1.00  0.00    -0.080 Br
BRANCH   7   9
ATOM      9  C   UNL A   1      31.683  25.875  23.567  1.00  0.00     0.176 C 
ATOM     10  O   UNL A   1      31.384  24.703  23.340  1.00  0.00    -0.293 OA
BRANCH   9  11
ATOM     11  C   UNL A   1      30.701  26.929  23.210  1.00  0.00     0.019 A 
ATOM     12  C   UNL A   1      28.842  28.971  22.748  1.00  0.00    -0.045 A 
ATOM     13  C   UNL A   1      28.475  27.829  23.474  1.00  0.00     0.005 A 
ATOM     14  C   UNL A   1      30.143  29.065  22.239  1.00  0.00     0.005 A 
ATOM     15  C   UNL A   1      29.403  26.819  23.714  1.00  0.00     0.012 A 
ATOM     16  C   UNL A   1      31.060  28.042  22.446  1.00  0.00     0.012 A 
BRANCH  12  17
ATOM     17  C   UNL A   1      27.838  30.076  22.504  1.00  0.00     0.013 C 
ATOM     18  C   UNL A   1      27.917  31.149  23.594  1.00  0.00     0.012 C 
ATOM     19  C   UNL A   1      28.050  30.679  21.114  1.00  0.00     0.012 C 
ENDBRANCH  12  17
ENDBRANCH   9  11
ENDBRANCH   7   9
ENDBRANCH   6   7
ENDBRANCH   3   6
ENDBRANCH   1   2
BRANCH   1  20
ATOM     20  C   UNL A   1      31.409  30.700  26.745  1.00  0.00     0.023 C 
BRANCH  20  21
ATOM     21  C   UNL A   1      31.429  32.212  26.584  1.00  0.00     0.023 C 
BRANCH  21  22
ATOM     22  C   UNL A   1      32.619  32.878  27.244  1.00  0.00     0.116 C 
BRANCH  22  23
ATOM     23  N   UNL A   1      32.351  34.255  27.637  1.00  0.00    -0.352 N 
ATOM     24  C   UNL A   1      32.969  35.002  28.609  1.00  0.00     0.251 C 
ATOM     25  H   UNL A   1      31.632  34.708  27.140  1.00  0.00     0.163 HD
ATOM     26  O   UNL A   1      32.538  36.096  28.932  1.00  0.00    -0.269 OA
BRANCH  24  27
ATOM     27  C   UNL A   1      34.151  34.429  29.276  1.00  0.00     0.039 A 
ATOM     28  C   UNL A   1      33.966  33.621  30.397  1.00  0.00     0.014 A 
ATOM     29  C   UNL A   1      35.427  34.638  28.745  1.00  0.00     0.014 A 
ATOM     30  C   UNL A   1      35.067  32.982  30.958  1.00  0.00     0.010 A 
ATOM     31  C   UNL A   1      36.497  33.906  29.231  1.00  0.00     0.010 A 
ATOM     32  C   UNL A   1      36.334  33.095  30.360  1.00  0.00    -0.014 A 
BRANCH  32  33
ATOM     33  C   UNL A   1      37.509  32.402  30.936  1.00  0.00     0.031 A 
ATOM     34  C   UNL A   1      37.983  32.763  32.316  1.00  0.00     0.074 A 
ATOM     35  C   UNL A   1      38.158  31.477  30.206  1.00  0.00     0.049 A 
ATOM     36  N   UNL A   1      38.979  32.265  33.005  1.00  0.00    -0.248 NA
ATOM     37  C   UNL A   1      37.269  33.852  33.003  1.00  0.00     0.031 C 
ATOM     38  C   UNL A   1      37.827  31.097  28.832  1.00  0.00     0.029 A 
ATOM     39  N   UNL A   1      39.227  30.679  30.523  1.00  0.00    -0.354 N 
ATOM     40  C   UNL A   1      39.009  32.983  34.192  1.00  0.00     0.074 A 
ATOM     41  C   UNL A   1      37.992  34.005  34.101  1.00  0.00     0.031 C 
ATOM     42  C   UNL A   1      38.643  30.105  28.442  1.00  0.00     0.029 A 
ATOM     43  C   UNL A   1      39.574  29.804  29.524  1.00  0.00     0.049 A 
ATOM     44  H   UNL A   1      39.701  30.729  31.385  1.00  0.00     0.167 HD
ATOM     45  C   UNL A   1      39.790  32.783  35.281  1.00  0.00     0.037 A 
ATOM     46  C   UNL A   1      40.530  28.856  29.495  1.00  0.00     0.037 A 
ATOM     47  C   UNL A   1      40.783  31.748  35.370  1.00  0.00     0.049 A 
ATOM     48  C   UNL A   1      41.380  28.648  30.720  1.00  0.00     0.074 A 
ATOM     49  C   UNL A   1      41.598  31.422  36.439  1.00  0.00     0.029 A 
ATOM     50  N   UNL A   1      41.098  30.869  34.343  1.00  0.00    -0.354 N 
ATOM     51  N   UNL A   1      41.349  29.279  31.869  1.00  0.00    -0.248 NA
ATOM     52  C   UNL A   1      42.391  27.586  30.646  1.00  0.00     0.031 C 
ATOM     53  C   UNL A   1      42.441  30.379  36.042  1.00  0.00     0.029 A 
ATOM     54  C   UNL A   1      42.109  30.013  34.746  1.00  0.00     0.049 A 
ATOM     55  H   UNL A   1      40.667  30.856  33.458  1.00  0.00     0.167 HD
ATOM     56  C   UNL A   1      42.305  28.668  32.668  1.00  0.00     0.074 A 
ATOM     57  C   UNL A   1      42.891  27.606  31.874  1.00  0.00     0.031 C 
ATOM     58  C   UNL A   1      42.667  28.955  33.942  1.00  0.00     0.037 A 
BRANCH  45  59
ATOM     59  C   UNL A   1      39.588  33.698  36.455  1.00  0.00     0.064 A 
ATOM     60  C   UNL A   1      40.199  34.961  36.521  1.00  0.00     0.173 A 
ATOM     61  C   UNL A   1      38.762  33.315  37.522  1.00  0.00     0.173 A 
ATOM     62  F   UNL A   1      41.012  35.370  35.535  1.00  0.00    -0.203 F 
ATOM     63  C   UNL A   1      40.021  35.788  37.626  1.00  0.00     0.198 A 
ATOM     64  C   UNL A   1      38.558  34.161  38.610  1.00  0.00     0.198 A 
ATOM     65  F   UNL A   1      38.152  32.121  37.513  1.00  0.00    -0.203 F 
ATOM     66  F   UNL A   1      40.667  36.961  37.693  1.00  0.00    -0.200 F 
ATOM     67  C   UNL A   1      39.195  35.392  38.665  1.00  0.00     0.200 A 
ATOM     68  F   UNL A   1      37.748  33.782  39.608  1.00  0.00    -0.200 F 
ATOM     69  F   UNL A   1      39.019  36.191  39.727  1.00  0.00    -0.200 F 
ENDBRANCH  45  59
BRANCH  46  70
ATOM     70  C   UNL A   1      40.696  28.003  28.290  1.00  0.00     0.064 A 
ATOM     71  C   UNL A   1      40.073  26.750  28.203  1.00  0.00     0.173 A 
ATOM     72  C   UNL A   1      41.477  28.418  27.202  1.00  0.00     0.173 A 
ATOM     73  F   UNL A   1      39.328  26.300  29.225  1.00  0.00    -0.203 F 
ATOM     74  C   UNL A   1      40.246  25.934  27.087  1.00  0.00     0.198 A 
ATOM     75  C   UNL A   1      41.624  27.615  26.072  1.00  0.00     0.198 A 
ATOM     76  F   UNL A   1      42.086  29.612  27.229  1.00  0.00    -0.203 F 
ATOM     77  F   UNL A   1      39.680  24.720  27.053  1.00  0.00    -0.200 F 
ATOM     78  C   UNL A   1      41.017  26.370  26.020  1.00  0.00     0.200 A 
ATOM     79  F   UNL A   1      42.356  28.048  25.037  1.00  0.00    -0.200 F 
ATOM     80  F   UNL A   1      41.180  25.587  24.945  1.00  0.00    -0.200 F 
ENDBRANCH  46  70
BRANCH  58  81
ATOM     81  C   UNL A   1      43.708  28.076  34.575  1.00  0.00     0.064 A 
ATOM     82  C   UNL A   1      43.376  26.874  35.214  1.00  0.00     0.173 A 
ATOM     83  C   UNL A   1      45.064  28.433  34.510  1.00  0.00     0.173 A 
ATOM     84  F   UNL A   1      42.093  26.494  35.315  1.00  0.00    -0.203 F 
ATOM     85  C   UNL A   1      44.358  26.081  35.799  1.00  0.00     0.198 A 
ATOM     86  C   UNL A   1      46.047  27.619  35.064  1.00  0.00     0.198 A 
ATOM     87  F   UNL A   1      45.438  29.568  33.899  1.00  0.00    -0.203 F 
ATOM     88  F   UNL A   1      44.011  24.967  36.459  1.00  0.00    -0.200 F 
ATOM     89  C   UNL A   1      45.693  26.449  35.718  1.00  0.00     0.200 A 
ATOM     90  F   UNL A   1      47.337  27.968  34.966  1.00  0.00    -0.200 F 
ATOM     91  F   UNL A   1      46.637  25.681  36.276  1.00  0.00    -0.200 F 
ENDBRANCH  58  81
ENDBRANCH  32  33
ENDBRANCH  24  27
ENDBRANCH  22  23
ENDBRANCH  21  22
ENDBRANCH  20  21
ENDBRANCH   1  20
TORSDOF 15
ENDMDL
MODEL 2
REMARK VINA RESULT:     -11.7      1.471      3.398
REMARK SMILES CC(C)c1ccc(C(=O)[C@H](Br)CC(=O)NCCCCNC(=O)c2ccc(-c3c4nc(c(-c5c(F)c(F)c(F)c(F)c5F)c5ccc([nH]5)c(-c5c(F)c(F)c(F)c(F)c5F)c5nc(c(-c6c(F)c(F)c(F)c(F)c6F)c6ccc3[nH]6)C=C5)C=C4)cc2)cc1
REMARK SMILES IDX 16 1 15 2 13 3 14 4 12 6 10 7 11 8 8 9 9 10 7 11 4 12 5 13
REMARK SMILES IDX 87 14 6 15 86 16 2 17 1 18 3 19 17 20 18 21 19 22 20 23
REMARK SMILES IDX 21 24 22 26 23 27 24 28 85 29 25 30 84 31 26 32 27 33 28 34
REMARK SMILES IDX 78 35 29 36 83 37 77 38 79 39 30 40 82 41 76 42 75 43 31 45
REMARK SMILES IDX 63 46 43 47 62 48 44 49 47 50 61 51 80 52 45 53 46 54 60 56
REMARK SMILES IDX 81 57 48 58 32 59 33 60 41 61 34 62 35 63 39 64 42 65 36 66
REMARK SMILES IDX 37 67 40 68 38 69 64 70 65 71 73 72 66 73 67 74 71 75 74 76
REMARK SMILES IDX 68 77 69 78 72 79 70 80 49 81 50 82 58 83 51 84 52 85 56 86
REMARK SMILES IDX 59 87 53 88 54 89 57 90 55 91
REMARK H PARENT 15 5 20 25 79 44 47 55
REMARK Flexibility Score: inf
ROOT
ATOM      1  C   UNL A   1      32.181  30.012  25.486  1.00  0.00     0.116 C 
ENDROOT
BRANCH   1   2
ATOM      2  N   UNL A   1      31.015  30.015  24.625  1.00  0.00    -0.356 N 
ATOM      3  C   UNL A   1      30.733  29.119  23.639  1.00  0.00     0.221 C 
ATOM      4  O   UNL A   1      29.933  29.414  22.752  1.00  0.00    -0.275 OA
ATOM      5  H   UNL A   1      30.361  30.736  24.769  1.00  0.00     0.163 HD
BRANCH   3   6
ATOM      6  C   UNL A   1      31.346  27.748  23.718  1.00  0.00     0.123 C 
BRANCH   6   7
ATOM      7  C   UNL A   1      30.544  26.774  24.558  1.00  0.00     0.138 C 
ATOM      8  Br  UNL A   1      30.327  25.031  23.698  1.00  0.00    -0.080 Br
BRANCH   7   9
ATOM      9  C   UNL A   1      31.303  26.519  25.846  1.00  0.00     0.176 C 
ATOM     10  O   UNL A   1      30.964  26.974  26.938  1.00  0.00    -0.293 OA
BRANCH   9  11
ATOM     11  C   UNL A   1      32.450  25.578  25.807  1.00  0.00     0.019 A 
ATOM     12  C   UNL A   1      34.715  23.934  25.877  1.00  0.00    -0.045 A 
ATOM     13  C   UNL A   1      34.789  25.217  25.318  1.00  0.00     0.005 A 
ATOM     14  C   UNL A   1      33.490  23.478  26.378  1.00  0.00     0.005 A 
ATOM     15  C   UNL A   1      33.665  26.039  25.294  1.00  0.00     0.012 A 
ATOM     16  C   UNL A   1      32.359  24.283  26.323  1.00  0.00     0.012 A 
BRANCH  12  17
ATOM     17  C   UNL A   1      35.941  23.047  25.920  1.00  0.00     0.013 C 
ATOM     18  C   UNL A   1      35.561  21.584  26.166  1.00  0.00     0.012 C 
ATOM     19  C   UNL A   1      36.746  23.203  24.628  1.00  0.00     0.012 C 
ENDBRANCH  12  17
ENDBRANCH   9  11
ENDBRANCH   7   9
ENDBRANCH   6   7
ENDBRANCH   3   6
ENDBRANCH   1   2
BRANCH   1  20
ATOM     20  C   UNL A   1      31.807  30.565  26.856  1.00  0.00     0.023 C 
BRANCH  20  21
ATOM     21  C   UNL A   1      31.555  32.064  26.866  1.00  0.00     0.023 C 
BRANCH  21  22
ATOM     22  C   UNL A   1      32.781  32.884  27.212  1.00  0.00     0.116 C 
BRANCH  22  23
ATOM     23  N   UNL A   1      32.452  34.225  27.677  1.00  0.00    -0.352 N 
ATOM     24  C   UNL A   1      33.015  34.934  28.708  1.00  0.00     0.251 C 
ATOM     25  H   UNL A   1      31.730  34.682  27.187  1.00  0.00     0.163 HD
ATOM     26  O   UNL A   1      32.536  35.991  29.082  1.00  0.00    -0.269 OA
BRANCH  24  27
ATOM     27  C   UNL A   1      34.200  34.365  29.374  1.00  0.00     0.039 A 
ATOM     28  C   UNL A   1      34.016  33.507  30.457  1.00  0.00     0.014 A 
ATOM     29  C   UNL A   1      35.479  34.628  28.876  1.00  0.00     0.014 A 
ATOM     30  C   UNL A   1      35.123  32.874  31.013  1.00  0.00     0.010 A 
ATOM     31  C   UNL A   1      36.560  33.904  29.353  1.00  0.00     0.010 A 
ATOM     32  C   UNL A   1      36.398  33.043  30.445  1.00  0.00    -0.014 A 
BRANCH  32  33
ATOM     33  C   UNL A   1      37.580  32.358  31.015  1.00  0.00     0.031 A 
ATOM     34  C   UNL A   1      38.055  32.717  32.395  1.00  0.00     0.074 A 
ATOM     35  C   UNL A   1      38.234  31.441  30.280  1.00  0.00     0.049 A 
ATOM     36  N   UNL A   1      39.056  32.224  33.079  1.00  0.00    -0.248 NA
ATOM     37  C   UNL A   1      37.333  33.797  33.089  1.00  0.00     0.031 C 
ATOM     38  C   UNL A   1      37.902  31.064  28.904  1.00  0.00     0.029 A 
ATOM     39  N   UNL A   1      39.310  30.651  30.590  1.00  0.00    -0.354 N 
ATOM     40  C   UNL A   1      39.084  32.938  34.269  1.00  0.00     0.074 A 
ATOM     41  C   UNL A   1      38.058  33.951  34.185  1.00  0.00     0.031 C 
ATOM     42  C   UNL A   1      38.725  30.080  28.508  1.00  0.00     0.029 A 
ATOM     43  C   UNL A   1      39.661  29.782  29.587  1.00  0.00     0.049 A 
ATOM     44  H   UNL A   1      39.786  30.701  31.451  1.00  0.00     0.167 HD
ATOM     45  C   UNL A   1      39.869  32.739  35.355  1.00  0.00     0.037 A 
ATOM     46  C   UNL A   1      40.625  28.843  29.551  1.00  0.00     0.037 A 
ATOM     47  C   UNL A   1      40.871  31.712  35.437  1.00  0.00     0.049 A 
ATOM     48  C   UNL A   1      41.480  28.636  30.772  1.00  0.00     0.074 A 
ATOM     49  C   UNL A   1      41.691  31.388  36.502  1.00  0.00     0.029 A 
ATOM     50  N   UNL A   1      41.190  30.840  34.405  1.00  0.00    -0.354 N 
ATOM     51  N   UNL A   1      41.447  29.262  31.924  1.00  0.00    -0.248 NA
ATOM     52  C   UNL A   1      42.499  27.582  30.691  1.00  0.00     0.031 C 
ATOM     53  C   UNL A   1      42.542  30.354  36.099  1.00  0.00     0.029 A 
ATOM     54  C   UNL A   1      42.209  29.990  34.803  1.00  0.00     0.049 A 
ATOM     55  H   UNL A   1      40.756  30.827  33.522  1.00  0.00     0.167 HD
ATOM     56  C   UNL A   1      42.411  28.655  32.718  1.00  0.00     0.074 A 
ATOM     57  C   UNL A   1      43.002  27.602  31.918  1.00  0.00     0.031 C 
ATOM     58  C   UNL A   1      42.773  28.940  33.993  1.00  0.00     0.037 A 
BRANCH  45  59
ATOM     59  C   UNL A   1      39.663  33.647  36.533  1.00  0.00     0.064 A 
ATOM     60  C   UNL A   1      38.832  33.287  37.607  1.00  0.00     0.173 A 
ATOM     61  C   UNL A   1      40.313  34.888  36.599  1.00  0.00     0.173 A 
ATOM     62  F   UNL A   1      38.172  32.118  37.589  1.00  0.00    -0.203 F 
ATOM     63  C   UNL A   1      38.632  34.150  38.682  1.00  0.00     0.198 A 
ATOM     64  C   UNL A   1      40.139  35.733  37.693  1.00  0.00     0.198 A 
ATOM     65  F   UNL A   1      41.119  35.284  35.603  1.00  0.00    -0.203 F 
ATOM     66  F   UNL A   1      37.785  33.809  39.663  1.00  0.00    -0.200 F 
ATOM     67  C   UNL A   1      39.291  35.367  38.728  1.00  0.00     0.200 A 
ATOM     68  F   UNL A   1      40.788  36.904  37.742  1.00  0.00    -0.200 F 
ATOM     69  F   UNL A   1      39.103  36.195  39.765  1.00  0.00    -0.200 F 
ENDBRANCH  45  59
BRANCH  46  70
ATOM     70  C   UNL A   1      40.794  27.995  28.342  1.00  0.00     0.064 A 
ATOM     71  C   UNL A   1      40.146  26.757  28.233  1.00  0.00     0.173 A 
ATOM     72  C   UNL A   1      41.604  28.403  27.271  1.00  0.00     0.173 A 
ATOM     73  F   UNL A   1      39.374  26.315  29.237  1.00  0.00    -0.203 F 
ATOM     74  C   UNL A   1      40.322  25.947  27.114  1.00  0.00     0.198 A 
ATOM     75  C   UNL A   1      41.754  27.606  26.138  1.00  0.00     0.198 A 
ATOM     76  F   UNL A   1      42.238  29.583  27.320  1.00  0.00    -0.203 F 
ATOM     77  F   UNL A   1      39.732  24.745  27.059  1.00  0.00    -0.200 F 
ATOM     78  C   UNL A   1      41.122  26.374  26.064  1.00  0.00     0.200 A 
ATOM     79  F   UNL A   1      42.514  28.031  25.120  1.00  0.00    -0.200 F 
ATOM     80  F   UNL A   1      41.288  25.597  24.986  1.00  0.00    -0.200 F 
ENDBRANCH  46  70
BRANCH  58  81
ATOM     81  C   UNL A   1      43.824  28.067  34.619  1.00  0.00     0.064 A 
ATOM     82  C   UNL A   1      45.182  28.414  34.603  1.00  0.00     0.173 A 
ATOM     83  C   UNL A   1      43.455  26.880  35.270  1.00  0.00     0.173 A 
ATOM     84  F   UNL A   1      45.587  29.532  33.982  1.00  0.00    -0.203 F 
ATOM     85  C   UNL A   1      46.137  27.585  35.184  1.00  0.00     0.198 A 
ATOM     86  C   UNL A   1      44.409  26.073  35.882  1.00  0.00     0.198 A 
ATOM     87  F   UNL A   1      42.167  26.508  35.324  1.00  0.00    -0.203 F 
ATOM     88  F   UNL A   1      47.436  27.906  35.104  1.00  0.00    -0.200 F 
ATOM     89  C   UNL A   1      45.751  26.420  35.829  1.00  0.00     0.200 A 
ATOM     90  F   UNL A   1      44.031  24.957  36.521  1.00  0.00    -0.200 F 
ATOM     91  F   UNL A   1      46.671  25.627  36.393  1.00  0.00    -0.200 F 
ENDBRANCH  58  81
ENDBRANCH  32  33
ENDBRANCH  24  27
ENDBRANCH  22  23
ENDBRANCH  21  22
ENDBRANCH  20  21
ENDBRANCH   1  20
TORSDOF 15
ENDMDL
MODEL 3
REMARK VINA RESULT:     -11.7      2.144      4.239
REMARK SMILES CC(C)c1ccc(C(=O)[C@H](Br)CC(=O)NCCCCNC(=O)c2ccc(-c3c4nc(c(-c5c(F)c(F)c(F)c(F)c5F)c5ccc([nH]5)c(-c5c(F)c(F)c(F)c(F)c5F)c5nc(c(-c6c(F)c(F)c(F)c(F)c6F)c6ccc3[nH]6)C=C5)C=C4)cc2)cc1
REMARK SMILES IDX 16 1 15 2 13 3 14 4 12 6 10 7 11 8 8 9 9 10 7 11 4 12 5 13
REMARK SMILES IDX 87 14 6 15 86 16 2 17 1 18 3 19 17 20 18 21 19 22 20 23
REMARK SMILES IDX 21 24 22 26 23 27 24 28 85 29 25 30 84 31 26 32 27 33 28 34
REMARK SMILES IDX 78 35 29 36 83 37 77 38 79 39 30 40 82 41 76 42 75 43 31 45
REMARK SMILES IDX 63 46 43 47 62 48 44 49 47 50 61 51 80 52 45 53 46 54 60 56
REMARK SMILES IDX 81 57 48 58 32 59 33 60 41 61 34 62 35 63 39 64 42 65 36 66
REMARK SMILES IDX 37 67 40 68 38 69 64 70 65 71 73 72 66 73 67 74 71 75 74 76
REMARK SMILES IDX 68 77 69 78 72 79 70 80 49 81 50 82 58 83 51 84 52 85 56 86
REMARK SMILES IDX 59 87 53 88 54 89 57 90 55 91
REMARK H PARENT 15 5 20 25 79 44 47 55
REMARK Flexibility Score: inf
ROOT
ATOM      1  C   UNL A   1      32.316  28.747  22.587  1.00  0.00     0.116 C 
ENDROOT
BRANCH   1   2
ATOM      2  N   UNL A   1      32.978  27.718  21.811  1.00  0.00    -0.356 N 
ATOM      3  C   UNL A   1      32.820  26.372  21.947  1.00  0.00     0.221 C 
ATOM      4  O   UNL A   1      33.675  25.606  21.508  1.00  0.00    -0.275 OA
ATOM      5  H   UNL A   1      33.605  28.022  21.116  1.00  0.00     0.163 HD
BRANCH   3   6
ATOM      6  C   UNL A   1      31.543  25.858  22.555  1.00  0.00     0.123 C 
BRANCH   6   7
ATOM      7  C   UNL A   1      31.633  25.633  24.051  1.00  0.00     0.138 C 
ATOM      8  Br  UNL A   1      29.929  25.922  24.966  1.00  0.00    -0.080 Br
BRANCH   7   9
ATOM      9  C   UNL A   1      32.002  24.182  24.293  1.00  0.00     0.176 C 
ATOM     10  O   UNL A   1      31.210  23.249  24.170  1.00  0.00    -0.293 OA
BRANCH   9  11
ATOM     11  C   UNL A   1      33.422  23.861  24.583  1.00  0.00     0.019 A 
ATOM     12  C   UNL A   1      36.149  23.331  24.930  1.00  0.00    -0.045 A 
ATOM     13  C   UNL A   1      35.402  22.610  23.988  1.00  0.00     0.005 A 
ATOM     14  C   UNL A   1      35.509  24.302  25.709  1.00  0.00     0.005 A 
ATOM     15  C   UNL A   1      34.048  22.882  23.807  1.00  0.00     0.012 A 
ATOM     16  C   UNL A   1      34.150  24.550  25.555  1.00  0.00     0.012 A 
BRANCH  12  17
ATOM     17  C   UNL A   1      37.624  23.048  25.113  1.00  0.00     0.013 C 
ATOM     18  C   UNL A   1      38.202  23.848  26.285  1.00  0.00     0.012 C 
ATOM     19  C   UNL A   1      37.851  21.547  25.300  1.00  0.00     0.012 C 
ENDBRANCH  12  17
ENDBRANCH   9  11
ENDBRANCH   7   9
ENDBRANCH   6   7
ENDBRANCH   3   6
ENDBRANCH   1   2
BRANCH   1  20
ATOM     20  C   UNL A   1      33.081  28.982  23.884  1.00  0.00     0.023 C 
BRANCH  20  21
ATOM     21  C   UNL A   1      32.189  29.279  25.079  1.00  0.00     0.023 C 
BRANCH  21  22
ATOM     22  C   UNL A   1      32.948  29.762  26.299  1.00  0.00     0.116 C 
BRANCH  22  23
ATOM     23  N   UNL A   1      32.713  31.169  26.590  1.00  0.00    -0.352 N 
ATOM     24  C   UNL A   1      33.446  32.011  27.390  1.00  0.00     0.251 C 
ATOM     25  H   UNL A   1      31.925  31.570  26.156  1.00  0.00     0.163 HD
ATOM     26  O   UNL A   1      33.046  33.129  27.662  1.00  0.00    -0.269 OA
BRANCH  24  27
ATOM     27  C   UNL A   1      34.719  31.509  27.938  1.00  0.00     0.039 A 
ATOM     28  C   UNL A   1      35.791  32.391  28.065  1.00  0.00     0.014 A 
ATOM     29  C   UNL A   1      34.818  30.190  28.388  1.00  0.00     0.014 A 
ATOM     30  C   UNL A   1      36.954  31.955  28.691  1.00  0.00     0.010 A 
ATOM     31  C   UNL A   1      35.929  29.798  29.117  1.00  0.00     0.010 A 
ATOM     32  C   UNL A   1      37.020  30.666  29.249  1.00  0.00    -0.014 A 
BRANCH  32  33
ATOM     33  C   UNL A   1      38.245  30.198  29.937  1.00  0.00     0.031 A 
ATOM     34  C   UNL A   1      38.536  30.663  31.336  1.00  0.00     0.074 A 
ATOM     35  C   UNL A   1      39.099  29.385  29.290  1.00  0.00     0.049 A 
ATOM     36  N   UNL A   1      39.543  30.358  32.115  1.00  0.00    -0.248 NA
ATOM     37  C   UNL A   1      37.593  31.625  31.929  1.00  0.00     0.031 C 
ATOM     38  C   UNL A   1      38.951  28.926  27.908  1.00  0.00     0.029 A 
ATOM     39  N   UNL A   1      40.259  28.790  29.715  1.00  0.00    -0.354 N 
ATOM     40  C   UNL A   1      39.353  31.094  33.277  1.00  0.00     0.074 A 
ATOM     41  C   UNL A   1      38.187  31.922  33.074  1.00  0.00     0.031 C 
ATOM     42  C   UNL A   1      39.953  28.083  27.615  1.00  0.00     0.029 A 
ATOM     43  C   UNL A   1      40.830  27.969  28.775  1.00  0.00     0.049 A 
ATOM     44  H   UNL A   1      40.646  28.939  30.609  1.00  0.00     0.167 HD
ATOM     45  C   UNL A   1      40.065  31.052  34.429  1.00  0.00     0.037 A 
ATOM     46  C   UNL A   1      41.933  27.200  28.851  1.00  0.00     0.037 A 
ATOM     47  C   UNL A   1      41.210  30.207  34.628  1.00  0.00     0.049 A 
ATOM     48  C   UNL A   1      42.704  27.166  30.144  1.00  0.00     0.074 A 
ATOM     49  C   UNL A   1      41.978  30.048  35.767  1.00  0.00     0.029 A 
ATOM     50  N   UNL A   1      41.752  29.376  33.658  1.00  0.00    -0.354 N 
ATOM     51  N   UNL A   1      42.472  27.804  31.265  1.00  0.00    -0.248 NA
ATOM     52  C   UNL A   1      43.884  26.293  30.183  1.00  0.00     0.031 C 
ATOM     53  C   UNL A   1      43.016  29.159  35.471  1.00  0.00     0.029 A 
ATOM     54  C   UNL A   1      42.859  28.714  34.167  1.00  0.00     0.049 A 
ATOM     55  H   UNL A   1      41.403  29.271  32.744  1.00  0.00     0.167 HD
ATOM     56  C   UNL A   1      43.450  27.383  32.156  1.00  0.00     0.074 A 
ATOM     57  C   UNL A   1      44.271  26.423  31.445  1.00  0.00     0.031 C 
ATOM     58  C   UNL A   1      43.652  27.754  33.444  1.00  0.00     0.037 A 
BRANCH  45  59
ATOM     59  C   UNL A   1      39.615  31.941  35.552  1.00  0.00     0.064 A 
ATOM     60  C   UNL A   1      38.648  31.525  36.483  1.00  0.00     0.173 A 
ATOM     61  C   UNL A   1      40.165  33.222  35.712  1.00  0.00     0.173 A 
ATOM     62  F   UNL A   1      38.077  30.316  36.367  1.00  0.00    -0.203 F 
ATOM     63  C   UNL A   1      38.224  32.369  37.505  1.00  0.00     0.198 A 
ATOM     64  C   UNL A   1      39.764  34.050  36.758  1.00  0.00     0.198 A 
ATOM     65  F   UNL A   1      41.092  33.673  34.854  1.00  0.00    -0.203 F 
ATOM     66  F   UNL A   1      37.254  31.970  38.341  1.00  0.00    -0.200 F 
ATOM     67  C   UNL A   1      38.787  33.626  37.647  1.00  0.00     0.200 A 
ATOM     68  F   UNL A   1      40.319  35.261  36.902  1.00  0.00    -0.200 F 
ATOM     69  F   UNL A   1      38.383  34.437  38.635  1.00  0.00    -0.200 F 
ENDBRANCH  45  59
BRANCH  46  70
ATOM     70  C   UNL A   1      42.340  26.365  27.691  1.00  0.00     0.064 A 
ATOM     71  C   UNL A   1      41.746  25.116  27.459  1.00  0.00     0.173 A 
ATOM     72  C   UNL A   1      43.328  26.793  26.792  1.00  0.00     0.173 A 
ATOM     73  F   UNL A   1      40.807  24.655  28.300  1.00  0.00    -0.203 F 
ATOM     74  C   UNL A   1      42.141  24.317  26.389  1.00  0.00     0.198 A 
ATOM     75  C   UNL A   1      43.700  26.007  25.704  1.00  0.00     0.198 A 
ATOM     76  F   UNL A   1      43.920  27.983  26.963  1.00  0.00    -0.203 F 
ATOM     77  F   UNL A   1      41.592  23.107  26.220  1.00  0.00    -0.200 F 
ATOM     78  C   UNL A   1      43.115  24.766  25.508  1.00  0.00     0.200 A 
ATOM     79  F   UNL A   1      44.629  26.451  24.846  1.00  0.00    -0.200 F 
ATOM     80  F   UNL A   1      43.492  23.999  24.477  1.00  0.00    -0.200 F 
ENDBRANCH  46  70
BRANCH  58  81
ATOM     81  C   UNL A   1      44.773  27.081  34.184  1.00  0.00     0.064 A 
ATOM     82  C   UNL A   1      46.064  27.626  34.230  1.00  0.00     0.173 A 
ATOM     83  C   UNL A   1      44.539  25.886  34.881  1.00  0.00     0.173 A 
ATOM     84  F   UNL A   1      46.343  28.760  33.570  1.00  0.00    -0.203 F 
ATOM     85  C   UNL A   1      47.088  26.980  34.917  1.00  0.00     0.198 A 
ATOM     86  C   UNL A   1      45.556  25.262  35.597  1.00  0.00     0.198 A 
ATOM     87  F   UNL A   1      43.319  25.327  34.878  1.00  0.00    -0.203 F 
ATOM     88  F   UNL A   1      48.328  27.487  34.897  1.00  0.00    -0.200 F 
ATOM     89  C   UNL A   1      46.833  25.803  35.605  1.00  0.00     0.200 A 
ATOM     90  F   UNL A   1      45.302  24.136  36.277  1.00  0.00    -0.200 F 
ATOM     91  F   UNL A   1      47.818  25.187  36.270  1.00  0.00    -0.200 F 
ENDBRANCH  58  81
ENDBRANCH  32  33
ENDBRANCH  24  27
ENDBRANCH  22  23
ENDBRANCH  21  22
ENDBRANCH  20  21
ENDBRANCH   1  20
TORSDOF 15
ENDMDL
