MODEL 1
REMARK VINA RESULT:     -13.9      0.000      0.000
REMARK SMILES Nn1c(S[C@@H](C(=O)NCCCCNC(=O)c2ccc(-c3c4nc(c(-c5c(F)c(F)c(F)c(F)c5F)c5ccc([nH]5)c(-c5c(F)c(F)c(F)c(F)c5F)c5nc(c(-c6c(F)c(F)c(F)c(F)c6F)c6ccc3[nH]6)C=C5)C=C4)cc2)c2ccccc2)nc2ccc(Br)cc2c1=O
REMARK SMILES IDX 10 1 9 2 8 3 6 4 7 5 5 7 4 8 3 9 2 10 93 11 85 12 92 13
REMARK SMILES IDX 94 14 86 15 91 16 87 17 89 18 88 19 90 20 1 21 79 24 80 25
REMARK SMILES IDX 84 26 81 27 83 28 82 29 11 30 12 31 13 32 14 33 15 35 16 36
REMARK SMILES IDX 17 37 78 38 18 39 77 40 19 41 20 42 21 43 71 44 22 45 76 46
REMARK SMILES IDX 70 47 72 48 23 49 75 50 69 51 68 52 24 54 56 55 36 56 55 57
REMARK SMILES IDX 37 58 40 59 54 60 73 61 38 62 39 63 53 65 74 66 41 67 25 68
REMARK SMILES IDX 26 69 34 70 27 71 28 72 32 73 35 74 29 75 30 76 33 77 31 78
REMARK SMILES IDX 57 79 58 80 66 81 59 82 60 83 64 84 67 85 61 86 62 87 65 88
REMARK SMILES IDX 63 89 42 90 43 91 51 92 44 93 45 94 49 95 52 96 46 97 47 98
REMARK SMILES IDX 50 99 48 100
REMARK H PARENT 8 6 1 22 1 23 13 34 72 53 40 64
REMARK Flexibility Score: inf
ROOT
ATOM      1  C   UNL A   1      31.771  30.324  26.487  1.00  0.00     0.023 C 
ENDROOT
BRANCH   1   2
ATOM      2  C   UNL A   1      33.165  29.861  26.054  1.00  0.00     0.116 C 
BRANCH   2   3
ATOM      3  N   UNL A   1      33.252  29.597  24.629  1.00  0.00    -0.355 N 
ATOM      4  C   UNL A   1      32.300  29.255  23.701  1.00  0.00     0.238 C 
ATOM      5  O   UNL A   1      32.733  29.205  22.546  1.00  0.00    -0.273 OA
ATOM      6  H   UNL A   1      34.161  29.680  24.259  1.00  0.00     0.163 HD
BRANCH   4   7
ATOM      7  C   UNL A   1      30.818  29.044  24.112  1.00  0.00     0.174 C 
BRANCH   7   8
ATOM      8  S   UNL A   1      30.427  27.284  24.333  1.00  0.00    -0.068 SA
BRANCH   8   9
ATOM      9  C   UNL A   1      31.722  26.204  23.894  1.00  0.00     0.191 A 
ATOM     10  N   UNL A   1      32.098  25.846  22.604  1.00  0.00    -0.202 N 
ATOM     11  C   UNL A   1      33.139  24.943  22.357  1.00  0.00     0.280 A 
ATOM     12  N   UNL A   1      32.346  25.754  24.939  1.00  0.00    -0.222 NA
ATOM     13  C   UNL A   1      33.834  24.416  23.537  1.00  0.00     0.069 A 
ATOM     14  O   UNL A   1      33.484  24.589  21.229  1.00  0.00    -0.267 OA
ATOM     15  C   UNL A   1      33.410  24.865  24.784  1.00  0.00     0.079 A 
ATOM     16  C   UNL A   1      34.886  23.502  23.407  1.00  0.00     0.031 A 
ATOM     17  C   UNL A   1      34.067  24.398  25.924  1.00  0.00     0.030 A 
ATOM     18  C   UNL A   1      35.521  23.040  24.556  1.00  0.00     0.018 A 
ATOM     19  C   UNL A   1      35.122  23.488  25.814  1.00  0.00     0.018 A 
ATOM     20  Br  UNL A   1      36.936  21.797  24.408  1.00  0.00    -0.051 Br
BRANCH  10  21
ATOM     21  N   UNL A   1      31.468  26.348  21.459  1.00  0.00    -0.334 N 
ATOM     22  H   UNL A   1      30.492  26.267  21.360  1.00  0.00     0.178 HD
ATOM     23  H   UNL A   1      32.001  26.780  20.753  1.00  0.00     0.178 HD
ENDBRANCH  10  21
ENDBRANCH   8   9
ENDBRANCH   7   8
BRANCH   7  24
ATOM     24  C   UNL A   1      29.682  29.854  23.462  1.00  0.00    -0.025 A 
ATOM     25  C   UNL A   1      29.255  31.113  23.913  1.00  0.00     0.005 A 
ATOM     26  C   UNL A   1      28.989  29.304  22.362  1.00  0.00     0.005 A 
ATOM     27  C   UNL A   1      28.254  31.827  23.243  1.00  0.00     0.000 A 
ATOM     28  C   UNL A   1      27.985  30.012  21.695  1.00  0.00     0.000 A 
ATOM     29  C   UNL A   1      27.628  31.283  22.128  1.00  0.00     0.000 A 
ENDBRANCH   7  24
ENDBRANCH   4   7
ENDBRANCH   2   3
ENDBRANCH   1   2
BRANCH   1  30
ATOM     30  C   UNL A   1      31.585  31.836  26.614  1.00  0.00     0.023 C 
BRANCH  30  31
ATOM     31  C   UNL A   1      32.734  32.593  27.266  1.00  0.00     0.116 C 
BRANCH  31  32
ATOM     32  N   UNL A   1      32.392  33.955  27.646  1.00  0.00    -0.352 N 
ATOM     33  C   UNL A   1      32.994  34.788  28.561  1.00  0.00     0.251 C 
ATOM     34  H   UNL A   1      31.614  34.337  27.180  1.00  0.00     0.163 HD
ATOM     35  O   UNL A   1      32.502  35.883  28.809  1.00  0.00    -0.269 OA
BRANCH  33  36
ATOM     36  C   UNL A   1      34.212  34.349  29.282  1.00  0.00     0.039 A 
ATOM     37  C   UNL A   1      35.486  34.603  28.774  1.00  0.00     0.014 A 
ATOM     38  C   UNL A   1      34.069  33.650  30.486  1.00  0.00     0.014 A 
ATOM     39  C   UNL A   1      36.595  34.007  29.365  1.00  0.00     0.010 A 
ATOM     40  C   UNL A   1      35.196  33.126  31.129  1.00  0.00     0.010 A 
ATOM     41  C   UNL A   1      36.464  33.252  30.543  1.00  0.00    -0.014 A 
BRANCH  41  42
ATOM     42  C   UNL A   1      37.669  32.602  31.125  1.00  0.00     0.031 A 
ATOM     43  C   UNL A   1      38.132  32.939  32.517  1.00  0.00     0.074 A 
ATOM     44  C   UNL A   1      38.300  31.641  30.422  1.00  0.00     0.049 A 
ATOM     45  N   UNL A   1      39.102  32.400  33.216  1.00  0.00    -0.248 NA
ATOM     46  C   UNL A   1      37.423  34.021  33.219  1.00  0.00     0.031 C 
ATOM     47  C   UNL A   1      37.949  31.230  29.062  1.00  0.00     0.029 A 
ATOM     48  N   UNL A   1      39.339  30.812  30.763  1.00  0.00    -0.354 N 
ATOM     49  C   UNL A   1      39.123  33.081  34.427  1.00  0.00     0.074 A 
ATOM     50  C   UNL A   1      38.096  34.096  34.358  1.00  0.00     0.031 C 
ATOM     51  C   UNL A   1      38.709  30.183  28.710  1.00  0.00     0.029 A 
ATOM     52  C   UNL A   1      39.637  29.882  29.797  1.00  0.00     0.049 A 
ATOM     53  H   UNL A   1      39.823  30.877  31.617  1.00  0.00     0.167 HD
ATOM     54  C   UNL A   1      39.915  32.863  35.505  1.00  0.00     0.037 A 
ATOM     55  C   UNL A   1      40.553  28.894  29.784  1.00  0.00     0.037 A 
ATOM     56  C   UNL A   1      40.917  31.833  35.583  1.00  0.00     0.049 A 
ATOM     57  C   UNL A   1      41.436  28.695  30.983  1.00  0.00     0.074 A 
ATOM     58  C   UNL A   1      41.741  31.515  36.649  1.00  0.00     0.029 A 
ATOM     59  N   UNL A   1      41.230  30.953  34.559  1.00  0.00    -0.354 N 
ATOM     60  N   UNL A   1      41.423  29.325  32.131  1.00  0.00    -0.248 NA
ATOM     61  C   UNL A   1      42.468  27.653  30.881  1.00  0.00     0.031 C 
ATOM     62  C   UNL A   1      42.581  30.469  36.256  1.00  0.00     0.029 A 
ATOM     63  C   UNL A   1      42.251  30.107  34.961  1.00  0.00     0.049 A 
ATOM     64  H   UNL A   1      40.791  30.932  33.679  1.00  0.00     0.167 HD
ATOM     65  C   UNL A   1      42.432  28.754  32.891  1.00  0.00     0.074 A 
ATOM     66  C   UNL A   1      43.028  27.711  32.083  1.00  0.00     0.031 C 
ATOM     67  C   UNL A   1      42.831  29.071  34.146  1.00  0.00     0.037 A 
BRANCH  54  68
ATOM     68  C   UNL A   1      39.733  33.749  36.702  1.00  0.00     0.064 A 
ATOM     69  C   UNL A   1      40.327  35.017  36.771  1.00  0.00     0.173 A 
ATOM     70  C   UNL A   1      38.883  33.364  37.750  1.00  0.00     0.173 A 
ATOM     71  F   UNL A   1      41.154  35.429  35.798  1.00  0.00    -0.203 F 
ATOM     72  C   UNL A   1      40.088  35.862  37.851  1.00  0.00     0.198 A 
ATOM     73  C   UNL A   1      38.627  34.220  38.817  1.00  0.00     0.198 A 
ATOM     74  F   UNL A   1      38.282  32.164  37.727  1.00  0.00    -0.203 F 
ATOM     75  F   UNL A   1      40.687  37.059  37.909  1.00  0.00    -0.200 F 
ATOM     76  C   UNL A   1      39.231  35.468  38.868  1.00  0.00     0.200 A 
ATOM     77  F   UNL A   1      37.787  33.843  39.791  1.00  0.00    -0.200 F 
ATOM     78  F   UNL A   1      38.986  36.290  39.898  1.00  0.00    -0.200 F 
ENDBRANCH  54  68
BRANCH  55  79
ATOM     79  C   UNL A   1      40.655  28.007  28.599  1.00  0.00     0.064 A 
ATOM     80  C   UNL A   1      39.929  26.810  28.532  1.00  0.00     0.173 A 
ATOM     81  C   UNL A   1      41.452  28.351  27.497  1.00  0.00     0.173 A 
ATOM     82  F   UNL A   1      39.168  26.429  29.568  1.00  0.00    -0.203 F 
ATOM     83  C   UNL A   1      39.997  25.990  27.407  1.00  0.00     0.198 A 
ATOM     84  C   UNL A   1      41.499  27.543  26.363  1.00  0.00     0.198 A 
ATOM     85  F   UNL A   1      42.164  29.487  27.513  1.00  0.00    -0.203 F 
ATOM     86  F   UNL A   1      39.314  24.838  27.378  1.00  0.00    -0.200 F 
ATOM     87  C   UNL A   1      40.775  26.362  26.321  1.00  0.00     0.200 A 
ATOM     88  F   UNL A   1      42.239  27.915  25.310  1.00  0.00    -0.200 F 
ATOM     89  F   UNL A   1      40.828  25.581  25.234  1.00  0.00    -0.200 F 
ENDBRANCH  55  79
BRANCH  67  90
ATOM     90  C   UNL A   1      43.964  28.286  34.737  1.00  0.00     0.064 A 
ATOM     91  C   UNL A   1      43.738  27.071  35.398  1.00  0.00     0.173 A 
ATOM     92  C   UNL A   1      45.290  28.705  34.560  1.00  0.00     0.173 A 
ATOM     93  F   UNL A   1      42.486  26.634  35.602  1.00  0.00    -0.203 F 
ATOM     94  C   UNL A   1      44.802  26.304  35.864  1.00  0.00     0.198 A 
ATOM     95  C   UNL A   1      46.352  27.925  35.007  1.00  0.00     0.198 A 
ATOM     96  F   UNL A   1      45.555  29.859  33.928  1.00  0.00    -0.203 F 
ATOM     97  F   UNL A   1      44.564  25.155  36.512  1.00  0.00    -0.200 F 
ATOM     98  C   UNL A   1      46.108  26.726  35.659  1.00  0.00     0.200 A 
ATOM     99  F   UNL A   1      47.614  28.328  34.795  1.00  0.00    -0.200 F 
ATOM    100  F   UNL A   1      47.131  25.976  36.091  1.00  0.00    -0.200 F 
ENDBRANCH  67  90
ENDBRANCH  41  42
ENDBRANCH  33  36
ENDBRANCH  31  32
ENDBRANCH  30  31
ENDBRANCH   1  30
TORSDOF 15
ENDMDL
MODEL 2
REMARK VINA RESULT:     -13.8      5.724     11.312
REMARK SMILES Nn1c(S[C@@H](C(=O)NCCCCNC(=O)c2ccc(-c3c4nc(c(-c5c(F)c(F)c(F)c(F)c5F)c5ccc([nH]5)c(-c5c(F)c(F)c(F)c(F)c5F)c5nc(c(-c6c(F)c(F)c(F)c(F)c6F)c6ccc3[nH]6)C=C5)C=C4)cc2)c2ccccc2)nc2ccc(Br)cc2c1=O
REMARK SMILES IDX 10 1 9 2 8 3 6 4 7 5 5 7 4 8 3 9 2 10 93 11 85 12 92 13
REMARK SMILES IDX 94 14 86 15 91 16 87 17 89 18 88 19 90 20 1 21 79 24 80 25
REMARK SMILES IDX 84 26 81 27 83 28 82 29 11 30 12 31 13 32 14 33 15 35 16 36
REMARK SMILES IDX 17 37 78 38 18 39 77 40 19 41 20 42 21 43 71 44 22 45 76 46
REMARK SMILES IDX 70 47 72 48 23 49 75 50 69 51 68 52 24 54 56 55 36 56 55 57
REMARK SMILES IDX 37 58 40 59 54 60 73 61 38 62 39 63 53 65 74 66 41 67 25 68
REMARK SMILES IDX 26 69 34 70 27 71 28 72 32 73 35 74 29 75 30 76 33 77 31 78
REMARK SMILES IDX 57 79 58 80 66 81 59 82 60 83 64 84 67 85 61 86 62 87 65 88
REMARK SMILES IDX 63 89 42 90 43 91 51 92 44 93 45 94 49 95 52 96 46 97 47 98
REMARK SMILES IDX 50 99 48 100
REMARK H PARENT 8 6 1 22 1 23 13 34 72 53 40 64
REMARK Flexibility Score: inf
ROOT
ATOM      1  C   UNL A   1      37.233  21.010  24.557  1.00  0.00     0.023 C 
ENDROOT
BRANCH   1   2
ATOM      2  C   UNL A   1      37.020  22.125  25.586  1.00  0.00     0.116 C 
BRANCH   2   3
ATOM      3  N   UNL A   1      35.892  21.869  26.464  1.00  0.00    -0.355 N 
ATOM      4  C   UNL A   1      34.712  21.196  26.267  1.00  0.00     0.238 C 
ATOM      5  O   UNL A   1      34.024  21.099  27.288  1.00  0.00    -0.273 OA
ATOM      6  H   UNL A   1      35.992  22.248  27.368  1.00  0.00     0.163 HD
BRANCH   4   7
ATOM      7  C   UNL A   1      34.368  20.564  24.891  1.00  0.00     0.174 C 
BRANCH   7   8
ATOM      8  S   UNL A   1      33.352  21.678  23.878  1.00  0.00    -0.068 SA
BRANCH   8   9
ATOM      9  C   UNL A   1      32.752  23.074  24.733  1.00  0.00     0.191 A 
ATOM     10  N   UNL A   1      31.721  23.091  25.666  1.00  0.00    -0.202 N 
ATOM     11  C   UNL A   1      31.292  24.276  26.277  1.00  0.00     0.280 A 
ATOM     12  N   UNL A   1      33.405  24.149  24.412  1.00  0.00    -0.222 NA
ATOM     13  C   UNL A   1      32.013  25.497  25.901  1.00  0.00     0.069 A 
ATOM     14  O   UNL A   1      30.370  24.330  27.090  1.00  0.00    -0.267 OA
ATOM     15  C   UNL A   1      33.057  25.371  24.990  1.00  0.00     0.079 A 
ATOM     16  C   UNL A   1      31.665  26.738  26.447  1.00  0.00     0.031 A 
ATOM     17  C   UNL A   1      33.776  26.512  24.631  1.00  0.00     0.030 A 
ATOM     18  C   UNL A   1      32.387  27.866  26.069  1.00  0.00     0.018 A 
ATOM     19  C   UNL A   1      33.445  27.759  25.168  1.00  0.00     0.018 A 
ATOM     20  Br  UNL A   1      31.929  29.554  26.782  1.00  0.00    -0.051 Br
BRANCH  10  21
ATOM     21  N   UNL A   1      31.028  21.940  26.059  1.00  0.00    -0.334 N 
ATOM     22  H   UNL A   1      30.788  21.260  25.390  1.00  0.00     0.178 HD
ATOM     23  H   UNL A   1      30.782  21.813  27.003  1.00  0.00     0.178 HD
ENDBRANCH  10  21
ENDBRANCH   8   9
ENDBRANCH   7   8
BRANCH   7  24
ATOM     24  C   UNL A   1      33.976  19.082  24.764  1.00  0.00    -0.025 A 
ATOM     25  C   UNL A   1      34.842  18.075  24.308  1.00  0.00     0.005 A 
ATOM     26  C   UNL A   1      32.659  18.689  25.089  1.00  0.00     0.005 A 
ATOM     27  C   UNL A   1      34.444  16.733  24.270  1.00  0.00     0.000 A 
ATOM     28  C   UNL A   1      32.257  17.351  25.045  1.00  0.00     0.000 A 
ATOM     29  C   UNL A   1      33.158  16.369  24.650  1.00  0.00     0.000 A 
ENDBRANCH   7  24
ENDBRANCH   4   7
ENDBRANCH   2   3
ENDBRANCH   1   2
BRANCH   1  30
ATOM     30  C   UNL A   1      38.056  19.814  25.038  1.00  0.00     0.023 C 
BRANCH  30  31
ATOM     31  C   UNL A   1      39.312  20.147  25.830  1.00  0.00     0.116 C 
BRANCH  31  32
ATOM     32  N   UNL A   1      40.308  19.088  25.814  1.00  0.00    -0.352 N 
ATOM     33  C   UNL A   1      41.662  19.152  26.054  1.00  0.00     0.251 C 
ATOM     34  H   UNL A   1      39.963  18.191  25.599  1.00  0.00     0.163 HD
ATOM     35  O   UNL A   1      42.358  18.155  25.905  1.00  0.00    -0.269 OA
BRANCH  33  36
ATOM     36  C   UNL A   1      42.290  20.435  26.447  1.00  0.00     0.039 A 
ATOM     37  C   UNL A   1      42.271  20.875  27.771  1.00  0.00     0.014 A 
ATOM     38  C   UNL A   1      42.894  21.223  25.460  1.00  0.00     0.014 A 
ATOM     39  C   UNL A   1      42.686  22.167  28.074  1.00  0.00     0.010 A 
ATOM     40  C   UNL A   1      43.393  22.489  25.784  1.00  0.00     0.010 A 
ATOM     41  C   UNL A   1      43.243  22.995  27.083  1.00  0.00    -0.014 A 
BRANCH  41  42
ATOM     42  C   UNL A   1      43.643  24.383  27.440  1.00  0.00     0.031 A 
ATOM     43  C   UNL A   1      45.041  24.876  27.176  1.00  0.00     0.074 A 
ATOM     44  C   UNL A   1      42.715  25.227  27.930  1.00  0.00     0.049 A 
ATOM     45  N   UNL A   1      45.533  26.080  27.334  1.00  0.00    -0.248 NA
ATOM     46  C   UNL A   1      46.016  23.895  26.673  1.00  0.00     0.031 C 
ATOM     47  C   UNL A   1      41.330  24.866  28.235  1.00  0.00     0.029 A 
ATOM     48  N   UNL A   1      42.782  26.567  28.222  1.00  0.00    -0.354 N 
ATOM     49  C   UNL A   1      46.869  25.998  26.961  1.00  0.00     0.074 A 
ATOM     50  C   UNL A   1      47.123  24.621  26.603  1.00  0.00     0.031 C 
ATOM     51  C   UNL A   1      40.660  25.968  28.603  1.00  0.00     0.029 A 
ATOM     52  C   UNL A   1      41.579  27.103  28.612  1.00  0.00     0.049 A 
ATOM     53  H   UNL A   1      43.611  27.093  28.158  1.00  0.00     0.167 HD
ATOM     54  C   UNL A   1      47.792  26.988  26.903  1.00  0.00     0.037 A 
ATOM     55  C   UNL A   1      41.247  28.367  28.939  1.00  0.00     0.037 A 
ATOM     56  C   UNL A   1      47.531  28.365  27.231  1.00  0.00     0.049 A 
ATOM     57  C   UNL A   1      42.300  29.438  28.893  1.00  0.00     0.074 A 
ATOM     58  C   UNL A   1      48.396  29.443  27.167  1.00  0.00     0.029 A 
ATOM     59  N   UNL A   1      46.315  28.854  27.682  1.00  0.00    -0.354 N 
ATOM     60  N   UNL A   1      43.549  29.351  28.509  1.00  0.00    -0.248 NA
ATOM     61  C   UNL A   1      41.899  30.781  29.336  1.00  0.00     0.031 C 
ATOM     62  C   UNL A   1      47.716  30.578  27.617  1.00  0.00     0.029 A 
ATOM     63  C   UNL A   1      46.415  30.215  27.922  1.00  0.00     0.049 A 
ATOM     64  H   UNL A   1      45.502  28.315  27.811  1.00  0.00     0.167 HD
ATOM     65  C   UNL A   1      44.081  30.624  28.652  1.00  0.00     0.074 A 
ATOM     66  C   UNL A   1      43.014  31.473  29.140  1.00  0.00     0.031 C 
ATOM     67  C   UNL A   1      45.344  31.047  28.404  1.00  0.00     0.037 A 
BRANCH  54  68
ATOM     68  C   UNL A   1      49.181  26.630  26.461  1.00  0.00     0.064 A 
ATOM     69  C   UNL A   1      49.590  26.795  25.129  1.00  0.00     0.173 A 
ATOM     70  C   UNL A   1      50.137  26.202  27.394  1.00  0.00     0.173 A 
ATOM     71  F   UNL A   1      48.711  27.194  24.198  1.00  0.00    -0.203 F 
ATOM     72  C   UNL A   1      50.902  26.534  24.747  1.00  0.00     0.198 A 
ATOM     73  C   UNL A   1      51.455  25.965  27.012  1.00  0.00     0.198 A 
ATOM     74  F   UNL A   1      49.800  26.039  28.682  1.00  0.00    -0.203 F 
ATOM     75  F   UNL A   1      51.265  26.674  23.464  1.00  0.00    -0.200 F 
ATOM     76  C   UNL A   1      51.836  26.130  25.689  1.00  0.00     0.200 A 
ATOM     77  F   UNL A   1      52.360  25.589  27.927  1.00  0.00    -0.200 F 
ATOM     78  F   UNL A   1      53.104  25.897  25.322  1.00  0.00    -0.200 F 
ENDBRANCH  54  68
BRANCH  55  79
ATOM     79  C   UNL A   1      39.847  28.682  29.314  1.00  0.00     0.064 A 
ATOM     80  C   UNL A   1      38.929  29.130  28.355  1.00  0.00     0.173 A 
ATOM     81  C   UNL A   1      39.387  28.511  30.629  1.00  0.00     0.173 A 
ATOM     82  F   UNL A   1      39.326  29.328  27.089  1.00  0.00    -0.203 F 
ATOM     83  C   UNL A   1      37.604  29.397  28.696  1.00  0.00     0.198 A 
ATOM     84  C   UNL A   1      38.057  28.753  30.962  1.00  0.00     0.198 A 
ATOM     85  F   UNL A   1      40.227  28.082  31.583  1.00  0.00    -0.203 F 
ATOM     86  F   UNL A   1      36.753  29.849  27.765  1.00  0.00    -0.200 F 
ATOM     87  C   UNL A   1      37.167  29.199  29.997  1.00  0.00     0.200 A 
ATOM     88  F   UNL A   1      37.636  28.545  32.217  1.00  0.00    -0.200 F 
ATOM     89  F   UNL A   1      35.890  29.441  30.321  1.00  0.00    -0.200 F 
ENDBRANCH  55  79
BRANCH  67  90
ATOM     90  C   UNL A   1      45.655  32.494  28.650  1.00  0.00     0.064 A 
ATOM     91  C   UNL A   1      46.225  32.919  29.858  1.00  0.00     0.173 A 
ATOM     92  C   UNL A   1      45.466  33.445  27.638  1.00  0.00     0.173 A 
ATOM     93  F   UNL A   1      46.413  32.048  30.860  1.00  0.00    -0.203 F 
ATOM     94  C   UNL A   1      46.592  34.248  30.044  1.00  0.00     0.198 A 
ATOM     95  C   UNL A   1      45.855  34.768  27.819  1.00  0.00     0.198 A 
ATOM     96  F   UNL A   1      44.929  33.083  26.462  1.00  0.00    -0.203 F 
ATOM     97  F   UNL A   1      47.117  34.639  31.214  1.00  0.00    -0.200 F 
ATOM     98  C   UNL A   1      46.418  35.169  29.021  1.00  0.00     0.200 A 
ATOM     99  F   UNL A   1      45.700  35.654  26.824  1.00  0.00    -0.200 F 
ATOM    100  F   UNL A   1      46.791  36.444  29.195  1.00  0.00    -0.200 F 
ENDBRANCH  67  90
ENDBRANCH  41  42
ENDBRANCH  33  36
ENDBRANCH  31  32
ENDBRANCH  30  31
ENDBRANCH   1  30
TORSDOF 15
ENDMDL
MODEL 3
REMARK VINA RESULT:     -13.8      2.391      4.836
REMARK SMILES Nn1c(S[C@@H](C(=O)NCCCCNC(=O)c2ccc(-c3c4nc(c(-c5c(F)c(F)c(F)c(F)c5F)c5ccc([nH]5)c(-c5c(F)c(F)c(F)c(F)c5F)c5nc(c(-c6c(F)c(F)c(F)c(F)c6F)c6ccc3[nH]6)C=C5)C=C4)cc2)c2ccccc2)nc2ccc(Br)cc2c1=O
REMARK SMILES IDX 10 1 9 2 8 3 6 4 7 5 5 7 4 8 3 9 2 10 93 11 85 12 92 13
REMARK SMILES IDX 94 14 86 15 91 16 87 17 89 18 88 19 90 20 1 21 79 24 80 25
REMARK SMILES IDX 84 26 81 27 83 28 82 29 11 30 12 31 13 32 14 33 15 35 16 36
REMARK SMILES IDX 17 37 78 38 18 39 77 40 19 41 20 42 21 43 71 44 22 45 76 46
REMARK SMILES IDX 70 47 72 48 23 49 75 50 69 51 68 52 24 54 56 55 36 56 55 57
REMARK SMILES IDX 37 58 40 59 54 60 73 61 38 62 39 63 53 65 74 66 41 67 25 68
REMARK SMILES IDX 26 69 34 70 27 71 28 72 32 73 35 74 29 75 30 76 33 77 31 78
REMARK SMILES IDX 57 79 58 80 66 81 59 82 60 83 64 84 67 85 61 86 62 87 65 88
REMARK SMILES IDX 63 89 42 90 43 91 51 92 44 93 45 94 49 95 52 96 46 97 47 98
REMARK SMILES IDX 50 99 48 100
REMARK H PARENT 8 6 1 22 1 23 13 34 72 53 40 64
REMARK Flexibility Score: inf
ROOT
ATOM      1  C   UNL A   1      31.750  27.929  27.145  1.00  0.00     0.023 C 
ENDROOT
BRANCH   1   2
ATOM      2  C   UNL A   1      32.205  26.609  26.514  1.00  0.00     0.116 C 
BRANCH   2   3
ATOM      3  N   UNL A   1      31.458  25.465  27.006  1.00  0.00    -0.355 N 
ATOM      4  C   UNL A   1      31.297  24.195  26.511  1.00  0.00     0.238 C 
ATOM      5  O   UNL A   1      30.658  23.451  27.262  1.00  0.00    -0.273 OA
ATOM      6  H   UNL A   1      30.979  25.630  27.851  1.00  0.00     0.163 HD
BRANCH   4   7
ATOM      7  C   UNL A   1      31.950  23.767  25.169  1.00  0.00     0.174 C 
BRANCH   7   8
ATOM      8  S   UNL A   1      30.878  24.145  23.752  1.00  0.00    -0.068 SA
BRANCH   8   9
ATOM      9  C   UNL A   1      30.779  25.842  23.364  1.00  0.00     0.191 A 
ATOM     10  N   UNL A   1      31.833  26.666  22.986  1.00  0.00    -0.202 N 
ATOM     11  C   UNL A   1      31.652  28.030  22.724  1.00  0.00     0.280 A 
ATOM     12  N   UNL A   1      29.561  26.282  23.449  1.00  0.00    -0.222 NA
ATOM     13  C   UNL A   1      30.280  28.536  22.839  1.00  0.00     0.069 A 
ATOM     14  O   UNL A   1      32.566  28.792  22.407  1.00  0.00    -0.267 OA
ATOM     15  C   UNL A   1      29.287  27.624  23.183  1.00  0.00     0.079 A 
ATOM     16  C   UNL A   1      29.985  29.883  22.603  1.00  0.00     0.031 A 
ATOM     17  C   UNL A   1      27.968  28.072  23.278  1.00  0.00     0.030 A 
ATOM     18  C   UNL A   1      28.666  30.313  22.714  1.00  0.00     0.018 A 
ATOM     19  C   UNL A   1      27.654  29.413  23.044  1.00  0.00     0.018 A 
ATOM     20  Br  UNL A   1      28.245  32.130  22.413  1.00  0.00    -0.051 Br
BRANCH  10  21
ATOM     21  N   UNL A   1      33.148  26.208  22.848  1.00  0.00    -0.334 N 
ATOM     22  H   UNL A   1      33.837  26.493  23.490  1.00  0.00     0.178 HD
ATOM     23  H   UNL A   1      33.383  25.603  22.108  1.00  0.00     0.178 HD
ENDBRANCH  10  21
ENDBRANCH   8   9
ENDBRANCH   7   8
BRANCH   7  24
ATOM     24  C   UNL A   1      32.708  22.436  25.034  1.00  0.00    -0.025 A 
ATOM     25  C   UNL A   1      34.091  22.336  24.813  1.00  0.00     0.005 A 
ATOM     26  C   UNL A   1      31.986  21.224  25.101  1.00  0.00     0.005 A 
ATOM     27  C   UNL A   1      34.734  21.093  24.758  1.00  0.00     0.000 A 
ATOM     28  C   UNL A   1      32.624  19.981  25.039  1.00  0.00     0.000 A 
ATOM     29  C   UNL A   1      34.004  19.917  24.883  1.00  0.00     0.000 A 
ENDBRANCH   7  24
ENDBRANCH   4   7
ENDBRANCH   2   3
ENDBRANCH   1   2
BRANCH   1  30
ATOM     30  C   UNL A   1      31.534  29.088  26.172  1.00  0.00     0.023 C 
BRANCH  30  31
ATOM     31  C   UNL A   1      32.708  30.042  26.005  1.00  0.00     0.116 C 
BRANCH  31  32
ATOM     32  N   UNL A   1      32.435  31.390  26.477  1.00  0.00    -0.352 N 
ATOM     33  C   UNL A   1      33.174  32.194  27.315  1.00  0.00     0.251 C 
ATOM     34  H   UNL A   1      31.596  31.786  26.150  1.00  0.00     0.163 HD
ATOM     35  O   UNL A   1      32.731  33.279  27.671  1.00  0.00    -0.269 OA
BRANCH  33  36
ATOM     36  C   UNL A   1      34.487  31.733  27.825  1.00  0.00     0.039 A 
ATOM     37  C   UNL A   1      34.703  30.397  28.164  1.00  0.00     0.014 A 
ATOM     38  C   UNL A   1      35.517  32.666  27.983  1.00  0.00     0.014 A 
ATOM     39  C   UNL A   1      35.872  30.034  28.825  1.00  0.00     0.010 A 
ATOM     40  C   UNL A   1      36.728  32.280  28.567  1.00  0.00     0.010 A 
ATOM     41  C   UNL A   1      36.895  30.972  29.045  1.00  0.00    -0.014 A 
BRANCH  41  42
ATOM     42  C   UNL A   1      38.115  30.553  29.786  1.00  0.00     0.031 A 
ATOM     43  C   UNL A   1      38.326  30.962  31.220  1.00  0.00     0.074 A 
ATOM     44  C   UNL A   1      38.996  29.730  29.187  1.00  0.00     0.049 A 
ATOM     45  N   UNL A   1      39.280  30.608  32.046  1.00  0.00    -0.248 NA
ATOM     46  C   UNL A   1      37.346  31.890  31.807  1.00  0.00     0.031 C 
ATOM     47  C   UNL A   1      38.903  29.269  27.801  1.00  0.00     0.029 A 
ATOM     48  N   UNL A   1      40.117  29.105  29.671  1.00  0.00    -0.354 N 
ATOM     49  C   UNL A   1      39.021  31.274  33.237  1.00  0.00     0.074 A 
ATOM     50  C   UNL A   1      37.842  32.082  33.021  1.00  0.00     0.031 C 
ATOM     51  C   UNL A   1      39.882  28.382  27.567  1.00  0.00     0.029 A 
ATOM     52  C   UNL A   1      40.703  28.251  28.768  1.00  0.00     0.049 A 
ATOM     53  H   UNL A   1      40.468  29.253  30.579  1.00  0.00     0.167 HD
ATOM     54  C   UNL A   1      39.695  31.200  34.410  1.00  0.00     0.037 A 
ATOM     55  C   UNL A   1      41.778  27.449  28.890  1.00  0.00     0.037 A 
ATOM     56  C   UNL A   1      40.851  30.372  34.634  1.00  0.00     0.049 A 
ATOM     57  C   UNL A   1      42.522  27.410  30.194  1.00  0.00     0.074 A 
ATOM     58  C   UNL A   1      41.576  30.205  35.801  1.00  0.00     0.029 A 
ATOM     59  N   UNL A   1      41.448  29.571  33.674  1.00  0.00    -0.354 N 
ATOM     60  N   UNL A   1      42.246  28.021  31.320  1.00  0.00    -0.248 NA
ATOM     61  C   UNL A   1      43.732  26.578  30.243  1.00  0.00     0.031 C 
ATOM     62  C   UNL A   1      42.637  29.335  35.537  1.00  0.00     0.029 A 
ATOM     63  C   UNL A   1      42.548  28.926  34.217  1.00  0.00     0.049 A 
ATOM     64  H   UNL A   1      41.137  29.474  32.745  1.00  0.00     0.167 HD
ATOM     65  C   UNL A   1      43.238  27.641  32.212  1.00  0.00     0.074 A 
ATOM     66  C   UNL A   1      44.114  26.730  31.504  1.00  0.00     0.031 C 
ATOM     67  C   UNL A   1      43.408  28.020  33.502  1.00  0.00     0.037 A 
BRANCH  54  68
ATOM     68  C   UNL A   1      39.201  32.030  35.559  1.00  0.00     0.064 A 
ATOM     69  C   UNL A   1      38.402  31.478  36.570  1.00  0.00     0.173 A 
ATOM     70  C   UNL A   1      39.604  33.367  35.696  1.00  0.00     0.173 A 
ATOM     71  F   UNL A   1      37.983  30.206  36.481  1.00  0.00    -0.203 F 
ATOM     72  C   UNL A   1      38.015  32.237  37.671  1.00  0.00     0.198 A 
ATOM     73  C   UNL A   1      39.235  34.116  36.810  1.00  0.00     0.198 A 
ATOM     74  F   UNL A   1      40.377  33.939  34.761  1.00  0.00    -0.203 F 
ATOM     75  F   UNL A   1      37.229  31.696  38.613  1.00  0.00    -0.200 F 
ATOM     76  C   UNL A   1      38.439  33.551  37.796  1.00  0.00     0.200 A 
ATOM     77  F   UNL A   1      39.659  35.382  36.936  1.00  0.00    -0.200 F 
ATOM     78  F   UNL A   1      38.081  34.275  38.866  1.00  0.00    -0.200 F 
ENDBRANCH  54  68
BRANCH  55  79
ATOM     79  C   UNL A   1      42.193  26.603  27.743  1.00  0.00     0.064 A 
ATOM     80  C   UNL A   1      43.163  27.048  26.835  1.00  0.00     0.173 A 
ATOM     81  C   UNL A   1      41.655  25.322  27.550  1.00  0.00     0.173 A 
ATOM     82  F   UNL A   1      43.692  28.273  26.968  1.00  0.00    -0.203 F 
ATOM     83  C   UNL A   1      43.579  26.244  25.776  1.00  0.00     0.198 A 
ATOM     84  C   UNL A   1      42.090  24.509  26.506  1.00  0.00     0.198 A 
ATOM     85  F   UNL A   1      40.725  24.850  28.393  1.00  0.00    -0.203 F 
ATOM     86  F   UNL A   1      44.489  26.703  24.906  1.00  0.00    -0.200 F 
ATOM     87  C   UNL A   1      43.049  24.972  25.618  1.00  0.00     0.200 A 
ATOM     88  F   UNL A   1      41.587  23.275  26.367  1.00  0.00    -0.200 F 
ATOM     89  F   UNL A   1      43.460  24.194  24.608  1.00  0.00    -0.200 F 
ENDBRANCH  55  79
BRANCH  67  90
ATOM     90  C   UNL A   1      44.581  27.453  34.245  1.00  0.00     0.064 A 
ATOM     91  C   UNL A   1      45.793  28.151  34.329  1.00  0.00     0.173 A 
ATOM     92  C   UNL A   1      44.461  26.249  34.954  1.00  0.00     0.173 A 
ATOM     93  F   UNL A   1      45.959  29.301  33.658  1.00  0.00    -0.203 F 
ATOM     94  C   UNL A   1      46.847  27.661  35.095  1.00  0.00     0.198 A 
ATOM     95  C   UNL A   1      45.508  25.773  35.737  1.00  0.00     0.198 A 
ATOM     96  F   UNL A   1      43.316  25.550  34.909  1.00  0.00    -0.203 F 
ATOM     97  F   UNL A   1      48.005  28.333  35.146  1.00  0.00    -0.200 F 
ATOM     98  C   UNL A   1      46.700  26.479  35.807  1.00  0.00     0.200 A 
ATOM     99  F   UNL A   1      45.359  24.639  36.436  1.00  0.00    -0.200 F 
ATOM    100  F   UNL A   1      47.708  26.019  36.560  1.00  0.00    -0.200 F 
ENDBRANCH  67  90
ENDBRANCH  41  42
ENDBRANCH  33  36
ENDBRANCH  31  32
ENDBRANCH  30  31
ENDBRANCH   1  30
TORSDOF 15
ENDMDL
