MODEL 1
REMARK VINA RESULT:     -13.0      0.000      0.000
REMARK SMILES O=C(NCCCCNC(=O)c1ccc(-c2c3nc(c(-c4c(F)c(F)c(F)c(F)c4F)c4ccc([nH]4)c(-c4c(F)c(F)c(F)c(F)c4F)c4nc(c(-c5c(F)c(F)c(F)c(F)c5F)c5ccc2[nH]5)C=C4)C=C3)cc1)c1ccc(N[C@H]2OC(=O)c3ccccc32)cc1
REMARK SMILES IDX 5 1 4 2 3 3 1 4 2 5 74 7 75 8 90 9 76 10 89 11 77 12 78 13
REMARK SMILES IDX 79 15 80 16 88 17 81 18 83 19 87 20 82 21 84 22 86 23 85 24
REMARK SMILES IDX 6 25 7 26 8 27 9 28 10 30 11 31 12 32 73 33 13 34 72 35
REMARK SMILES IDX 14 36 15 37 16 38 66 39 17 40 71 41 65 42 67 43 18 44 70 45
REMARK SMILES IDX 64 46 63 47 19 49 51 50 31 51 50 52 32 53 35 54 49 55 68 56
REMARK SMILES IDX 33 57 34 58 48 60 69 61 36 62 20 63 21 64 29 65 22 66 23 67
REMARK SMILES IDX 27 68 30 69 24 70 25 71 28 72 26 73 52 74 53 75 61 76 54 77
REMARK SMILES IDX 55 78 59 79 62 80 56 81 57 82 60 83 58 84 37 85 38 86 46 87
REMARK SMILES IDX 39 88 40 89 44 90 47 91 41 92 42 93 45 94 43 95
REMARK H PARENT 3 6 78 14 8 29 67 48 35 59
REMARK Flexibility Score: inf
ROOT
ATOM      1  C   UNL A   1      36.972  20.244  25.001  1.00  0.00     0.023 C 
ENDROOT
BRANCH   1   2
ATOM      2  C   UNL A   1      37.199  21.599  24.339  1.00  0.00     0.116 C 
BRANCH   2   3
ATOM      3  N   UNL A   1      37.778  22.575  25.247  1.00  0.00    -0.352 N 
ATOM      4  O   UNL A   1      37.839  24.454  26.500  1.00  0.00    -0.269 OA
ATOM      5  C   UNL A   1      37.169  23.629  25.885  1.00  0.00     0.251 C 
ATOM      6  H   UNL A   1      38.739  22.468  25.429  1.00  0.00     0.163 HD
BRANCH   5   7
ATOM      7  C   UNL A   1      35.702  23.778  25.808  1.00  0.00     0.039 A 
ATOM      8  C   UNL A   1      34.868  23.094  26.691  1.00  0.00     0.016 A 
ATOM      9  C   UNL A   1      35.153  24.609  24.835  1.00  0.00     0.016 A 
ATOM     10  C   UNL A   1      33.481  23.163  26.534  1.00  0.00     0.026 A 
ATOM     11  C   UNL A   1      33.763  24.686  24.702  1.00  0.00     0.026 A 
ATOM     12  C   UNL A   1      32.899  23.952  25.534  1.00  0.00     0.037 A 
BRANCH  12  13
ATOM     13  N   UNL A   1      31.543  24.018  25.300  1.00  0.00    -0.347 N 
ATOM     14  H   UNL A   1      31.135  23.244  24.851  1.00  0.00     0.164 HD
BRANCH  13  15
ATOM     15  C   UNL A   1      30.665  25.102  25.647  1.00  0.00     0.305 C 
ATOM     16  O   UNL A   1      31.117  25.699  26.876  1.00  0.00    -0.434 OA
ATOM     17  C   UNL A   1      30.753  26.214  24.671  1.00  0.00     0.028 A 
ATOM     18  C   UNL A   1      31.274  27.047  26.752  1.00  0.00     0.340 C 
ATOM     19  C   UNL A   1      31.073  27.371  25.349  1.00  0.00     0.069 A 
ATOM     20  C   UNL A   1      30.539  26.246  23.301  1.00  0.00     0.010 A 
ATOM     21  O   UNL A   1      31.554  27.829  27.639  1.00  0.00    -0.246 OA
ATOM     22  C   UNL A   1      31.187  28.602  24.724  1.00  0.00     0.016 A 
ATOM     23  C   UNL A   1      30.654  27.474  22.639  1.00  0.00     0.001 A 
ATOM     24  C   UNL A   1      30.972  28.647  23.347  1.00  0.00     0.001 A 
ENDBRANCH  13  15
ENDBRANCH  12  13
ENDBRANCH   5   7
ENDBRANCH   2   3
ENDBRANCH   1   2
BRANCH   1  25
ATOM     25  C   UNL A   1      38.177  19.305  25.000  1.00  0.00     0.023 C 
BRANCH  25  26
ATOM     26  C   UNL A   1      39.405  19.805  25.755  1.00  0.00     0.116 C 
BRANCH  26  27
ATOM     27  N   UNL A   1      40.483  18.829  25.814  1.00  0.00    -0.352 N 
ATOM     28  C   UNL A   1      41.825  19.016  26.032  1.00  0.00     0.251 C 
ATOM     29  H   UNL A   1      40.207  17.893  25.677  1.00  0.00     0.163 HD
ATOM     30  O   UNL A   1      42.599  18.066  25.943  1.00  0.00    -0.269 OA
BRANCH  28  31
ATOM     31  C   UNL A   1      42.352  20.366  26.335  1.00  0.00     0.039 A 
ATOM     32  C   UNL A   1      42.906  21.116  25.294  1.00  0.00     0.014 A 
ATOM     33  C   UNL A   1      42.294  20.895  27.626  1.00  0.00     0.014 A 
ATOM     34  C   UNL A   1      43.324  22.428  25.531  1.00  0.00     0.010 A 
ATOM     35  C   UNL A   1      42.644  22.226  27.845  1.00  0.00     0.010 A 
ATOM     36  C   UNL A   1      43.154  23.008  26.798  1.00  0.00    -0.014 A 
BRANCH  36  37
ATOM     37  C   UNL A   1      43.479  24.438  27.038  1.00  0.00     0.031 A 
ATOM     38  C   UNL A   1      44.867  24.956  26.784  1.00  0.00     0.074 A 
ATOM     39  C   UNL A   1      42.541  25.254  27.554  1.00  0.00     0.049 A 
ATOM     40  N   UNL A   1      45.356  26.152  27.001  1.00  0.00    -0.248 NA
ATOM     41  C   UNL A   1      45.842  23.997  26.243  1.00  0.00     0.031 C 
ATOM     42  C   UNL A   1      41.172  24.859  27.894  1.00  0.00     0.029 A 
ATOM     43  N   UNL A   1      42.597  26.583  27.894  1.00  0.00    -0.354 N 
ATOM     44  C   UNL A   1      46.694  26.083  26.637  1.00  0.00     0.074 A 
ATOM     45  C   UNL A   1      46.953  24.719  26.231  1.00  0.00     0.031 C 
ATOM     46  C   UNL A   1      40.514  25.926  28.376  1.00  0.00     0.029 A 
ATOM     47  C   UNL A   1      41.421  27.070  28.410  1.00  0.00     0.049 A 
ATOM     48  H   UNL A   1      43.405  27.134  27.781  1.00  0.00     0.167 HD
ATOM     49  C   UNL A   1      47.617  27.075  26.622  1.00  0.00     0.037 A 
ATOM     50  C   UNL A   1      41.109  28.299  28.866  1.00  0.00     0.037 A 
ATOM     51  C   UNL A   1      47.351  28.439  26.998  1.00  0.00     0.049 A 
ATOM     52  C   UNL A   1      42.151  29.383  28.831  1.00  0.00     0.074 A 
ATOM     53  C   UNL A   1      48.203  29.529  26.951  1.00  0.00     0.029 A 
ATOM     54  N   UNL A   1      46.141  28.899  27.493  1.00  0.00    -0.354 N 
ATOM     55  N   UNL A   1      43.394  29.324  28.418  1.00  0.00    -0.248 NA
ATOM     56  C   UNL A   1      41.745  30.707  29.322  1.00  0.00     0.031 C 
ATOM     57  C   UNL A   1      47.521  30.641  27.455  1.00  0.00     0.029 A 
ATOM     58  C   UNL A   1      46.229  30.254  27.775  1.00  0.00     0.049 A 
ATOM     59  H   UNL A   1      45.338  28.346  27.626  1.00  0.00     0.167 HD
ATOM     60  C   UNL A   1      43.909  30.602  28.574  1.00  0.00     0.074 A 
ATOM     61  C   UNL A   1      42.840  31.422  29.107  1.00  0.00     0.031 C 
ATOM     62  C   UNL A   1      45.155  31.057  28.301  1.00  0.00     0.037 A 
BRANCH  49  63
ATOM     63  C   UNL A   1      49.006  26.721  26.176  1.00  0.00     0.064 A 
ATOM     64  C   UNL A   1      49.417  26.896  24.846  1.00  0.00     0.173 A 
ATOM     65  C   UNL A   1      49.947  26.236  27.097  1.00  0.00     0.173 A 
ATOM     66  F   UNL A   1      48.551  27.347  23.926  1.00  0.00    -0.203 F 
ATOM     67  C   UNL A   1      50.711  26.573  24.448  1.00  0.00     0.198 A 
ATOM     68  C   UNL A   1      51.249  25.939  26.700  1.00  0.00     0.198 A 
ATOM     69  F   UNL A   1      49.607  26.055  28.382  1.00  0.00    -0.203 F 
ATOM     70  F   UNL A   1      51.067  26.703  23.162  1.00  0.00    -0.200 F 
ATOM     71  C   UNL A   1      51.627  26.100  25.376  1.00  0.00     0.200 A 
ATOM     72  F   UNL A   1      52.137  25.494  27.599  1.00  0.00    -0.200 F 
ATOM     73  F   UNL A   1      52.875  25.795  24.992  1.00  0.00    -0.200 F 
ENDBRANCH  49  63
BRANCH  50  74
ATOM     74  C   UNL A   1      39.739  28.576  29.366  1.00  0.00     0.064 A 
ATOM     75  C   UNL A   1      38.754  29.088  28.511  1.00  0.00     0.173 A 
ATOM     76  C   UNL A   1      39.387  28.336  30.702  1.00  0.00     0.173 A 
ATOM     77  F   UNL A   1      39.052  29.352  27.231  1.00  0.00    -0.203 F 
ATOM     78  C   UNL A   1      37.471  29.364  28.977  1.00  0.00     0.198 A 
ATOM     79  C   UNL A   1      38.096  28.590  31.161  1.00  0.00     0.198 A 
ATOM     80  F   UNL A   1      40.293  27.843  31.558  1.00  0.00    -0.203 F 
ATOM     81  F   UNL A   1      36.558  29.891  28.148  1.00  0.00    -0.200 F 
ATOM     82  C   UNL A   1      37.141  29.110  30.300  1.00  0.00     0.200 A 
ATOM     83  F   UNL A   1      37.776  28.330  32.436  1.00  0.00    -0.200 F 
ATOM     84  F   UNL A   1      35.905  29.372  30.746  1.00  0.00    -0.200 F 
ENDBRANCH  50  74
BRANCH  62  85
ATOM     85  C   UNL A   1      45.425  32.512  28.547  1.00  0.00     0.064 A 
ATOM     86  C   UNL A   1      45.964  32.965  29.759  1.00  0.00     0.173 A 
ATOM     87  C   UNL A   1      45.172  33.460  27.544  1.00  0.00     0.173 A 
ATOM     88  F   UNL A   1      46.207  32.099  30.754  1.00  0.00    -0.203 F 
ATOM     89  C   UNL A   1      46.221  34.318  29.966  1.00  0.00     0.198 A 
ATOM     90  C   UNL A   1      45.456  34.808  27.744  1.00  0.00     0.198 A 
ATOM     91  F   UNL A   1      44.661  33.077  26.364  1.00  0.00    -0.203 F 
ATOM     92  F   UNL A   1      46.695  34.734  31.148  1.00  0.00    -0.200 F 
ATOM     93  C   UNL A   1      45.972  35.237  28.957  1.00  0.00     0.200 A 
ATOM     94  F   UNL A   1      45.225  35.693  26.765  1.00  0.00    -0.200 F 
ATOM     95  F   UNL A   1      46.225  36.537  29.157  1.00  0.00    -0.200 F 
ENDBRANCH  62  85
ENDBRANCH  36  37
ENDBRANCH  28  31
ENDBRANCH  26  27
ENDBRANCH  25  26
ENDBRANCH   1  25
TORSDOF 13
ENDMDL
MODEL 2
REMARK VINA RESULT:     -13.0      5.582     10.194
REMARK SMILES O=C(NCCCCNC(=O)c1ccc(-c2c3nc(c(-c4c(F)c(F)c(F)c(F)c4F)c4ccc([nH]4)c(-c4c(F)c(F)c(F)c(F)c4F)c4nc(c(-c5c(F)c(F)c(F)c(F)c5F)c5ccc2[nH]5)C=C4)C=C3)cc1)c1ccc(N[C@H]2OC(=O)c3ccccc32)cc1
REMARK SMILES IDX 5 1 4 2 3 3 1 4 2 5 74 7 75 8 90 9 76 10 89 11 77 12 78 13
REMARK SMILES IDX 79 15 80 16 88 17 81 18 83 19 87 20 82 21 84 22 86 23 85 24
REMARK SMILES IDX 6 25 7 26 8 27 9 28 10 30 11 31 12 32 73 33 13 34 72 35
REMARK SMILES IDX 14 36 15 37 16 38 66 39 17 40 71 41 65 42 67 43 18 44 70 45
REMARK SMILES IDX 64 46 63 47 19 49 51 50 31 51 50 52 32 53 35 54 49 55 68 56
REMARK SMILES IDX 33 57 34 58 48 60 69 61 36 62 20 63 21 64 29 65 22 66 23 67
REMARK SMILES IDX 27 68 30 69 24 70 25 71 28 72 26 73 52 74 53 75 61 76 54 77
REMARK SMILES IDX 55 78 59 79 62 80 56 81 57 82 60 83 58 84 37 85 38 86 46 87
REMARK SMILES IDX 39 88 40 89 44 90 47 91 41 92 42 93 45 94 43 95
REMARK H PARENT 3 6 78 14 8 29 67 48 35 59
REMARK Flexibility Score: inf
ROOT
ATOM      1  C   UNL A   1      31.782  30.223  26.654  1.00  0.00     0.023 C 
ENDROOT
BRANCH   1   2
ATOM      2  C   UNL A   1      31.989  29.659  25.252  1.00  0.00     0.116 C 
BRANCH   2   3
ATOM      3  N   UNL A   1      30.955  30.082  24.321  1.00  0.00    -0.352 N 
ATOM      4  O   UNL A   1      29.546  29.889  22.566  1.00  0.00    -0.269 OA
ATOM      5  C   UNL A   1      30.284  29.340  23.379  1.00  0.00     0.251 C 
ATOM      6  H   UNL A   1      30.701  31.031  24.372  1.00  0.00     0.163 HD
BRANCH   5   7
ATOM      7  C   UNL A   1      30.474  27.876  23.335  1.00  0.00     0.039 A 
ATOM      8  C   UNL A   1      31.317  27.294  22.389  1.00  0.00     0.016 A 
ATOM      9  C   UNL A   1      29.794  27.074  24.247  1.00  0.00     0.016 A 
ATOM     10  C   UNL A   1      31.402  25.903  22.293  1.00  0.00     0.026 A 
ATOM     11  C   UNL A   1      29.904  25.682  24.154  1.00  0.00     0.026 A 
ATOM     12  C   UNL A   1      30.693  25.068  23.166  1.00  0.00     0.037 A 
BRANCH  12  13
ATOM     13  N   UNL A   1      30.697  23.693  23.085  1.00  0.00    -0.347 N 
ATOM     14  H   UNL A   1      29.846  23.262  22.847  1.00  0.00     0.164 HD
BRANCH  13  15
ATOM     15  C   UNL A   1      31.820  22.824  23.312  1.00  0.00     0.305 C 
ATOM     16  O   UNL A   1      32.913  23.240  22.473  1.00  0.00    -0.434 OA
ATOM     17  C   UNL A   1      32.362  22.974  24.683  1.00  0.00     0.028 A 
ATOM     18  C   UNL A   1      34.055  23.430  23.192  1.00  0.00     0.340 C 
ATOM     19  C   UNL A   1      33.701  23.291  24.596  1.00  0.00     0.069 A 
ATOM     20  C   UNL A   1      31.763  22.815  25.924  1.00  0.00     0.010 A 
ATOM     21  O   UNL A   1      35.156  23.690  22.750  1.00  0.00    -0.246 OA
ATOM     22  C   UNL A   1      34.509  23.456  25.708  1.00  0.00     0.016 A 
ATOM     23  C   UNL A   1      32.552  22.982  27.069  1.00  0.00     0.001 A 
ATOM     24  C   UNL A   1      33.918  23.296  26.962  1.00  0.00     0.001 A 
ENDBRANCH  13  15
ENDBRANCH  12  13
ENDBRANCH   5   7
ENDBRANCH   2   3
ENDBRANCH   1   2
BRANCH   1  25
ATOM     25  C   UNL A   1      31.589  31.737  26.728  1.00  0.00     0.023 C 
BRANCH  25  26
ATOM     26  C   UNL A   1      32.781  32.531  27.251  1.00  0.00     0.116 C 
BRANCH  26  27
ATOM     27  N   UNL A   1      32.452  33.906  27.597  1.00  0.00    -0.352 N 
ATOM     28  C   UNL A   1      33.019  34.735  28.533  1.00  0.00     0.251 C 
ATOM     29  H   UNL A   1      31.710  34.300  27.082  1.00  0.00     0.163 HD
ATOM     30  O   UNL A   1      32.529  35.840  28.750  1.00  0.00    -0.269 OA
BRANCH  28  31
ATOM     31  C   UNL A   1      34.195  34.288  29.313  1.00  0.00     0.039 A 
ATOM     32  C   UNL A   1      33.983  33.677  30.552  1.00  0.00     0.014 A 
ATOM     33  C   UNL A   1      35.494  34.457  28.828  1.00  0.00     0.014 A 
ATOM     34  C   UNL A   1      35.068  33.161  31.265  1.00  0.00     0.010 A 
ATOM     35  C   UNL A   1      36.566  33.879  29.505  1.00  0.00     0.010 A 
ATOM     36  C   UNL A   1      36.362  33.217  30.725  1.00  0.00    -0.014 A 
BRANCH  36  37
ATOM     37  C   UNL A   1      37.509  32.568  31.411  1.00  0.00     0.031 A 
ATOM     38  C   UNL A   1      38.219  31.406  30.773  1.00  0.00     0.074 A 
ATOM     39  C   UNL A   1      37.865  32.979  32.643  1.00  0.00     0.049 A 
ATOM     40  N   UNL A   1      39.192  30.669  31.249  1.00  0.00    -0.248 NA
ATOM     41  C   UNL A   1      37.756  31.001  29.438  1.00  0.00     0.031 C 
ATOM     42  C   UNL A   1      37.221  34.060  33.392  1.00  0.00     0.029 A 
ATOM     43  N   UNL A   1      38.849  32.529  33.489  1.00  0.00    -0.354 N 
ATOM     44  C   UNL A   1      39.445  29.709  30.279  1.00  0.00     0.074 A 
ATOM     45  C   UNL A   1      38.494  29.925  29.211  1.00  0.00     0.031 C 
ATOM     46  C   UNL A   1      37.838  34.202  34.576  1.00  0.00     0.029 A 
ATOM     47  C   UNL A   1      38.897  33.204  34.685  1.00  0.00     0.049 A 
ATOM     48  H   UNL A   1      39.460  31.792  33.261  1.00  0.00     0.167 HD
ATOM     49  C   UNL A   1      40.399  28.746  30.272  1.00  0.00     0.037 A 
ATOM     50  C   UNL A   1      39.701  33.032  35.752  1.00  0.00     0.037 A 
ATOM     51  C   UNL A   1      41.364  28.550  31.323  1.00  0.00     0.049 A 
ATOM     52  C   UNL A   1      40.756  31.961  35.714  1.00  0.00     0.074 A 
ATOM     53  C   UNL A   1      42.412  27.647  31.375  1.00  0.00     0.029 A 
ATOM     54  N   UNL A   1      41.396  29.268  32.508  1.00  0.00    -0.354 N 
ATOM     55  N   UNL A   1      41.033  31.105  34.762  1.00  0.00    -0.248 NA
ATOM     56  C   UNL A   1      41.616  31.838  36.900  1.00  0.00     0.031 C 
ATOM     57  C   UNL A   1      43.054  27.791  32.609  1.00  0.00     0.029 A 
ATOM     58  C   UNL A   1      42.434  28.815  33.308  1.00  0.00     0.049 A 
ATOM     59  H   UNL A   1      40.773  29.992  32.748  1.00  0.00     0.167 HD
ATOM     60  C   UNL A   1      42.109  30.359  35.219  1.00  0.00     0.074 A 
ATOM     61  C   UNL A   1      42.447  30.874  36.531  1.00  0.00     0.031 C 
ATOM     62  C   UNL A   1      42.760  29.340  34.609  1.00  0.00     0.037 A 
BRANCH  49  63
ATOM     63  C   UNL A   1      40.451  27.832  29.082  1.00  0.00     0.064 A 
ATOM     64  C   UNL A   1      39.678  26.663  29.021  1.00  0.00     0.173 A 
ATOM     65  C   UNL A   1      41.254  28.148  27.976  1.00  0.00     0.173 A 
ATOM     66  F   UNL A   1      38.902  26.311  30.058  1.00  0.00    -0.203 F 
ATOM     67  C   UNL A   1      39.729  25.828  27.908  1.00  0.00     0.198 A 
ATOM     68  C   UNL A   1      41.281  27.325  26.853  1.00  0.00     0.198 A 
ATOM     69  F   UNL A   1      42.008  29.258  27.982  1.00  0.00    -0.203 F 
ATOM     70  F   UNL A   1      39.018  24.692  27.892  1.00  0.00    -0.200 F 
ATOM     71  C   UNL A   1      40.525  26.164  26.823  1.00  0.00     0.200 A 
ATOM     72  F   UNL A   1      42.042  27.655  25.800  1.00  0.00    -0.200 F 
ATOM     73  F   UNL A   1      40.568  25.362  25.749  1.00  0.00    -0.200 F 
ENDBRANCH  49  63
BRANCH  50  74
ATOM     74  C   UNL A   1      39.557  33.917  36.935  1.00  0.00     0.064 A 
ATOM     75  C   UNL A   1      38.805  33.512  38.046  1.00  0.00     0.173 A 
ATOM     76  C   UNL A   1      40.165  35.180  36.982  1.00  0.00     0.173 A 
ATOM     77  F   UNL A   1      38.189  32.321  38.037  1.00  0.00    -0.203 F 
ATOM     78  C   UNL A   1      38.653  34.342  39.154  1.00  0.00     0.198 A 
ATOM     79  C   UNL A   1      40.033  36.000  38.101  1.00  0.00     0.198 A 
ATOM     80  F   UNL A   1      40.898  35.611  35.945  1.00  0.00    -0.203 F 
ATOM     81  F   UNL A   1      37.896  33.947  40.187  1.00  0.00    -0.200 F 
ATOM     82  C   UNL A   1      39.272  35.583  39.183  1.00  0.00     0.200 A 
ATOM     83  F   UNL A   1      40.643  37.193  38.131  1.00  0.00    -0.200 F 
ATOM     84  F   UNL A   1      39.129  36.380  40.251  1.00  0.00    -0.200 F 
ENDBRANCH  50  74
BRANCH  62  85
ATOM     85  C   UNL A   1      43.920  28.730  35.339  1.00  0.00     0.064 A 
ATOM     86  C   UNL A   1      45.233  29.181  35.139  1.00  0.00     0.173 A 
ATOM     87  C   UNL A   1      43.712  27.705  36.274  1.00  0.00     0.173 A 
ATOM     88  F   UNL A   1      45.485  30.148  34.243  1.00  0.00    -0.203 F 
ATOM     89  C   UNL A   1      46.298  28.613  35.835  1.00  0.00     0.198 A 
ATOM     90  C   UNL A   1      44.775  27.158  36.987  1.00  0.00     0.198 A 
ATOM     91  F   UNL A   1      42.474  27.242  36.504  1.00  0.00    -0.203 F 
ATOM     92  F   UNL A   1      47.548  29.030  35.596  1.00  0.00    -0.200 F 
ATOM     93  C   UNL A   1      46.067  27.607  36.761  1.00  0.00     0.200 A 
ATOM     94  F   UNL A   1      44.549  26.194  37.889  1.00  0.00    -0.200 F 
ATOM     95  F   UNL A   1      47.092  27.065  37.432  1.00  0.00    -0.200 F 
ENDBRANCH  62  85
ENDBRANCH  36  37
ENDBRANCH  28  31
ENDBRANCH  26  27
ENDBRANCH  25  26
ENDBRANCH   1  25
TORSDOF 13
ENDMDL
MODEL 3
REMARK VINA RESULT:     -13.0      1.428      7.441
REMARK SMILES O=C(NCCCCNC(=O)c1ccc(-c2c3nc(c(-c4c(F)c(F)c(F)c(F)c4F)c4ccc([nH]4)c(-c4c(F)c(F)c(F)c(F)c4F)c4nc(c(-c5c(F)c(F)c(F)c(F)c5F)c5ccc2[nH]5)C=C4)C=C3)cc1)c1ccc(N[C@H]2OC(=O)c3ccccc32)cc1
REMARK SMILES IDX 5 1 4 2 3 3 1 4 2 5 74 7 75 8 90 9 76 10 89 11 77 12 78 13
REMARK SMILES IDX 79 15 80 16 88 17 81 18 83 19 87 20 82 21 84 22 86 23 85 24
REMARK SMILES IDX 6 25 7 26 8 27 9 28 10 30 11 31 12 32 73 33 13 34 72 35
REMARK SMILES IDX 14 36 15 37 16 38 66 39 17 40 71 41 65 42 67 43 18 44 70 45
REMARK SMILES IDX 64 46 63 47 19 49 51 50 31 51 50 52 32 53 35 54 49 55 68 56
REMARK SMILES IDX 33 57 34 58 48 60 69 61 36 62 20 63 21 64 29 65 22 66 23 67
REMARK SMILES IDX 27 68 30 69 24 70 25 71 28 72 26 73 52 74 53 75 61 76 54 77
REMARK SMILES IDX 55 78 59 79 62 80 56 81 57 82 60 83 58 84 37 85 38 86 46 87
REMARK SMILES IDX 39 88 40 89 44 90 47 91 41 92 42 93 45 94 43 95
REMARK H PARENT 3 6 78 14 8 29 67 48 35 59
REMARK Flexibility Score: inf
ROOT
ATOM      1  C   UNL A   1      36.873  21.110  24.595  1.00  0.00     0.023 C 
ENDROOT
BRANCH   1   2
ATOM      2  C   UNL A   1      35.592  21.261  25.409  1.00  0.00     0.116 C 
BRANCH   2   3
ATOM      3  N   UNL A   1      34.765  20.066  25.376  1.00  0.00    -0.352 N 
ATOM      4  O   UNL A   1      32.842  18.882  25.332  1.00  0.00    -0.269 OA
ATOM      5  C   UNL A   1      33.409  19.959  25.176  1.00  0.00     0.251 C 
ATOM      6  H   UNL A   1      35.241  19.216  25.517  1.00  0.00     0.163 HD
BRANCH   5   7
ATOM      7  C   UNL A   1      32.633  21.155  24.794  1.00  0.00     0.039 A 
ATOM      8  C   UNL A   1      31.903  21.866  25.746  1.00  0.00     0.016 A 
ATOM      9  C   UNL A   1      32.629  21.568  23.464  1.00  0.00     0.016 A 
ATOM     10  C   UNL A   1      31.090  22.931  25.348  1.00  0.00     0.026 A 
ATOM     11  C   UNL A   1      31.827  22.649  23.082  1.00  0.00     0.026 A 
ATOM     12  C   UNL A   1      31.028  23.340  24.010  1.00  0.00     0.037 A 
BRANCH  12  13
ATOM     13  N   UNL A   1      30.207  24.346  23.552  1.00  0.00    -0.347 N 
ATOM     14  H   UNL A   1      29.524  24.093  22.891  1.00  0.00     0.164 HD
BRANCH  13  15
ATOM     15  C   UNL A   1      30.244  25.729  23.945  1.00  0.00     0.305 C 
ATOM     16  O   UNL A   1      30.073  25.817  25.372  1.00  0.00    -0.434 OA
ATOM     17  C   UNL A   1      31.582  26.328  23.721  1.00  0.00     0.028 A 
ATOM     18  C   UNL A   1      31.064  26.551  25.953  1.00  0.00     0.340 C 
ATOM     19  C   UNL A   1      32.036  26.850  24.913  1.00  0.00     0.069 A 
ATOM     20  C   UNL A   1      32.346  26.451  22.571  1.00  0.00     0.010 A 
ATOM     21  O   UNL A   1      31.136  26.875  27.122  1.00  0.00    -0.246 OA
ATOM     22  C   UNL A   1      33.243  27.519  25.030  1.00  0.00     0.016 A 
ATOM     23  C   UNL A   1      33.575  27.116  22.657  1.00  0.00     0.001 A 
ATOM     24  C   UNL A   1      34.019  27.652  23.879  1.00  0.00     0.001 A 
ENDBRANCH  13  15
ENDBRANCH  12  13
ENDBRANCH   5   7
ENDBRANCH   2   3
ENDBRANCH   1   2
BRANCH   1  25
ATOM     25  C   UNL A   1      37.772  19.943  25.000  1.00  0.00     0.023 C 
BRANCH  25  26
ATOM     26  C   UNL A   1      39.030  20.315  25.777  1.00  0.00     0.116 C 
BRANCH  26  27
ATOM     27  N   UNL A   1      39.990  19.226  25.877  1.00  0.00    -0.352 N 
ATOM     28  C   UNL A   1      41.341  19.266  26.123  1.00  0.00     0.251 C 
ATOM     29  H   UNL A   1      39.615  18.324  25.749  1.00  0.00     0.163 HD
ATOM     30  O   UNL A   1      42.005  18.235  26.066  1.00  0.00    -0.269 OA
BRANCH  28  31
ATOM     31  C   UNL A   1      42.009  20.555  26.415  1.00  0.00     0.039 A 
ATOM     32  C   UNL A   1      42.465  21.330  25.345  1.00  0.00     0.014 A 
ATOM     33  C   UNL A   1      42.177  21.004  27.727  1.00  0.00     0.014 A 
ATOM     34  C   UNL A   1      43.013  22.592  25.587  1.00  0.00     0.010 A 
ATOM     35  C   UNL A   1      42.657  22.290  27.962  1.00  0.00     0.010 A 
ATOM     36  C   UNL A   1      43.072  23.101  26.894  1.00  0.00    -0.014 A 
BRANCH  36  37
ATOM     37  C   UNL A   1      43.538  24.486  27.158  1.00  0.00     0.031 A 
ATOM     38  C   UNL A   1      42.582  25.527  27.668  1.00  0.00     0.074 A 
ATOM     39  C   UNL A   1      44.809  24.824  26.870  1.00  0.00     0.049 A 
ATOM     40  N   UNL A   1      42.788  26.801  27.891  1.00  0.00    -0.248 NA
ATOM     41  C   UNL A   1      41.205  25.086  27.936  1.00  0.00     0.031 C 
ATOM     42  C   UNL A   1      45.821  23.919  26.320  1.00  0.00     0.029 A 
ATOM     43  N   UNL A   1      45.466  26.024  26.987  1.00  0.00    -0.354 N 
ATOM     44  C   UNL A   1      41.567  27.313  28.309  1.00  0.00     0.074 A 
ATOM     45  C   UNL A   1      40.615  26.225  28.265  1.00  0.00     0.031 C 
ATOM     46  C   UNL A   1      46.974  24.590  26.166  1.00  0.00     0.029 A 
ATOM     47  C   UNL A   1      46.775  25.978  26.573  1.00  0.00     0.049 A 
ATOM     48  H   UNL A   1      45.039  26.841  27.333  1.00  0.00     0.167 HD
ATOM     49  C   UNL A   1      41.273  28.572  28.715  1.00  0.00     0.037 A 
ATOM     50  C   UNL A   1      47.710  26.947  26.523  1.00  0.00     0.037 A 
ATOM     51  C   UNL A   1      42.228  29.647  28.786  1.00  0.00     0.049 A 
ATOM     52  C   UNL A   1      47.359  28.334  26.986  1.00  0.00     0.074 A 
ATOM     53  C   UNL A   1      42.041  30.938  29.249  1.00  0.00     0.029 A 
ATOM     54  N   UNL A   1      43.551  29.556  28.381  1.00  0.00    -0.354 N 
ATOM     55  N   UNL A   1      46.219  28.789  27.447  1.00  0.00    -0.248 NA
ATOM     56  C   UNL A   1      48.427  29.342  26.926  1.00  0.00     0.031 C 
ATOM     57  C   UNL A   1      43.240  31.640  29.087  1.00  0.00     0.029 A 
ATOM     58  C   UNL A   1      44.187  30.774  28.564  1.00  0.00     0.049 A 
ATOM     59  H   UNL A   1      43.975  28.746  28.016  1.00  0.00     0.167 HD
ATOM     60  C   UNL A   1      46.438  30.123  27.755  1.00  0.00     0.074 A 
ATOM     61  C   UNL A   1      47.824  30.403  27.442  1.00  0.00     0.031 C 
ATOM     62  C   UNL A   1      45.569  31.036  28.252  1.00  0.00     0.037 A 
BRANCH  49  63
ATOM     63  C   UNL A   1      39.856  28.855  29.121  1.00  0.00     0.064 A 
ATOM     64  C   UNL A   1      38.903  29.305  28.195  1.00  0.00     0.173 A 
ATOM     65  C   UNL A   1      39.437  28.638  30.442  1.00  0.00     0.173 A 
ATOM     66  F   UNL A   1      39.257  29.538  26.922  1.00  0.00    -0.203 F 
ATOM     67  C   UNL A   1      37.590  29.555  28.582  1.00  0.00     0.198 A 
ATOM     68  C   UNL A   1      38.115  28.863  30.820  1.00  0.00     0.198 A 
ATOM     69  F   UNL A   1      40.307  28.203  31.366  1.00  0.00    -0.203 F 
ATOM     70  F   UNL A   1      36.708  30.031  27.691  1.00  0.00    -0.200 F 
ATOM     71  C   UNL A   1      37.196  29.328  29.893  1.00  0.00     0.200 A 
ATOM     72  F   UNL A   1      37.733  28.632  32.083  1.00  0.00    -0.200 F 
ATOM     73  F   UNL A   1      35.929  29.563  30.263  1.00  0.00    -0.200 F 
ENDBRANCH  49  63
BRANCH  50  74
ATOM     74  C   UNL A   1      49.078  26.629  26.041  1.00  0.00     0.064 A 
ATOM     75  C   UNL A   1      49.459  26.917  24.723  1.00  0.00     0.173 A 
ATOM     76  C   UNL A   1      50.030  26.036  26.882  1.00  0.00     0.173 A 
ATOM     77  F   UNL A   1      48.575  27.466  23.877  1.00  0.00    -0.203 F 
ATOM     78  C   UNL A   1      50.735  26.609  24.260  1.00  0.00     0.198 A 
ATOM     79  C   UNL A   1      51.315  25.751  26.425  1.00  0.00     0.198 A 
ATOM     80  F   UNL A   1      49.715  25.745  28.153  1.00  0.00    -0.203 F 
ATOM     81  F   UNL A   1      51.061  26.858  22.983  1.00  0.00    -0.200 F 
ATOM     82  C   UNL A   1      51.664  26.031  25.112  1.00  0.00     0.200 A 
ATOM     83  F   UNL A   1      52.214  25.205  27.254  1.00  0.00    -0.200 F 
ATOM     84  F   UNL A   1      52.894  25.739  24.667  1.00  0.00    -0.200 F 
ENDBRANCH  50  74
BRANCH  62  85
ATOM     85  C   UNL A   1      46.096  32.415  28.515  1.00  0.00     0.064 A 
ATOM     86  C   UNL A   1      46.030  33.425  27.545  1.00  0.00     0.173 A 
ATOM     87  C   UNL A   1      46.644  32.739  29.766  1.00  0.00     0.173 A 
ATOM     88  F   UNL A   1      45.531  33.159  26.329  1.00  0.00    -0.203 F 
ATOM     89  C   UNL A   1      46.512  34.704  27.810  1.00  0.00     0.198 A 
ATOM     90  C   UNL A   1      47.100  34.026  30.037  1.00  0.00     0.198 A 
ATOM     91  F   UNL A   1      46.725  31.809  30.730  1.00  0.00    -0.203 F 
ATOM     92  F   UNL A   1      46.479  35.641  26.853  1.00  0.00    -0.200 F 
ATOM     93  C   UNL A   1      47.041  35.005  29.057  1.00  0.00     0.200 A 
ATOM     94  F   UNL A   1      47.600  34.318  31.245  1.00  0.00    -0.200 F 
ATOM     95  F   UNL A   1      47.500  36.238  29.311  1.00  0.00    -0.200 F 
ENDBRANCH  62  85
ENDBRANCH  36  37
ENDBRANCH  28  31
ENDBRANCH  26  27
ENDBRANCH  25  26
ENDBRANCH   1  25
TORSDOF 13
ENDMDL
