MODEL 1
REMARK VINA RESULT:     -12.8      0.000      0.000
REMARK SMILES CN1C(=O)C(=Cc2ccc(OCc3cccc(C(=O)NCCCCNC(=O)c4ccc(-c5c6nc(c(-c7c(F)c(F)c(F)c(F)c7F)c7ccc([nH]7)c(-c7c(F)c(F)c(F)c(F)c7F)c7nc(c(-c8c(F)c(F)c(F)c(F)c8F)c8ccc5[nH]8)C=C7)C=C6)cc4)c3)c(Cl)c2)C(=O)N(C)C1=S
REMARK SMILES IDX 21 1 20 2 18 3 19 4 17 6 13 7 14 8 91 9 15 10 16 11 12 12
REMARK SMILES IDX 11 13 10 14 7 15 8 16 94 17 9 18 92 19 93 20 6 21 1 22 2 23
REMARK SMILES IDX 3 24 99 25 4 26 5 27 97 28 100 29 95 30 98 31 96 32 22 33
REMARK SMILES IDX 23 34 24 35 25 36 26 37 27 39 28 40 29 41 90 42 30 43 89 44
REMARK SMILES IDX 31 45 32 46 33 47 83 48 34 49 88 50 82 51 84 52 35 53 87 54
REMARK SMILES IDX 81 55 80 56 36 58 68 59 48 60 67 61 49 62 52 63 66 64 85 65
REMARK SMILES IDX 50 66 51 67 65 69 86 70 53 71 37 72 38 73 46 74 39 75 40 76
REMARK SMILES IDX 44 77 47 78 41 79 42 80 45 81 43 82 69 83 70 84 78 85 71 86
REMARK SMILES IDX 72 87 76 88 79 89 73 90 74 91 77 92 75 93 54 94 55 95 63 96
REMARK SMILES IDX 56 97 57 98 61 99 64 100 58 101 59 102 62 103 60 104
REMARK H PARENT 20 5 25 38 84 57 52 68
REMARK Flexibility Score: inf
ROOT
ATOM      1  C   UNL A   1      35.349  32.756  27.846  1.00  0.00     0.116 C 
ENDROOT
BRANCH   1   2
ATOM      2  N   UNL A   1      35.780  31.395  28.098  1.00  0.00    -0.352 N 
ATOM      3  C   UNL A   1      35.255  30.193  27.686  1.00  0.00     0.251 C 
ATOM      4  O   UNL A   1      35.819  29.161  28.047  1.00  0.00    -0.269 OA
ATOM      5  H   UNL A   1      36.586  31.318  28.658  1.00  0.00     0.163 HD
BRANCH   3   6
ATOM      6  C   UNL A   1      34.012  30.098  26.872  1.00  0.00     0.040 A 
ATOM      7  C   UNL A   1      32.767  29.443  24.882  1.00  0.00    -0.010 A 
ATOM      8  C   UNL A   1      31.631  30.077  25.400  1.00  0.00     0.007 A 
ATOM      9  C   UNL A   1      33.933  29.404  25.660  1.00  0.00     0.021 A 
ATOM     10  C   UNL A   1      31.675  30.709  26.642  1.00  0.00     0.001 A 
ATOM     11  C   UNL A   1      32.864  30.732  27.369  1.00  0.00     0.014 A 
BRANCH   7  12
ATOM     12  C   UNL A   1      32.761  28.851  23.488  1.00  0.00     0.265 C 
BRANCH  12  13
ATOM     13  O   UNL A   1      31.876  27.727  23.324  1.00  0.00    -0.487 OA
BRANCH  13  14
ATOM     14  C   UNL A   1      32.382  26.493  23.641  1.00  0.00     0.138 A 
ATOM     15  C   UNL A   1      33.526  23.951  24.018  1.00  0.00    -0.023 A 
ATOM     16  C   UNL A   1      33.895  24.729  22.918  1.00  0.00     0.012 A 
ATOM     17  C   UNL A   1      32.626  24.468  24.954  1.00  0.00     0.032 A 
ATOM     18  C   UNL A   1      33.326  25.993  22.733  1.00  0.00     0.048 A 
ATOM     19  C   UNL A   1      32.083  25.747  24.787  1.00  0.00     0.083 A 
ATOM     20  Cl  UNL A   1      31.104  26.345  26.078  1.00  0.00    -0.080 Cl
BRANCH  15  21
ATOM     21  C   UNL A   1      34.103  22.619  24.219  1.00  0.00     0.027 C 
ATOM     22  C   UNL A   1      38.203  24.142  26.220  1.00  0.00     0.156 C 
ATOM     23  N   UNL A   1      37.395  22.999  25.775  1.00  0.00    -0.288 N 
ATOM     24  C   UNL A   1      36.066  23.354  25.552  1.00  0.00     0.265 C 
ATOM     25  C   UNL A   1      37.936  21.705  25.609  1.00  0.00     0.185 C 
ATOM     26  O   UNL A   1      35.602  24.441  25.889  1.00  0.00    -0.268 OA
ATOM     27  C   UNL A   1      35.242  22.335  24.885  1.00  0.00     0.106 C 
ATOM     28  N   UNL A   1      37.024  20.716  25.179  1.00  0.00    -0.288 N 
ATOM     29  S   UNL A   1      39.567  21.359  25.923  1.00  0.00    -0.040 S 
ATOM     30  C   UNL A   1      35.677  20.930  24.891  1.00  0.00     0.265 C 
ATOM     31  C   UNL A   1      37.419  19.311  25.009  1.00  0.00     0.156 C 
ATOM     32  O   UNL A   1      34.886  20.022  24.634  1.00  0.00    -0.268 OA
ENDBRANCH  15  21
ENDBRANCH  13  14
ENDBRANCH  12  13
ENDBRANCH   7  12
ENDBRANCH   3   6
ENDBRANCH   1   2
BRANCH   1  33
ATOM     33  C   UNL A   1      34.873  33.505  29.085  1.00  0.00     0.023 C 
BRANCH  33  34
ATOM     34  C   UNL A   1      33.563  34.274  28.960  1.00  0.00     0.023 C 
BRANCH  34  35
ATOM     35  C   UNL A   1      33.582  35.722  29.428  1.00  0.00     0.116 C 
BRANCH  35  36
ATOM     36  N   UNL A   1      32.593  36.026  30.451  1.00  0.00    -0.352 N 
ATOM     37  C   UNL A   1      32.613  35.773  31.802  1.00  0.00     0.251 C 
ATOM     38  H   UNL A   1      31.783  36.483  30.125  1.00  0.00     0.163 HD
ATOM     39  O   UNL A   1      31.638  36.052  32.495  1.00  0.00    -0.269 OA
BRANCH  37  40
ATOM     40  C   UNL A   1      33.786  35.118  32.419  1.00  0.00     0.039 A 
ATOM     41  C   UNL A   1      33.644  33.816  32.910  1.00  0.00     0.014 A 
ATOM     42  C   UNL A   1      35.024  35.761  32.482  1.00  0.00     0.014 A 
ATOM     43  C   UNL A   1      34.766  33.124  33.370  1.00  0.00     0.010 A 
ATOM     44  C   UNL A   1      36.153  35.044  32.868  1.00  0.00     0.010 A 
ATOM     45  C   UNL A   1      36.038  33.715  33.303  1.00  0.00    -0.014 A 
BRANCH  45  46
ATOM     46  C   UNL A   1      37.262  32.956  33.662  1.00  0.00     0.031 A 
ATOM     47  C   UNL A   1      37.976  33.240  34.953  1.00  0.00     0.074 A 
ATOM     48  C   UNL A   1      37.782  32.075  32.784  1.00  0.00     0.049 A 
ATOM     49  N   UNL A   1      39.111  32.762  35.396  1.00  0.00    -0.248 NA
ATOM     50  C   UNL A   1      37.344  34.217  35.854  1.00  0.00     0.031 C 
ATOM     51  C   UNL A   1      37.216  31.751  31.473  1.00  0.00     0.029 A 
ATOM     52  N   UNL A   1      38.912  31.300  32.857  1.00  0.00    -0.354 N 
ATOM     53  C   UNL A   1      39.342  33.398  36.607  1.00  0.00     0.074 A 
ATOM     54  C   UNL A   1      38.251  34.326  36.813  1.00  0.00     0.031 C 
ATOM     55  C   UNL A   1      37.990  30.831  30.875  1.00  0.00     0.029 A 
ATOM     56  C   UNL A   1      39.123  30.525  31.742  1.00  0.00     0.049 A 
ATOM     57  H   UNL A   1      39.516  31.300  33.634  1.00  0.00     0.167 HD
ATOM     58  C   UNL A   1      40.361  33.211  37.478  1.00  0.00     0.037 A 
ATOM     59  C   UNL A   1      40.120  29.668  31.451  1.00  0.00     0.037 A 
ATOM     60  C   UNL A   1      41.420  32.254  37.295  1.00  0.00     0.049 A 
ATOM     61  C   UNL A   1      41.223  29.457  32.451  1.00  0.00     0.074 A 
ATOM     62  C   UNL A   1      42.455  31.936  38.157  1.00  0.00     0.029 A 
ATOM     63  N   UNL A   1      41.576  31.458  36.171  1.00  0.00    -0.354 N 
ATOM     64  N   UNL A   1      41.395  30.016  33.623  1.00  0.00    -0.248 NA
ATOM     65  C   UNL A   1      42.271  28.491  32.086  1.00  0.00     0.031 C 
ATOM     66  C   UNL A   1      43.254  30.967  37.541  1.00  0.00     0.029 A 
ATOM     67  C   UNL A   1      42.698  30.657  36.311  1.00  0.00     0.049 A 
ATOM     68  H   UNL A   1      40.978  31.461  35.388  1.00  0.00     0.167 HD
ATOM     69  C   UNL A   1      42.550  29.452  34.149  1.00  0.00     0.074 A 
ATOM     70  C   UNL A   1      43.033  28.500  33.171  1.00  0.00     0.031 C 
ATOM     71  C   UNL A   1      43.155  29.704  35.334  1.00  0.00     0.037 A 
BRANCH  58  72
ATOM     72  C   UNL A   1      40.374  34.052  38.719  1.00  0.00     0.064 A 
ATOM     73  C   UNL A   1      41.052  35.281  38.766  1.00  0.00     0.173 A 
ATOM     74  C   UNL A   1      39.673  33.644  39.864  1.00  0.00     0.173 A 
ATOM     75  F   UNL A   1      41.747  35.709  37.701  1.00  0.00    -0.203 F 
ATOM     76  C   UNL A   1      41.049  36.055  39.923  1.00  0.00     0.198 A 
ATOM     77  C   UNL A   1      39.652  34.434  41.010  1.00  0.00     0.198 A 
ATOM     78  F   UNL A   1      39.006  32.481  39.869  1.00  0.00    -0.203 F 
ATOM     79  F   UNL A   1      41.742  37.203  39.958  1.00  0.00    -0.200 F 
ATOM     80  C   UNL A   1      40.345  35.635  41.041  1.00  0.00     0.200 A 
ATOM     81  F   UNL A   1      38.962  34.032  42.086  1.00  0.00    -0.200 F 
ATOM     82  F   UNL A   1      40.341  36.385  42.151  1.00  0.00    -0.200 F 
ENDBRANCH  58  72
BRANCH  59  83
ATOM     83  C   UNL A   1      40.104  28.917  30.170  1.00  0.00     0.064 A 
ATOM     84  C   UNL A   1      39.492  27.659  30.087  1.00  0.00     0.173 A 
ATOM     85  C   UNL A   1      40.700  29.433  29.010  1.00  0.00     0.173 A 
ATOM     86  F   UNL A   1      38.928  27.117  31.176  1.00  0.00    -0.203 F 
ATOM     87  C   UNL A   1      39.492  26.936  28.897  1.00  0.00     0.198 A 
ATOM     88  C   UNL A   1      40.680  28.719  27.814  1.00  0.00     0.198 A 
ATOM     89  F   UNL A   1      41.295  30.635  29.039  1.00  0.00    -0.203 F 
ATOM     90  F   UNL A   1      38.937  25.718  28.855  1.00  0.00    -0.200 F 
ATOM     91  C   UNL A   1      40.082  27.468  27.760  1.00  0.00     0.200 A 
ATOM     92  F   UNL A   1      41.241  29.241  26.715  1.00  0.00    -0.200 F 
ATOM     93  F   UNL A   1      40.082  26.773  26.614  1.00  0.00    -0.200 F 
ENDBRANCH  59  83
BRANCH  71  94
ATOM     94  C   UNL A   1      44.386  28.912  35.656  1.00  0.00     0.064 A 
ATOM     95  C   UNL A   1      44.311  27.670  36.302  1.00  0.00     0.173 A 
ATOM     96  C   UNL A   1      45.651  29.383  35.275  1.00  0.00     0.173 A 
ATOM     97  F   UNL A   1      43.125  27.187  36.700  1.00  0.00    -0.203 F 
ATOM     98  C   UNL A   1      45.463  26.936  36.572  1.00  0.00     0.198 A 
ATOM     99  C   UNL A   1      46.798  28.635  35.524  1.00  0.00     0.198 A 
ATOM    100  F   UNL A   1      45.773  30.564  34.650  1.00  0.00    -0.203 F 
ATOM    101  F   UNL A   1      45.373  25.769  37.226  1.00  0.00    -0.200 F 
ATOM    102  C   UNL A   1      46.703  27.415  36.177  1.00  0.00     0.200 A 
ATOM    103  F   UNL A   1      47.995  29.095  35.135  1.00  0.00    -0.200 F 
ATOM    104  F   UNL A   1      47.809  26.703  36.433  1.00  0.00    -0.200 F 
ENDBRANCH  71  94
ENDBRANCH  45  46
ENDBRANCH  37  40
ENDBRANCH  35  36
ENDBRANCH  34  35
ENDBRANCH  33  34
ENDBRANCH   1  33
TORSDOF 15
ENDMDL
MODEL 2
REMARK VINA RESULT:     -12.6      0.797      1.759
REMARK SMILES CN1C(=O)C(=Cc2ccc(OCc3cccc(C(=O)NCCCCNC(=O)c4ccc(-c5c6nc(c(-c7c(F)c(F)c(F)c(F)c7F)c7ccc([nH]7)c(-c7c(F)c(F)c(F)c(F)c7F)c7nc(c(-c8c(F)c(F)c(F)c(F)c8F)c8ccc5[nH]8)C=C7)C=C6)cc4)c3)c(Cl)c2)C(=O)N(C)C1=S
REMARK SMILES IDX 21 1 20 2 18 3 19 4 17 6 13 7 14 8 91 9 15 10 16 11 12 12
REMARK SMILES IDX 11 13 10 14 7 15 8 16 94 17 9 18 92 19 93 20 6 21 1 22 2 23
REMARK SMILES IDX 3 24 99 25 4 26 5 27 97 28 100 29 95 30 98 31 96 32 22 33
REMARK SMILES IDX 23 34 24 35 25 36 26 37 27 39 28 40 29 41 90 42 30 43 89 44
REMARK SMILES IDX 31 45 32 46 33 47 83 48 34 49 88 50 82 51 84 52 35 53 87 54
REMARK SMILES IDX 81 55 80 56 36 58 68 59 48 60 67 61 49 62 52 63 66 64 85 65
REMARK SMILES IDX 50 66 51 67 65 69 86 70 53 71 37 72 38 73 46 74 39 75 40 76
REMARK SMILES IDX 44 77 47 78 41 79 42 80 45 81 43 82 69 83 70 84 78 85 71 86
REMARK SMILES IDX 72 87 76 88 79 89 73 90 74 91 77 92 75 93 54 94 55 95 63 96
REMARK SMILES IDX 56 97 57 98 61 99 64 100 58 101 59 102 62 103 60 104
REMARK H PARENT 20 5 25 38 84 57 52 68
REMARK Flexibility Score: inf
ROOT
ATOM      1  C   UNL A   1      35.313  32.684  27.914  1.00  0.00     0.116 C 
ENDROOT
BRANCH   1   2
ATOM      2  N   UNL A   1      35.752  31.316  28.101  1.00  0.00    -0.352 N 
ATOM      3  C   UNL A   1      35.222  30.130  27.651  1.00  0.00     0.251 C 
ATOM      4  O   UNL A   1      35.796  29.085  27.958  1.00  0.00    -0.269 OA
ATOM      5  H   UNL A   1      36.570  31.219  28.642  1.00  0.00     0.163 HD
BRANCH   3   6
ATOM      6  C   UNL A   1      33.964  30.064  26.859  1.00  0.00     0.040 A 
ATOM      7  C   UNL A   1      32.647  29.361  24.932  1.00  0.00    -0.010 A 
ATOM      8  C   UNL A   1      31.565  30.105  25.418  1.00  0.00     0.007 A 
ATOM      9  C   UNL A   1      33.821  29.297  25.698  1.00  0.00     0.021 A 
ATOM     10  C   UNL A   1      31.669  30.814  26.613  1.00  0.00     0.001 A 
ATOM     11  C   UNL A   1      32.868  30.806  27.323  1.00  0.00     0.014 A 
BRANCH   7  12
ATOM     12  C   UNL A   1      32.581  28.679  23.581  1.00  0.00     0.265 C 
BRANCH  12  13
ATOM     13  O   UNL A   1      31.432  27.830  23.401  1.00  0.00    -0.487 OA
BRANCH  13  14
ATOM     14  C   UNL A   1      31.596  26.500  23.693  1.00  0.00     0.138 A 
ATOM     15  C   UNL A   1      32.000  23.735  24.010  1.00  0.00    -0.023 A 
ATOM     16  C   UNL A   1      32.454  24.382  22.857  1.00  0.00     0.012 A 
ATOM     17  C   UNL A   1      31.392  24.482  25.022  1.00  0.00     0.032 A 
ATOM     18  C   UNL A   1      32.254  25.758  22.703  1.00  0.00     0.048 A 
ATOM     19  C   UNL A   1      31.222  25.864  24.882  1.00  0.00     0.083 A 
ATOM     20  Cl  UNL A   1      30.601  26.708  26.255  1.00  0.00    -0.080 Cl
BRANCH  15  21
ATOM     21  C   UNL A   1      32.192  22.293  24.181  1.00  0.00     0.027 C 
ATOM     22  C   UNL A   1      36.868  22.529  25.278  1.00  0.00     0.156 C 
ATOM     23  N   UNL A   1      35.691  21.678  25.064  1.00  0.00    -0.288 N 
ATOM     24  C   UNL A   1      34.506  22.413  25.073  1.00  0.00     0.265 C 
ATOM     25  C   UNL A   1      35.786  20.281  24.881  1.00  0.00     0.185 C 
ATOM     26  O   UNL A   1      34.456  23.590  25.423  1.00  0.00    -0.268 OA
ATOM     27  C   UNL A   1      33.306  21.684  24.637  1.00  0.00     0.106 C 
ATOM     28  N   UNL A   1      34.560  19.608  24.691  1.00  0.00    -0.288 N 
ATOM     29  S   UNL A   1      37.274  19.465  24.904  1.00  0.00    -0.040 S 
ATOM     30  C   UNL A   1      33.305  20.213  24.649  1.00  0.00     0.265 C 
ATOM     31  C   UNL A   1      34.485  18.148  24.538  1.00  0.00     0.156 C 
ATOM     32  O   UNL A   1      32.248  19.581  24.601  1.00  0.00    -0.268 OA
ENDBRANCH  15  21
ENDBRANCH  13  14
ENDBRANCH  12  13
ENDBRANCH   7  12
ENDBRANCH   3   6
ENDBRANCH   1   2
BRANCH   1  33
ATOM     33  C   UNL A   1      34.659  33.309  29.140  1.00  0.00     0.023 C 
BRANCH  33  34
ATOM     34  C   UNL A   1      33.479  34.240  28.886  1.00  0.00     0.023 C 
BRANCH  34  35
ATOM     35  C   UNL A   1      33.603  35.654  29.438  1.00  0.00     0.116 C 
BRANCH  35  36
ATOM     36  N   UNL A   1      32.631  35.972  30.474  1.00  0.00    -0.352 N 
ATOM     37  C   UNL A   1      32.668  35.726  31.825  1.00  0.00     0.251 C 
ATOM     38  H   UNL A   1      31.821  36.434  30.156  1.00  0.00     0.163 HD
ATOM     39  O   UNL A   1      31.704  36.017  32.530  1.00  0.00    -0.269 OA
BRANCH  37  40
ATOM     40  C   UNL A   1      33.843  35.063  32.429  1.00  0.00     0.039 A 
ATOM     41  C   UNL A   1      33.698  33.763  32.922  1.00  0.00     0.014 A 
ATOM     42  C   UNL A   1      35.085  35.698  32.479  1.00  0.00     0.014 A 
ATOM     43  C   UNL A   1      34.821  33.064  33.370  1.00  0.00     0.010 A 
ATOM     44  C   UNL A   1      36.215  34.974  32.852  1.00  0.00     0.010 A 
ATOM     45  C   UNL A   1      36.096  33.646  33.289  1.00  0.00    -0.014 A 
BRANCH  45  46
ATOM     46  C   UNL A   1      37.319  32.879  33.635  1.00  0.00     0.031 A 
ATOM     47  C   UNL A   1      38.047  33.158  34.919  1.00  0.00     0.074 A 
ATOM     48  C   UNL A   1      37.824  31.996  32.751  1.00  0.00     0.049 A 
ATOM     49  N   UNL A   1      39.184  32.672  35.349  1.00  0.00    -0.248 NA
ATOM     50  C   UNL A   1      37.431  34.138  35.827  1.00  0.00     0.031 C 
ATOM     51  C   UNL A   1      37.242  31.677  31.446  1.00  0.00     0.029 A 
ATOM     52  N   UNL A   1      38.950  31.214  32.811  1.00  0.00    -0.354 N 
ATOM     53  C   UNL A   1      39.431  33.306  36.558  1.00  0.00     0.074 A 
ATOM     54  C   UNL A   1      38.348  34.241  36.776  1.00  0.00     0.031 C 
ATOM     55  C   UNL A   1      38.004  30.752  30.839  1.00  0.00     0.029 A 
ATOM     56  C   UNL A   1      39.145  30.438  31.694  1.00  0.00     0.049 A 
ATOM     57  H   UNL A   1      39.562  31.209  33.583  1.00  0.00     0.167 HD
ATOM     58  C   UNL A   1      40.458  33.112  37.419  1.00  0.00     0.037 A 
ATOM     59  C   UNL A   1      40.134  29.576  31.392  1.00  0.00     0.037 A 
ATOM     60  C   UNL A   1      41.509  32.150  37.224  1.00  0.00     0.049 A 
ATOM     61  C   UNL A   1      41.245  29.357  32.380  1.00  0.00     0.074 A 
ATOM     62  C   UNL A   1      42.551  31.824  38.076  1.00  0.00     0.029 A 
ATOM     63  N   UNL A   1      41.649  31.353  36.098  1.00  0.00    -0.354 N 
ATOM     64  N   UNL A   1      41.433  29.914  33.551  1.00  0.00    -0.248 NA
ATOM     65  C   UNL A   1      42.284  28.385  32.004  1.00  0.00     0.031 C 
ATOM     66  C   UNL A   1      43.338  30.851  37.451  1.00  0.00     0.029 A 
ATOM     67  C   UNL A   1      42.767  30.545  36.226  1.00  0.00     0.049 A 
ATOM     68  H   UNL A   1      41.043  31.361  35.322  1.00  0.00     0.167 HD
ATOM     69  C   UNL A   1      42.589  29.343  34.064  1.00  0.00     0.074 A 
ATOM     70  C   UNL A   1      43.057  28.389  33.081  1.00  0.00     0.031 C 
ATOM     71  C   UNL A   1      43.209  29.590  35.244  1.00  0.00     0.037 A 
BRANCH  58  72
ATOM     72  C   UNL A   1      40.489  33.953  38.660  1.00  0.00     0.064 A 
ATOM     73  C   UNL A   1      39.816  33.563  39.828  1.00  0.00     0.173 A 
ATOM     74  C   UNL A   1      41.226  35.146  38.694  1.00  0.00     0.173 A 
ATOM     75  F   UNL A   1      39.087  32.436  39.842  1.00  0.00    -0.203 F 
ATOM     76  C   UNL A   1      39.858  34.350  40.976  1.00  0.00     0.198 A 
ATOM     77  C   UNL A   1      41.287  35.918  39.851  1.00  0.00     0.198 A 
ATOM     78  F   UNL A   1      41.891  35.561  37.605  1.00  0.00    -0.203 F 
ATOM     79  F   UNL A   1      39.170  33.979  42.065  1.00  0.00    -0.200 F 
ATOM     80  C   UNL A   1      40.598  35.523  40.988  1.00  0.00     0.200 A 
ATOM     81  F   UNL A   1      42.011  37.046  39.865  1.00  0.00    -0.200 F 
ATOM     82  F   UNL A   1      40.641  36.276  42.095  1.00  0.00    -0.200 F 
ENDBRANCH  58  72
BRANCH  59  83
ATOM     83  C   UNL A   1      40.099  28.826  30.111  1.00  0.00     0.064 A 
ATOM     84  C   UNL A   1      39.479  27.572  30.033  1.00  0.00     0.173 A 
ATOM     85  C   UNL A   1      40.688  29.339  28.946  1.00  0.00     0.173 A 
ATOM     86  F   UNL A   1      38.922  27.033  31.127  1.00  0.00    -0.203 F 
ATOM     87  C   UNL A   1      39.462  26.850  28.842  1.00  0.00     0.198 A 
ATOM     88  C   UNL A   1      40.651  28.626  27.749  1.00  0.00     0.198 A 
ATOM     89  F   UNL A   1      41.290  30.537  28.969  1.00  0.00    -0.203 F 
ATOM     90  F   UNL A   1      38.898  25.636  28.805  1.00  0.00    -0.200 F 
ATOM     91  C   UNL A   1      40.044  27.379  27.700  1.00  0.00     0.200 A 
ATOM     92  F   UNL A   1      41.204  29.146  26.645  1.00  0.00    -0.200 F 
ATOM     93  F   UNL A   1      40.028  26.685  26.553  1.00  0.00    -0.200 F 
ENDBRANCH  59  83
BRANCH  71  94
ATOM     94  C   UNL A   1      44.438  28.790  35.552  1.00  0.00     0.064 A 
ATOM     95  C   UNL A   1      45.716  29.238  35.187  1.00  0.00     0.173 A 
ATOM     96  C   UNL A   1      44.338  27.583  36.260  1.00  0.00     0.173 A 
ATOM     97  F   UNL A   1      45.859  30.379  34.496  1.00  0.00    -0.203 F 
ATOM     98  C   UNL A   1      46.849  28.494  35.503  1.00  0.00     0.198 A 
ATOM     99  C   UNL A   1      45.476  26.855  36.595  1.00  0.00     0.198 A 
ATOM    100  F   UNL A   1      43.138  27.116  36.634  1.00  0.00    -0.203 F 
ATOM    101  F   UNL A   1      48.058  28.921  35.110  1.00  0.00    -0.200 F 
ATOM    102  C   UNL A   1      46.729  27.309  36.212  1.00  0.00     0.200 A 
ATOM    103  F   UNL A   1      45.359  25.713  37.288  1.00  0.00    -0.200 F 
ATOM    104  F   UNL A   1      47.823  26.598  36.520  1.00  0.00    -0.200 F 
ENDBRANCH  71  94
ENDBRANCH  45  46
ENDBRANCH  37  40
ENDBRANCH  35  36
ENDBRANCH  34  35
ENDBRANCH  33  34
ENDBRANCH   1  33
TORSDOF 15
ENDMDL
MODEL 3
REMARK VINA RESULT:     -12.5      4.574      8.891
REMARK SMILES CN1C(=O)C(=Cc2ccc(OCc3cccc(C(=O)NCCCCNC(=O)c4ccc(-c5c6nc(c(-c7c(F)c(F)c(F)c(F)c7F)c7ccc([nH]7)c(-c7c(F)c(F)c(F)c(F)c7F)c7nc(c(-c8c(F)c(F)c(F)c(F)c8F)c8ccc5[nH]8)C=C7)C=C6)cc4)c3)c(Cl)c2)C(=O)N(C)C1=S
REMARK SMILES IDX 21 1 20 2 18 3 19 4 17 6 13 7 14 8 91 9 15 10 16 11 12 12
REMARK SMILES IDX 11 13 10 14 7 15 8 16 94 17 9 18 92 19 93 20 6 21 1 22 2 23
REMARK SMILES IDX 3 24 99 25 4 26 5 27 97 28 100 29 95 30 98 31 96 32 22 33
REMARK SMILES IDX 23 34 24 35 25 36 26 37 27 39 28 40 29 41 90 42 30 43 89 44
REMARK SMILES IDX 31 45 32 46 33 47 83 48 34 49 88 50 82 51 84 52 35 53 87 54
REMARK SMILES IDX 81 55 80 56 36 58 68 59 48 60 67 61 49 62 52 63 66 64 85 65
REMARK SMILES IDX 50 66 51 67 65 69 86 70 53 71 37 72 38 73 46 74 39 75 40 76
REMARK SMILES IDX 44 77 47 78 41 79 42 80 45 81 43 82 69 83 70 84 78 85 71 86
REMARK SMILES IDX 72 87 76 88 79 89 73 90 74 91 77 92 75 93 54 94 55 95 63 96
REMARK SMILES IDX 56 97 57 98 61 99 64 100 58 101 59 102 62 103 60 104
REMARK H PARENT 20 5 25 38 84 57 52 68
REMARK Flexibility Score: inf
ROOT
ATOM      1  C   UNL A   1      34.414  32.723  32.350  1.00  0.00     0.116 C 
ENDROOT
BRANCH   1   2
ATOM      2  N   UNL A   1      34.346  34.128  32.700  1.00  0.00    -0.352 N 
ATOM      3  C   UNL A   1      35.333  35.018  33.054  1.00  0.00     0.251 C 
ATOM      4  O   UNL A   1      35.004  36.176  33.311  1.00  0.00    -0.269 OA
ATOM      5  H   UNL A   1      33.439  34.511  32.682  1.00  0.00     0.163 HD
BRANCH   3   6
ATOM      6  C   UNL A   1      36.761  34.620  33.185  1.00  0.00     0.040 A 
ATOM      7  C   UNL A   1      38.669  33.765  34.438  1.00  0.00    -0.010 A 
ATOM      8  C   UNL A   1      39.488  34.006  33.328  1.00  0.00     0.007 A 
ATOM      9  C   UNL A   1      37.293  34.015  34.329  1.00  0.00     0.021 A 
ATOM     10  C   UNL A   1      38.957  34.538  32.155  1.00  0.00     0.001 A 
ATOM     11  C   UNL A   1      37.601  34.857  32.088  1.00  0.00     0.014 A 
BRANCH   7  12
ATOM     12  C   UNL A   1      39.255  33.292  35.752  1.00  0.00     0.265 C 
BRANCH  12  13
ATOM     13  O   UNL A   1      39.053  31.892  36.022  1.00  0.00    -0.487 OA
BRANCH  13  14
ATOM     14  C   UNL A   1      39.884  31.013  35.376  1.00  0.00     0.138 A 
ATOM     15  C   UNL A   1      41.793  29.287  34.242  1.00  0.00    -0.023 A 
ATOM     16  C   UNL A   1      42.013  29.843  35.506  1.00  0.00     0.012 A 
ATOM     17  C   UNL A   1      40.597  29.556  33.573  1.00  0.00     0.032 A 
ATOM     18  C   UNL A   1      41.061  30.699  36.068  1.00  0.00     0.048 A 
ATOM     19  C   UNL A   1      39.629  30.386  34.150  1.00  0.00     0.083 A 
ATOM     20  Cl  UNL A   1      38.129  30.525  33.308  1.00  0.00    -0.080 Cl
BRANCH  15  21
ATOM     21  C   UNL A   1      42.786  28.398  33.634  1.00  0.00     0.027 C 
ATOM     22  C   UNL A   1      41.657  24.518  36.242  1.00  0.00     0.156 C 
ATOM     23  N   UNL A   1      42.512  25.100  35.199  1.00  0.00    -0.288 N 
ATOM     24  C   UNL A   1      42.003  26.306  34.719  1.00  0.00     0.265 C 
ATOM     25  C   UNL A   1      43.700  24.479  34.757  1.00  0.00     0.185 C 
ATOM     26  O   UNL A   1      40.876  26.711  34.997  1.00  0.00    -0.268 OA
ATOM     27  C   UNL A   1      42.906  27.071  33.847  1.00  0.00     0.106 C 
ATOM     28  N   UNL A   1      44.405  25.166  33.745  1.00  0.00    -0.288 N 
ATOM     29  S   UNL A   1      44.234  22.997  35.386  1.00  0.00    -0.040 S 
ATOM     30  C   UNL A   1      44.033  26.390  33.191  1.00  0.00     0.265 C 
ATOM     31  C   UNL A   1      45.632  24.626  33.143  1.00  0.00     0.156 C 
ATOM     32  O   UNL A   1      44.607  26.901  32.228  1.00  0.00    -0.268 OA
ENDBRANCH  15  21
ENDBRANCH  13  14
ENDBRANCH  12  13
ENDBRANCH   7  12
ENDBRANCH   3   6
ENDBRANCH   1   2
BRANCH   1  33
ATOM     33  C   UNL A   1      35.071  32.440  31.005  1.00  0.00     0.023 C 
BRANCH  33  34
ATOM     34  C   UNL A   1      34.781  33.427  29.880  1.00  0.00     0.023 C 
BRANCH  34  35
ATOM     35  C   UNL A   1      34.940  32.899  28.461  1.00  0.00     0.116 C 
BRANCH  35  36
ATOM     36  N   UNL A   1      34.060  31.784  28.143  1.00  0.00    -0.352 N 
ATOM     37  C   UNL A   1      34.345  30.448  27.997  1.00  0.00     0.251 C 
ATOM     38  H   UNL A   1      33.113  32.025  28.013  1.00  0.00     0.163 HD
ATOM     39  O   UNL A   1      33.463  29.663  27.658  1.00  0.00    -0.269 OA
BRANCH  37  40
ATOM     40  C   UNL A   1      35.725  29.956  28.195  1.00  0.00     0.039 A 
ATOM     41  C   UNL A   1      36.627  30.044  27.130  1.00  0.00     0.014 A 
ATOM     42  C   UNL A   1      36.141  29.446  29.427  1.00  0.00     0.014 A 
ATOM     43  C   UNL A   1      37.969  29.716  27.331  1.00  0.00     0.010 A 
ATOM     44  C   UNL A   1      37.493  29.194  29.646  1.00  0.00     0.010 A 
ATOM     45  C   UNL A   1      38.422  29.339  28.605  1.00  0.00    -0.014 A 
BRANCH  45  46
ATOM     46  C   UNL A   1      39.864  29.113  28.877  1.00  0.00     0.031 A 
ATOM     47  C   UNL A   1      40.678  30.173  29.564  1.00  0.00     0.074 A 
ATOM     48  C   UNL A   1      40.460  27.992  28.425  1.00  0.00     0.049 A 
ATOM     49  N   UNL A   1      41.966  30.207  29.797  1.00  0.00    -0.248 NA
ATOM     50  C   UNL A   1      39.953  31.367  30.024  1.00  0.00     0.031 C 
ATOM     51  C   UNL A   1      39.791  26.913  27.695  1.00  0.00     0.029 A 
ATOM     52  N   UNL A   1      41.767  27.579  28.503  1.00  0.00    -0.354 N 
ATOM     53  C   UNL A   1      42.206  31.433  30.401  1.00  0.00     0.074 A 
ATOM     54  C   UNL A   1      40.941  32.131  30.463  1.00  0.00     0.031 C 
ATOM     55  C   UNL A   1      40.688  25.954  27.409  1.00  0.00     0.029 A 
ATOM     56  C   UNL A   1      41.998  26.363  27.905  1.00  0.00     0.049 A 
ATOM     57  H   UNL A   1      42.472  28.105  28.945  1.00  0.00     0.167 HD
ATOM     58  C   UNL A   1      43.375  31.924  30.878  1.00  0.00     0.037 A 
ATOM     59  C   UNL A   1      43.139  25.663  27.768  1.00  0.00     0.037 A 
ATOM     60  C   UNL A   1      44.624  31.211  30.858  1.00  0.00     0.049 A 
ATOM     61  C   UNL A   1      44.416  26.218  28.335  1.00  0.00     0.074 A 
ATOM     62  C   UNL A   1      45.845  31.592  31.386  1.00  0.00     0.029 A 
ATOM     63  N   UNL A   1      44.809  29.964  30.280  1.00  0.00    -0.354 N 
ATOM     64  N   UNL A   1      44.618  27.350  28.963  1.00  0.00    -0.248 NA
ATOM     65  C   UNL A   1      45.625  25.395  28.175  1.00  0.00     0.031 C 
ATOM     66  C   UNL A   1      46.776  30.587  31.102  1.00  0.00     0.029 A 
ATOM     67  C   UNL A   1      46.128  29.566  30.427  1.00  0.00     0.049 A 
ATOM     68  H   UNL A   1      44.107  29.439  29.831  1.00  0.00     0.167 HD
ATOM     69  C   UNL A   1      45.966  27.364  29.298  1.00  0.00     0.074 A 
ATOM     70  C   UNL A   1      46.531  26.123  28.812  1.00  0.00     0.031 C 
ATOM     71  C   UNL A   1      46.670  28.321  29.949  1.00  0.00     0.037 A 
BRANCH  58  72
ATOM     72  C   UNL A   1      43.354  33.299  31.475  1.00  0.00     0.064 A 
ATOM     73  C   UNL A   1      43.075  33.505  32.836  1.00  0.00     0.173 A 
ATOM     74  C   UNL A   1      43.649  34.422  30.687  1.00  0.00     0.173 A 
ATOM     75  F   UNL A   1      42.775  32.464  33.627  1.00  0.00    -0.203 F 
ATOM     76  C   UNL A   1      43.066  34.787  33.378  1.00  0.00     0.198 A 
ATOM     77  C   UNL A   1      43.663  35.700  31.240  1.00  0.00     0.198 A 
ATOM     78  F   UNL A   1      43.926  34.278  29.383  1.00  0.00    -0.203 F 
ATOM     79  F   UNL A   1      42.752  34.962  34.669  1.00  0.00    -0.200 F 
ATOM     80  C   UNL A   1      43.366  35.882  32.582  1.00  0.00     0.200 A 
ATOM     81  F   UNL A   1      43.964  36.756  30.472  1.00  0.00    -0.200 F 
ATOM     82  F   UNL A   1      43.361  37.114  33.108  1.00  0.00    -0.200 F 
ENDBRANCH  58  72
BRANCH  59  83
ATOM     83  C   UNL A   1      43.121  24.339  27.095  1.00  0.00     0.064 A 
ATOM     84  C   UNL A   1      42.758  23.184  27.800  1.00  0.00     0.173 A 
ATOM     85  C   UNL A   1      43.470  24.199  25.744  1.00  0.00     0.173 A 
ATOM     86  F   UNL A   1      42.437  23.267  29.099  1.00  0.00    -0.203 F 
ATOM     87  C   UNL A   1      42.761  21.934  27.184  1.00  0.00     0.198 A 
ATOM     88  C   UNL A   1      43.451  22.952  25.123  1.00  0.00     0.198 A 
ATOM     89  F   UNL A   1      43.821  25.276  25.026  1.00  0.00    -0.203 F 
ATOM     90  F   UNL A   1      42.449  20.840  27.892  1.00  0.00    -0.200 F 
ATOM     91  C   UNL A   1      43.103  21.819  25.845  1.00  0.00     0.200 A 
ATOM     92  F   UNL A   1      43.771  22.847  23.826  1.00  0.00    -0.200 F 
ATOM     93  F   UNL A   1      43.105  20.618  25.252  1.00  0.00    -0.200 F 
ENDBRANCH  59  83
BRANCH  71  94
ATOM     94  C   UNL A   1      48.121  28.048  30.206  1.00  0.00     0.064 A 
ATOM     95  C   UNL A   1      49.105  28.357  29.256  1.00  0.00     0.173 A 
ATOM     96  C   UNL A   1      48.534  27.511  31.435  1.00  0.00     0.173 A 
ATOM     97  F   UNL A   1      48.756  28.857  28.061  1.00  0.00    -0.203 F 
ATOM     98  C   UNL A   1      50.451  28.119  29.520  1.00  0.00     0.198 A 
ATOM     99  C   UNL A   1      49.883  27.298  31.704  1.00  0.00     0.198 A 
ATOM    100  F   UNL A   1      47.630  27.204  32.377  1.00  0.00    -0.203 F 
ATOM    101  F   UNL A   1      51.372  28.385  28.583  1.00  0.00    -0.200 F 
ATOM    102  C   UNL A   1      50.839  27.597  30.745  1.00  0.00     0.200 A 
ATOM    103  F   UNL A   1      50.257  26.801  32.891  1.00  0.00    -0.200 F 
ATOM    104  F   UNL A   1      52.136  27.375  30.999  1.00  0.00    -0.200 F 
ENDBRANCH  71  94
ENDBRANCH  45  46
ENDBRANCH  37  40
ENDBRANCH  35  36
ENDBRANCH  34  35
ENDBRANCH  33  34
ENDBRANCH   1  33
TORSDOF 15
ENDMDL
