MODEL 1
REMARK VINA RESULT:     -12.2      0.000      0.000
REMARK SMILES C[NH2+][C@@H](C)c1ccc(SCc2ccc(C(=O)NCCCCNC(=O)c3ccc(-c4c5nc(c(-c6c(F)c(F)c(F)c(F)c6F)c6ccc([nH]6)c(-c6c(F)c(F)c(F)c(F)c6F)c6nc(c(-c7c(F)c(F)c(F)c(F)c7F)c7ccc4[nH]7)C=C6)C=C5)cc3)cc2)cc1
REMARK SMILES IDX 18 1 17 2 15 3 16 4 14 6 11 7 12 8 89 9 13 10 88 11 10 12
REMARK SMILES IDX 9 13 8 14 5 15 6 16 91 17 7 18 90 19 3 20 4 21 2 22 1 23
REMARK SMILES IDX 19 26 20 27 21 28 22 29 23 30 24 32 25 33 26 34 87 35 27 36
REMARK SMILES IDX 86 37 28 38 29 39 30 40 80 41 31 42 85 43 79 44 81 45 32 46
REMARK SMILES IDX 84 47 78 48 77 49 33 51 65 52 45 53 64 54 46 55 49 56 63 57
REMARK SMILES IDX 82 58 47 59 48 60 62 62 83 63 50 64 34 65 35 66 43 67 36 68
REMARK SMILES IDX 37 69 41 70 44 71 38 72 39 73 42 74 40 75 66 76 67 77 75 78
REMARK SMILES IDX 68 79 69 80 73 81 76 82 70 83 71 84 74 85 72 86 51 87 52 88
REMARK SMILES IDX 60 89 53 90 54 91 58 92 61 93 55 94 56 95 59 96 57 97
REMARK H PARENT 17 5 2 24 2 25 22 31 81 50 49 61
REMARK Flexibility Score: inf
ROOT
ATOM      1  C   UNL A   1      32.367  30.344  25.631  1.00  0.00     0.116 C 
ENDROOT
BRANCH   1   2
ATOM      2  N   UNL A   1      33.593  30.012  26.327  1.00  0.00    -0.352 N 
ATOM      3  C   UNL A   1      34.156  28.813  26.681  1.00  0.00     0.251 C 
ATOM      4  O   UNL A   1      35.234  28.854  27.275  1.00  0.00    -0.269 OA
ATOM      5  H   UNL A   1      34.122  30.797  26.598  1.00  0.00     0.163 HD
BRANCH   3   6
ATOM      6  C   UNL A   1      33.569  27.487  26.331  1.00  0.00     0.039 A 
ATOM      7  C   UNL A   1      32.539  25.006  25.408  1.00  0.00    -0.038 A 
ATOM      8  C   UNL A   1      33.782  25.475  24.970  1.00  0.00     0.005 A 
ATOM      9  C   UNL A   1      31.873  25.750  26.393  1.00  0.00     0.005 A 
ATOM     10  C   UNL A   1      34.278  26.709  25.408  1.00  0.00     0.014 A 
ATOM     11  C   UNL A   1      32.394  26.960  26.866  1.00  0.00     0.014 A 
BRANCH   7  12
ATOM     12  C   UNL A   1      31.850  23.761  24.890  1.00  0.00     0.110 C 
BRANCH  12  13
ATOM     13  S   UNL A   1      30.767  23.887  23.435  1.00  0.00    -0.121 SA
BRANCH  13  14
ATOM     14  C   UNL A   1      30.420  25.635  23.273  1.00  0.00     0.008 A 
ATOM     15  C   UNL A   1      29.629  28.351  23.065  1.00  0.00     0.009 A 
ATOM     16  C   UNL A   1      28.881  27.442  23.822  1.00  0.00     0.011 A 
ATOM     17  C   UNL A   1      30.795  27.887  22.437  1.00  0.00     0.011 A 
ATOM     18  C   UNL A   1      29.269  26.102  23.919  1.00  0.00     0.015 A 
ATOM     19  C   UNL A   1      31.190  26.548  22.548  1.00  0.00     0.015 A 
BRANCH  15  20
ATOM     20  C   UNL A   1      29.199  29.812  22.997  1.00  0.00     0.210 C 
ATOM     21  C   UNL A   1      27.674  29.961  23.082  1.00  0.00     0.081 C 
BRANCH  20  22
ATOM     22  N   UNL A   1      29.778  30.416  21.791  1.00  0.00    -0.343 N 
ATOM     23  C   UNL A   1      28.875  31.309  21.088  1.00  0.00     0.331 C 
ATOM     24  H   UNL A   1      30.606  30.945  22.064  1.00  0.00     0.346 HD
ATOM     25  H   UNL A   1      29.995  29.652  21.152  1.00  0.00     0.346 HD
ENDBRANCH  20  22
ENDBRANCH  15  20
ENDBRANCH  13  14
ENDBRANCH  12  13
ENDBRANCH   7  12
ENDBRANCH   3   6
ENDBRANCH   1   2
BRANCH   1  26
ATOM     26  C   UNL A   1      31.384  31.039  26.575  1.00  0.00     0.023 C 
BRANCH  26  27
ATOM     27  C   UNL A   1      31.502  32.565  26.591  1.00  0.00     0.023 C 
BRANCH  27  28
ATOM     28  C   UNL A   1      32.574  33.112  27.523  1.00  0.00     0.116 C 
BRANCH  28  29
ATOM     29  N   UNL A   1      32.403  34.525  27.830  1.00  0.00    -0.352 N 
ATOM     30  C   UNL A   1      33.110  35.291  28.725  1.00  0.00     0.251 C 
ATOM     31  H   UNL A   1      31.691  34.989  27.333  1.00  0.00     0.163 HD
ATOM     32  O   UNL A   1      32.789  36.449  28.950  1.00  0.00    -0.269 OA
BRANCH  30  33
ATOM     33  C   UNL A   1      34.241  34.678  29.450  1.00  0.00     0.039 A 
ATOM     34  C   UNL A   1      34.002  34.085  30.691  1.00  0.00     0.014 A 
ATOM     35  C   UNL A   1      35.515  34.643  28.877  1.00  0.00     0.014 A 
ATOM     36  C   UNL A   1      35.031  33.391  31.331  1.00  0.00     0.010 A 
ATOM     37  C   UNL A   1      36.520  33.900  29.485  1.00  0.00     0.010 A 
ATOM     38  C   UNL A   1      36.285  33.263  30.714  1.00  0.00    -0.014 A 
BRANCH  38  39
ATOM     39  C   UNL A   1      37.370  32.462  31.327  1.00  0.00     0.031 A 
ATOM     40  C   UNL A   1      37.885  32.820  32.690  1.00  0.00     0.074 A 
ATOM     41  C   UNL A   1      37.949  31.473  30.620  1.00  0.00     0.049 A 
ATOM     42  N   UNL A   1      38.902  32.327  33.349  1.00  0.00    -0.248 NA
ATOM     43  C   UNL A   1      37.178  33.901  33.396  1.00  0.00     0.031 C 
ATOM     44  C   UNL A   1      37.566  31.061  29.269  1.00  0.00     0.029 A 
ATOM     45  N   UNL A   1      38.999  30.645  30.934  1.00  0.00    -0.354 N 
ATOM     46  C   UNL A   1      38.972  33.050  34.532  1.00  0.00     0.074 A 
ATOM     47  C   UNL A   1      37.921  34.044  34.483  1.00  0.00     0.031 C 
ATOM     48  C   UNL A   1      38.360  30.053  28.875  1.00  0.00     0.029 A 
ATOM     49  C   UNL A   1      39.331  29.772  29.929  1.00  0.00     0.049 A 
ATOM     50  H   UNL A   1      39.469  30.676  31.799  1.00  0.00     0.167 HD
ATOM     51  C   UNL A   1      39.822  32.885  35.571  1.00  0.00     0.037 A 
ATOM     52  C   UNL A   1      40.316  28.857  29.861  1.00  0.00     0.037 A 
ATOM     53  C   UNL A   1      40.843  31.873  35.628  1.00  0.00     0.049 A 
ATOM     54  C   UNL A   1      41.244  28.689  31.034  1.00  0.00     0.074 A 
ATOM     55  C   UNL A   1      41.715  31.582  36.663  1.00  0.00     0.029 A 
ATOM     56  N   UNL A   1      41.127  30.982  34.604  1.00  0.00    -0.354 N 
ATOM     57  N   UNL A   1      41.263  29.337  32.173  1.00  0.00    -0.248 NA
ATOM     58  C   UNL A   1      42.284  27.657  30.913  1.00  0.00     0.031 C 
ATOM     59  C   UNL A   1      42.549  30.538  36.252  1.00  0.00     0.029 A 
ATOM     60  C   UNL A   1      42.170  30.151  34.976  1.00  0.00     0.049 A 
ATOM     61  H   UNL A   1      40.656  30.945  33.740  1.00  0.00     0.167 HD
ATOM     62  C   UNL A   1      42.293  28.777  32.913  1.00  0.00     0.074 A 
ATOM     63  C   UNL A   1      42.872  27.728  32.100  1.00  0.00     0.031 C 
ATOM     64  C   UNL A   1      42.722  29.102  34.157  1.00  0.00     0.037 A 
BRANCH  51  65
ATOM     65  C   UNL A   1      39.683  33.821  36.734  1.00  0.00     0.064 A 
ATOM     66  C   UNL A   1      38.899  33.491  37.851  1.00  0.00     0.173 A 
ATOM     67  C   UNL A   1      40.364  35.047  36.749  1.00  0.00     0.173 A 
ATOM     68  F   UNL A   1      38.217  32.336  37.880  1.00  0.00    -0.203 F 
ATOM     69  C   UNL A   1      38.779  34.368  38.925  1.00  0.00     0.198 A 
ATOM     70  C   UNL A   1      40.265  35.909  37.837  1.00  0.00     0.198 A 
ATOM     71  F   UNL A   1      41.129  35.408  35.708  1.00  0.00    -0.203 F 
ATOM     72  F   UNL A   1      37.987  34.053  39.960  1.00  0.00    -0.200 F 
ATOM     73  C   UNL A   1      39.467  35.573  38.922  1.00  0.00     0.200 A 
ATOM     74  F   UNL A   1      40.937  37.068  37.837  1.00  0.00    -0.200 F 
ATOM     75  F   UNL A   1      39.355  36.413  39.959  1.00  0.00    -0.200 F 
ENDBRANCH  51  65
BRANCH  52  76
ATOM     76  C   UNL A   1      40.461  28.011  28.649  1.00  0.00     0.064 A 
ATOM     77  C   UNL A   1      39.838  26.757  28.571  1.00  0.00     0.173 A 
ATOM     78  C   UNL A   1      41.221  28.433  27.549  1.00  0.00     0.173 A 
ATOM     79  F   UNL A   1      39.118  26.303  29.608  1.00  0.00    -0.203 F 
ATOM     80  C   UNL A   1      39.985  25.949  27.446  1.00  0.00     0.198 A 
ATOM     81  C   UNL A   1      41.346  27.636  26.414  1.00  0.00     0.198 A 
ATOM     82  F   UNL A   1      41.832  29.627  27.572  1.00  0.00    -0.203 F 
ATOM     83  F   UNL A   1      39.413  24.739  27.414  1.00  0.00    -0.200 F 
ATOM     84  C   UNL A   1      40.734  26.391  26.365  1.00  0.00     0.200 A 
ATOM     85  F   UNL A   1      42.060  28.071  25.366  1.00  0.00    -0.200 F 
ATOM     86  F   UNL A   1      40.871  25.616  25.282  1.00  0.00    -0.200 F 
ENDBRANCH  52  76
BRANCH  64  87
ATOM     87  C   UNL A   1      43.845  28.292  34.732  1.00  0.00     0.064 A 
ATOM     88  C   UNL A   1      45.179  28.710  34.628  1.00  0.00     0.173 A 
ATOM     89  C   UNL A   1      43.576  27.112  35.441  1.00  0.00     0.173 A 
ATOM     90  F   UNL A   1      45.487  29.824  33.947  1.00  0.00    -0.203 F 
ATOM     91  C   UNL A   1      46.207  27.966  35.201  1.00  0.00     0.198 A 
ATOM     92  C   UNL A   1      44.603  26.384  36.033  1.00  0.00     0.198 A 
ATOM     93  F   UNL A   1      42.315  26.674  35.572  1.00  0.00    -0.203 F 
ATOM     94  F   UNL A   1      47.478  28.363  35.059  1.00  0.00    -0.200 F 
ATOM     95  C   UNL A   1      45.917  26.808  35.909  1.00  0.00     0.200 A 
ATOM     96  F   UNL A   1      44.321  25.272  36.727  1.00  0.00    -0.200 F 
ATOM     97  F   UNL A   1      46.907  26.099  36.468  1.00  0.00    -0.200 F 
ENDBRANCH  64  87
ENDBRANCH  38  39
ENDBRANCH  30  33
ENDBRANCH  28  29
ENDBRANCH  27  28
ENDBRANCH  26  27
ENDBRANCH   1  26
TORSDOF 16
ENDMDL
MODEL 2
REMARK VINA RESULT:     -12.1      2.437      8.361
REMARK SMILES C[NH2+][C@@H](C)c1ccc(SCc2ccc(C(=O)NCCCCNC(=O)c3ccc(-c4c5nc(c(-c6c(F)c(F)c(F)c(F)c6F)c6ccc([nH]6)c(-c6c(F)c(F)c(F)c(F)c6F)c6nc(c(-c7c(F)c(F)c(F)c(F)c7F)c7ccc4[nH]7)C=C6)C=C5)cc3)cc2)cc1
REMARK SMILES IDX 18 1 17 2 15 3 16 4 14 6 11 7 12 8 89 9 13 10 88 11 10 12
REMARK SMILES IDX 9 13 8 14 5 15 6 16 91 17 7 18 90 19 3 20 4 21 2 22 1 23
REMARK SMILES IDX 19 26 20 27 21 28 22 29 23 30 24 32 25 33 26 34 87 35 27 36
REMARK SMILES IDX 86 37 28 38 29 39 30 40 80 41 31 42 85 43 79 44 81 45 32 46
REMARK SMILES IDX 84 47 78 48 77 49 33 51 65 52 45 53 64 54 46 55 49 56 63 57
REMARK SMILES IDX 82 58 47 59 48 60 62 62 83 63 50 64 34 65 35 66 43 67 36 68
REMARK SMILES IDX 37 69 41 70 44 71 38 72 39 73 42 74 40 75 66 76 67 77 75 78
REMARK SMILES IDX 68 79 69 80 73 81 76 82 70 83 71 84 74 85 72 86 51 87 52 88
REMARK SMILES IDX 60 89 53 90 54 91 58 92 61 93 55 94 56 95 59 96 57 97
REMARK H PARENT 17 5 2 24 2 25 22 31 81 50 49 61
REMARK Flexibility Score: inf
ROOT
ATOM      1  C   UNL A   1      32.128  29.956  25.350  1.00  0.00     0.116 C 
ENDROOT
BRANCH   1   2
ATOM      2  N   UNL A   1      30.951  30.234  24.553  1.00  0.00    -0.352 N 
ATOM      3  C   UNL A   1      30.197  29.448  23.720  1.00  0.00     0.251 C 
ATOM      4  O   UNL A   1      29.229  29.980  23.173  1.00  0.00    -0.269 OA
ATOM      5  H   UNL A   1      30.633  31.163  24.622  1.00  0.00     0.163 HD
BRANCH   3   6
ATOM      6  C   UNL A   1      30.449  27.995  23.498  1.00  0.00     0.039 A 
ATOM      7  C   UNL A   1      30.959  25.204  23.350  1.00  0.00    -0.038 A 
ATOM      8  C   UNL A   1      30.161  25.735  24.368  1.00  0.00     0.005 A 
ATOM      9  C   UNL A   1      31.409  26.082  22.351  1.00  0.00     0.005 A 
ATOM     10  C   UNL A   1      29.929  27.114  24.454  1.00  0.00     0.014 A 
ATOM     11  C   UNL A   1      31.135  27.453  22.412  1.00  0.00     0.014 A 
BRANCH   7  12
ATOM     12  C   UNL A   1      31.386  23.755  23.248  1.00  0.00     0.110 C 
BRANCH  12  13
ATOM     13  S   UNL A   1      33.155  23.344  23.344  1.00  0.00    -0.121 SA
BRANCH  13  14
ATOM     14  C   UNL A   1      33.198  21.588  23.689  1.00  0.00     0.008 A 
ATOM     15  C   UNL A   1      33.512  18.833  24.288  1.00  0.00     0.009 A 
ATOM     16  C   UNL A   1      34.381  19.788  24.827  1.00  0.00     0.011 A 
ATOM     17  C   UNL A   1      32.466  19.280  23.466  1.00  0.00     0.011 A 
ATOM     18  C   UNL A   1      34.229  21.145  24.528  1.00  0.00     0.015 A 
ATOM     19  C   UNL A   1      32.306  20.642  23.179  1.00  0.00     0.015 A 
BRANCH  15  20
ATOM     20  C   UNL A   1      33.684  17.363  24.651  1.00  0.00     0.210 C 
ATOM     21  C   UNL A   1      32.718  16.934  25.764  1.00  0.00     0.081 C 
BRANCH  20  22
ATOM     22  N   UNL A   1      35.095  17.123  24.978  1.00  0.00    -0.343 N 
ATOM     23  C   UNL A   1      35.390  15.748  25.341  1.00  0.00     0.331 C 
ATOM     24  H   UNL A   1      35.659  17.368  24.164  1.00  0.00     0.346 HD
ATOM     25  H   UNL A   1      35.313  17.697  25.792  1.00  0.00     0.346 HD
ENDBRANCH  20  22
ENDBRANCH  15  20
ENDBRANCH  13  14
ENDBRANCH  12  13
ENDBRANCH   7  12
ENDBRANCH   3   6
ENDBRANCH   1   2
BRANCH   1  26
ATOM     26  C   UNL A   1      31.931  30.445  26.787  1.00  0.00     0.023 C 
BRANCH  26  27
ATOM     27  C   UNL A   1      31.621  31.940  26.905  1.00  0.00     0.023 C 
BRANCH  27  28
ATOM     28  C   UNL A   1      32.790  32.799  27.367  1.00  0.00     0.116 C 
BRANCH  28  29
ATOM     29  N   UNL A   1      32.412  34.173  27.664  1.00  0.00    -0.352 N 
ATOM     30  C   UNL A   1      32.969  35.027  28.585  1.00  0.00     0.251 C 
ATOM     31  H   UNL A   1      31.662  34.535  27.138  1.00  0.00     0.163 HD
ATOM     32  O   UNL A   1      32.481  36.129  28.795  1.00  0.00    -0.269 OA
BRANCH  30  33
ATOM     33  C   UNL A   1      34.144  34.575  29.356  1.00  0.00     0.039 A 
ATOM     34  C   UNL A   1      33.943  33.989  30.607  1.00  0.00     0.014 A 
ATOM     35  C   UNL A   1      35.428  34.681  28.817  1.00  0.00     0.014 A 
ATOM     36  C   UNL A   1      35.029  33.442  31.293  1.00  0.00     0.010 A 
ATOM     37  C   UNL A   1      36.498  34.082  29.472  1.00  0.00     0.010 A 
ATOM     38  C   UNL A   1      36.306  33.452  30.712  1.00  0.00    -0.014 A 
BRANCH  38  39
ATOM     39  C   UNL A   1      37.463  32.805  31.376  1.00  0.00     0.031 A 
ATOM     40  C   UNL A   1      38.152  31.647  30.714  1.00  0.00     0.074 A 
ATOM     41  C   UNL A   1      37.831  33.200  32.609  1.00  0.00     0.049 A 
ATOM     42  N   UNL A   1      39.098  30.870  31.177  1.00  0.00    -0.248 NA
ATOM     43  C   UNL A   1      37.696  31.299  29.358  1.00  0.00     0.031 C 
ATOM     44  C   UNL A   1      37.208  34.283  33.372  1.00  0.00     0.029 A 
ATOM     45  N   UNL A   1      38.807  32.722  33.447  1.00  0.00    -0.354 N 
ATOM     46  C   UNL A   1      39.332  29.930  30.184  1.00  0.00     0.074 A 
ATOM     47  C   UNL A   1      38.402  30.206  29.110  1.00  0.00     0.031 C 
ATOM     48  C   UNL A   1      37.824  34.394  34.560  1.00  0.00     0.029 A 
ATOM     49  C   UNL A   1      38.859  33.369  34.657  1.00  0.00     0.049 A 
ATOM     50  H   UNL A   1      39.413  31.985  33.203  1.00  0.00     0.167 HD
ATOM     51  C   UNL A   1      40.253  28.938  30.163  1.00  0.00     0.037 A 
ATOM     52  C   UNL A   1      39.645  33.150  35.728  1.00  0.00     0.037 A 
ATOM     53  C   UNL A   1      41.197  28.690  31.220  1.00  0.00     0.049 A 
ATOM     54  C   UNL A   1      40.666  32.046  35.675  1.00  0.00     0.074 A 
ATOM     55  C   UNL A   1      42.213  27.750  31.266  1.00  0.00     0.029 A 
ATOM     56  N   UNL A   1      41.243  29.389  32.416  1.00  0.00    -0.354 N 
ATOM     57  N   UNL A   1      40.921  31.201  34.707  1.00  0.00    -0.248 NA
ATOM     58  C   UNL A   1      41.513  31.870  36.864  1.00  0.00     0.031 C 
ATOM     59  C   UNL A   1      42.851  27.859  32.506  1.00  0.00     0.029 A 
ATOM     60  C   UNL A   1      42.259  28.893  33.215  1.00  0.00     0.049 A 
ATOM     61  H   UNL A   1      40.642  30.129  32.661  1.00  0.00     0.167 HD
ATOM     62  C   UNL A   1      41.970  30.412  35.155  1.00  0.00     0.074 A 
ATOM     63  C   UNL A   1      42.314  30.885  36.480  1.00  0.00     0.031 C 
ATOM     64  C   UNL A   1      42.596  29.388  34.525  1.00  0.00     0.037 A 
BRANCH  51  65
ATOM     65  C   UNL A   1      40.285  28.049  28.956  1.00  0.00     0.064 A 
ATOM     66  C   UNL A   1      41.022  28.393  27.811  1.00  0.00     0.173 A 
ATOM     67  C   UNL A   1      39.599  26.826  28.953  1.00  0.00     0.173 A 
ATOM     68  F   UNL A   1      41.684  29.558  27.759  1.00  0.00    -0.203 F 
ATOM     69  C   UNL A   1      41.045  27.557  26.698  1.00  0.00     0.198 A 
ATOM     70  C   UNL A   1      39.647  25.980  27.848  1.00  0.00     0.198 A 
ATOM     71  F   UNL A   1      38.883  26.449  30.023  1.00  0.00    -0.203 F 
ATOM     72  F   UNL A   1      41.716  27.928  25.599  1.00  0.00    -0.200 F 
ATOM     73  C   UNL A   1      40.364  26.349  26.719  1.00  0.00     0.200 A 
ATOM     74  F   UNL A   1      38.997  24.808  27.874  1.00  0.00    -0.200 F 
ATOM     75  F   UNL A   1      40.392  25.544  25.649  1.00  0.00    -0.200 F 
ENDBRANCH  51  65
BRANCH  52  76
ATOM     76  C   UNL A   1      39.515  34.009  36.932  1.00  0.00     0.064 A 
ATOM     77  C   UNL A   1      38.755  33.588  38.033  1.00  0.00     0.173 A 
ATOM     78  C   UNL A   1      40.141  35.261  37.009  1.00  0.00     0.173 A 
ATOM     79  F   UNL A   1      38.121  32.407  37.996  1.00  0.00    -0.203 F 
ATOM     80  C   UNL A   1      38.611  34.396  39.159  1.00  0.00     0.198 A 
ATOM     81  C   UNL A   1      40.017  36.057  38.146  1.00  0.00     0.198 A 
ATOM     82  F   UNL A   1      40.882  35.706  35.985  1.00  0.00    -0.203 F 
ATOM     83  F   UNL A   1      37.847  33.988  40.180  1.00  0.00    -0.200 F 
ATOM     84  C   UNL A   1      39.247  35.627  39.217  1.00  0.00     0.200 A 
ATOM     85  F   UNL A   1      40.642  37.241  38.204  1.00  0.00    -0.200 F 
ATOM     86  F   UNL A   1      39.112  36.402  40.302  1.00  0.00    -0.200 F 
ENDBRANCH  52  76
BRANCH  64  87
ATOM     87  C   UNL A   1      43.738  28.733  35.241  1.00  0.00     0.064 A 
ATOM     88  C   UNL A   1      43.539  27.647  36.104  1.00  0.00     0.173 A 
ATOM     89  C   UNL A   1      45.054  29.167  35.018  1.00  0.00     0.173 A 
ATOM     90  F   UNL A   1      42.298  27.207  36.360  1.00  0.00    -0.203 F 
ATOM     91  C   UNL A   1      44.615  27.026  36.732  1.00  0.00     0.198 A 
ATOM     92  C   UNL A   1      46.129  28.528  35.628  1.00  0.00     0.198 A 
ATOM     93  F   UNL A   1      45.296  30.200  34.197  1.00  0.00    -0.203 F 
ATOM     94  F   UNL A   1      44.400  26.013  37.581  1.00  0.00    -0.200 F 
ATOM     95  C   UNL A   1      45.910  27.462  36.487  1.00  0.00     0.200 A 
ATOM     96  F   UNL A   1      47.381  28.943  35.382  1.00  0.00    -0.200 F 
ATOM     97  F   UNL A   1      46.945  26.857  37.084  1.00  0.00    -0.200 F 
ENDBRANCH  64  87
ENDBRANCH  38  39
ENDBRANCH  30  33
ENDBRANCH  28  29
ENDBRANCH  27  28
ENDBRANCH  26  27
ENDBRANCH   1  26
TORSDOF 16
ENDMDL
MODEL 3
REMARK VINA RESULT:     -12.0      2.094      4.076
REMARK SMILES C[NH2+][C@@H](C)c1ccc(SCc2ccc(C(=O)NCCCCNC(=O)c3ccc(-c4c5nc(c(-c6c(F)c(F)c(F)c(F)c6F)c6ccc([nH]6)c(-c6c(F)c(F)c(F)c(F)c6F)c6nc(c(-c7c(F)c(F)c(F)c(F)c7F)c7ccc4[nH]7)C=C6)C=C5)cc3)cc2)cc1
REMARK SMILES IDX 18 1 17 2 15 3 16 4 14 6 11 7 12 8 89 9 13 10 88 11 10 12
REMARK SMILES IDX 9 13 8 14 5 15 6 16 91 17 7 18 90 19 3 20 4 21 2 22 1 23
REMARK SMILES IDX 19 26 20 27 21 28 22 29 23 30 24 32 25 33 26 34 87 35 27 36
REMARK SMILES IDX 86 37 28 38 29 39 30 40 80 41 31 42 85 43 79 44 81 45 32 46
REMARK SMILES IDX 84 47 78 48 77 49 33 51 65 52 45 53 64 54 46 55 49 56 63 57
REMARK SMILES IDX 82 58 47 59 48 60 62 62 83 63 50 64 34 65 35 66 43 67 36 68
REMARK SMILES IDX 37 69 41 70 44 71 38 72 39 73 42 74 40 75 66 76 67 77 75 78
REMARK SMILES IDX 68 79 69 80 73 81 76 82 70 83 71 84 74 85 72 86 51 87 52 88
REMARK SMILES IDX 60 89 53 90 54 91 58 92 61 93 55 94 56 95 59 96 57 97
REMARK H PARENT 17 5 2 24 2 25 22 31 81 50 49 61
REMARK Flexibility Score: inf
ROOT
ATOM      1  C   UNL A   1      31.849  29.757  27.008  1.00  0.00     0.116 C 
ENDROOT
BRANCH   1   2
ATOM      2  N   UNL A   1      33.256  29.632  27.325  1.00  0.00    -0.352 N 
ATOM      3  C   UNL A   1      34.218  28.743  26.915  1.00  0.00     0.251 C 
ATOM      4  O   UNL A   1      35.354  28.902  27.364  1.00  0.00    -0.269 OA
ATOM      5  H   UNL A   1      33.586  30.315  27.953  1.00  0.00     0.163 HD
BRANCH   3   6
ATOM      6  C   UNL A   1      33.972  27.657  25.924  1.00  0.00     0.039 A 
ATOM      7  C   UNL A   1      33.366  25.772  23.887  1.00  0.00    -0.038 A 
ATOM      8  C   UNL A   1      33.718  27.087  23.567  1.00  0.00     0.005 A 
ATOM      9  C   UNL A   1      33.424  25.393  25.236  1.00  0.00     0.005 A 
ATOM     10  C   UNL A   1      33.994  28.021  24.572  1.00  0.00     0.014 A 
ATOM     11  C   UNL A   1      33.748  26.316  26.237  1.00  0.00     0.014 A 
BRANCH   7  12
ATOM     12  C   UNL A   1      32.912  24.727  22.889  1.00  0.00     0.110 C 
BRANCH  12  13
ATOM     13  S   UNL A   1      31.530  23.628  23.322  1.00  0.00    -0.121 SA
BRANCH  13  14
ATOM     14  C   UNL A   1      32.302  22.073  23.759  1.00  0.00     0.008 A 
ATOM     15  C   UNL A   1      33.333  19.495  24.335  1.00  0.00     0.009 A 
ATOM     16  C   UNL A   1      32.480  19.699  23.244  1.00  0.00     0.011 A 
ATOM     17  C   UNL A   1      33.685  20.606  25.117  1.00  0.00     0.011 A 
ATOM     18  C   UNL A   1      31.968  20.970  22.964  1.00  0.00     0.015 A 
ATOM     19  C   UNL A   1      33.182  21.880  24.826  1.00  0.00     0.015 A 
BRANCH  15  20
ATOM     20  C   UNL A   1      33.898  18.105  24.602  1.00  0.00     0.210 C 
ATOM     21  C   UNL A   1      33.836  17.214  23.354  1.00  0.00     0.081 C 
BRANCH  20  22
ATOM     22  N   UNL A   1      33.206  17.532  25.763  1.00  0.00    -0.343 N 
ATOM     23  C   UNL A   1      32.979  16.101  25.667  1.00  0.00     0.331 C 
ATOM     24  H   UNL A   1      33.770  17.713  26.593  1.00  0.00     0.346 HD
ATOM     25  H   UNL A   1      32.289  17.975  25.809  1.00  0.00     0.346 HD
ENDBRANCH  20  22
ENDBRANCH  15  20
ENDBRANCH  13  14
ENDBRANCH  12  13
ENDBRANCH   7  12
ENDBRANCH   3   6
ENDBRANCH   1   2
BRANCH   1  26
ATOM     26  C   UNL A   1      31.607  30.961  26.097  1.00  0.00     0.023 C 
BRANCH  26  27
ATOM     27  C   UNL A   1      31.355  32.274  26.844  1.00  0.00     0.023 C 
BRANCH  27  28
ATOM     28  C   UNL A   1      32.609  32.970  27.354  1.00  0.00     0.116 C 
BRANCH  28  29
ATOM     29  N   UNL A   1      32.395  34.370  27.689  1.00  0.00    -0.352 N 
ATOM     30  C   UNL A   1      33.056  35.131  28.623  1.00  0.00     0.251 C 
ATOM     31  H   UNL A   1      31.686  34.829  27.182  1.00  0.00     0.163 HD
ATOM     32  O   UNL A   1      32.699  36.275  28.866  1.00  0.00    -0.269 OA
BRANCH  30  33
ATOM     33  C   UNL A   1      34.179  34.527  29.366  1.00  0.00     0.039 A 
ATOM     34  C   UNL A   1      33.907  33.811  30.534  1.00  0.00     0.014 A 
ATOM     35  C   UNL A   1      35.485  34.625  28.879  1.00  0.00     0.014 A 
ATOM     36  C   UNL A   1      34.939  33.129  31.179  1.00  0.00     0.010 A 
ATOM     37  C   UNL A   1      36.500  33.895  29.488  1.00  0.00     0.010 A 
ATOM     38  C   UNL A   1      36.234  33.136  30.638  1.00  0.00    -0.014 A 
BRANCH  38  39
ATOM     39  C   UNL A   1      37.333  32.353  31.252  1.00  0.00     0.031 A 
ATOM     40  C   UNL A   1      37.833  32.713  32.621  1.00  0.00     0.074 A 
ATOM     41  C   UNL A   1      37.935  31.381  30.542  1.00  0.00     0.049 A 
ATOM     42  N   UNL A   1      38.856  32.235  33.282  1.00  0.00    -0.248 NA
ATOM     43  C   UNL A   1      37.100  33.774  33.330  1.00  0.00     0.031 C 
ATOM     44  C   UNL A   1      37.568  30.970  29.186  1.00  0.00     0.029 A 
ATOM     45  N   UNL A   1      39.000  30.573  30.855  1.00  0.00    -0.354 N 
ATOM     46  C   UNL A   1      38.905  32.951  34.469  1.00  0.00     0.074 A 
ATOM     47  C   UNL A   1      37.834  33.924  34.422  1.00  0.00     0.031 C 
ATOM     48  C   UNL A   1      38.385  29.982  28.789  1.00  0.00     0.029 A 
ATOM     49  C   UNL A   1      39.356  29.713  29.846  1.00  0.00     0.049 A 
ATOM     50  H   UNL A   1      39.465  30.608  31.723  1.00  0.00     0.167 HD
ATOM     51  C   UNL A   1      39.753  32.797  35.512  1.00  0.00     0.037 A 
ATOM     52  C   UNL A   1      40.359  28.819  29.778  1.00  0.00     0.037 A 
ATOM     53  C   UNL A   1      40.795  31.805  35.567  1.00  0.00     0.049 A 
ATOM     54  C   UNL A   1      41.284  28.662  30.954  1.00  0.00     0.074 A 
ATOM     55  C   UNL A   1      41.666  31.526  36.606  1.00  0.00     0.029 A 
ATOM     56  N   UNL A   1      41.102  30.928  34.539  1.00  0.00    -0.354 N 
ATOM     57  N   UNL A   1      41.284  29.302  32.097  1.00  0.00    -0.248 NA
ATOM     58  C   UNL A   1      42.346  27.653  30.832  1.00  0.00     0.031 C 
ATOM     59  C   UNL A   1      42.523  30.501  36.192  1.00  0.00     0.029 A 
ATOM     60  C   UNL A   1      42.160  30.115  34.911  1.00  0.00     0.049 A 
ATOM     61  H   UNL A   1      40.636  30.887  33.672  1.00  0.00     0.167 HD
ATOM     62  C   UNL A   1      42.322  28.759  32.840  1.00  0.00     0.074 A 
ATOM     63  C   UNL A   1      42.926  27.728  32.023  1.00  0.00     0.031 C 
ATOM     64  C   UNL A   1      42.737  29.084  34.088  1.00  0.00     0.037 A 
BRANCH  51  65
ATOM     65  C   UNL A   1      39.588  33.722  36.681  1.00  0.00     0.064 A 
ATOM     66  C   UNL A   1      40.211  34.979  36.715  1.00  0.00     0.173 A 
ATOM     67  C   UNL A   1      38.773  33.362  37.765  1.00  0.00     0.173 A 
ATOM     68  F   UNL A   1      41.011  35.364  35.709  1.00  0.00    -0.203 F 
ATOM     69  C   UNL A   1      40.048  35.829  37.805  1.00  0.00     0.198 A 
ATOM     70  C   UNL A   1      38.590  34.227  38.841  1.00  0.00     0.198 A 
ATOM     71  F   UNL A   1      38.153  32.173  37.779  1.00  0.00    -0.203 F 
ATOM     72  F   UNL A   1      40.690  37.005  37.838  1.00  0.00    -0.200 F 
ATOM     73  C   UNL A   1      39.232  35.456  38.864  1.00  0.00     0.200 A 
ATOM     74  F   UNL A   1      37.794  33.869  39.858  1.00  0.00    -0.200 F 
ATOM     75  F   UNL A   1      39.072  36.278  39.910  1.00  0.00    -0.200 F 
ENDBRANCH  51  65
BRANCH  52  76
ATOM     76  C   UNL A   1      40.528  27.985  28.561  1.00  0.00     0.064 A 
ATOM     77  C   UNL A   1      41.307  28.437  27.485  1.00  0.00     0.173 A 
ATOM     78  C   UNL A   1      39.920  26.727  28.445  1.00  0.00     0.173 A 
ATOM     79  F   UNL A   1      41.891  29.643  27.543  1.00  0.00    -0.203 F 
ATOM     80  C   UNL A   1      41.455  27.670  26.332  1.00  0.00     0.198 A 
ATOM     81  C   UNL A   1      40.090  25.950  27.301  1.00  0.00     0.198 A 
ATOM     82  F   UNL A   1      39.171  26.248  29.448  1.00  0.00    -0.203 F 
ATOM     83  F   UNL A   1      42.170  28.143  25.303  1.00  0.00    -0.200 F 
ATOM     84  C   UNL A   1      40.851  26.425  26.242  1.00  0.00     0.200 A 
ATOM     85  F   UNL A   1      39.515  24.742  27.223  1.00  0.00    -0.200 F 
ATOM     86  F   UNL A   1      40.997  25.685  25.135  1.00  0.00    -0.200 F 
ENDBRANCH  52  76
BRANCH  64  87
ATOM     87  C   UNL A   1      43.874  28.293  34.664  1.00  0.00     0.064 A 
ATOM     88  C   UNL A   1      43.659  27.089  35.347  1.00  0.00     0.173 A 
ATOM     89  C   UNL A   1      45.197  28.722  34.481  1.00  0.00     0.173 A 
ATOM     90  F   UNL A   1      42.410  26.646  35.559  1.00  0.00    -0.203 F 
ATOM     91  C   UNL A   1      44.728  26.347  35.841  1.00  0.00     0.198 A 
ATOM     92  C   UNL A   1      46.265  27.966  34.955  1.00  0.00     0.198 A 
ATOM     93  F   UNL A   1      45.454  29.866  33.829  1.00  0.00    -0.203 F 
ATOM     94  F   UNL A   1      44.499  25.217  36.523  1.00  0.00    -0.200 F 
ATOM     95  C   UNL A   1      46.030  26.783  35.638  1.00  0.00     0.200 A 
ATOM     96  F   UNL A   1      47.523  28.381  34.748  1.00  0.00    -0.200 F 
ATOM     97  F   UNL A   1      47.059  26.063  36.106  1.00  0.00    -0.200 F 
ENDBRANCH  64  87
ENDBRANCH  38  39
ENDBRANCH  30  33
ENDBRANCH  28  29
ENDBRANCH  27  28
ENDBRANCH  26  27
ENDBRANCH   1  26
TORSDOF 16
ENDMDL
