MODEL 1
REMARK VINA RESULT:     -13.2      0.000      0.000
REMARK SMILES O=C(NCCCCNC(=O)[C@H]1CCC(=O)N(C[C@@H]2COc3ccccc32)C1)c1ccc(-c2c3nc(c(-c4c(F)c(F)c(F)c(F)c4F)c4ccc([nH]4)c(-c4c(F)c(F)c(F)c(F)c4F)c4nc(c(-c5c(F)c(F)c(F)c(F)c5F)c5ccc2[nH]5)C=C4)C=C3)cc1
REMARK SMILES IDX 5 1 4 2 3 3 1 4 2 5 28 7 29 8 90 9 30 10 89 11 31 12 32 13
REMARK SMILES IDX 33 14 83 15 34 16 88 17 82 18 84 19 35 20 87 21 81 22 80 23
REMARK SMILES IDX 36 25 68 26 48 27 67 28 49 29 52 30 66 31 85 32 50 33 51 34
REMARK SMILES IDX 65 36 86 37 53 38 37 39 38 40 46 41 39 42 40 43 44 44 47 45
REMARK SMILES IDX 41 46 42 47 45 48 43 49 69 50 70 51 78 52 71 53 72 54 76 55
REMARK SMILES IDX 79 56 73 57 74 58 77 59 75 60 54 61 55 62 63 63 56 64 57 65
REMARK SMILES IDX 61 66 64 67 58 68 59 69 62 70 60 71 6 72 7 73 8 74 9 75
REMARK SMILES IDX 10 77 11 78 12 79 27 80 13 81 16 82 14 83 15 84 17 85 18 86
REMARK SMILES IDX 19 87 26 88 20 89 21 90 25 91 22 92 24 93 23 94
REMARK H PARENT 3 6 84 24 52 35 8 76
REMARK Flexibility Score: inf
ROOT
ATOM      1  C   UNL A   1      31.544  32.030  26.831  1.00  0.00     0.023 C 
ENDROOT
BRANCH   1   2
ATOM      2  C   UNL A   1      32.721  32.830  27.376  1.00  0.00     0.116 C 
BRANCH   2   3
ATOM      3  N   UNL A   1      32.395  34.218  27.672  1.00  0.00    -0.352 N 
ATOM      4  O   UNL A   1      32.499  36.177  28.798  1.00  0.00    -0.269 OA
ATOM      5  C   UNL A   1      32.954  35.054  28.610  1.00  0.00     0.251 C 
ATOM      6  H   UNL A   1      31.677  34.613  27.125  1.00  0.00     0.163 HD
BRANCH   5   7
ATOM      7  C   UNL A   1      34.080  34.561  29.424  1.00  0.00     0.039 A 
ATOM      8  C   UNL A   1      35.381  34.591  28.917  1.00  0.00     0.014 A 
ATOM      9  C   UNL A   1      33.818  34.001  30.676  1.00  0.00     0.014 A 
ATOM     10  C   UNL A   1      36.387  33.904  29.581  1.00  0.00     0.010 A 
ATOM     11  C   UNL A   1      34.853  33.387  31.384  1.00  0.00     0.010 A 
ATOM     12  C   UNL A   1      36.133  33.287  30.818  1.00  0.00    -0.014 A 
BRANCH  12  13
ATOM     13  C   UNL A   1      37.230  32.555  31.499  1.00  0.00     0.031 A 
ATOM     14  C   UNL A   1      37.953  31.431  30.812  1.00  0.00     0.074 A 
ATOM     15  C   UNL A   1      37.603  32.949  32.731  1.00  0.00     0.049 A 
ATOM     16  N   UNL A   1      38.960  30.712  31.244  1.00  0.00    -0.248 NA
ATOM     17  C   UNL A   1      37.484  31.054  29.471  1.00  0.00     0.031 C 
ATOM     18  C   UNL A   1      36.969  34.025  33.496  1.00  0.00     0.029 A 
ATOM     19  N   UNL A   1      38.616  32.513  33.544  1.00  0.00    -0.354 N 
ATOM     20  C   UNL A   1      39.223  29.782  30.247  1.00  0.00     0.074 A 
ATOM     21  C   UNL A   1      38.259  30.014  29.191  1.00  0.00     0.031 C 
ATOM     22  C   UNL A   1      37.644  34.206  34.640  1.00  0.00     0.029 A 
ATOM     23  C   UNL A   1      38.719  33.222  34.715  1.00  0.00     0.049 A 
ATOM     24  H   UNL A   1      39.211  31.765  33.311  1.00  0.00     0.167 HD
ATOM     25  C   UNL A   1      40.183  28.827  30.213  1.00  0.00     0.037 A 
ATOM     26  C   UNL A   1      39.583  33.093  35.737  1.00  0.00     0.037 A 
ATOM     27  C   UNL A   1      41.162  28.623  31.251  1.00  0.00     0.049 A 
ATOM     28  C   UNL A   1      40.641  32.031  35.670  1.00  0.00     0.074 A 
ATOM     29  C   UNL A   1      42.204  27.712  31.290  1.00  0.00     0.029 A 
ATOM     30  N   UNL A   1      41.220  29.346  32.435  1.00  0.00    -0.354 N 
ATOM     31  N   UNL A   1      40.896  31.178  34.708  1.00  0.00    -0.248 NA
ATOM     32  C   UNL A   1      41.529  31.912  36.833  1.00  0.00     0.031 C 
ATOM     33  C   UNL A   1      42.867  27.857  32.514  1.00  0.00     0.029 A 
ATOM     34  C   UNL A   1      42.267  28.889  33.218  1.00  0.00     0.049 A 
ATOM     35  H   UNL A   1      40.607  30.076  32.681  1.00  0.00     0.167 HD
ATOM     36  C   UNL A   1      41.986  30.436  35.138  1.00  0.00     0.074 A 
ATOM     37  C   UNL A   1      42.353  30.951  36.442  1.00  0.00     0.031 C 
ATOM     38  C   UNL A   1      42.624  29.418  34.509  1.00  0.00     0.037 A 
BRANCH  25  39
ATOM     39  C   UNL A   1      40.213  27.908  29.026  1.00  0.00     0.064 A 
ATOM     40  C   UNL A   1      40.944  28.215  27.870  1.00  0.00     0.173 A 
ATOM     41  C   UNL A   1      39.528  26.684  29.063  1.00  0.00     0.173 A 
ATOM     42  F   UNL A   1      41.604  29.380  27.778  1.00  0.00    -0.203 F 
ATOM     43  C   UNL A   1      40.969  27.341  26.785  1.00  0.00     0.198 A 
ATOM     44  C   UNL A   1      39.577  25.801  27.987  1.00  0.00     0.198 A 
ATOM     45  F   UNL A   1      38.819  26.338  30.148  1.00  0.00    -0.203 F 
ATOM     46  F   UNL A   1      41.640  27.675  25.673  1.00  0.00    -0.200 F 
ATOM     47  C   UNL A   1      40.291  26.133  26.847  1.00  0.00     0.200 A 
ATOM     48  F   UNL A   1      38.930  24.629  28.054  1.00  0.00    -0.200 F 
ATOM     49  F   UNL A   1      40.321  25.291  25.804  1.00  0.00    -0.200 F 
ENDBRANCH  25  39
BRANCH  26  50
ATOM     50  C   UNL A   1      39.489  34.014  36.896  1.00  0.00     0.064 A 
ATOM     51  C   UNL A   1      38.767  33.654  38.042  1.00  0.00     0.173 A 
ATOM     52  C   UNL A   1      40.140  35.257  36.895  1.00  0.00     0.173 A 
ATOM     53  F   UNL A   1      38.115  32.483  38.082  1.00  0.00    -0.203 F 
ATOM     54  C   UNL A   1      38.692  34.508  39.140  1.00  0.00     0.198 A 
ATOM     55  C   UNL A   1      40.086  36.097  38.004  1.00  0.00     0.198 A 
ATOM     56  F   UNL A   1      40.849  35.642  35.824  1.00  0.00    -0.203 F 
ATOM     57  F   UNL A   1      37.969  34.154  40.212  1.00  0.00    -0.200 F 
ATOM     58  C   UNL A   1      39.357  35.725  39.124  1.00  0.00     0.200 A 
ATOM     59  F   UNL A   1      40.745  37.263  37.990  1.00  0.00    -0.200 F 
ATOM     60  F   UNL A   1      39.294  36.540  40.184  1.00  0.00    -0.200 F 
ENDBRANCH  26  50
BRANCH  38  61
ATOM     61  C   UNL A   1      43.808  28.824  35.211  1.00  0.00     0.064 A 
ATOM     62  C   UNL A   1      45.107  29.314  35.006  1.00  0.00     0.173 A 
ATOM     63  C   UNL A   1      43.637  27.764  36.114  1.00  0.00     0.173 A 
ATOM     64  F   UNL A   1      45.321  30.314  34.139  1.00  0.00    -0.203 F 
ATOM     65  C   UNL A   1      46.195  28.743  35.659  1.00  0.00     0.198 A 
ATOM     66  C   UNL A   1      44.725  27.213  36.784  1.00  0.00     0.198 A 
ATOM     67  F   UNL A   1      42.414  27.265  36.346  1.00  0.00    -0.203 F 
ATOM     68  F   UNL A   1      47.434  29.191  35.410  1.00  0.00    -0.200 F 
ATOM     69  C   UNL A   1      46.004  27.698  36.550  1.00  0.00     0.200 A 
ATOM     70  F   UNL A   1      44.537  26.209  37.652  1.00  0.00    -0.200 F 
ATOM     71  F   UNL A   1      47.053  27.149  37.177  1.00  0.00    -0.200 F 
ENDBRANCH  38  61
ENDBRANCH  12  13
ENDBRANCH   5   7
ENDBRANCH   2   3
ENDBRANCH   1   2
BRANCH   1  72
ATOM     72  C   UNL A   1      31.784  30.528  26.705  1.00  0.00     0.023 C 
BRANCH  72  73
ATOM     73  C   UNL A   1      33.252  30.123  26.683  1.00  0.00     0.116 C 
BRANCH  73  74
ATOM     74  N   UNL A   1      33.695  29.733  25.354  1.00  0.00    -0.356 N 
ATOM     75  C   UNL A   1      33.619  28.499  24.765  1.00  0.00     0.224 C 
ATOM     76  H   UNL A   1      34.099  30.446  24.809  1.00  0.00     0.163 HD
ATOM     77  O   UNL A   1      34.088  28.339  23.641  1.00  0.00    -0.275 OA
BRANCH  75  78
ATOM     78  C   UNL A   1      32.953  27.389  25.547  1.00  0.00     0.098 C 
ATOM     79  C   UNL A   1      31.521  27.155  25.076  1.00  0.00     0.025 C 
ATOM     80  C   UNL A   1      33.669  26.057  25.410  1.00  0.00     0.133 C 
ATOM     81  C   UNL A   1      30.841  26.255  26.087  1.00  0.00     0.101 C 
ATOM     82  N   UNL A   1      33.005  25.002  26.184  1.00  0.00    -0.341 N 
ATOM     83  C   UNL A   1      31.648  25.036  26.501  1.00  0.00     0.222 C 
ATOM     84  O   UNL A   1      31.096  24.152  27.158  1.00  0.00    -0.275 OA
BRANCH  82  85
ATOM     85  C   UNL A   1      33.770  23.788  26.500  1.00  0.00     0.131 C 
BRANCH  85  86
ATOM     86  C   UNL A   1      34.366  23.027  25.304  1.00  0.00     0.080 C 
ATOM     87  C   UNL A   1      33.667  21.687  25.012  1.00  0.00     0.239 C 
ATOM     88  C   UNL A   1      35.776  22.565  25.390  1.00  0.00     0.002 A 
ATOM     89  O   UNL A   1      34.646  20.689  24.647  1.00  0.00    -0.493 OA
ATOM     90  C   UNL A   1      35.848  21.237  25.004  1.00  0.00     0.122 A 
ATOM     91  C   UNL A   1      36.925  23.261  25.725  1.00  0.00     0.008 A 
ATOM     92  C   UNL A   1      37.044  20.549  24.966  1.00  0.00     0.047 A 
ATOM     93  C   UNL A   1      38.146  22.581  25.711  1.00  0.00     0.001 A 
ATOM     94  C   UNL A   1      38.205  21.231  25.336  1.00  0.00     0.004 A 
ENDBRANCH  85  86
ENDBRANCH  82  85
ENDBRANCH  75  78
ENDBRANCH  73  74
ENDBRANCH  72  73
ENDBRANCH   1  72
TORSDOF 13
ENDMDL
MODEL 2
REMARK VINA RESULT:     -13.2      0.474      7.195
REMARK SMILES O=C(NCCCCNC(=O)[C@H]1CCC(=O)N(C[C@@H]2COc3ccccc32)C1)c1ccc(-c2c3nc(c(-c4c(F)c(F)c(F)c(F)c4F)c4ccc([nH]4)c(-c4c(F)c(F)c(F)c(F)c4F)c4nc(c(-c5c(F)c(F)c(F)c(F)c5F)c5ccc2[nH]5)C=C4)C=C3)cc1
REMARK SMILES IDX 5 1 4 2 3 3 1 4 2 5 28 7 29 8 90 9 30 10 89 11 31 12 32 13
REMARK SMILES IDX 33 14 83 15 34 16 88 17 82 18 84 19 35 20 87 21 81 22 80 23
REMARK SMILES IDX 36 25 68 26 48 27 67 28 49 29 52 30 66 31 85 32 50 33 51 34
REMARK SMILES IDX 65 36 86 37 53 38 37 39 38 40 46 41 39 42 40 43 44 44 47 45
REMARK SMILES IDX 41 46 42 47 45 48 43 49 69 50 70 51 78 52 71 53 72 54 76 55
REMARK SMILES IDX 79 56 73 57 74 58 77 59 75 60 54 61 55 62 63 63 56 64 57 65
REMARK SMILES IDX 61 66 64 67 58 68 59 69 62 70 60 71 6 72 7 73 8 74 9 75
REMARK SMILES IDX 10 77 11 78 12 79 27 80 13 81 16 82 14 83 15 84 17 85 18 86
REMARK SMILES IDX 19 87 26 88 20 89 21 90 25 91 22 92 24 93 23 94
REMARK H PARENT 3 6 84 24 52 35 8 76
REMARK Flexibility Score: inf
ROOT
ATOM      1  C   UNL A   1      31.713  32.021  26.687  1.00  0.00     0.023 C 
ENDROOT
BRANCH   1   2
ATOM      2  C   UNL A   1      32.833  32.837  27.320  1.00  0.00     0.116 C 
BRANCH   2   3
ATOM      3  N   UNL A   1      32.432  34.186  27.694  1.00  0.00    -0.352 N 
ATOM      4  O   UNL A   1      32.455  36.095  28.908  1.00  0.00    -0.269 OA
ATOM      5  C   UNL A   1      32.972  35.013  28.650  1.00  0.00     0.251 C 
ATOM      6  H   UNL A   1      31.670  34.558  27.193  1.00  0.00     0.163 HD
BRANCH   5   7
ATOM      7  C   UNL A   1      34.157  34.557  29.400  1.00  0.00     0.039 A 
ATOM      8  C   UNL A   1      35.434  34.702  28.852  1.00  0.00     0.014 A 
ATOM      9  C   UNL A   1      33.979  33.918  30.629  1.00  0.00     0.014 A 
ATOM     10  C   UNL A   1      36.507  34.053  29.446  1.00  0.00     0.010 A 
ATOM     11  C   UNL A   1      35.078  33.341  31.269  1.00  0.00     0.010 A 
ATOM     12  C   UNL A   1      36.340  33.358  30.656  1.00  0.00    -0.014 A 
BRANCH  12  13
ATOM     13  C   UNL A   1      37.507  32.669  31.260  1.00  0.00     0.031 A 
ATOM     14  C   UNL A   1      37.963  32.996  32.655  1.00  0.00     0.074 A 
ATOM     15  C   UNL A   1      38.125  31.703  30.554  1.00  0.00     0.049 A 
ATOM     16  N   UNL A   1      38.937  32.463  33.351  1.00  0.00    -0.248 NA
ATOM     17  C   UNL A   1      37.243  34.067  33.359  1.00  0.00     0.031 C 
ATOM     18  C   UNL A   1      37.771  31.305  29.190  1.00  0.00     0.029 A 
ATOM     19  N   UNL A   1      39.156  30.865  30.891  1.00  0.00    -0.354 N 
ATOM     20  C   UNL A   1      38.966  33.151  34.557  1.00  0.00     0.074 A 
ATOM     21  C   UNL A   1      37.924  34.154  34.495  1.00  0.00     0.031 C 
ATOM     22  C   UNL A   1      38.531  30.261  28.828  1.00  0.00     0.029 A 
ATOM     23  C   UNL A   1      39.462  29.956  29.910  1.00  0.00     0.049 A 
ATOM     24  H   UNL A   1      39.630  30.912  31.752  1.00  0.00     0.167 HD
ATOM     25  C   UNL A   1      39.784  32.958  35.620  1.00  0.00     0.037 A 
ATOM     26  C   UNL A   1      40.391  28.985  29.882  1.00  0.00     0.037 A 
ATOM     27  C   UNL A   1      40.797  31.935  35.691  1.00  0.00     0.049 A 
ATOM     28  C   UNL A   1      41.279  28.790  31.077  1.00  0.00     0.074 A 
ATOM     29  C   UNL A   1      41.646  31.630  36.740  1.00  0.00     0.029 A 
ATOM     30  N   UNL A   1      41.094  31.047  34.666  1.00  0.00    -0.354 N 
ATOM     31  N   UNL A   1      41.277  29.429  32.222  1.00  0.00    -0.248 NA
ATOM     32  C   UNL A   1      42.301  27.741  30.973  1.00  0.00     0.031 C 
ATOM     33  C   UNL A   1      42.483  30.584  36.337  1.00  0.00     0.029 A 
ATOM     34  C   UNL A   1      42.125  30.207  35.052  1.00  0.00     0.049 A 
ATOM     35  H   UNL A   1      40.639  31.019  33.794  1.00  0.00     0.167 HD
ATOM     36  C   UNL A   1      42.279  28.845  32.983  1.00  0.00     0.074 A 
ATOM     37  C   UNL A   1      42.858  27.792  32.174  1.00  0.00     0.031 C 
ATOM     38  C   UNL A   1      42.684  29.158  34.239  1.00  0.00     0.037 A 
BRANCH  25  39
ATOM     39  C   UNL A   1      39.639  33.888  36.790  1.00  0.00     0.064 A 
ATOM     40  C   UNL A   1      40.250  35.150  36.815  1.00  0.00     0.173 A 
ATOM     41  C   UNL A   1      38.842  33.523  37.887  1.00  0.00     0.173 A 
ATOM     42  F   UNL A   1      41.033  35.540  35.798  1.00  0.00    -0.203 F 
ATOM     43  C   UNL A   1      40.090  36.002  37.906  1.00  0.00     0.198 A 
ATOM     44  C   UNL A   1      38.663  34.388  38.963  1.00  0.00     0.198 A 
ATOM     45  F   UNL A   1      38.230  32.330  37.911  1.00  0.00    -0.203 F 
ATOM     46  F   UNL A   1      40.719  37.186  37.927  1.00  0.00    -0.200 F 
ATOM     47  C   UNL A   1      39.292  35.623  38.975  1.00  0.00     0.200 A 
ATOM     48  F   UNL A   1      37.883  34.025  39.991  1.00  0.00    -0.200 F 
ATOM     49  F   UNL A   1      39.135  36.447  40.021  1.00  0.00    -0.200 F 
ENDBRANCH  25  39
BRANCH  26  50
ATOM     50  C   UNL A   1      40.506  28.113  28.688  1.00  0.00     0.064 A 
ATOM     51  C   UNL A   1      39.823  26.891  28.623  1.00  0.00     0.173 A 
ATOM     52  C   UNL A   1      41.274  28.495  27.578  1.00  0.00     0.173 A 
ATOM     53  F   UNL A   1      39.090  26.478  29.667  1.00  0.00    -0.203 F 
ATOM     54  C   UNL A   1      39.913  26.078  27.496  1.00  0.00     0.198 A 
ATOM     55  C   UNL A   1      41.341  27.694  26.441  1.00  0.00     0.198 A 
ATOM     56  F   UNL A   1      41.939  29.659  27.590  1.00  0.00    -0.203 F 
ATOM     57  F   UNL A   1      39.276  24.899  27.472  1.00  0.00    -0.200 F 
ATOM     58  C   UNL A   1      40.664  26.483  26.403  1.00  0.00     0.200 A 
ATOM     59  F   UNL A   1      42.053  28.097  25.381  1.00  0.00    -0.200 F 
ATOM     60  F   UNL A   1      40.741  25.706  25.315  1.00  0.00    -0.200 F 
ENDBRANCH  26  50
BRANCH  38  61
ATOM     61  C   UNL A   1      43.780  28.320  34.825  1.00  0.00     0.064 A 
ATOM     62  C   UNL A   1      45.129  28.688  34.709  1.00  0.00     0.173 A 
ATOM     63  C   UNL A   1      43.475  27.145  35.527  1.00  0.00     0.173 A 
ATOM     64  F   UNL A   1      45.470  29.794  34.032  1.00  0.00    -0.203 F 
ATOM     65  C   UNL A   1      46.134  27.893  35.251  1.00  0.00     0.198 A 
ATOM     66  C   UNL A   1      44.482  26.366  36.090  1.00  0.00     0.198 A 
ATOM     67  F   UNL A   1      42.200  26.754  35.668  1.00  0.00    -0.203 F 
ATOM     68  F   UNL A   1      47.420  28.235  35.084  1.00  0.00    -0.200 F 
ATOM     69  C   UNL A   1      45.811  26.736  35.944  1.00  0.00     0.200 A 
ATOM     70  F   UNL A   1      44.167  25.253  36.767  1.00  0.00    -0.200 F 
ATOM     71  F   UNL A   1      46.780  25.971  36.465  1.00  0.00    -0.200 F 
ENDBRANCH  38  61
ENDBRANCH  12  13
ENDBRANCH   5   7
ENDBRANCH   2   3
ENDBRANCH   1   2
BRANCH   1  72
ATOM     72  C   UNL A   1      31.832  30.509  26.865  1.00  0.00     0.023 C 
BRANCH  72  73
ATOM     73  C   UNL A   1      33.263  29.987  26.884  1.00  0.00     0.116 C 
BRANCH  73  74
ATOM     74  N   UNL A   1      33.738  29.635  25.556  1.00  0.00    -0.356 N 
ATOM     75  C   UNL A   1      33.646  28.428  24.917  1.00  0.00     0.224 C 
ATOM     76  H   UNL A   1      34.181  30.356  25.053  1.00  0.00     0.163 HD
ATOM     77  O   UNL A   1      34.147  28.297  23.803  1.00  0.00    -0.275 OA
BRANCH  75  78
ATOM     78  C   UNL A   1      32.923  27.309  25.633  1.00  0.00     0.098 C 
ATOM     79  C   UNL A   1      31.525  27.092  25.062  1.00  0.00     0.025 C 
ATOM     80  C   UNL A   1      33.639  25.975  25.521  1.00  0.00     0.133 C 
ATOM     81  C   UNL A   1      30.773  26.180  26.009  1.00  0.00     0.101 C 
ATOM     82  N   UNL A   1      32.918  24.911  26.230  1.00  0.00    -0.341 N 
ATOM     83  C   UNL A   1      31.544  24.949  26.456  1.00  0.00     0.222 C 
ATOM     84  O   UNL A   1      30.943  24.058  27.058  1.00  0.00    -0.275 OA
BRANCH  82  85
ATOM     85  C   UNL A   1      33.654  23.687  26.576  1.00  0.00     0.131 C 
BRANCH  85  86
ATOM     86  C   UNL A   1      34.164  22.842  25.397  1.00  0.00     0.080 C 
ATOM     87  C   UNL A   1      33.486  21.464  25.285  1.00  0.00     0.239 C 
ATOM     88  C   UNL A   1      35.590  22.425  25.389  1.00  0.00     0.002 A 
ATOM     89  O   UNL A   1      34.460  20.463  24.914  1.00  0.00    -0.493 OA
ATOM     90  C   UNL A   1      35.671  21.071  25.110  1.00  0.00     0.122 A 
ATOM     91  C   UNL A   1      36.741  23.176  25.556  1.00  0.00     0.008 A 
ATOM     92  C   UNL A   1      36.881  20.413  25.018  1.00  0.00     0.047 A 
ATOM     93  C   UNL A   1      37.977  22.529  25.484  1.00  0.00     0.001 A 
ATOM     94  C   UNL A   1      38.047  21.153  25.219  1.00  0.00     0.004 A 
ENDBRANCH  85  86
ENDBRANCH  82  85
ENDBRANCH  75  78
ENDBRANCH  73  74
ENDBRANCH  72  73
ENDBRANCH   1  72
TORSDOF 13
ENDMDL
MODEL 3
REMARK VINA RESULT:     -13.1      0.468      7.453
REMARK SMILES O=C(NCCCCNC(=O)[C@H]1CCC(=O)N(C[C@@H]2COc3ccccc32)C1)c1ccc(-c2c3nc(c(-c4c(F)c(F)c(F)c(F)c4F)c4ccc([nH]4)c(-c4c(F)c(F)c(F)c(F)c4F)c4nc(c(-c5c(F)c(F)c(F)c(F)c5F)c5ccc2[nH]5)C=C4)C=C3)cc1
REMARK SMILES IDX 5 1 4 2 3 3 1 4 2 5 28 7 29 8 90 9 30 10 89 11 31 12 32 13
REMARK SMILES IDX 33 14 83 15 34 16 88 17 82 18 84 19 35 20 87 21 81 22 80 23
REMARK SMILES IDX 36 25 68 26 48 27 67 28 49 29 52 30 66 31 85 32 50 33 51 34
REMARK SMILES IDX 65 36 86 37 53 38 37 39 38 40 46 41 39 42 40 43 44 44 47 45
REMARK SMILES IDX 41 46 42 47 45 48 43 49 69 50 70 51 78 52 71 53 72 54 76 55
REMARK SMILES IDX 79 56 73 57 74 58 77 59 75 60 54 61 55 62 63 63 56 64 57 65
REMARK SMILES IDX 61 66 64 67 58 68 59 69 62 70 60 71 6 72 7 73 8 74 9 75
REMARK SMILES IDX 10 77 11 78 12 79 27 80 13 81 16 82 14 83 15 84 17 85 18 86
REMARK SMILES IDX 19 87 26 88 20 89 21 90 25 91 22 92 24 93 23 94
REMARK H PARENT 3 6 84 24 52 35 8 76
REMARK Flexibility Score: inf
ROOT
ATOM      1  C   UNL A   1      31.688  32.043  26.576  1.00  0.00     0.023 C 
ENDROOT
BRANCH   1   2
ATOM      2  C   UNL A   1      32.727  32.761  27.430  1.00  0.00     0.116 C 
BRANCH   2   3
ATOM      3  N   UNL A   1      32.370  34.138  27.746  1.00  0.00    -0.352 N 
ATOM      4  O   UNL A   1      32.472  36.101  28.864  1.00  0.00    -0.269 OA
ATOM      5  C   UNL A   1      32.954  34.995  28.649  1.00  0.00     0.251 C 
ATOM      6  H   UNL A   1      31.607  34.506  27.243  1.00  0.00     0.163 HD
BRANCH   5   7
ATOM      7  C   UNL A   1      34.143  34.543  29.395  1.00  0.00     0.039 A 
ATOM      8  C   UNL A   1      35.418  34.701  28.847  1.00  0.00     0.014 A 
ATOM      9  C   UNL A   1      33.971  33.893  30.619  1.00  0.00     0.014 A 
ATOM     10  C   UNL A   1      36.497  34.055  29.435  1.00  0.00     0.010 A 
ATOM     11  C   UNL A   1      35.074  33.320  31.254  1.00  0.00     0.010 A 
ATOM     12  C   UNL A   1      36.336  33.352  30.641  1.00  0.00    -0.014 A 
BRANCH  12  13
ATOM     13  C   UNL A   1      37.508  32.667  31.240  1.00  0.00     0.031 A 
ATOM     14  C   UNL A   1      37.978  33.006  32.627  1.00  0.00     0.074 A 
ATOM     15  C   UNL A   1      38.119  31.694  30.536  1.00  0.00     0.049 A 
ATOM     16  N   UNL A   1      38.958  32.478  33.319  1.00  0.00    -0.248 NA
ATOM     17  C   UNL A   1      37.265  34.084  33.329  1.00  0.00     0.031 C 
ATOM     18  C   UNL A   1      37.751  31.284  29.180  1.00  0.00     0.029 A 
ATOM     19  N   UNL A   1      39.152  30.859  30.870  1.00  0.00    -0.354 N 
ATOM     20  C   UNL A   1      38.999  33.177  34.518  1.00  0.00     0.074 A 
ATOM     21  C   UNL A   1      37.957  34.180  34.457  1.00  0.00     0.031 C 
ATOM     22  C   UNL A   1      38.507  30.237  28.819  1.00  0.00     0.029 A 
ATOM     23  C   UNL A   1      39.448  29.941  29.894  1.00  0.00     0.049 A 
ATOM     24  H   UNL A   1      39.635  30.913  31.726  1.00  0.00     0.167 HD
ATOM     25  C   UNL A   1      39.828  32.993  35.574  1.00  0.00     0.037 A 
ATOM     26  C   UNL A   1      40.377  28.969  29.866  1.00  0.00     0.037 A 
ATOM     27  C   UNL A   1      40.841  31.970  35.644  1.00  0.00     0.049 A 
ATOM     28  C   UNL A   1      41.276  28.784  31.053  1.00  0.00     0.074 A 
ATOM     29  C   UNL A   1      41.700  31.674  36.688  1.00  0.00     0.029 A 
ATOM     30  N   UNL A   1      41.127  31.073  34.624  1.00  0.00    -0.354 N 
ATOM     31  N   UNL A   1      41.285  29.433  32.193  1.00  0.00    -0.248 NA
ATOM     32  C   UNL A   1      42.296  27.734  30.949  1.00  0.00     0.031 C 
ATOM     33  C   UNL A   1      42.533  30.624  36.286  1.00  0.00     0.029 A 
ATOM     34  C   UNL A   1      42.162  30.235  35.008  1.00  0.00     0.049 A 
ATOM     35  H   UNL A   1      40.664  31.037  33.757  1.00  0.00     0.167 HD
ATOM     36  C   UNL A   1      42.295  28.856  32.949  1.00  0.00     0.074 A 
ATOM     37  C   UNL A   1      42.865  27.795  32.144  1.00  0.00     0.031 C 
ATOM     38  C   UNL A   1      42.712  29.179  34.198  1.00  0.00     0.037 A 
BRANCH  25  39
ATOM     39  C   UNL A   1      39.694  33.933  36.738  1.00  0.00     0.064 A 
ATOM     40  C   UNL A   1      38.907  33.621  37.856  1.00  0.00     0.173 A 
ATOM     41  C   UNL A   1      40.396  35.148  36.748  1.00  0.00     0.173 A 
ATOM     42  F   UNL A   1      38.204  32.478  37.889  1.00  0.00    -0.203 F 
ATOM     43  C   UNL A   1      38.809  34.502  38.931  1.00  0.00     0.198 A 
ATOM     44  C   UNL A   1      40.316  36.014  37.836  1.00  0.00     0.198 A 
ATOM     45  F   UNL A   1      41.168  35.493  35.708  1.00  0.00    -0.203 F 
ATOM     46  F   UNL A   1      38.016  34.202  39.970  1.00  0.00    -0.200 F 
ATOM     47  C   UNL A   1      39.518  35.694  38.923  1.00  0.00     0.200 A 
ATOM     48  F   UNL A   1      41.011  37.160  37.832  1.00  0.00    -0.200 F 
ATOM     49  F   UNL A   1      39.425  36.537  39.961  1.00  0.00    -0.200 F 
ENDBRANCH  25  39
BRANCH  26  50
ATOM     50  C   UNL A   1      40.479  28.087  28.678  1.00  0.00     0.064 A 
ATOM     51  C   UNL A   1      41.254  28.460  27.572  1.00  0.00     0.173 A 
ATOM     52  C   UNL A   1      39.830  26.844  28.635  1.00  0.00     0.173 A 
ATOM     53  F   UNL A   1      41.879  29.646  27.562  1.00  0.00    -0.203 F 
ATOM     54  C   UNL A   1      41.368  27.627  26.462  1.00  0.00     0.198 A 
ATOM     55  C   UNL A   1      39.967  26.000  27.536  1.00  0.00     0.198 A 
ATOM     56  F   UNL A   1      39.084  26.440  29.673  1.00  0.00    -0.203 F 
ATOM     57  F   UNL A   1      42.089  28.021  25.403  1.00  0.00    -0.200 F 
ATOM     58  C   UNL A   1      40.732  26.395  26.447  1.00  0.00     0.200 A 
ATOM     59  F   UNL A   1      39.365  24.804  27.534  1.00  0.00    -0.200 F 
ATOM     60  F   UNL A   1      40.851  25.589  25.385  1.00  0.00    -0.200 F 
ENDBRANCH  26  50
BRANCH  38  61
ATOM     61  C   UNL A   1      43.814  28.346  34.781  1.00  0.00     0.064 A 
ATOM     62  C   UNL A   1      43.548  27.166  35.492  1.00  0.00     0.173 A 
ATOM     63  C   UNL A   1      45.154  28.725  34.608  1.00  0.00     0.173 A 
ATOM     64  F   UNL A   1      42.282  26.774  35.697  1.00  0.00    -0.203 F 
ATOM     65  C   UNL A   1      44.584  26.411  36.034  1.00  0.00     0.198 A 
ATOM     66  C   UNL A   1      46.188  27.953  35.130  1.00  0.00     0.198 A 
ATOM     67  F   UNL A   1      45.458  29.842  33.932  1.00  0.00    -0.203 F 
ATOM     68  F   UNL A   1      44.306  25.316  36.754  1.00  0.00    -0.200 F 
ATOM     69  C   UNL A   1      45.902  26.802  35.849  1.00  0.00     0.200 A 
ATOM     70  F   UNL A   1      47.461  28.327  34.943  1.00  0.00    -0.200 F 
ATOM     71  F   UNL A   1      46.898  26.073  36.373  1.00  0.00    -0.200 F 
ENDBRANCH  38  61
ENDBRANCH  12  13
ENDBRANCH   5   7
ENDBRANCH   2   3
ENDBRANCH   1   2
BRANCH   1  72
ATOM     72  C   UNL A   1      31.814  30.522  26.548  1.00  0.00     0.023 C 
BRANCH  72  73
ATOM     73  C   UNL A   1      33.246  30.005  26.597  1.00  0.00     0.116 C 
BRANCH  73  74
ATOM     74  N   UNL A   1      33.718  29.568  25.293  1.00  0.00    -0.356 N 
ATOM     75  C   UNL A   1      33.637  28.317  24.740  1.00  0.00     0.224 C 
ATOM     76  H   UNL A   1      34.149  30.256  24.739  1.00  0.00     0.163 HD
ATOM     77  O   UNL A   1      34.134  28.115  23.635  1.00  0.00    -0.275 OA
BRANCH  75  78
ATOM     78  C   UNL A   1      32.931  27.243  25.537  1.00  0.00     0.098 C 
ATOM     79  C   UNL A   1      31.486  27.067  25.081  1.00  0.00     0.025 C 
ATOM     80  C   UNL A   1      33.588  25.881  25.404  1.00  0.00     0.133 C 
ATOM     81  C   UNL A   1      30.778  26.205  26.105  1.00  0.00     0.101 C 
ATOM     82  N   UNL A   1      32.886  24.861  26.192  1.00  0.00    -0.341 N 
ATOM     83  C   UNL A   1      31.535  24.955  26.521  1.00  0.00     0.222 C 
ATOM     84  O   UNL A   1      30.951  24.101  27.189  1.00  0.00    -0.275 OA
BRANCH  82  85
ATOM     85  C   UNL A   1      33.601  23.617  26.510  1.00  0.00     0.131 C 
BRANCH  85  86
ATOM     86  C   UNL A   1      34.183  22.841  25.318  1.00  0.00     0.080 C 
ATOM     87  C   UNL A   1      33.544  21.456  25.109  1.00  0.00     0.239 C 
ATOM     88  C   UNL A   1      35.618  22.455  25.356  1.00  0.00     0.002 A 
ATOM     89  O   UNL A   1      34.557  20.495  24.736  1.00  0.00    -0.493 OA
ATOM     90  C   UNL A   1      35.743  21.118  25.017  1.00  0.00     0.122 A 
ATOM     91  C   UNL A   1      36.742  23.221  25.611  1.00  0.00     0.008 A 
ATOM     92  C   UNL A   1      36.971  20.491  24.950  1.00  0.00     0.047 A 
ATOM     93  C   UNL A   1      37.995  22.605  25.567  1.00  0.00     0.001 A 
ATOM     94  C   UNL A   1      38.109  21.245  25.240  1.00  0.00     0.004 A 
ENDBRANCH  85  86
ENDBRANCH  82  85
ENDBRANCH  75  78
ENDBRANCH  73  74
ENDBRANCH  72  73
ENDBRANCH   1  72
TORSDOF 13
ENDMDL
