MODEL 1
REMARK VINA RESULT:     -12.9      0.000      0.000
REMARK SMILES O=C(NCCCCNC(=O)[C@@H]1[C@@H](C(=O)N2CC[NH+](C/C=C/c3ccccc3)CC2)[C@@H]2C=C[C@H]1C2)c1ccc(-c2c3nc(c(-c4c(F)c(F)c(F)c(F)c4F)c4ccc([nH]4)c(-c4c(F)c(F)c(F)c(F)c4F)c4nc(c(-c5c(F)c(F)c(F)c(F)c5F)c5ccc2[nH]5)C=C4)C=C3)cc1
REMARK SMILES IDX 6 1 5 2 4 3 3 4 1 5 2 6 35 8 36 9 97 10 37 11 96 12 38 13
REMARK SMILES IDX 39 14 40 15 90 16 41 17 95 18 89 19 91 20 42 21 94 22 88 23
REMARK SMILES IDX 87 24 43 26 75 27 55 28 74 29 56 30 59 31 73 32 92 33 57 34
REMARK SMILES IDX 58 35 72 37 93 38 60 39 44 40 45 41 53 42 46 43 47 44 51 45
REMARK SMILES IDX 54 46 48 47 49 48 52 49 50 50 76 51 77 52 85 53 78 54 79 55
REMARK SMILES IDX 83 56 86 57 80 58 81 59 84 60 82 61 61 62 62 63 70 64 63 65
REMARK SMILES IDX 64 66 68 67 71 68 65 69 66 70 69 71 67 72 7 73 8 74 9 75
REMARK SMILES IDX 10 77 11 78 12 79 33 80 30 81 32 82 34 83 31 84 13 85 14 86
REMARK SMILES IDX 15 87 16 88 29 89 17 90 28 91 18 92 19 94 20 95 21 96 22 97
REMARK SMILES IDX 23 98 27 99 24 100 26 101 25 102
REMARK H PARENT 3 7 91 25 59 36 8 76 18 93
REMARK Flexibility Score: inf
ROOT
ATOM      1  C   UNL A   1      31.621  30.802  25.965  1.00  0.00     0.023 C 
ENDROOT
BRANCH   1   2
ATOM      2  C   UNL A   1      31.521  31.835  27.079  1.00  0.00     0.023 C 
BRANCH   2   3
ATOM      3  C   UNL A   1      32.753  32.716  27.242  1.00  0.00     0.116 C 
BRANCH   3   4
ATOM      4  N   UNL A   1      32.436  34.096  27.587  1.00  0.00    -0.352 N 
ATOM      5  O   UNL A   1      32.560  36.001  28.801  1.00  0.00    -0.269 OA
ATOM      6  C   UNL A   1      33.011  34.895  28.550  1.00  0.00     0.251 C 
ATOM      7  H   UNL A   1      31.716  34.512  27.061  1.00  0.00     0.163 HD
BRANCH   6   8
ATOM      8  C   UNL A   1      34.166  34.369  29.302  1.00  0.00     0.039 A 
ATOM      9  C   UNL A   1      35.464  34.637  28.864  1.00  0.00     0.014 A 
ATOM     10  C   UNL A   1      33.942  33.547  30.408  1.00  0.00     0.014 A 
ATOM     11  C   UNL A   1      36.529  33.950  29.426  1.00  0.00     0.010 A 
ATOM     12  C   UNL A   1      35.026  32.931  31.035  1.00  0.00     0.010 A 
ATOM     13  C   UNL A   1      36.323  33.097  30.523  1.00  0.00    -0.014 A 
BRANCH  13  14
ATOM     14  C   UNL A   1      37.492  32.430  31.145  1.00  0.00     0.031 A 
ATOM     15  C   UNL A   1      37.941  32.779  32.535  1.00  0.00     0.074 A 
ATOM     16  C   UNL A   1      38.128  31.473  30.444  1.00  0.00     0.049 A 
ATOM     17  N   UNL A   1      38.932  32.279  33.230  1.00  0.00    -0.248 NA
ATOM     18  C   UNL A   1      37.188  33.830  33.236  1.00  0.00     0.031 C 
ATOM     19  C   UNL A   1      37.778  31.058  29.084  1.00  0.00     0.029 A 
ATOM     20  N   UNL A   1      39.181  30.664  30.780  1.00  0.00    -0.354 N 
ATOM     21  C   UNL A   1      38.938  32.968  34.436  1.00  0.00     0.074 A 
ATOM     22  C   UNL A   1      37.866  33.938  34.371  1.00  0.00     0.031 C 
ATOM     23  C   UNL A   1      38.565  30.036  28.722  1.00  0.00     0.029 A 
ATOM     24  C   UNL A   1      39.517  29.770  29.794  1.00  0.00     0.049 A 
ATOM     25  H   UNL A   1      39.650  30.718  31.644  1.00  0.00     0.167 HD
ATOM     26  C   UNL A   1      39.763  32.799  35.499  1.00  0.00     0.037 A 
ATOM     27  C   UNL A   1      40.494  28.848  29.751  1.00  0.00     0.037 A 
ATOM     28  C   UNL A   1      40.816  31.817  35.559  1.00  0.00     0.049 A 
ATOM     29  C   UNL A   1      41.406  28.699  30.931  1.00  0.00     0.074 A 
ATOM     30  C   UNL A   1      41.678  31.536  36.605  1.00  0.00     0.029 A 
ATOM     31  N   UNL A   1      41.153  30.955  34.523  1.00  0.00    -0.354 N 
ATOM     32  N   UNL A   1      41.385  29.336  32.077  1.00  0.00    -0.248 NA
ATOM     33  C   UNL A   1      42.481  27.707  30.812  1.00  0.00     0.031 C 
ATOM     34  C   UNL A   1      42.567  30.540  36.186  1.00  0.00     0.029 A 
ATOM     35  C   UNL A   1      42.228  30.161  34.897  1.00  0.00     0.049 A 
ATOM     36  H   UNL A   1      40.696  30.912  33.653  1.00  0.00     0.167 HD
ATOM     37  C   UNL A   1      42.431  28.815  32.822  1.00  0.00     0.074 A 
ATOM     38  C   UNL A   1      43.056  27.794  32.003  1.00  0.00     0.031 C 
ATOM     39  C   UNL A   1      42.839  29.153  34.068  1.00  0.00     0.037 A 
BRANCH  26  40
ATOM     40  C   UNL A   1      39.577  33.714  36.675  1.00  0.00     0.064 A 
ATOM     41  C   UNL A   1      38.780  33.357  37.773  1.00  0.00     0.173 A 
ATOM     42  C   UNL A   1      40.232  34.956  36.717  1.00  0.00     0.173 A 
ATOM     43  F   UNL A   1      38.124  32.188  37.780  1.00  0.00    -0.203 F 
ATOM     44  C   UNL A   1      38.623  34.221  38.856  1.00  0.00     0.198 A 
ATOM     45  C   UNL A   1      40.094  35.804  37.813  1.00  0.00     0.198 A 
ATOM     46  F   UNL A   1      41.011  35.343  35.697  1.00  0.00    -0.203 F 
ATOM     47  F   UNL A   1      37.818  33.880  39.872  1.00  0.00    -0.200 F 
ATOM     48  C   UNL A   1      39.284  35.440  38.877  1.00  0.00     0.200 A 
ATOM     49  F   UNL A   1      40.744  36.976  37.837  1.00  0.00    -0.200 F 
ATOM     50  F   UNL A   1      39.133  36.269  39.919  1.00  0.00    -0.200 F 
ENDBRANCH  26  40
BRANCH  27  51
ATOM     51  C   UNL A   1      40.640  27.999  28.543  1.00  0.00     0.064 A 
ATOM     52  C   UNL A   1      39.987  26.763  28.451  1.00  0.00     0.173 A 
ATOM     53  C   UNL A   1      41.397  28.424  27.441  1.00  0.00     0.173 A 
ATOM     54  F   UNL A   1      39.264  26.309  29.486  1.00  0.00    -0.203 F 
ATOM     55  C   UNL A   1      40.090  25.982  27.303  1.00  0.00     0.198 A 
ATOM     56  C   UNL A   1      41.476  27.655  26.283  1.00  0.00     0.198 A 
ATOM     57  F   UNL A   1      42.034  29.605  27.479  1.00  0.00    -0.203 F 
ATOM     58  F   UNL A   1      39.477  24.791  27.248  1.00  0.00    -0.200 F 
ATOM     59  C   UNL A   1      40.826  26.432  26.217  1.00  0.00     0.200 A 
ATOM     60  F   UNL A   1      42.171  28.104  25.230  1.00  0.00    -0.200 F 
ATOM     61  F   UNL A   1      40.910  25.687  25.106  1.00  0.00    -0.200 F 
ENDBRANCH  27  51
BRANCH  39  62
ATOM     62  C   UNL A   1      44.003  28.392  34.631  1.00  0.00     0.064 A 
ATOM     63  C   UNL A   1      45.319  28.859  34.500  1.00  0.00     0.173 A 
ATOM     64  C   UNL A   1      43.796  27.191  35.326  1.00  0.00     0.173 A 
ATOM     65  F   UNL A   1      45.569  29.993  33.828  1.00  0.00    -0.203 F 
ATOM     66  C   UNL A   1      46.389  28.138  35.022  1.00  0.00     0.198 A 
ATOM     67  C   UNL A   1      44.866  26.487  35.871  1.00  0.00     0.198 A 
ATOM     68  F   UNL A   1      42.556  26.704  35.480  1.00  0.00    -0.203 F 
ATOM     69  F   UNL A   1      47.642  28.577  34.843  1.00  0.00    -0.200 F 
ATOM     70  C   UNL A   1      46.161  26.956  35.713  1.00  0.00     0.200 A 
ATOM     71  F   UNL A   1      44.644  25.351  36.546  1.00  0.00    -0.200 F 
ATOM     72  F   UNL A   1      47.192  26.264  36.216  1.00  0.00    -0.200 F 
ENDBRANCH  39  62
ENDBRANCH  13  14
ENDBRANCH   6   8
ENDBRANCH   3   4
ENDBRANCH   2   3
ENDBRANCH   1   2
BRANCH   1  73
ATOM     73  C   UNL A   1      32.616  29.684  26.244  1.00  0.00     0.116 C 
BRANCH  73  74
ATOM     74  N   UNL A   1      33.491  29.431  25.113  1.00  0.00    -0.356 N 
ATOM     75  C   UNL A   1      33.503  28.332  24.291  1.00  0.00     0.224 C 
ATOM     76  H   UNL A   1      34.153  30.131  24.910  1.00  0.00     0.163 HD
ATOM     77  O   UNL A   1      34.328  28.264  23.384  1.00  0.00    -0.275 OA
BRANCH  75  78
ATOM     78  C   UNL A   1      32.458  27.272  24.558  1.00  0.00     0.098 C 
ATOM     79  C   UNL A   1      32.708  25.864  23.918  1.00  0.00     0.098 C 
ATOM     80  C   UNL A   1      31.059  27.672  24.028  1.00  0.00     0.025 C 
ATOM     81  C   UNL A   1      31.339  25.611  23.222  1.00  0.00     0.025 C 
ATOM     82  C   UNL A   1      31.087  27.783  22.523  1.00  0.00    -0.027 C 
ATOM     83  C   UNL A   1      30.347  26.326  24.151  1.00  0.00     0.017 C 
ATOM     84  C   UNL A   1      31.254  26.545  22.038  1.00  0.00    -0.027 C 
BRANCH  79  85
ATOM     85  C   UNL A   1      33.048  24.944  25.087  1.00  0.00     0.227 C 
ATOM     86  O   UNL A   1      32.362  24.922  26.110  1.00  0.00    -0.275 OA
ATOM     87  N   UNL A   1      34.057  24.032  24.878  1.00  0.00    -0.331 N 
ATOM     88  C   UNL A   1      33.857  22.680  25.385  1.00  0.00     0.181 C 
ATOM     89  C   UNL A   1      35.440  24.488  24.813  1.00  0.00     0.181 C 
ATOM     90  C   UNL A   1      34.791  21.669  24.700  1.00  0.00     0.284 C 
ATOM     91  C   UNL A   1      36.366  23.445  24.157  1.00  0.00     0.284 C 
ATOM     92  N   UNL A   1      36.211  22.058  24.628  1.00  0.00    -0.329 N 
ATOM     93  H   UNL A   1      36.643  21.478  23.909  1.00  0.00     0.348 HD
BRANCH  92  94
ATOM     94  C   UNL A   1      36.995  21.701  25.814  1.00  0.00     0.291 C 
BRANCH  94  95
ATOM     95  C   UNL A   1      38.433  21.355  25.573  1.00  0.00     0.034 C 
ATOM     96  C   UNL A   1      39.426  21.606  26.440  1.00  0.00     0.009 C 
BRANCH  96  97
ATOM     97  C   UNL A   1      40.846  21.455  26.098  1.00  0.00    -0.026 A 
ATOM     98  C   UNL A   1      41.432  20.185  26.105  1.00  0.00     0.008 A 
ATOM     99  C   UNL A   1      41.665  22.576  25.891  1.00  0.00     0.008 A 
ATOM    100  C   UNL A   1      42.808  20.041  25.901  1.00  0.00     0.001 A 
ATOM    101  C   UNL A   1      43.040  22.433  25.701  1.00  0.00     0.001 A 
ATOM    102  C   UNL A   1      43.612  21.165  25.707  1.00  0.00     0.000 A 
ENDBRANCH  96  97
ENDBRANCH  94  95
ENDBRANCH  92  94
ENDBRANCH  79  85
ENDBRANCH  75  78
ENDBRANCH  73  74
ENDBRANCH   1  73
TORSDOF 15
ENDMDL
MODEL 2
REMARK VINA RESULT:     -12.8      1.035      7.154
REMARK SMILES O=C(NCCCCNC(=O)[C@@H]1[C@@H](C(=O)N2CC[NH+](C/C=C/c3ccccc3)CC2)[C@@H]2C=C[C@H]1C2)c1ccc(-c2c3nc(c(-c4c(F)c(F)c(F)c(F)c4F)c4ccc([nH]4)c(-c4c(F)c(F)c(F)c(F)c4F)c4nc(c(-c5c(F)c(F)c(F)c(F)c5F)c5ccc2[nH]5)C=C4)C=C3)cc1
REMARK SMILES IDX 6 1 5 2 4 3 3 4 1 5 2 6 35 8 36 9 97 10 37 11 96 12 38 13
REMARK SMILES IDX 39 14 40 15 90 16 41 17 95 18 89 19 91 20 42 21 94 22 88 23
REMARK SMILES IDX 87 24 43 26 75 27 55 28 74 29 56 30 59 31 73 32 92 33 57 34
REMARK SMILES IDX 58 35 72 37 93 38 60 39 44 40 45 41 53 42 46 43 47 44 51 45
REMARK SMILES IDX 54 46 48 47 49 48 52 49 50 50 76 51 77 52 85 53 78 54 79 55
REMARK SMILES IDX 83 56 86 57 80 58 81 59 84 60 82 61 61 62 62 63 70 64 63 65
REMARK SMILES IDX 64 66 68 67 71 68 65 69 66 70 69 71 67 72 7 73 8 74 9 75
REMARK SMILES IDX 10 77 11 78 12 79 33 80 30 81 32 82 34 83 31 84 13 85 14 86
REMARK SMILES IDX 15 87 16 88 29 89 17 90 28 91 18 92 19 94 20 95 21 96 22 97
REMARK SMILES IDX 23 98 27 99 24 100 26 101 25 102
REMARK H PARENT 3 7 91 25 59 36 8 76 18 93
REMARK Flexibility Score: inf
ROOT
ATOM      1  C   UNL A   1      31.706  30.920  26.119  1.00  0.00     0.023 C 
ENDROOT
BRANCH   1   2
ATOM      2  C   UNL A   1      31.581  32.025  27.160  1.00  0.00     0.023 C 
BRANCH   2   3
ATOM      3  C   UNL A   1      32.790  32.947  27.257  1.00  0.00     0.116 C 
BRANCH   3   4
ATOM      4  N   UNL A   1      32.447  34.311  27.639  1.00  0.00    -0.352 N 
ATOM      5  O   UNL A   1      32.505  36.172  28.925  1.00  0.00    -0.269 OA
ATOM      6  C   UNL A   1      32.975  35.079  28.652  1.00  0.00     0.251 C 
ATOM      7  H   UNL A   1      31.745  34.741  27.099  1.00  0.00     0.163 HD
BRANCH   6   8
ATOM      8  C   UNL A   1      34.104  34.534  29.431  1.00  0.00     0.039 A 
ATOM      9  C   UNL A   1      35.406  34.641  28.939  1.00  0.00     0.014 A 
ATOM     10  C   UNL A   1      33.844  33.854  30.623  1.00  0.00     0.014 A 
ATOM     11  C   UNL A   1      36.425  33.925  29.549  1.00  0.00     0.010 A 
ATOM     12  C   UNL A   1      34.891  33.214  31.288  1.00  0.00     0.010 A 
ATOM     13  C   UNL A   1      36.181  33.211  30.734  1.00  0.00    -0.014 A 
BRANCH  13  14
ATOM     14  C   UNL A   1      37.307  32.512  31.398  1.00  0.00     0.031 A 
ATOM     15  C   UNL A   1      38.047  31.399  30.713  1.00  0.00     0.074 A 
ATOM     16  C   UNL A   1      37.677  32.922  32.626  1.00  0.00     0.049 A 
ATOM     17  N   UNL A   1      39.063  30.696  31.148  1.00  0.00    -0.248 NA
ATOM     18  C   UNL A   1      37.584  31.017  29.370  1.00  0.00     0.031 C 
ATOM     19  C   UNL A   1      37.025  33.991  33.385  1.00  0.00     0.029 A 
ATOM     20  N   UNL A   1      38.698  32.508  33.440  1.00  0.00    -0.354 N 
ATOM     21  C   UNL A   1      39.345  29.776  30.147  1.00  0.00     0.074 A 
ATOM     22  C   UNL A   1      38.380  29.993  29.091  1.00  0.00     0.031 C 
ATOM     23  C   UNL A   1      37.693  34.186  34.529  1.00  0.00     0.029 A 
ATOM     24  C   UNL A   1      38.777  33.214  34.615  1.00  0.00     0.049 A 
ATOM     25  H   UNL A   1      39.315  31.778  33.206  1.00  0.00     0.167 HD
ATOM     26  C   UNL A   1      40.326  28.840  30.116  1.00  0.00     0.037 A 
ATOM     27  C   UNL A   1      39.618  33.082  35.655  1.00  0.00     0.037 A 
ATOM     28  C   UNL A   1      41.294  28.645  31.166  1.00  0.00     0.049 A 
ATOM     29  C   UNL A   1      40.677  32.023  35.603  1.00  0.00     0.074 A 
ATOM     30  C   UNL A   1      42.353  27.754  31.211  1.00  0.00     0.029 A 
ATOM     31  N   UNL A   1      41.317  29.352  32.361  1.00  0.00    -0.354 N 
ATOM     32  N   UNL A   1      40.953  31.177  34.641  1.00  0.00    -0.248 NA
ATOM     33  C   UNL A   1      41.540  31.896  36.784  1.00  0.00     0.031 C 
ATOM     34  C   UNL A   1      42.986  27.888  32.452  1.00  0.00     0.029 A 
ATOM     35  C   UNL A   1      42.356  28.899  33.161  1.00  0.00     0.049 A 
ATOM     36  H   UNL A   1      40.690  30.070  32.604  1.00  0.00     0.167 HD
ATOM     37  C   UNL A   1      42.028  30.426  35.090  1.00  0.00     0.074 A 
ATOM     38  C   UNL A   1      42.367  30.932  36.406  1.00  0.00     0.031 C 
ATOM     39  C   UNL A   1      42.675  29.410  34.470  1.00  0.00     0.037 A 
BRANCH  26  40
ATOM     40  C   UNL A   1      40.386  27.936  28.918  1.00  0.00     0.064 A 
ATOM     41  C   UNL A   1      41.175  28.239  27.798  1.00  0.00     0.173 A 
ATOM     42  C   UNL A   1      39.665  26.731  28.903  1.00  0.00     0.173 A 
ATOM     43  F   UNL A   1      41.875  29.382  27.755  1.00  0.00    -0.203 F 
ATOM     44  C   UNL A   1      41.218  27.385  26.698  1.00  0.00     0.198 A 
ATOM     45  C   UNL A   1      39.732  25.866  27.813  1.00  0.00     0.198 A 
ATOM     46  F   UNL A   1      38.900  26.388  29.950  1.00  0.00    -0.203 F 
ATOM     47  F   UNL A   1      41.941  27.719  25.620  1.00  0.00    -0.200 F 
ATOM     48  C   UNL A   1      40.501  26.197  26.708  1.00  0.00     0.200 A 
ATOM     49  F   UNL A   1      39.048  24.714  27.831  1.00  0.00    -0.200 F 
ATOM     50  F   UNL A   1      40.544  25.377  25.650  1.00  0.00    -0.200 F 
ENDBRANCH  26  40
BRANCH  27  51
ATOM     51  C   UNL A   1      39.481  33.989  36.821  1.00  0.00     0.064 A 
ATOM     52  C   UNL A   1      38.741  33.606  37.946  1.00  0.00     0.173 A 
ATOM     53  C   UNL A   1      40.125  35.236  36.854  1.00  0.00     0.173 A 
ATOM     54  F   UNL A   1      38.096  32.429  37.955  1.00  0.00    -0.203 F 
ATOM     55  C   UNL A   1      38.644  34.438  39.059  1.00  0.00     0.198 A 
ATOM     56  C   UNL A   1      40.050  36.054  37.977  1.00  0.00     0.198 A 
ATOM     57  F   UNL A   1      40.853  35.643  35.802  1.00  0.00    -0.203 F 
ATOM     58  F   UNL A   1      37.907  34.060  40.113  1.00  0.00    -0.200 F 
ATOM     59  C   UNL A   1      39.306  35.656  39.077  1.00  0.00     0.200 A 
ATOM     60  F   UNL A   1      40.708  37.220  37.998  1.00  0.00    -0.200 F 
ATOM     61  F   UNL A   1      39.226  36.449  40.155  1.00  0.00    -0.200 F 
ENDBRANCH  27  51
BRANCH  39  62
ATOM     62  C   UNL A   1      43.831  28.794  35.202  1.00  0.00     0.064 A 
ATOM     63  C   UNL A   1      45.139  29.271  35.043  1.00  0.00     0.173 A 
ATOM     64  C   UNL A   1      43.621  27.726  36.087  1.00  0.00     0.173 A 
ATOM     65  F   UNL A   1      45.392  30.279  34.194  1.00  0.00    -0.203 F 
ATOM     66  C   UNL A   1      46.202  28.685  35.725  1.00  0.00     0.198 A 
ATOM     67  C   UNL A   1      44.682  27.160  36.789  1.00  0.00     0.198 A 
ATOM     68  F   UNL A   1      42.387  27.235  36.276  1.00  0.00    -0.203 F 
ATOM     69  F   UNL A   1      47.451  29.124  35.520  1.00  0.00    -0.200 F 
ATOM     70  C   UNL A   1      45.972  27.635  36.601  1.00  0.00     0.200 A 
ATOM     71  F   UNL A   1      44.457  26.152  37.642  1.00  0.00    -0.200 F 
ATOM     72  F   UNL A   1      46.996  27.072  37.258  1.00  0.00    -0.200 F 
ENDBRANCH  39  62
ENDBRANCH  13  14
ENDBRANCH   6   8
ENDBRANCH   3   4
ENDBRANCH   2   3
ENDBRANCH   1   2
BRANCH   1  73
ATOM     73  C   UNL A   1      32.897  29.997  26.335  1.00  0.00     0.116 C 
BRANCH  73  74
ATOM     74  N   UNL A   1      33.629  29.746  25.106  1.00  0.00    -0.356 N 
ATOM     75  C   UNL A   1      33.493  28.681  24.251  1.00  0.00     0.224 C 
ATOM     76  H   UNL A   1      34.303  30.419  24.856  1.00  0.00     0.163 HD
ATOM     77  O   UNL A   1      34.211  28.608  23.257  1.00  0.00    -0.275 OA
BRANCH  75  78
ATOM     78  C   UNL A   1      32.428  27.665  24.595  1.00  0.00     0.098 C 
ATOM     79  C   UNL A   1      32.564  26.254  23.929  1.00  0.00     0.098 C 
ATOM     80  C   UNL A   1      31.010  28.130  24.183  1.00  0.00     0.025 C 
ATOM     81  C   UNL A   1      31.134  26.067  23.344  1.00  0.00     0.025 C 
ATOM     82  C   UNL A   1      30.922  28.255  22.681  1.00  0.00    -0.027 C 
ATOM     83  C   UNL A   1      30.252  26.815  24.355  1.00  0.00     0.017 C 
ATOM     84  C   UNL A   1      30.994  27.015  22.176  1.00  0.00    -0.027 C 
BRANCH  79  85
ATOM     85  C   UNL A   1      32.956  25.308  25.060  1.00  0.00     0.227 C 
ATOM     86  O   UNL A   1      33.289  25.733  26.168  1.00  0.00    -0.275 OA
ATOM     87  N   UNL A   1      32.767  23.965  24.832  1.00  0.00    -0.331 N 
ATOM     88  C   UNL A   1      32.216  23.169  25.921  1.00  0.00     0.181 C 
ATOM     89  C   UNL A   1      33.650  23.257  23.912  1.00  0.00     0.181 C 
ATOM     90  C   UNL A   1      31.620  21.844  25.417  1.00  0.00     0.284 C 
ATOM     91  C   UNL A   1      33.051  21.916  23.448  1.00  0.00     0.284 C 
ATOM     92  N   UNL A   1      32.477  21.065  24.504  1.00  0.00    -0.329 N 
ATOM     93  H   UNL A   1      31.871  20.403  24.020  1.00  0.00     0.348 HD
BRANCH  92  94
ATOM     94  C   UNL A   1      33.422  20.171  25.180  1.00  0.00     0.291 C 
BRANCH  94  95
ATOM     95  C   UNL A   1      34.821  20.683  25.330  1.00  0.00     0.034 C 
ATOM     96  C   UNL A   1      35.905  20.084  24.812  1.00  0.00     0.009 C 
BRANCH  96  97
ATOM     97  C   UNL A   1      37.278  20.482  25.148  1.00  0.00    -0.026 A 
ATOM     98  C   UNL A   1      38.294  19.521  25.176  1.00  0.00     0.008 A 
ATOM     99  C   UNL A   1      37.571  21.787  25.573  1.00  0.00     0.008 A 
ATOM    100  C   UNL A   1      39.578  19.863  25.612  1.00  0.00     0.001 A 
ATOM    101  C   UNL A   1      38.849  22.126  26.020  1.00  0.00     0.001 A 
ATOM    102  C   UNL A   1      39.852  21.162  26.041  1.00  0.00     0.000 A 
ENDBRANCH  96  97
ENDBRANCH  94  95
ENDBRANCH  92  94
ENDBRANCH  79  85
ENDBRANCH  75  78
ENDBRANCH  73  74
ENDBRANCH   1  73
TORSDOF 15
ENDMDL
MODEL 3
REMARK VINA RESULT:     -12.8      5.092     11.647
REMARK SMILES O=C(NCCCCNC(=O)[C@@H]1[C@@H](C(=O)N2CC[NH+](C/C=C/c3ccccc3)CC2)[C@@H]2C=C[C@H]1C2)c1ccc(-c2c3nc(c(-c4c(F)c(F)c(F)c(F)c4F)c4ccc([nH]4)c(-c4c(F)c(F)c(F)c(F)c4F)c4nc(c(-c5c(F)c(F)c(F)c(F)c5F)c5ccc2[nH]5)C=C4)C=C3)cc1
REMARK SMILES IDX 6 1 5 2 4 3 3 4 1 5 2 6 35 8 36 9 97 10 37 11 96 12 38 13
REMARK SMILES IDX 39 14 40 15 90 16 41 17 95 18 89 19 91 20 42 21 94 22 88 23
REMARK SMILES IDX 87 24 43 26 75 27 55 28 74 29 56 30 59 31 73 32 92 33 57 34
REMARK SMILES IDX 58 35 72 37 93 38 60 39 44 40 45 41 53 42 46 43 47 44 51 45
REMARK SMILES IDX 54 46 48 47 49 48 52 49 50 50 76 51 77 52 85 53 78 54 79 55
REMARK SMILES IDX 83 56 86 57 80 58 81 59 84 60 82 61 61 62 62 63 70 64 63 65
REMARK SMILES IDX 64 66 68 67 71 68 65 69 66 70 69 71 67 72 7 73 8 74 9 75
REMARK SMILES IDX 10 77 11 78 12 79 33 80 30 81 32 82 34 83 31 84 13 85 14 86
REMARK SMILES IDX 15 87 16 88 29 89 17 90 28 91 18 92 19 94 20 95 21 96 22 97
REMARK SMILES IDX 23 98 27 99 24 100 26 101 25 102
REMARK H PARENT 3 7 91 25 59 36 8 76 18 93
REMARK Flexibility Score: inf
ROOT
ATOM      1  C   UNL A   1      37.474  20.809  24.428  1.00  0.00     0.023 C 
ENDROOT
BRANCH   1   2
ATOM      2  C   UNL A   1      38.224  19.639  25.051  1.00  0.00     0.023 C 
BRANCH   2   3
ATOM      3  C   UNL A   1      39.475  20.027  25.829  1.00  0.00     0.116 C 
BRANCH   3   4
ATOM      4  N   UNL A   1      40.476  18.969  25.878  1.00  0.00    -0.352 N 
ATOM      5  O   UNL A   1      42.565  18.106  25.984  1.00  0.00    -0.269 OA
ATOM      6  C   UNL A   1      41.833  19.078  26.083  1.00  0.00     0.251 C 
ATOM      7  H   UNL A   1      40.136  18.054  25.748  1.00  0.00     0.163 HD
BRANCH   6   8
ATOM      8  C   UNL A   1      42.392  20.408  26.390  1.00  0.00     0.039 A 
ATOM      9  C   UNL A   1      42.331  20.907  27.692  1.00  0.00     0.014 A 
ATOM     10  C   UNL A   1      42.915  21.183  25.352  1.00  0.00     0.014 A 
ATOM     11  C   UNL A   1      42.636  22.239  27.927  1.00  0.00     0.010 A 
ATOM     12  C   UNL A   1      43.313  22.496  25.612  1.00  0.00     0.010 A 
ATOM     13  C   UNL A   1      43.138  23.045  26.891  1.00  0.00    -0.014 A 
BRANCH  13  14
ATOM     14  C   UNL A   1      43.519  24.447  27.191  1.00  0.00     0.031 A 
ATOM     15  C   UNL A   1      44.900  24.959  26.900  1.00  0.00     0.074 A 
ATOM     16  C   UNL A   1      42.582  25.267  27.704  1.00  0.00     0.049 A 
ATOM     17  N   UNL A   1      45.389  26.159  27.087  1.00  0.00    -0.248 NA
ATOM     18  C   UNL A   1      45.862  24.001  26.333  1.00  0.00     0.031 C 
ATOM     19  C   UNL A   1      41.210  24.872  28.029  1.00  0.00     0.029 A 
ATOM     20  N   UNL A   1      42.631  26.598  28.020  1.00  0.00    -0.354 N 
ATOM     21  C   UNL A   1      46.718  26.096  26.686  1.00  0.00     0.074 A 
ATOM     22  C   UNL A   1      46.966  24.733  26.267  1.00  0.00     0.031 C 
ATOM     23  C   UNL A   1      40.532  25.949  28.447  1.00  0.00     0.029 A 
ATOM     24  C   UNL A   1      41.437  27.092  28.484  1.00  0.00     0.049 A 
ATOM     25  H   UNL A   1      43.442  27.148  27.923  1.00  0.00     0.167 HD
ATOM     26  C   UNL A   1      47.640  27.090  26.667  1.00  0.00     0.037 A 
ATOM     27  C   UNL A   1      41.110  28.324  28.908  1.00  0.00     0.037 A 
ATOM     28  C   UNL A   1      47.376  28.448  27.071  1.00  0.00     0.049 A 
ATOM     29  C   UNL A   1      42.157  29.398  28.898  1.00  0.00     0.074 A 
ATOM     30  C   UNL A   1      48.229  29.538  27.048  1.00  0.00     0.029 A 
ATOM     31  N   UNL A   1      46.164  28.902  27.574  1.00  0.00    -0.354 N 
ATOM     32  N   UNL A   1      43.401  29.334  28.491  1.00  0.00    -0.248 NA
ATOM     33  C   UNL A   1      41.756  30.713  29.412  1.00  0.00     0.031 C 
ATOM     34  C   UNL A   1      47.550  30.638  27.584  1.00  0.00     0.029 A 
ATOM     35  C   UNL A   1      46.256  30.249  27.892  1.00  0.00     0.049 A 
ATOM     36  H   UNL A   1      45.358  28.349  27.688  1.00  0.00     0.167 HD
ATOM     37  C   UNL A   1      43.931  30.600  28.685  1.00  0.00     0.074 A 
ATOM     38  C   UNL A   1      42.863  31.418  29.229  1.00  0.00     0.031 C 
ATOM     39  C   UNL A   1      45.186  31.045  28.437  1.00  0.00     0.037 A 
BRANCH  26  40
ATOM     40  C   UNL A   1      49.030  26.739  26.221  1.00  0.00     0.064 A 
ATOM     41  C   UNL A   1      49.966  26.161  27.092  1.00  0.00     0.173 A 
ATOM     42  C   UNL A   1      49.423  26.956  24.890  1.00  0.00     0.173 A 
ATOM     43  F   UNL A   1      49.647  25.941  28.376  1.00  0.00    -0.203 F 
ATOM     44  C   UNL A   1      51.250  25.841  26.655  1.00  0.00     0.198 A 
ATOM     45  C   UNL A   1      50.699  26.610  24.451  1.00  0.00     0.198 A 
ATOM     46  F   UNL A   1      48.566  27.500  24.013  1.00  0.00    -0.203 F 
ATOM     47  F   UNL A   1      52.142  25.334  27.518  1.00  0.00    -0.200 F 
ATOM     48  C   UNL A   1      51.614  26.060  25.335  1.00  0.00     0.200 A 
ATOM     49  F   UNL A   1      51.043  26.811  23.172  1.00  0.00    -0.200 F 
ATOM     50  F   UNL A   1      52.848  25.751  24.917  1.00  0.00    -0.200 F 
ENDBRANCH  26  40
BRANCH  27  51
ATOM     51  C   UNL A   1      39.725  28.593  29.366  1.00  0.00     0.064 A 
ATOM     52  C   UNL A   1      39.356  28.376  30.699  1.00  0.00     0.173 A 
ATOM     53  C   UNL A   1      38.757  29.114  28.494  1.00  0.00     0.173 A 
ATOM     54  F   UNL A   1      40.243  27.865  31.566  1.00  0.00    -0.203 F 
ATOM     55  C   UNL A   1      38.067  28.665  31.143  1.00  0.00     0.198 A 
ATOM     56  C   UNL A   1      37.479  29.429  28.945  1.00  0.00     0.198 A 
ATOM     57  F   UNL A   1      39.067  29.347  27.209  1.00  0.00    -0.203 F 
ATOM     58  F   UNL A   1      37.730  28.424  32.417  1.00  0.00    -0.200 F 
ATOM     59  C   UNL A   1      37.133  29.200  30.268  1.00  0.00     0.200 A 
ATOM     60  F   UNL A   1      36.587  29.964  28.101  1.00  0.00    -0.200 F 
ATOM     61  F   UNL A   1      35.899  29.494  30.700  1.00  0.00    -0.200 F 
ENDBRANCH  27  51
BRANCH  39  62
ATOM     62  C   UNL A   1      45.464  32.490  28.730  1.00  0.00     0.064 A 
ATOM     63  C   UNL A   1      45.960  32.904  29.975  1.00  0.00     0.173 A 
ATOM     64  C   UNL A   1      45.250  33.467  27.747  1.00  0.00     0.173 A 
ATOM     65  F   UNL A   1      46.163  32.009  30.953  1.00  0.00    -0.203 F 
ATOM     66  C   UNL A   1      46.207  34.249  30.234  1.00  0.00     0.198 A 
ATOM     67  C   UNL A   1      45.525  34.808  28.001  1.00  0.00     0.198 A 
ATOM     68  F   UNL A   1      44.779  33.121  26.540  1.00  0.00    -0.203 F 
ATOM     69  F   UNL A   1      46.633  34.629  31.446  1.00  0.00    -0.200 F 
ATOM     70  C   UNL A   1      45.996  35.200  29.245  1.00  0.00     0.200 A 
ATOM     71  F   UNL A   1      45.329  35.724  27.041  1.00  0.00    -0.200 F 
ATOM     72  F   UNL A   1      46.236  36.494  29.495  1.00  0.00    -0.200 F 
ENDBRANCH  39  62
ENDBRANCH  13  14
ENDBRANCH   6   8
ENDBRANCH   3   4
ENDBRANCH   2   3
ENDBRANCH   1   2
BRANCH   1  73
ATOM     73  C   UNL A   1      37.335  22.016  25.346  1.00  0.00     0.116 C 
BRANCH  73  74
ATOM     74  N   UNL A   1      36.446  21.759  26.465  1.00  0.00    -0.356 N 
ATOM     75  C   UNL A   1      35.074  21.773  26.466  1.00  0.00     0.224 C 
ATOM     76  H   UNL A   1      36.878  21.548  27.324  1.00  0.00     0.163 HD
ATOM     77  O   UNL A   1      34.468  21.552  27.511  1.00  0.00    -0.275 OA
BRANCH  75  78
ATOM     78  C   UNL A   1      34.396  22.045  25.142  1.00  0.00     0.098 C 
ATOM     79  C   UNL A   1      33.102  22.927  25.186  1.00  0.00     0.098 C 
ATOM     80  C   UNL A   1      33.931  20.748  24.436  1.00  0.00     0.025 C 
ATOM     81  C   UNL A   1      32.117  22.044  24.365  1.00  0.00     0.025 C 
ATOM     82  C   UNL A   1      32.865  20.064  25.257  1.00  0.00    -0.027 C 
ATOM     83  C   UNL A   1      33.042  21.354  23.352  1.00  0.00     0.017 C 
ATOM     84  C   UNL A   1      31.774  20.842  25.214  1.00  0.00    -0.027 C 
BRANCH  79  85
ATOM     85  C   UNL A   1      33.498  24.258  24.552  1.00  0.00     0.227 C 
ATOM     86  O   UNL A   1      34.515  24.366  23.865  1.00  0.00    -0.275 OA
ATOM     87  N   UNL A   1      32.585  25.283  24.654  1.00  0.00    -0.331 N 
ATOM     88  C   UNL A   1      32.374  26.114  23.476  1.00  0.00     0.181 C 
ATOM     89  C   UNL A   1      32.377  25.938  25.940  1.00  0.00     0.181 C 
ATOM     90  C   UNL A   1      31.044  26.881  23.549  1.00  0.00     0.284 C 
ATOM     91  C   UNL A   1      31.057  26.732  25.980  1.00  0.00     0.284 C 
ATOM     92  N   UNL A   1      30.785  27.592  24.815  1.00  0.00    -0.329 N 
ATOM     93  H   UNL A   1      29.784  27.786  24.848  1.00  0.00     0.348 HD
BRANCH  92  94
ATOM     94  C   UNL A   1      31.356  28.940  24.877  1.00  0.00     0.291 C 
BRANCH  94  95
ATOM     95  C   UNL A   1      30.579  30.016  24.181  1.00  0.00     0.034 C 
ATOM     96  C   UNL A   1      29.431  29.810  23.517  1.00  0.00     0.009 C 
BRANCH  96  97
ATOM     97  C   UNL A   1      28.803  30.831  22.667  1.00  0.00    -0.026 A 
ATOM     98  C   UNL A   1      28.406  30.505  21.367  1.00  0.00     0.008 A 
ATOM     99  C   UNL A   1      28.712  32.167  23.087  1.00  0.00     0.008 A 
ATOM    100  C   UNL A   1      27.919  31.495  20.509  1.00  0.00     0.001 A 
ATOM    101  C   UNL A   1      28.239  33.158  22.226  1.00  0.00     0.001 A 
ATOM    102  C   UNL A   1      27.843  32.821  20.935  1.00  0.00     0.000 A 
ENDBRANCH  96  97
ENDBRANCH  94  95
ENDBRANCH  92  94
ENDBRANCH  79  85
ENDBRANCH  75  78
ENDBRANCH  73  74
ENDBRANCH   1  73
TORSDOF 15
ENDMDL
