MODEL 1
REMARK VINA RESULT:     -11.6      0.000      0.000
REMARK SMILES O=C(Cc1cccnc1Cl)NCCCCNC(=O)c1ccc(-c2c3nc(c(-c4c(F)c(F)c(F)c(F)c4F)c4ccc([nH]4)c(-c4c(F)c(F)c(F)c(F)c4F)c4nc(c(-c5c(F)c(F)c(F)c(F)c5F)c5ccc2[nH]5)C=C4)C=C3)cc1
REMARK SMILES IDX 14 1 13 2 12 3 11 4 1 5 2 6 3 8 4 9 5 10 9 11 6 12 8 13
REMARK SMILES IDX 10 14 7 15 15 16 16 17 17 18 18 20 19 21 20 22 81 23 21 24
REMARK SMILES IDX 80 25 22 26 23 27 24 28 74 29 25 30 79 31 73 32 75 33 26 34
REMARK SMILES IDX 78 35 72 36 71 37 27 39 59 40 39 41 58 42 40 43 43 44 57 45
REMARK SMILES IDX 76 46 41 47 42 48 56 50 77 51 44 52 28 53 29 54 37 55 30 56
REMARK SMILES IDX 31 57 35 58 38 59 32 60 33 61 36 62 34 63 60 64 61 65 69 66
REMARK SMILES IDX 62 67 63 68 67 69 70 70 64 71 65 72 68 73 66 74 45 75 46 76
REMARK SMILES IDX 54 77 47 78 48 79 52 80 55 81 49 82 50 83 53 84 51 85
REMARK H PARENT 11 7 16 19 75 38 43 49
REMARK Flexibility Score: inf
ROOT
ATOM      1  C   UNL A   1      31.574  32.027  26.846  1.00  0.00     0.023 C 
ENDROOT
BRANCH   1   2
ATOM      2  C   UNL A   1      31.776  30.511  26.863  1.00  0.00     0.023 C 
BRANCH   2   3
ATOM      3  C   UNL A   1      32.798  29.983  25.860  1.00  0.00     0.116 C 
BRANCH   3   4
ATOM      4  N   UNL A   1      32.223  29.697  24.558  1.00  0.00    -0.356 N 
ATOM      5  O   UNL A   1      33.127  27.592  24.393  1.00  0.00    -0.275 OA
ATOM      6  C   UNL A   1      32.366  28.457  23.969  1.00  0.00     0.224 C 
ATOM      7  H   UNL A   1      31.723  30.400  24.085  1.00  0.00     0.163 HD
BRANCH   6   8
ATOM      8  C   UNL A   1      31.560  28.242  22.706  1.00  0.00     0.138 C 
BRANCH   8   9
ATOM      9  C   UNL A   1      30.147  28.775  22.646  1.00  0.00    -0.001 A 
ATOM     10  C   UNL A   1      29.948  29.975  21.938  1.00  0.00     0.009 A 
ATOM     11  C   UNL A   1      28.993  28.157  23.131  1.00  0.00     0.132 A 
ATOM     12  C   UNL A   1      28.673  30.515  21.791  1.00  0.00     0.020 A 
ATOM     13  N   UNL A   1      27.749  28.683  23.032  1.00  0.00    -0.244 NA
ATOM     14  Cl  UNL A   1      28.946  26.617  23.890  1.00  0.00    -0.062 Cl
ATOM     15  C   UNL A   1      27.614  29.844  22.364  1.00  0.00     0.113 A 
ENDBRANCH   8   9
ENDBRANCH   6   8
ENDBRANCH   3   4
ENDBRANCH   2   3
ENDBRANCH   1   2
BRANCH   1  16
ATOM     16  C   UNL A   1      32.808  32.858  27.181  1.00  0.00     0.116 C 
BRANCH  16  17
ATOM     17  N   UNL A   1      32.484  34.205  27.622  1.00  0.00    -0.352 N 
ATOM     18  C   UNL A   1      33.025  34.948  28.645  1.00  0.00     0.251 C 
ATOM     19  H   UNL A   1      31.771  34.653  27.112  1.00  0.00     0.163 HD
ATOM     20  O   UNL A   1      32.514  36.020  28.961  1.00  0.00    -0.269 OA
BRANCH  18  21
ATOM     21  C   UNL A   1      34.200  34.451  29.394  1.00  0.00     0.039 A 
ATOM     22  C   UNL A   1      33.995  33.798  30.613  1.00  0.00     0.014 A 
ATOM     23  C   UNL A   1      35.499  34.626  28.909  1.00  0.00     0.014 A 
ATOM     24  C   UNL A   1      35.082  33.259  31.306  1.00  0.00     0.010 A 
ATOM     25  C   UNL A   1      36.572  34.018  29.559  1.00  0.00     0.010 A 
ATOM     26  C   UNL A   1      36.376  33.326  30.764  1.00  0.00    -0.014 A 
BRANCH  26  27
ATOM     27  C   UNL A   1      37.528  32.666  31.434  1.00  0.00     0.031 A 
ATOM     28  C   UNL A   1      38.233  31.511  30.776  1.00  0.00     0.074 A 
ATOM     29  C   UNL A   1      37.902  33.064  32.666  1.00  0.00     0.049 A 
ATOM     30  N   UNL A   1      39.213  30.769  31.231  1.00  0.00    -0.248 NA
ATOM     31  C   UNL A   1      37.759  31.121  29.440  1.00  0.00     0.031 C 
ATOM     32  C   UNL A   1      37.275  34.143  33.431  1.00  0.00     0.029 A 
ATOM     33  N   UNL A   1      38.893  32.604  33.497  1.00  0.00    -0.354 N 
ATOM     34  C   UNL A   1      39.461  29.822  30.247  1.00  0.00     0.074 A 
ATOM     35  C   UNL A   1      38.494  30.047  29.193  1.00  0.00     0.031 C 
ATOM     36  C   UNL A   1      37.912  34.280  34.604  1.00  0.00     0.029 A 
ATOM     37  C   UNL A   1      38.962  33.270  34.696  1.00  0.00     0.049 A 
ATOM     38  H   UNL A   1      39.498  31.866  33.256  1.00  0.00     0.167 HD
ATOM     39  C   UNL A   1      40.420  28.866  30.213  1.00  0.00     0.037 A 
ATOM     40  C   UNL A   1      39.772  33.083  35.757  1.00  0.00     0.037 A 
ATOM     41  C   UNL A   1      41.394  28.658  31.254  1.00  0.00     0.049 A 
ATOM     42  C   UNL A   1      40.814  31.996  35.704  1.00  0.00     0.074 A 
ATOM     43  C   UNL A   1      42.445  27.758  31.284  1.00  0.00     0.029 A 
ATOM     44  N   UNL A   1      41.433  29.355  32.453  1.00  0.00    -0.354 N 
ATOM     45  N   UNL A   1      41.084  31.154  34.737  1.00  0.00    -0.248 NA
ATOM     46  C   UNL A   1      41.665  31.838  36.891  1.00  0.00     0.031 C 
ATOM     47  C   UNL A   1      43.078  27.865  32.525  1.00  0.00     0.029 A 
ATOM     48  C   UNL A   1      42.467  28.880  33.244  1.00  0.00     0.049 A 
ATOM     49  H   UNL A   1      40.815  30.079  32.705  1.00  0.00     0.167 HD
ATOM     50  C   UNL A   1      42.157  30.392  35.182  1.00  0.00     0.074 A 
ATOM     51  C   UNL A   1      42.495  30.881  36.501  1.00  0.00     0.031 C 
ATOM     52  C   UNL A   1      42.802  29.380  34.553  1.00  0.00     0.037 A 
BRANCH  39  53
ATOM     53  C   UNL A   1      40.463  27.962  29.013  1.00  0.00     0.064 A 
ATOM     54  C   UNL A   1      39.719  26.774  28.955  1.00  0.00     0.173 A 
ATOM     55  C   UNL A   1      41.224  28.312  27.887  1.00  0.00     0.173 A 
ATOM     56  F   UNL A   1      38.980  26.387  30.006  1.00  0.00    -0.203 F 
ATOM     57  C   UNL A   1      39.763  25.954  27.829  1.00  0.00     0.198 A 
ATOM     58  C   UNL A   1      41.238  27.509  26.751  1.00  0.00     0.198 A 
ATOM     59  F   UNL A   1      41.948  29.442  27.884  1.00  0.00    -0.203 F 
ATOM     60  F   UNL A   1      39.086  24.798  27.819  1.00  0.00    -0.200 F 
ATOM     61  C   UNL A   1      40.514  26.326  26.725  1.00  0.00     0.200 A 
ATOM     62  F   UNL A   1      41.951  27.878  25.678  1.00  0.00    -0.200 F 
ATOM     63  F   UNL A   1      40.547  25.541  25.640  1.00  0.00    -0.200 F 
ENDBRANCH  39  53
BRANCH  40  64
ATOM     64  C   UNL A   1      39.646  33.955  36.955  1.00  0.00     0.064 A 
ATOM     65  C   UNL A   1      38.867  33.562  38.053  1.00  0.00     0.173 A 
ATOM     66  C   UNL A   1      40.285  35.202  37.023  1.00  0.00     0.173 A 
ATOM     67  F   UNL A   1      38.218  32.389  38.026  1.00  0.00    -0.203 F 
ATOM     68  C   UNL A   1      38.710  34.393  39.160  1.00  0.00     0.198 A 
ATOM     69  C   UNL A   1      40.155  36.018  38.146  1.00  0.00     0.198 A 
ATOM     70  F   UNL A   1      41.046  35.625  36.003  1.00  0.00    -0.203 F 
ATOM     71  F   UNL A   1      37.915  34.016  40.170  1.00  0.00    -0.200 F 
ATOM     72  C   UNL A   1      39.359  35.618  39.209  1.00  0.00     0.200 A 
ATOM     73  F   UNL A   1      40.796  37.193  38.194  1.00  0.00    -0.200 F 
ATOM     74  F   UNL A   1      39.211  36.416  40.274  1.00  0.00    -0.200 F 
ENDBRANCH  40  64
BRANCH  52  75
ATOM     75  C   UNL A   1      43.972  28.758  35.263  1.00  0.00     0.064 A 
ATOM     76  C   UNL A   1      45.279  29.242  35.102  1.00  0.00     0.173 A 
ATOM     77  C   UNL A   1      43.775  27.685  36.146  1.00  0.00     0.173 A 
ATOM     78  F   UNL A   1      45.525  30.256  34.260  1.00  0.00    -0.203 F 
ATOM     79  C   UNL A   1      46.347  28.657  35.777  1.00  0.00     0.198 A 
ATOM     80  C   UNL A   1      44.840  27.125  36.846  1.00  0.00     0.198 A 
ATOM     81  F   UNL A   1      42.545  27.187  36.343  1.00  0.00    -0.203 F 
ATOM     82  F   UNL A   1      47.594  29.102  35.567  1.00  0.00    -0.200 F 
ATOM     83  C   UNL A   1      46.126  27.605  36.654  1.00  0.00     0.200 A 
ATOM     84  F   UNL A   1      44.622  26.121  37.706  1.00  0.00    -0.200 F 
ATOM     85  F   UNL A   1      47.155  27.050  37.309  1.00  0.00    -0.200 F 
ENDBRANCH  52  75
ENDBRANCH  26  27
ENDBRANCH  18  21
ENDBRANCH  16  17
ENDBRANCH   1  16
TORSDOF 12
ENDMDL
MODEL 2
REMARK VINA RESULT:     -11.6      6.929     12.025
REMARK SMILES O=C(Cc1cccnc1Cl)NCCCCNC(=O)c1ccc(-c2c3nc(c(-c4c(F)c(F)c(F)c(F)c4F)c4ccc([nH]4)c(-c4c(F)c(F)c(F)c(F)c4F)c4nc(c(-c5c(F)c(F)c(F)c(F)c5F)c5ccc2[nH]5)C=C4)C=C3)cc1
REMARK SMILES IDX 14 1 13 2 12 3 11 4 1 5 2 6 3 8 4 9 5 10 9 11 6 12 8 13
REMARK SMILES IDX 10 14 7 15 15 16 16 17 17 18 18 20 19 21 20 22 81 23 21 24
REMARK SMILES IDX 80 25 22 26 23 27 24 28 74 29 25 30 79 31 73 32 75 33 26 34
REMARK SMILES IDX 78 35 72 36 71 37 27 39 59 40 39 41 58 42 40 43 43 44 57 45
REMARK SMILES IDX 76 46 41 47 42 48 56 50 77 51 44 52 28 53 29 54 37 55 30 56
REMARK SMILES IDX 31 57 35 58 38 59 32 60 33 61 36 62 34 63 60 64 61 65 69 66
REMARK SMILES IDX 62 67 63 68 67 69 70 70 64 71 65 72 68 73 66 74 45 75 46 76
REMARK SMILES IDX 54 77 47 78 48 79 52 80 55 81 49 82 50 83 53 84 51 85
REMARK H PARENT 11 7 16 19 75 38 43 49
REMARK Flexibility Score: inf
ROOT
ATOM      1  C   UNL A   1      37.789  19.898  24.988  1.00  0.00     0.023 C 
ENDROOT
BRANCH   1   2
ATOM      2  C   UNL A   1      36.883  21.071  24.606  1.00  0.00     0.023 C 
BRANCH   2   3
ATOM      3  C   UNL A   1      35.851  21.461  25.661  1.00  0.00     0.116 C 
BRANCH   3   4
ATOM      4  N   UNL A   1      34.635  20.672  25.588  1.00  0.00    -0.356 N 
ATOM      5  O   UNL A   1      33.445  22.240  24.406  1.00  0.00    -0.275 OA
ATOM      6  C   UNL A   1      33.542  21.106  24.866  1.00  0.00     0.224 C 
ATOM      7  H   UNL A   1      34.588  19.812  26.064  1.00  0.00     0.163 HD
BRANCH   6   8
ATOM      8  C   UNL A   1      32.419  20.102  24.722  1.00  0.00     0.138 C 
BRANCH   8   9
ATOM      9  C   UNL A   1      32.767  18.637  24.582  1.00  0.00    -0.001 A 
ATOM     10  C   UNL A   1      32.933  17.906  25.774  1.00  0.00     0.009 A 
ATOM     11  C   UNL A   1      32.845  17.899  23.401  1.00  0.00     0.132 A 
ATOM     12  C   UNL A   1      33.207  16.541  25.743  1.00  0.00     0.020 A 
ATOM     13  N   UNL A   1      33.149  16.580  23.345  1.00  0.00    -0.244 NA
ATOM     14  Cl  UNL A   1      32.530  18.520  21.830  1.00  0.00    -0.062 Cl
ATOM     15  C   UNL A   1      33.320  15.930  24.512  1.00  0.00     0.113 A 
ENDBRANCH   8   9
ENDBRANCH   6   8
ENDBRANCH   3   4
ENDBRANCH   2   3
ENDBRANCH   1   2
BRANCH   1  16
ATOM     16  C   UNL A   1      38.962  20.245  25.900  1.00  0.00     0.116 C 
BRANCH  16  17
ATOM     17  N   UNL A   1      39.975  19.203  25.943  1.00  0.00    -0.352 N 
ATOM     18  C   UNL A   1      41.336  19.309  26.109  1.00  0.00     0.251 C 
ATOM     19  H   UNL A   1      39.637  18.285  25.837  1.00  0.00     0.163 HD
ATOM     20  O   UNL A   1      42.050  18.319  25.969  1.00  0.00    -0.269 OA
BRANCH  18  21
ATOM     21  C   UNL A   1      41.955  20.616  26.425  1.00  0.00     0.039 A 
ATOM     22  C   UNL A   1      42.447  21.398  25.376  1.00  0.00     0.014 A 
ATOM     23  C   UNL A   1      42.057  21.073  27.742  1.00  0.00     0.014 A 
ATOM     24  C   UNL A   1      42.973  22.666  25.640  1.00  0.00     0.010 A 
ATOM     25  C   UNL A   1      42.507  22.368  27.995  1.00  0.00     0.010 A 
ATOM     26  C   UNL A   1      42.968  23.180  26.947  1.00  0.00    -0.014 A 
BRANCH  26  27
ATOM     27  C   UNL A   1      43.426  24.566  27.232  1.00  0.00     0.031 A 
ATOM     28  C   UNL A   1      42.467  25.587  27.781  1.00  0.00     0.074 A 
ATOM     29  C   UNL A   1      44.690  24.926  26.936  1.00  0.00     0.049 A 
ATOM     30  N   UNL A   1      42.663  26.859  28.033  1.00  0.00    -0.248 NA
ATOM     31  C   UNL A   1      41.099  25.127  28.063  1.00  0.00     0.031 C 
ATOM     32  C   UNL A   1      45.707  24.044  26.360  1.00  0.00     0.029 A 
ATOM     33  N   UNL A   1      45.336  26.131  27.069  1.00  0.00    -0.354 N 
ATOM     34  C   UNL A   1      41.446  27.348  28.487  1.00  0.00     0.074 A 
ATOM     35  C   UNL A   1      40.502  26.252  28.426  1.00  0.00     0.031 C 
ATOM     36  C   UNL A   1      46.852  24.727  26.216  1.00  0.00     0.029 A 
ATOM     37  C   UNL A   1      46.642  26.107  26.644  1.00  0.00     0.049 A 
ATOM     38  H   UNL A   1      44.904  26.936  27.435  1.00  0.00     0.167 HD
ATOM     39  C   UNL A   1      41.146  28.591  28.935  1.00  0.00     0.037 A 
ATOM     40  C   UNL A   1      47.564  27.088  26.594  1.00  0.00     0.037 A 
ATOM     41  C   UNL A   1      42.093  29.674  29.014  1.00  0.00     0.049 A 
ATOM     42  C   UNL A   1      47.198  28.468  27.074  1.00  0.00     0.074 A 
ATOM     43  C   UNL A   1      41.902  30.951  29.512  1.00  0.00     0.029 A 
ATOM     44  N   UNL A   1      43.408  29.610  28.576  1.00  0.00    -0.354 N 
ATOM     45  N   UNL A   1      46.064  28.898  27.569  1.00  0.00    -0.248 NA
ATOM     46  C   UNL A   1      48.244  29.496  26.992  1.00  0.00     0.031 C 
ATOM     47  C   UNL A   1      43.080  31.678  29.317  1.00  0.00     0.029 A 
ATOM     48  C   UNL A   1      44.029  30.836  28.760  1.00  0.00     0.049 A 
ATOM     49  H   UNL A   1      43.836  28.812  28.190  1.00  0.00     0.167 HD
ATOM     50  C   UNL A   1      46.269  30.234  27.890  1.00  0.00     0.074 A 
ATOM     51  C   UNL A   1      47.642  30.538  27.545  1.00  0.00     0.031 C 
ATOM     52  C   UNL A   1      45.399  31.127  28.422  1.00  0.00     0.037 A 
BRANCH  39  53
ATOM     53  C   UNL A   1      39.732  28.854  29.371  1.00  0.00     0.064 A 
ATOM     54  C   UNL A   1      39.327  28.692  30.705  1.00  0.00     0.173 A 
ATOM     55  C   UNL A   1      38.779  29.317  28.451  1.00  0.00     0.173 A 
ATOM     56  F   UNL A   1      40.195  28.243  31.625  1.00  0.00    -0.203 F 
ATOM     57  C   UNL A   1      38.015  28.950  31.093  1.00  0.00     0.198 A 
ATOM     58  C   UNL A   1      37.478  29.608  28.849  1.00  0.00     0.198 A 
ATOM     59  F   UNL A   1      39.113  29.499  27.164  1.00  0.00    -0.203 F 
ATOM     60  F   UNL A   1      37.639  28.737  32.361  1.00  0.00    -0.200 F 
ATOM     61  C   UNL A   1      37.094  29.417  30.168  1.00  0.00     0.200 A 
ATOM     62  F   UNL A   1      36.594  30.075  27.957  1.00  0.00    -0.200 F 
ATOM     63  F   UNL A   1      35.834  29.675  30.545  1.00  0.00    -0.200 F 
ENDBRANCH  39  53
BRANCH  40  64
ATOM     64  C   UNL A   1      48.933  26.800  26.086  1.00  0.00     0.064 A 
ATOM     65  C   UNL A   1      49.257  27.003  24.736  1.00  0.00     0.173 A 
ATOM     66  C   UNL A   1      49.937  26.302  26.929  1.00  0.00     0.173 A 
ATOM     67  F   UNL A   1      48.326  27.456  23.886  1.00  0.00    -0.203 F 
ATOM     68  C   UNL A   1      50.525  26.695  24.246  1.00  0.00     0.198 A 
ATOM     69  C   UNL A   1      51.214  26.027  26.444  1.00  0.00     0.198 A 
ATOM     70  F   UNL A   1      49.681  26.094  28.230  1.00  0.00    -0.203 F 
ATOM     71  F   UNL A   1      50.790  26.847  22.941  1.00  0.00    -0.200 F 
ATOM     72  C   UNL A   1      51.504  26.213  25.101  1.00  0.00     0.200 A 
ATOM     73  F   UNL A   1      52.161  25.576  27.278  1.00  0.00    -0.200 F 
ATOM     74  F   UNL A   1      52.723  25.919  24.630  1.00  0.00    -0.200 F 
ENDBRANCH  40  64
BRANCH  52  75
ATOM     75  C   UNL A   1      45.914  32.509  28.709  1.00  0.00     0.064 A 
ATOM     76  C   UNL A   1      46.537  32.829  29.924  1.00  0.00     0.173 A 
ATOM     77  C   UNL A   1      45.815  33.517  27.738  1.00  0.00     0.173 A 
ATOM     78  F   UNL A   1      46.645  31.908  30.893  1.00  0.00    -0.203 F 
ATOM     79  C   UNL A   1      47.016  34.115  30.166  1.00  0.00     0.198 A 
ATOM     80  C   UNL A   1      46.326  34.791  27.969  1.00  0.00     0.198 A 
ATOM     81  F   UNL A   1      45.235  33.263  26.556  1.00  0.00    -0.203 F 
ATOM     82  F   UNL A   1      47.559  34.412  31.355  1.00  0.00    -0.200 F 
ATOM     83  C   UNL A   1      46.917  35.091  29.186  1.00  0.00     0.200 A 
ATOM     84  F   UNL A   1      46.246  35.728  27.014  1.00  0.00    -0.200 F 
ATOM     85  F   UNL A   1      47.387  36.325  29.418  1.00  0.00    -0.200 F 
ENDBRANCH  52  75
ENDBRANCH  26  27
ENDBRANCH  18  21
ENDBRANCH  16  17
ENDBRANCH   1  16
TORSDOF 12
ENDMDL
MODEL 3
REMARK VINA RESULT:     -11.5      1.651      8.080
REMARK SMILES O=C(Cc1cccnc1Cl)NCCCCNC(=O)c1ccc(-c2c3nc(c(-c4c(F)c(F)c(F)c(F)c4F)c4ccc([nH]4)c(-c4c(F)c(F)c(F)c(F)c4F)c4nc(c(-c5c(F)c(F)c(F)c(F)c5F)c5ccc2[nH]5)C=C4)C=C3)cc1
REMARK SMILES IDX 14 1 13 2 12 3 11 4 1 5 2 6 3 8 4 9 5 10 9 11 6 12 8 13
REMARK SMILES IDX 10 14 7 15 15 16 16 17 17 18 18 20 19 21 20 22 81 23 21 24
REMARK SMILES IDX 80 25 22 26 23 27 24 28 74 29 25 30 79 31 73 32 75 33 26 34
REMARK SMILES IDX 78 35 72 36 71 37 27 39 59 40 39 41 58 42 40 43 43 44 57 45
REMARK SMILES IDX 76 46 41 47 42 48 56 50 77 51 44 52 28 53 29 54 37 55 30 56
REMARK SMILES IDX 31 57 35 58 38 59 32 60 33 61 36 62 34 63 60 64 61 65 69 66
REMARK SMILES IDX 62 67 63 68 67 69 70 70 64 71 65 72 68 73 66 74 45 75 46 76
REMARK SMILES IDX 54 77 47 78 48 79 52 80 55 81 49 82 50 83 53 84 51 85
REMARK H PARENT 11 7 16 19 75 38 43 49
REMARK Flexibility Score: inf
ROOT
ATOM      1  C   UNL A   1      31.292  32.291  26.486  1.00  0.00     0.023 C 
ENDROOT
BRANCH   1   2
ATOM      2  C   UNL A   1      31.416  30.842  26.012  1.00  0.00     0.023 C 
BRANCH   2   3
ATOM      3  C   UNL A   1      32.816  30.244  26.120  1.00  0.00     0.116 C 
BRANCH   3   4
ATOM      4  N   UNL A   1      32.960  28.996  25.394  1.00  0.00    -0.356 N 
ATOM      5  O   UNL A   1      34.506  28.097  26.835  1.00  0.00    -0.275 OA
ATOM      6  C   UNL A   1      33.742  27.969  25.882  1.00  0.00     0.224 C 
ATOM      7  H   UNL A   1      32.491  28.879  24.536  1.00  0.00     0.163 HD
BRANCH   6   8
ATOM      8  C   UNL A   1      33.650  26.664  25.120  1.00  0.00     0.138 C 
BRANCH   8   9
ATOM      9  C   UNL A   1      33.099  25.447  25.828  1.00  0.00    -0.001 A 
ATOM     10  C   UNL A   1      33.999  24.392  26.074  1.00  0.00     0.009 A 
ATOM     11  C   UNL A   1      31.818  25.289  26.358  1.00  0.00     0.132 A 
ATOM     12  C   UNL A   1      33.592  23.252  26.763  1.00  0.00     0.020 A 
ATOM     13  N   UNL A   1      31.390  24.174  26.997  1.00  0.00    -0.244 NA
ATOM     14  Cl  UNL A   1      30.587  26.487  26.331  1.00  0.00    -0.062 Cl
ATOM     15  C   UNL A   1      32.282  23.184  27.188  1.00  0.00     0.113 A 
ENDBRANCH   8   9
ENDBRANCH   6   8
ENDBRANCH   3   4
ENDBRANCH   2   3
ENDBRANCH   1   2
BRANCH   1  16
ATOM     16  C   UNL A   1      32.501  32.843  27.234  1.00  0.00     0.116 C 
BRANCH  16  17
ATOM     17  N   UNL A   1      32.332  34.228  27.646  1.00  0.00    -0.352 N 
ATOM     18  C   UNL A   1      33.001  34.944  28.610  1.00  0.00     0.251 C 
ATOM     19  H   UNL A   1      31.635  34.726  27.163  1.00  0.00     0.163 HD
ATOM     20  O   UNL A   1      32.613  36.069  28.918  1.00  0.00    -0.269 OA
BRANCH  18  21
ATOM     21  C   UNL A   1      34.168  34.360  29.307  1.00  0.00     0.039 A 
ATOM     22  C   UNL A   1      33.954  33.623  30.476  1.00  0.00     0.014 A 
ATOM     23  C   UNL A   1      35.467  34.535  28.822  1.00  0.00     0.014 A 
ATOM     24  C   UNL A   1      35.032  33.002  31.114  1.00  0.00     0.010 A 
ATOM     25  C   UNL A   1      36.527  33.850  29.413  1.00  0.00     0.010 A 
ATOM     26  C   UNL A   1      36.322  33.074  30.564  1.00  0.00    -0.014 A 
BRANCH  26  27
ATOM     27  C   UNL A   1      37.460  32.333  31.171  1.00  0.00     0.031 A 
ATOM     28  C   UNL A   1      37.967  32.703  32.538  1.00  0.00     0.074 A 
ATOM     29  C   UNL A   1      38.081  31.368  30.465  1.00  0.00     0.049 A 
ATOM     30  N   UNL A   1      38.986  32.217  33.205  1.00  0.00    -0.248 NA
ATOM     31  C   UNL A   1      37.251  33.778  33.242  1.00  0.00     0.031 C 
ATOM     32  C   UNL A   1      37.716  30.943  29.113  1.00  0.00     0.029 A 
ATOM     33  N   UNL A   1      39.157  30.575  30.781  1.00  0.00    -0.354 N 
ATOM     34  C   UNL A   1      39.038  32.933  34.393  1.00  0.00     0.074 A 
ATOM     35  C   UNL A   1      37.984  33.924  34.335  1.00  0.00     0.031 C 
ATOM     36  C   UNL A   1      38.532  29.950  28.727  1.00  0.00     0.029 A 
ATOM     37  C   UNL A   1      39.509  29.698  29.783  1.00  0.00     0.049 A 
ATOM     38  H   UNL A   1      39.631  30.628  31.642  1.00  0.00     0.167 HD
ATOM     39  C   UNL A   1      39.874  32.767  35.446  1.00  0.00     0.037 A 
ATOM     40  C   UNL A   1      40.512  28.801  29.720  1.00  0.00     0.037 A 
ATOM     41  C   UNL A   1      40.909  31.767  35.510  1.00  0.00     0.049 A 
ATOM     42  C   UNL A   1      41.442  28.654  30.895  1.00  0.00     0.074 A 
ATOM     43  C   UNL A   1      41.765  31.478  36.558  1.00  0.00     0.029 A 
ATOM     44  N   UNL A   1      41.233  30.896  34.480  1.00  0.00    -0.354 N 
ATOM     45  N   UNL A   1      41.436  29.288  32.041  1.00  0.00    -0.248 NA
ATOM     46  C   UNL A   1      42.518  27.661  30.766  1.00  0.00     0.031 C 
ATOM     47  C   UNL A   1      42.648  30.479  36.140  1.00  0.00     0.029 A 
ATOM     48  C   UNL A   1      42.299  30.094  34.855  1.00  0.00     0.049 A 
ATOM     49  H   UNL A   1      40.774  30.855  33.610  1.00  0.00     0.167 HD
ATOM     50  C   UNL A   1      42.480  28.749  32.782  1.00  0.00     0.074 A 
ATOM     51  C   UNL A   1      43.089  27.726  31.960  1.00  0.00     0.031 C 
ATOM     52  C   UNL A   1      42.894  29.072  34.032  1.00  0.00     0.037 A 
BRANCH  39  53
ATOM     53  C   UNL A   1      39.711  33.693  36.619  1.00  0.00     0.064 A 
ATOM     54  C   UNL A   1      40.339  34.947  36.665  1.00  0.00     0.173 A 
ATOM     55  C   UNL A   1      38.879  33.340  37.693  1.00  0.00     0.173 A 
ATOM     56  F   UNL A   1      41.152  35.333  35.669  1.00  0.00    -0.203 F 
ATOM     57  C   UNL A   1      40.168  35.796  37.755  1.00  0.00     0.198 A 
ATOM     58  C   UNL A   1      38.683  34.205  38.765  1.00  0.00     0.198 A 
ATOM     59  F   UNL A   1      38.247  32.156  37.698  1.00  0.00    -0.203 F 
ATOM     60  F   UNL A   1      40.821  36.965  37.800  1.00  0.00    -0.200 F 
ATOM     61  C   UNL A   1      39.334  35.429  38.800  1.00  0.00     0.200 A 
ATOM     62  F   UNL A   1      37.862  33.856  39.765  1.00  0.00    -0.200 F 
ATOM     63  F   UNL A   1      39.162  36.252  39.844  1.00  0.00    -0.200 F 
ENDBRANCH  39  53
BRANCH  40  64
ATOM     64  C   UNL A   1      40.680  27.955  28.508  1.00  0.00     0.064 A 
ATOM     65  C   UNL A   1      41.449  28.398  27.422  1.00  0.00     0.173 A 
ATOM     66  C   UNL A   1      40.065  26.698  28.401  1.00  0.00     0.173 A 
ATOM     67  F   UNL A   1      42.038  29.601  27.467  1.00  0.00    -0.203 F 
ATOM     68  C   UNL A   1      41.576  27.628  26.267  1.00  0.00     0.198 A 
ATOM     69  C   UNL A   1      40.220  25.915  27.259  1.00  0.00     0.198 A 
ATOM     70  F   UNL A   1      39.322  26.225  29.412  1.00  0.00    -0.203 F 
ATOM     71  F   UNL A   1      42.271  28.101  25.224  1.00  0.00    -0.200 F 
ATOM     72  C   UNL A   1      40.966  26.385  26.188  1.00  0.00     0.200 A 
ATOM     73  F   UNL A   1      39.642  24.709  27.194  1.00  0.00    -0.200 F 
ATOM     74  F   UNL A   1      41.090  25.645  25.079  1.00  0.00    -0.200 F 
ENDBRANCH  40  64
BRANCH  52  75
ATOM     75  C   UNL A   1      44.035  28.283  34.609  1.00  0.00     0.064 A 
ATOM     76  C   UNL A   1      45.366  28.713  34.494  1.00  0.00     0.173 A 
ATOM     77  C   UNL A   1      43.789  27.098  35.319  1.00  0.00     0.173 A 
ATOM     78  F   UNL A   1      45.659  29.831  33.814  1.00  0.00    -0.203 F 
ATOM     79  C   UNL A   1      46.408  27.971  35.044  1.00  0.00     0.198 A 
ATOM     80  C   UNL A   1      44.830  26.377  35.898  1.00  0.00     0.198 A 
ATOM     81  F   UNL A   1      42.535  26.645  35.465  1.00  0.00    -0.203 F 
ATOM     82  F   UNL A   1      47.675  28.373  34.876  1.00  0.00    -0.200 F 
ATOM     83  C   UNL A   1      46.138  26.809  35.752  1.00  0.00     0.200 A 
ATOM     84  F   UNL A   1      44.565  25.264  36.597  1.00  0.00    -0.200 F 
ATOM     85  F   UNL A   1      47.142  26.101  36.289  1.00  0.00    -0.200 F 
ENDBRANCH  52  75
ENDBRANCH  26  27
ENDBRANCH  18  21
ENDBRANCH  16  17
ENDBRANCH   1  16
TORSDOF 12
ENDMDL
