MODEL 1
REMARK VINA RESULT:     -13.2      0.000      0.000
REMARK SMILES Cc1ccc2c(c1)C=C(C(=O)NCCCCNC(=O)c1ccc(-c3c4nc(c(-c5c(F)c(F)c(F)c(F)c5F)c5ccc([nH]5)c(-c5c(F)c(F)c(F)c(F)c5F)c5nc(c(-c6c(F)c(F)c(F)c(F)c6F)c6ccc3[nH]6)C=C5)C=C4)cc1)[C@@H](C(F)(F)F)O2
REMARK SMILES IDX 15 1 14 2 13 3 12 4 10 5 11 6 9 8 1 9 2 10 3 11 7 12 4 13
REMARK SMILES IDX 6 14 5 15 8 16 88 17 83 18 84 19 85 20 86 21 87 22 16 23
REMARK SMILES IDX 17 24 18 25 19 27 20 28 21 29 82 30 22 31 81 32 23 33 24 34
REMARK SMILES IDX 25 35 75 36 26 37 80 38 74 39 76 40 27 41 79 42 73 43 72 44
REMARK SMILES IDX 28 46 60 47 40 48 59 49 41 50 44 51 58 52 77 53 42 54 43 55
REMARK SMILES IDX 57 57 78 58 45 59 29 60 30 61 38 62 31 63 32 64 36 65 39 66
REMARK SMILES IDX 33 67 34 68 37 69 35 70 61 71 62 72 70 73 63 74 64 75 68 76
REMARK SMILES IDX 71 77 65 78 66 79 69 80 67 81 46 82 47 83 55 84 48 85 49 86
REMARK SMILES IDX 53 87 56 88 50 89 51 90 54 91 52 92
REMARK H PARENT 12 7 17 26 76 45 44 56
REMARK Flexibility Score: inf
ROOT
ATOM      1  C   UNL A   1      31.739  28.811  26.931  1.00  0.00     0.023 C 
ENDROOT
BRANCH   1   2
ATOM      2  C   UNL A   1      32.086  27.350  26.632  1.00  0.00     0.023 C 
BRANCH   2   3
ATOM      3  C   UNL A   1      31.029  26.602  25.824  1.00  0.00     0.116 C 
BRANCH   3   4
ATOM      4  N   UNL A   1      30.607  25.377  26.478  1.00  0.00    -0.352 N 
ATOM      5  C   UNL A   1      31.042  24.096  26.553  1.00  0.00     0.251 C 
ATOM      6  O   UNL A   1      30.347  23.351  27.251  1.00  0.00    -0.270 OA
ATOM      7  H   UNL A   1      29.787  25.511  27.006  1.00  0.00     0.163 HD
BRANCH   5   8
ATOM      8  C   UNL A   1      32.258  23.553  25.875  1.00  0.00     0.067 C 
ATOM      9  C   UNL A   1      38.430  23.942  26.125  1.00  0.00     0.044 C 
ATOM     10  C   UNL A   1      37.100  23.434  25.653  1.00  0.00    -0.050 A 
ATOM     11  C   UNL A   1      37.022  22.441  24.668  1.00  0.00     0.007 A 
ATOM     12  C   UNL A   1      35.917  23.925  26.226  1.00  0.00     0.015 A 
ATOM     13  C   UNL A   1      35.781  21.958  24.254  1.00  0.00     0.047 A 
ATOM     14  C   UNL A   1      34.671  23.444  25.810  1.00  0.00     0.017 A 
ATOM     15  C   UNL A   1      34.613  22.467  24.817  1.00  0.00     0.128 A 
ATOM     16  C   UNL A   1      33.434  23.911  26.424  1.00  0.00     0.025 C 
ATOM     17  O   UNL A   1      33.438  21.925  24.383  1.00  0.00    -0.475 OA
ATOM     18  C   UNL A   1      32.234  22.701  24.636  1.00  0.00     0.314 C 
BRANCH  18  19
ATOM     19  C   UNL A   1      31.883  23.508  23.371  1.00  0.00     0.429 C 
ATOM     20  F   UNL A   1      32.384  22.897  22.267  1.00  0.00    -0.167 F 
ATOM     21  F   UNL A   1      30.546  23.607  23.174  1.00  0.00    -0.167 F 
ATOM     22  F   UNL A   1      32.372  24.766  23.396  1.00  0.00    -0.167 F 
ENDBRANCH  18  19
ENDBRANCH   5   8
ENDBRANCH   3   4
ENDBRANCH   2   3
ENDBRANCH   1   2
BRANCH   1  23
ATOM     23  C   UNL A   1      32.688  29.849  26.337  1.00  0.00     0.116 C 
BRANCH  23  24
ATOM     24  N   UNL A   1      32.449  31.213  26.789  1.00  0.00    -0.352 N 
ATOM     25  C   UNL A   1      33.308  32.038  27.482  1.00  0.00     0.251 C 
ATOM     26  H   UNL A   1      31.565  31.592  26.575  1.00  0.00     0.163 HD
ATOM     27  O   UNL A   1      32.953  33.151  27.853  1.00  0.00    -0.269 OA
BRANCH  25  28
ATOM     28  C   UNL A   1      34.649  31.528  27.826  1.00  0.00     0.039 A 
ATOM     29  C   UNL A   1      34.838  30.169  28.083  1.00  0.00     0.014 A 
ATOM     30  C   UNL A   1      35.692  32.440  28.001  1.00  0.00     0.014 A 
ATOM     31  C   UNL A   1      36.016  29.749  28.689  1.00  0.00     0.010 A 
ATOM     32  C   UNL A   1      36.902  32.003  28.545  1.00  0.00     0.010 A 
ATOM     33  C   UNL A   1      37.047  30.668  28.952  1.00  0.00    -0.014 A 
BRANCH  33  34
ATOM     34  C   UNL A   1      38.241  30.221  29.710  1.00  0.00     0.031 A 
ATOM     35  C   UNL A   1      38.439  30.652  31.140  1.00  0.00     0.074 A 
ATOM     36  C   UNL A   1      39.107  29.365  29.137  1.00  0.00     0.049 A 
ATOM     37  N   UNL A   1      39.412  30.354  31.965  1.00  0.00    -0.248 NA
ATOM     38  C   UNL A   1      37.413  31.533  31.720  1.00  0.00     0.031 C 
ATOM     39  C   UNL A   1      39.002  28.855  27.770  1.00  0.00     0.029 A 
ATOM     40  N   UNL A   1      40.223  28.749  29.641  1.00  0.00    -0.354 N 
ATOM     41  C   UNL A   1      39.128  31.025  33.147  1.00  0.00     0.074 A 
ATOM     42  C   UNL A   1      37.902  31.763  32.931  1.00  0.00     0.031 C 
ATOM     43  C   UNL A   1      39.981  27.963  27.561  1.00  0.00     0.029 A 
ATOM     44  C   UNL A   1      40.812  27.880  28.759  1.00  0.00     0.049 A 
ATOM     45  H   UNL A   1      40.568  28.915  30.548  1.00  0.00     0.167 HD
ATOM     46  C   UNL A   1      39.823  31.019  34.309  1.00  0.00     0.037 A 
ATOM     47  C   UNL A   1      41.905  27.107  28.896  1.00  0.00     0.037 A 
ATOM     48  C   UNL A   1      41.023  30.256  34.535  1.00  0.00     0.049 A 
ATOM     49  C   UNL A   1      42.674  27.143  30.185  1.00  0.00     0.074 A 
ATOM     50  C   UNL A   1      41.786  30.170  35.686  1.00  0.00     0.029 A 
ATOM     51  N   UNL A   1      41.626  29.440  33.592  1.00  0.00    -0.354 N 
ATOM     52  N   UNL A   1      42.408  27.801  31.286  1.00  0.00    -0.248 NA
ATOM     53  C   UNL A   1      43.905  26.342  30.243  1.00  0.00     0.031 C 
ATOM     54  C   UNL A   1      42.870  29.325  35.430  1.00  0.00     0.029 A 
ATOM     55  C   UNL A   1      42.763  28.859  34.130  1.00  0.00     0.049 A 
ATOM     56  H   UNL A   1      41.297  29.295  32.676  1.00  0.00     0.167 HD
ATOM     57  C   UNL A   1      43.436  27.500  32.167  1.00  0.00     0.074 A 
ATOM     58  C   UNL A   1      44.318  26.577  31.481  1.00  0.00     0.031 C 
ATOM     59  C   UNL A   1      43.635  27.954  33.428  1.00  0.00     0.037 A 
BRANCH  46  60
ATOM     60  C   UNL A   1      39.312  31.867  35.435  1.00  0.00     0.064 A 
ATOM     61  C   UNL A   1      38.465  31.344  36.422  1.00  0.00     0.173 A 
ATOM     62  C   UNL A   1      39.726  33.202  35.561  1.00  0.00     0.173 A 
ATOM     63  F   UNL A   1      38.030  30.078  36.336  1.00  0.00    -0.203 F 
ATOM     64  C   UNL A   1      38.045  32.130  37.492  1.00  0.00     0.198 A 
ATOM     65  C   UNL A   1      39.320  33.978  36.643  1.00  0.00     0.198 A 
ATOM     66  F   UNL A   1      40.539  33.747  34.644  1.00  0.00    -0.203 F 
ATOM     67  F   UNL A   1      37.214  31.617  38.411  1.00  0.00    -0.200 F 
ATOM     68  C   UNL A   1      38.478  33.442  37.606  1.00  0.00     0.200 A 
ATOM     69  F   UNL A   1      39.746  35.243  36.756  1.00  0.00    -0.200 F 
ATOM     70  F   UNL A   1      38.082  34.193  38.643  1.00  0.00    -0.200 F 
ENDBRANCH  46  60
BRANCH  47  71
ATOM     71  C   UNL A   1      42.328  26.236  27.773  1.00  0.00     0.064 A 
ATOM     72  C   UNL A   1      43.323  26.653  26.879  1.00  0.00     0.173 A 
ATOM     73  C   UNL A   1      41.777  24.959  27.594  1.00  0.00     0.173 A 
ATOM     74  F   UNL A   1      43.864  27.874  27.001  1.00  0.00    -0.203 F 
ATOM     75  C   UNL A   1      43.752  25.822  25.846  1.00  0.00     0.198 A 
ATOM     76  C   UNL A   1      42.222  24.122  26.575  1.00  0.00     0.198 A 
ATOM     77  F   UNL A   1      40.823  24.517  28.427  1.00  0.00    -0.203 F 
ATOM     78  F   UNL A   1      44.689  26.252  24.990  1.00  0.00    -0.200 F 
ATOM     79  C   UNL A   1      43.208  24.555  25.700  1.00  0.00     0.200 A 
ATOM     80  F   UNL A   1      41.705  22.892  26.446  1.00  0.00    -0.200 F 
ATOM     81  F   UNL A   1      43.632  23.751  24.715  1.00  0.00    -0.200 F 
ENDBRANCH  47  71
BRANCH  59  82
ATOM     82  C   UNL A   1      44.857  27.469  34.144  1.00  0.00     0.064 A 
ATOM     83  C   UNL A   1      46.056  28.194  34.100  1.00  0.00     0.173 A 
ATOM     84  C   UNL A   1      44.815  26.305  34.924  1.00  0.00     0.173 A 
ATOM     85  F   UNL A   1      46.146  29.306  33.355  1.00  0.00    -0.203 F 
ATOM     86  C   UNL A   1      47.177  27.761  34.802  1.00  0.00     0.198 A 
ATOM     87  C   UNL A   1      45.931  25.886  35.641  1.00  0.00     0.198 A 
ATOM     88  F   UNL A   1      43.688  25.583  35.000  1.00  0.00    -0.203 F 
ATOM     89  F   UNL A   1      48.323  28.451  34.724  1.00  0.00    -0.200 F 
ATOM     90  C   UNL A   1      47.111  26.612  35.578  1.00  0.00     0.200 A 
ATOM     91  F   UNL A   1      45.866  24.781  36.397  1.00  0.00    -0.200 F 
ATOM     92  F   UNL A   1      48.190  26.201  36.259  1.00  0.00    -0.200 F 
ENDBRANCH  59  82
ENDBRANCH  33  34
ENDBRANCH  25  28
ENDBRANCH  23  24
ENDBRANCH   1  23
TORSDOF 12
ENDMDL
MODEL 2
REMARK VINA RESULT:     -13.2      0.152      1.608
REMARK SMILES Cc1ccc2c(c1)C=C(C(=O)NCCCCNC(=O)c1ccc(-c3c4nc(c(-c5c(F)c(F)c(F)c(F)c5F)c5ccc([nH]5)c(-c5c(F)c(F)c(F)c(F)c5F)c5nc(c(-c6c(F)c(F)c(F)c(F)c6F)c6ccc3[nH]6)C=C5)C=C4)cc1)[C@@H](C(F)(F)F)O2
REMARK SMILES IDX 15 1 14 2 13 3 12 4 10 5 11 6 9 8 1 9 2 10 3 11 7 12 4 13
REMARK SMILES IDX 6 14 5 15 8 16 88 17 83 18 84 19 85 20 86 21 87 22 16 23
REMARK SMILES IDX 17 24 18 25 19 27 20 28 21 29 82 30 22 31 81 32 23 33 24 34
REMARK SMILES IDX 25 35 75 36 26 37 80 38 74 39 76 40 27 41 79 42 73 43 72 44
REMARK SMILES IDX 28 46 60 47 40 48 59 49 41 50 44 51 58 52 77 53 42 54 43 55
REMARK SMILES IDX 57 57 78 58 45 59 29 60 30 61 38 62 31 63 32 64 36 65 39 66
REMARK SMILES IDX 33 67 34 68 37 69 35 70 61 71 62 72 70 73 63 74 64 75 68 76
REMARK SMILES IDX 71 77 65 78 66 79 69 80 67 81 46 82 47 83 55 84 48 85 49 86
REMARK SMILES IDX 53 87 56 88 50 89 51 90 54 91 52 92
REMARK H PARENT 12 7 17 26 76 45 44 56
REMARK Flexibility Score: inf
ROOT
ATOM      1  C   UNL A   1      31.726  28.923  26.925  1.00  0.00     0.023 C 
ENDROOT
BRANCH   1   2
ATOM      2  C   UNL A   1      32.120  27.455  26.737  1.00  0.00     0.023 C 
BRANCH   2   3
ATOM      3  C   UNL A   1      31.160  26.652  25.862  1.00  0.00     0.116 C 
BRANCH   3   4
ATOM      4  N   UNL A   1      30.724  25.429  26.511  1.00  0.00    -0.352 N 
ATOM      5  C   UNL A   1      31.144  24.143  26.582  1.00  0.00     0.251 C 
ATOM      6  O   UNL A   1      30.440  23.403  27.276  1.00  0.00    -0.270 OA
ATOM      7  H   UNL A   1      29.906  25.571  27.041  1.00  0.00     0.163 HD
BRANCH   5   8
ATOM      8  C   UNL A   1      32.352  23.587  25.901  1.00  0.00     0.067 C 
ATOM      9  C   UNL A   1      38.528  23.930  26.123  1.00  0.00     0.044 C 
ATOM     10  C   UNL A   1      37.192  23.431  25.659  1.00  0.00    -0.050 A 
ATOM     11  C   UNL A   1      37.103  22.435  24.679  1.00  0.00     0.007 A 
ATOM     12  C   UNL A   1      36.015  23.934  26.235  1.00  0.00     0.015 A 
ATOM     13  C   UNL A   1      35.856  21.959  24.271  1.00  0.00     0.047 A 
ATOM     14  C   UNL A   1      34.764  23.460  25.826  1.00  0.00     0.017 A 
ATOM     15  C   UNL A   1      34.695  22.480  24.837  1.00  0.00     0.128 A 
ATOM     16  C   UNL A   1      33.534  23.939  26.443  1.00  0.00     0.025 C 
ATOM     17  O   UNL A   1      33.514  21.945  24.410  1.00  0.00    -0.475 OA
ATOM     18  C   UNL A   1      32.317  22.731  24.665  1.00  0.00     0.314 C 
BRANCH  18  19
ATOM     19  C   UNL A   1      31.966  23.536  23.398  1.00  0.00     0.429 C 
ATOM     20  F   UNL A   1      32.454  22.914  22.294  1.00  0.00    -0.167 F 
ATOM     21  F   UNL A   1      30.629  23.649  23.209  1.00  0.00    -0.167 F 
ATOM     22  F   UNL A   1      32.470  24.789  23.414  1.00  0.00    -0.167 F 
ENDBRANCH  18  19
ENDBRANCH   5   8
ENDBRANCH   3   4
ENDBRANCH   2   3
ENDBRANCH   1   2
BRANCH   1  23
ATOM     23  C   UNL A   1      32.697  29.946  26.339  1.00  0.00     0.116 C 
BRANCH  23  24
ATOM     24  N   UNL A   1      32.468  31.316  26.781  1.00  0.00    -0.352 N 
ATOM     25  C   UNL A   1      33.332  32.139  27.469  1.00  0.00     0.251 C 
ATOM     26  H   UNL A   1      31.588  31.699  26.563  1.00  0.00     0.163 HD
ATOM     27  O   UNL A   1      32.986  33.258  27.831  1.00  0.00    -0.269 OA
BRANCH  25  28
ATOM     28  C   UNL A   1      34.669  31.621  27.819  1.00  0.00     0.039 A 
ATOM     29  C   UNL A   1      34.838  30.271  28.132  1.00  0.00     0.014 A 
ATOM     30  C   UNL A   1      35.729  32.522  27.944  1.00  0.00     0.014 A 
ATOM     31  C   UNL A   1      36.016  29.857  28.741  1.00  0.00     0.010 A 
ATOM     32  C   UNL A   1      36.937  32.087  28.493  1.00  0.00     0.010 A 
ATOM     33  C   UNL A   1      37.065  30.768  28.954  1.00  0.00    -0.014 A 
BRANCH  33  34
ATOM     34  C   UNL A   1      38.260  30.333  29.718  1.00  0.00     0.031 A 
ATOM     35  C   UNL A   1      38.451  30.771  31.146  1.00  0.00     0.074 A 
ATOM     36  C   UNL A   1      39.134  29.481  29.150  1.00  0.00     0.049 A 
ATOM     37  N   UNL A   1      39.424  30.484  31.975  1.00  0.00    -0.248 NA
ATOM     38  C   UNL A   1      37.417  31.647  31.720  1.00  0.00     0.031 C 
ATOM     39  C   UNL A   1      39.038  28.966  27.785  1.00  0.00     0.029 A 
ATOM     40  N   UNL A   1      40.254  28.876  29.660  1.00  0.00    -0.354 N 
ATOM     41  C   UNL A   1      39.132  31.157  33.153  1.00  0.00     0.074 A 
ATOM     42  C   UNL A   1      37.901  31.885  32.932  1.00  0.00     0.031 C 
ATOM     43  C   UNL A   1      40.024  28.080  27.582  1.00  0.00     0.029 A 
ATOM     44  C   UNL A   1      40.852  28.008  28.782  1.00  0.00     0.049 A 
ATOM     45  H   UNL A   1      40.595  29.048  30.567  1.00  0.00     0.167 HD
ATOM     46  C   UNL A   1      39.824  31.160  34.317  1.00  0.00     0.037 A 
ATOM     47  C   UNL A   1      41.950  27.244  28.925  1.00  0.00     0.037 A 
ATOM     48  C   UNL A   1      41.028  30.407  34.550  1.00  0.00     0.049 A 
ATOM     49  C   UNL A   1      42.715  27.291  30.216  1.00  0.00     0.074 A 
ATOM     50  C   UNL A   1      41.789  30.332  35.703  1.00  0.00     0.029 A 
ATOM     51  N   UNL A   1      41.641  29.593  33.611  1.00  0.00    -0.354 N 
ATOM     52  N   UNL A   1      42.441  27.951  31.315  1.00  0.00    -0.248 NA
ATOM     53  C   UNL A   1      43.952  26.500  30.281  1.00  0.00     0.031 C 
ATOM     54  C   UNL A   1      42.880  29.494  35.453  1.00  0.00     0.029 A 
ATOM     55  C   UNL A   1      42.780  29.022  34.155  1.00  0.00     0.049 A 
ATOM     56  H   UNL A   1      41.315  29.441  32.695  1.00  0.00     0.167 HD
ATOM     57  C   UNL A   1      43.469  27.661  32.199  1.00  0.00     0.074 A 
ATOM     58  C   UNL A   1      44.360  26.742  31.519  1.00  0.00     0.031 C 
ATOM     59  C   UNL A   1      43.661  28.122  33.459  1.00  0.00     0.037 A 
BRANCH  46  60
ATOM     60  C   UNL A   1      39.302  32.009  35.438  1.00  0.00     0.064 A 
ATOM     61  C   UNL A   1      38.459  31.483  36.426  1.00  0.00     0.173 A 
ATOM     62  C   UNL A   1      39.705  33.348  35.560  1.00  0.00     0.173 A 
ATOM     63  F   UNL A   1      38.034  30.212  36.345  1.00  0.00    -0.203 F 
ATOM     64  C   UNL A   1      38.029  32.269  37.492  1.00  0.00     0.198 A 
ATOM     65  C   UNL A   1      39.290  34.125  36.638  1.00  0.00     0.198 A 
ATOM     66  F   UNL A   1      40.516  33.896  34.642  1.00  0.00    -0.203 F 
ATOM     67  F   UNL A   1      37.201  31.754  38.411  1.00  0.00    -0.200 F 
ATOM     68  C   UNL A   1      38.451  33.586  37.602  1.00  0.00     0.200 A 
ATOM     69  F   UNL A   1      39.706  35.394  36.747  1.00  0.00    -0.200 F 
ATOM     70  F   UNL A   1      38.046  34.337  38.635  1.00  0.00    -0.200 F 
ENDBRANCH  46  60
BRANCH  47  71
ATOM     71  C   UNL A   1      42.384  26.372  27.807  1.00  0.00     0.064 A 
ATOM     72  C   UNL A   1      41.864  25.080  27.663  1.00  0.00     0.173 A 
ATOM     73  C   UNL A   1      43.293  26.826  26.841  1.00  0.00     0.173 A 
ATOM     74  F   UNL A   1      41.005  24.598  28.574  1.00  0.00    -0.203 F 
ATOM     75  C   UNL A   1      42.237  24.272  26.592  1.00  0.00     0.198 A 
ATOM     76  C   UNL A   1      43.649  26.026  25.758  1.00  0.00     0.198 A 
ATOM     77  F   UNL A   1      43.816  28.057  26.937  1.00  0.00    -0.203 F 
ATOM     78  F   UNL A   1      41.743  23.030  26.488  1.00  0.00    -0.200 F 
ATOM     79  C   UNL A   1      43.122  24.748  25.636  1.00  0.00     0.200 A 
ATOM     80  F   UNL A   1      44.493  26.495  24.830  1.00  0.00    -0.200 F 
ATOM     81  F   UNL A   1      43.470  23.975  24.597  1.00  0.00    -0.200 F 
ENDBRANCH  47  71
BRANCH  59  82
ATOM     82  C   UNL A   1      44.884  27.649  34.180  1.00  0.00     0.064 A 
ATOM     83  C   UNL A   1      44.871  26.462  34.927  1.00  0.00     0.173 A 
ATOM     84  C   UNL A   1      46.092  28.354  34.080  1.00  0.00     0.173 A 
ATOM     85  F   UNL A   1      43.733  25.762  35.061  1.00  0.00    -0.203 F 
ATOM     86  C   UNL A   1      46.022  26.005  35.561  1.00  0.00     0.198 A 
ATOM     87  C   UNL A   1      47.246  27.883  34.699  1.00  0.00     0.198 A 
ATOM     88  F   UNL A   1      46.154  29.491  33.372  1.00  0.00    -0.203 F 
ATOM     89  F   UNL A   1      45.981  24.884  36.294  1.00  0.00    -0.200 F 
ATOM     90  C   UNL A   1      47.210  26.711  35.440  1.00  0.00     0.200 A 
ATOM     91  F   UNL A   1      48.396  28.561  34.575  1.00  0.00    -0.200 F 
ATOM     92  F   UNL A   1      48.320  26.265  36.045  1.00  0.00    -0.200 F 
ENDBRANCH  59  82
ENDBRANCH  33  34
ENDBRANCH  25  28
ENDBRANCH  23  24
ENDBRANCH   1  23
TORSDOF 12
ENDMDL
MODEL 3
REMARK VINA RESULT:     -13.2      0.352      7.534
REMARK SMILES Cc1ccc2c(c1)C=C(C(=O)NCCCCNC(=O)c1ccc(-c3c4nc(c(-c5c(F)c(F)c(F)c(F)c5F)c5ccc([nH]5)c(-c5c(F)c(F)c(F)c(F)c5F)c5nc(c(-c6c(F)c(F)c(F)c(F)c6F)c6ccc3[nH]6)C=C5)C=C4)cc1)[C@@H](C(F)(F)F)O2
REMARK SMILES IDX 15 1 14 2 13 3 12 4 10 5 11 6 9 8 1 9 2 10 3 11 7 12 4 13
REMARK SMILES IDX 6 14 5 15 8 16 88 17 83 18 84 19 85 20 86 21 87 22 16 23
REMARK SMILES IDX 17 24 18 25 19 27 20 28 21 29 82 30 22 31 81 32 23 33 24 34
REMARK SMILES IDX 25 35 75 36 26 37 80 38 74 39 76 40 27 41 79 42 73 43 72 44
REMARK SMILES IDX 28 46 60 47 40 48 59 49 41 50 44 51 58 52 77 53 42 54 43 55
REMARK SMILES IDX 57 57 78 58 45 59 29 60 30 61 38 62 31 63 32 64 36 65 39 66
REMARK SMILES IDX 33 67 34 68 37 69 35 70 61 71 62 72 70 73 63 74 64 75 68 76
REMARK SMILES IDX 71 77 65 78 66 79 69 80 67 81 46 82 47 83 55 84 48 85 49 86
REMARK SMILES IDX 53 87 56 88 50 89 51 90 54 91 52 92
REMARK H PARENT 12 7 17 26 76 45 44 56
REMARK Flexibility Score: inf
ROOT
ATOM      1  C   UNL A   1      31.717  28.811  26.798  1.00  0.00     0.023 C 
ENDROOT
BRANCH   1   2
ATOM      2  C   UNL A   1      32.072  27.343  26.543  1.00  0.00     0.023 C 
BRANCH   2   3
ATOM      3  C   UNL A   1      31.022  26.568  25.752  1.00  0.00     0.116 C 
BRANCH   3   4
ATOM      4  N   UNL A   1      30.610  25.355  26.434  1.00  0.00    -0.352 N 
ATOM      5  C   UNL A   1      31.052  24.078  26.534  1.00  0.00     0.251 C 
ATOM      6  O   UNL A   1      30.365  23.344  27.251  1.00  0.00    -0.270 OA
ATOM      7  H   UNL A   1      29.792  25.496  26.964  1.00  0.00     0.163 HD
BRANCH   5   8
ATOM      8  C   UNL A   1      32.267  23.527  25.860  1.00  0.00     0.067 C 
ATOM      9  C   UNL A   1      38.440  23.882  26.126  1.00  0.00     0.044 C 
ATOM     10  C   UNL A   1      37.108  23.381  25.651  1.00  0.00    -0.050 A 
ATOM     11  C   UNL A   1      37.028  22.387  24.668  1.00  0.00     0.007 A 
ATOM     12  C   UNL A   1      35.927  23.880  26.220  1.00  0.00     0.015 A 
ATOM     13  C   UNL A   1      35.785  21.909  24.251  1.00  0.00     0.047 A 
ATOM     14  C   UNL A   1      34.679  23.405  25.801  1.00  0.00     0.017 A 
ATOM     15  C   UNL A   1      34.619  22.426  24.811  1.00  0.00     0.128 A 
ATOM     16  C   UNL A   1      33.444  23.879  26.411  1.00  0.00     0.025 C 
ATOM     17  O   UNL A   1      33.442  21.890  24.375  1.00  0.00    -0.475 OA
ATOM     18  C   UNL A   1      32.242  22.673  24.622  1.00  0.00     0.314 C 
BRANCH  18  19
ATOM     19  C   UNL A   1      31.898  23.479  23.355  1.00  0.00     0.429 C 
ATOM     20  F   UNL A   1      32.449  24.718  23.419  1.00  0.00    -0.167 F 
ATOM     21  F   UNL A   1      32.386  22.906  22.228  1.00  0.00    -0.167 F 
ATOM     22  F   UNL A   1      30.569  23.635  23.175  1.00  0.00    -0.167 F 
ENDBRANCH  18  19
ENDBRANCH   5   8
ENDBRANCH   3   4
ENDBRANCH   2   3
ENDBRANCH   1   2
BRANCH   1  23
ATOM     23  C   UNL A   1      32.638  29.836  26.140  1.00  0.00     0.116 C 
BRANCH  23  24
ATOM     24  N   UNL A   1      32.403  31.213  26.556  1.00  0.00    -0.352 N 
ATOM     25  C   UNL A   1      33.232  32.026  27.296  1.00  0.00     0.251 C 
ATOM     26  H   UNL A   1      31.547  31.609  26.274  1.00  0.00     0.163 HD
ATOM     27  O   UNL A   1      32.880  33.154  27.626  1.00  0.00    -0.269 OA
BRANCH  25  28
ATOM     28  C   UNL A   1      34.532  31.489  27.741  1.00  0.00     0.039 A 
ATOM     29  C   UNL A   1      34.675  30.126  28.002  1.00  0.00     0.014 A 
ATOM     30  C   UNL A   1      35.574  32.380  28.005  1.00  0.00     0.014 A 
ATOM     31  C   UNL A   1      35.793  29.680  28.696  1.00  0.00     0.010 A 
ATOM     32  C   UNL A   1      36.729  31.918  28.640  1.00  0.00     0.010 A 
ATOM     33  C   UNL A   1      36.817  30.577  29.047  1.00  0.00    -0.014 A 
BRANCH  33  34
ATOM     34  C   UNL A   1      37.938  30.104  29.894  1.00  0.00     0.031 A 
ATOM     35  C   UNL A   1      39.004  29.209  29.316  1.00  0.00     0.074 A 
ATOM     36  C   UNL A   1      38.040  30.541  31.163  1.00  0.00     0.049 A 
ATOM     37  N   UNL A   1      40.064  28.706  29.897  1.00  0.00    -0.248 NA
ATOM     38  C   UNL A   1      38.861  28.830  27.901  1.00  0.00     0.031 C 
ATOM     39  C   UNL A   1      37.086  31.432  31.823  1.00  0.00     0.029 A 
ATOM     40  N   UNL A   1      39.006  30.322  32.111  1.00  0.00    -0.354 N 
ATOM     41  C   UNL A   1      40.698  27.937  28.930  1.00  0.00     0.074 A 
ATOM     42  C   UNL A   1      39.898  28.021  27.728  1.00  0.00     0.031 C 
ATOM     43  C   UNL A   1      37.541  31.728  33.049  1.00  0.00     0.029 A 
ATOM     44  C   UNL A   1      38.788  31.006  33.280  1.00  0.00     0.049 A 
ATOM     45  H   UNL A   1      39.781  29.732  31.965  1.00  0.00     0.167 HD
ATOM     46  C   UNL A   1      41.849  27.231  29.036  1.00  0.00     0.037 A 
ATOM     47  C   UNL A   1      39.509  31.040  34.416  1.00  0.00     0.037 A 
ATOM     48  C   UNL A   1      42.665  27.177  30.220  1.00  0.00     0.049 A 
ATOM     49  C   UNL A   1      40.765  30.224  34.515  1.00  0.00     0.074 A 
ATOM     50  C   UNL A   1      43.859  26.504  30.415  1.00  0.00     0.029 A 
ATOM     51  N   UNL A   1      42.373  27.828  31.408  1.00  0.00    -0.354 N 
ATOM     52  N   UNL A   1      41.340  29.481  33.601  1.00  0.00    -0.248 NA
ATOM     53  C   UNL A   1      41.461  30.236  35.809  1.00  0.00     0.031 C 
ATOM     54  C   UNL A   1      44.275  26.725  31.732  1.00  0.00     0.029 A 
ATOM     55  C   UNL A   1      43.357  27.561  32.346  1.00  0.00     0.049 A 
ATOM     56  H   UNL A   1      41.585  28.396  31.562  1.00  0.00     0.167 HD
ATOM     57  C   UNL A   1      42.462  28.935  34.207  1.00  0.00     0.074 A 
ATOM     58  C   UNL A   1      42.502  29.453  35.559  1.00  0.00     0.031 C 
ATOM     59  C   UNL A   1      43.372  28.075  33.690  1.00  0.00     0.037 A 
BRANCH  46  60
ATOM     60  C   UNL A   1      42.303  26.450  27.838  1.00  0.00     0.064 A 
ATOM     61  C   UNL A   1      43.246  26.966  26.939  1.00  0.00     0.173 A 
ATOM     62  C   UNL A   1      41.835  25.144  27.625  1.00  0.00     0.173 A 
ATOM     63  F   UNL A   1      43.711  28.216  27.092  1.00  0.00    -0.203 F 
ATOM     64  C   UNL A   1      43.699  26.206  25.863  1.00  0.00     0.198 A 
ATOM     65  C   UNL A   1      42.306  24.380  26.561  1.00  0.00     0.198 A 
ATOM     66  F   UNL A   1      40.935  24.604  28.461  1.00  0.00    -0.203 F 
ATOM     67  F   UNL A   1      44.581  26.729  25.001  1.00  0.00    -0.200 F 
ATOM     68  C   UNL A   1      43.235  24.912  25.680  1.00  0.00     0.200 A 
ATOM     69  F   UNL A   1      41.862  23.127  26.390  1.00  0.00    -0.200 F 
ATOM     70  F   UNL A   1      43.681  24.178  24.651  1.00  0.00    -0.200 F 
ENDBRANCH  46  60
BRANCH  47  71
ATOM     71  C   UNL A   1      39.049  31.882  35.546  1.00  0.00     0.064 A 
ATOM     72  C   UNL A   1      38.232  31.349  36.551  1.00  0.00     0.173 A 
ATOM     73  C   UNL A   1      39.448  33.221  35.665  1.00  0.00     0.173 A 
ATOM     74  F   UNL A   1      37.811  30.078  36.467  1.00  0.00    -0.203 F 
ATOM     75  C   UNL A   1      37.830  32.126  37.635  1.00  0.00     0.198 A 
ATOM     76  C   UNL A   1      39.063  33.990  36.761  1.00  0.00     0.198 A 
ATOM     77  F   UNL A   1      40.232  33.774  34.728  1.00  0.00    -0.203 F 
ATOM     78  F   UNL A   1      37.029  31.599  38.572  1.00  0.00    -0.200 F 
ATOM     79  C   UNL A   1      38.252  33.442  37.744  1.00  0.00     0.200 A 
ATOM     80  F   UNL A   1      39.486  35.257  36.869  1.00  0.00    -0.200 F 
ATOM     81  F   UNL A   1      37.877  34.184  38.795  1.00  0.00    -0.200 F 
ENDBRANCH  47  71
BRANCH  59  82
ATOM     82  C   UNL A   1      44.482  27.631  34.592  1.00  0.00     0.064 A 
ATOM     83  C   UNL A   1      44.360  26.474  35.374  1.00  0.00     0.173 A 
ATOM     84  C   UNL A   1      45.695  28.333  34.633  1.00  0.00     0.173 A 
ATOM     85  F   UNL A   1      43.213  25.778  35.376  1.00  0.00    -0.203 F 
ATOM     86  C   UNL A   1      45.411  26.043  36.178  1.00  0.00     0.198 A 
ATOM     87  C   UNL A   1      46.751  27.888  35.423  1.00  0.00     0.198 A 
ATOM     88  F   UNL A   1      45.859  29.442  33.898  1.00  0.00    -0.203 F 
ATOM     89  F   UNL A   1      45.265  24.950  36.941  1.00  0.00    -0.200 F 
ATOM     90  C   UNL A   1      46.607  26.745  36.196  1.00  0.00     0.200 A 
ATOM     91  F   UNL A   1      47.909  28.562  35.434  1.00  0.00    -0.200 F 
ATOM     92  F   UNL A   1      47.621  26.324  36.966  1.00  0.00    -0.200 F 
ENDBRANCH  59  82
ENDBRANCH  33  34
ENDBRANCH  25  28
ENDBRANCH  23  24
ENDBRANCH   1  23
TORSDOF 12
ENDMDL
