MODEL 1
REMARK VINA RESULT:     -12.5      0.000      0.000
REMARK SMILES C[C@@]([NH2+]CC(=O)NC1CCOCC1)(C(=O)NCCCCNC(=O)c1ccc(-c2c3nc(c(-c4c(F)c(F)c(F)c(F)c4F)c4ccc([nH]4)c(-c4c(F)c(F)c(F)c(F)c4F)c4nc(c(-c5c(F)c(F)c(F)c(F)c5F)c5ccc2[nH]5)C=C4)C=C3)cc1)C(F)(F)F
REMARK SMILES IDX 17 1 16 2 14 3 15 4 2 6 1 7 3 8 4 11 5 12 6 13 7 14 8 16
REMARK SMILES IDX 9 17 13 18 10 19 12 20 11 21 87 22 88 23 89 24 90 25 18 26
REMARK SMILES IDX 19 27 20 28 21 29 22 30 23 32 24 33 25 34 86 35 26 36 85 37
REMARK SMILES IDX 27 38 28 39 29 40 79 41 30 42 84 43 78 44 80 45 31 46 83 47
REMARK SMILES IDX 77 48 76 49 32 51 64 52 44 53 63 54 45 55 48 56 62 57 81 58
REMARK SMILES IDX 46 59 47 60 61 62 82 63 49 64 33 65 34 66 42 67 35 68 36 69
REMARK SMILES IDX 40 70 43 71 37 72 38 73 41 74 39 75 65 76 66 77 74 78 67 79
REMARK SMILES IDX 68 80 72 81 75 82 69 83 70 84 73 85 71 86 50 87 51 88 59 89
REMARK SMILES IDX 52 90 53 91 57 92 60 93 54 94 55 95 58 96 56 97
REMARK H PARENT 16 5 3 9 3 10 7 15 21 31 80 50 48 61
REMARK Flexibility Score: inf
ROOT
ATOM      1  C   UNL A   1      32.701  29.912  26.921  1.00  0.00     0.116 C 
ENDROOT
BRANCH   1   2
ATOM      2  N   UNL A   1      32.082  28.642  27.193  1.00  0.00    -0.350 N 
ATOM      3  C   UNL A   1      31.590  27.628  26.439  1.00  0.00     0.290 C 
ATOM      4  O   UNL A   1      30.796  26.987  27.140  1.00  0.00    -0.267 OA
ATOM      5  H   UNL A   1      31.997  28.466  28.158  1.00  0.00     0.163 HD
BRANCH   3   6
ATOM      6  C   UNL A   1      32.199  27.096  25.055  1.00  0.00     0.268 C 
ATOM      7  C   UNL A   1      31.895  25.583  24.963  1.00  0.00     0.101 C 
BRANCH   6   8
ATOM      8  N   UNL A   1      31.505  27.937  24.008  1.00  0.00    -0.318 N 
ATOM      9  H   UNL A   1      32.217  28.317  23.383  1.00  0.00     0.347 HD
ATOM     10  H   UNL A   1      30.989  28.659  24.510  1.00  0.00     0.347 HD
BRANCH   8  11
ATOM     11  C   UNL A   1      30.491  27.187  23.169  1.00  0.00     0.362 C 
BRANCH  11  12
ATOM     12  C   UNL A   1      29.001  27.541  23.372  1.00  0.00     0.275 C 
ATOM     13  O   UNL A   1      28.258  26.646  23.807  1.00  0.00    -0.268 OA
ATOM     14  N   UNL A   1      28.382  28.738  23.138  1.00  0.00    -0.348 N 
ATOM     15  H   UNL A   1      27.441  28.693  23.424  1.00  0.00     0.163 HD
BRANCH  14  16
ATOM     16  C   UNL A   1      28.684  30.095  22.585  1.00  0.00     0.086 C 
ATOM     17  C   UNL A   1      28.226  31.192  23.576  1.00  0.00     0.053 C 
ATOM     18  C   UNL A   1      27.926  30.490  21.309  1.00  0.00     0.053 C 
ATOM     19  C   UNL A   1      28.395  32.623  23.024  1.00  0.00     0.162 C 
ATOM     20  C   UNL A   1      28.444  31.817  20.806  1.00  0.00     0.162 C 
ATOM     21  O   UNL A   1      27.943  32.811  21.683  1.00  0.00    -0.381 OA
ENDBRANCH  14  16
ENDBRANCH  11  12
ENDBRANCH   8  11
ENDBRANCH   6   8
BRANCH   6  22
ATOM     22  C   UNL A   1      33.753  27.053  24.777  1.00  0.00     0.453 C 
ATOM     23  F   UNL A   1      34.439  26.428  25.761  1.00  0.00    -0.164 F 
ATOM     24  F   UNL A   1      33.996  26.343  23.633  1.00  0.00    -0.164 F 
ATOM     25  F   UNL A   1      34.346  28.227  24.534  1.00  0.00    -0.164 F 
ENDBRANCH   6  22
ENDBRANCH   3   6
ENDBRANCH   1   2
BRANCH   1  26
ATOM     26  C   UNL A   1      31.749  30.768  26.086  1.00  0.00     0.023 C 
BRANCH  26  27
ATOM     27  C   UNL A   1      31.446  32.140  26.700  1.00  0.00     0.023 C 
BRANCH  27  28
ATOM     28  C   UNL A   1      32.643  32.825  27.354  1.00  0.00     0.116 C 
BRANCH  28  29
ATOM     29  N   UNL A   1      32.384  34.220  27.684  1.00  0.00    -0.352 N 
ATOM     30  C   UNL A   1      33.020  35.029  28.582  1.00  0.00     0.251 C 
ATOM     31  H   UNL A   1      31.643  34.639  27.188  1.00  0.00     0.163 HD
ATOM     32  O   UNL A   1      32.614  36.168  28.793  1.00  0.00    -0.269 OA
BRANCH  30  33
ATOM     33  C   UNL A   1      34.172  34.500  29.324  1.00  0.00     0.039 A 
ATOM     34  C   UNL A   1      33.940  33.885  30.555  1.00  0.00     0.014 A 
ATOM     35  C   UNL A   1      35.460  34.577  28.787  1.00  0.00     0.014 A 
ATOM     36  C   UNL A   1      35.001  33.296  31.232  1.00  0.00     0.010 A 
ATOM     37  C   UNL A   1      36.506  33.932  29.431  1.00  0.00     0.010 A 
ATOM     38  C   UNL A   1      36.284  33.290  30.660  1.00  0.00    -0.014 A 
BRANCH  38  39
ATOM     39  C   UNL A   1      37.410  32.619  31.346  1.00  0.00     0.031 A 
ATOM     40  C   UNL A   1      38.120  31.480  30.675  1.00  0.00     0.074 A 
ATOM     41  C   UNL A   1      37.753  33.011  32.587  1.00  0.00     0.049 A 
ATOM     42  N   UNL A   1      39.101  30.741  31.122  1.00  0.00    -0.248 NA
ATOM     43  C   UNL A   1      37.646  31.104  29.333  1.00  0.00     0.031 C 
ATOM     44  C   UNL A   1      37.099  34.076  33.348  1.00  0.00     0.029 A 
ATOM     45  N   UNL A   1      38.735  32.555  33.428  1.00  0.00    -0.354 N 
ATOM     46  C   UNL A   1      39.351  29.806  30.127  1.00  0.00     0.074 A 
ATOM     47  C   UNL A   1      38.383  30.035  29.076  1.00  0.00     0.031 C 
ATOM     48  C   UNL A   1      37.715  34.211  34.533  1.00  0.00     0.029 A 
ATOM     49  C   UNL A   1      38.781  33.219  34.628  1.00  0.00     0.049 A 
ATOM     50  H   UNL A   1      39.348  31.821  33.194  1.00  0.00     0.167 HD
ATOM     51  C   UNL A   1      40.317  28.860  30.086  1.00  0.00     0.037 A 
ATOM     52  C   UNL A   1      39.595  33.042  35.686  1.00  0.00     0.037 A 
ATOM     53  C   UNL A   1      41.290  28.660  31.127  1.00  0.00     0.049 A 
ATOM     54  C   UNL A   1      40.657  31.980  35.614  1.00  0.00     0.074 A 
ATOM     55  C   UNL A   1      42.351  27.774  31.158  1.00  0.00     0.029 A 
ATOM     56  N   UNL A   1      41.314  29.358  32.327  1.00  0.00    -0.354 N 
ATOM     57  N   UNL A   1      40.935  31.151  34.638  1.00  0.00    -0.248 NA
ATOM     58  C   UNL A   1      41.524  31.834  36.791  1.00  0.00     0.031 C 
ATOM     59  C   UNL A   1      42.988  27.901  32.398  1.00  0.00     0.029 A 
ATOM     60  C   UNL A   1      42.357  28.904  33.117  1.00  0.00     0.049 A 
ATOM     61  H   UNL A   1      40.683  30.070  32.579  1.00  0.00     0.167 HD
ATOM     62  C   UNL A   1      42.024  30.406  35.067  1.00  0.00     0.074 A 
ATOM     63  C   UNL A   1      42.366  30.892  36.388  1.00  0.00     0.031 C 
ATOM     64  C   UNL A   1      42.683  29.409  34.426  1.00  0.00     0.037 A 
BRANCH  51  65
ATOM     65  C   UNL A   1      40.366  27.969  28.878  1.00  0.00     0.064 A 
ATOM     66  C   UNL A   1      39.682  26.744  28.836  1.00  0.00     0.173 A 
ATOM     67  C   UNL A   1      41.085  28.357  27.738  1.00  0.00     0.173 A 
ATOM     68  F   UNL A   1      38.990  26.320  29.904  1.00  0.00    -0.203 F 
ATOM     69  C   UNL A   1      39.742  25.928  27.710  1.00  0.00     0.198 A 
ATOM     70  C   UNL A   1      41.117  27.553  26.602  1.00  0.00     0.198 A 
ATOM     71  F   UNL A   1      41.756  29.519  27.724  1.00  0.00    -0.203 F 
ATOM     72  F   UNL A   1      39.125  24.739  27.713  1.00  0.00    -0.200 F 
ATOM     73  C   UNL A   1      40.453  26.335  26.591  1.00  0.00     0.200 A 
ATOM     74  F   UNL A   1      41.796  27.954  25.518  1.00  0.00    -0.200 F 
ATOM     75  F   UNL A   1      40.505  25.551  25.506  1.00  0.00    -0.200 F 
ENDBRANCH  51  65
BRANCH  52  76
ATOM     76  C   UNL A   1      39.455  33.909  36.884  1.00  0.00     0.064 A 
ATOM     77  C   UNL A   1      40.058  35.175  36.929  1.00  0.00     0.173 A 
ATOM     78  C   UNL A   1      38.719  33.496  38.005  1.00  0.00     0.173 A 
ATOM     79  F   UNL A   1      40.784  35.607  35.888  1.00  0.00    -0.203 F 
ATOM     80  C   UNL A   1      39.949  35.984  38.058  1.00  0.00     0.198 A 
ATOM     81  C   UNL A   1      38.587  34.319  39.122  1.00  0.00     0.198 A 
ATOM     82  F   UNL A   1      38.117  32.299  38.009  1.00  0.00    -0.203 F 
ATOM     83  F   UNL A   1      40.572  37.170  38.092  1.00  0.00    -0.200 F 
ATOM     84  C   UNL A   1      39.209  35.558  39.151  1.00  0.00     0.200 A 
ATOM     85  F   UNL A   1      37.860  33.910  40.170  1.00  0.00    -0.200 F 
ATOM     86  F   UNL A   1      39.102  36.338  40.235  1.00  0.00    -0.200 F 
ENDBRANCH  52  76
BRANCH  64  87
ATOM     87  C   UNL A   1      43.862  28.803  35.131  1.00  0.00     0.064 A 
ATOM     88  C   UNL A   1      43.726  27.685  35.967  1.00  0.00     0.173 A 
ATOM     89  C   UNL A   1      45.149  29.325  34.933  1.00  0.00     0.173 A 
ATOM     90  F   UNL A   1      42.513  27.160  36.200  1.00  0.00    -0.203 F 
ATOM     91  C   UNL A   1      44.833  27.127  36.599  1.00  0.00     0.198 A 
ATOM     92  C   UNL A   1      46.258  28.744  35.541  1.00  0.00     0.198 A 
ATOM     93  F   UNL A   1      45.334  30.388  34.137  1.00  0.00    -0.203 F 
ATOM     94  F   UNL A   1      44.673  26.090  37.433  1.00  0.00    -0.200 F 
ATOM     95  C   UNL A   1      46.098  27.651  36.379  1.00  0.00     0.200 A 
ATOM     96  F   UNL A   1      47.481  29.242  35.316  1.00  0.00    -0.200 F 
ATOM     97  F   UNL A   1      47.164  27.107  36.982  1.00  0.00    -0.200 F 
ENDBRANCH  64  87
ENDBRANCH  38  39
ENDBRANCH  30  33
ENDBRANCH  28  29
ENDBRANCH  27  28
ENDBRANCH  26  27
ENDBRANCH   1  26
TORSDOF 16
ENDMDL
MODEL 2
REMARK VINA RESULT:     -12.5      0.827      1.868
REMARK SMILES C[C@@]([NH2+]CC(=O)NC1CCOCC1)(C(=O)NCCCCNC(=O)c1ccc(-c2c3nc(c(-c4c(F)c(F)c(F)c(F)c4F)c4ccc([nH]4)c(-c4c(F)c(F)c(F)c(F)c4F)c4nc(c(-c5c(F)c(F)c(F)c(F)c5F)c5ccc2[nH]5)C=C4)C=C3)cc1)C(F)(F)F
REMARK SMILES IDX 17 1 16 2 14 3 15 4 2 6 1 7 3 8 4 11 5 12 6 13 7 14 8 16
REMARK SMILES IDX 9 17 13 18 10 19 12 20 11 21 87 22 88 23 89 24 90 25 18 26
REMARK SMILES IDX 19 27 20 28 21 29 22 30 23 32 24 33 25 34 86 35 26 36 85 37
REMARK SMILES IDX 27 38 28 39 29 40 79 41 30 42 84 43 78 44 80 45 31 46 83 47
REMARK SMILES IDX 77 48 76 49 32 51 64 52 44 53 63 54 45 55 48 56 62 57 81 58
REMARK SMILES IDX 46 59 47 60 61 62 82 63 49 64 33 65 34 66 42 67 35 68 36 69
REMARK SMILES IDX 40 70 43 71 37 72 38 73 41 74 39 75 65 76 66 77 74 78 67 79
REMARK SMILES IDX 68 80 72 81 75 82 69 83 70 84 73 85 71 86 50 87 51 88 59 89
REMARK SMILES IDX 52 90 53 91 57 92 60 93 54 94 55 95 58 96 56 97
REMARK H PARENT 16 5 3 9 3 10 7 15 21 31 80 50 48 61
REMARK Flexibility Score: inf
ROOT
ATOM      1  C   UNL A   1      33.123  30.048  26.109  1.00  0.00     0.116 C 
ENDROOT
BRANCH   1   2
ATOM      2  N   UNL A   1      33.299  29.729  24.717  1.00  0.00    -0.350 N 
ATOM      3  C   UNL A   1      33.578  28.603  24.014  1.00  0.00     0.290 C 
ATOM      4  O   UNL A   1      34.041  28.948  22.918  1.00  0.00    -0.267 OA
ATOM      5  H   UNL A   1      33.191  30.516  24.136  1.00  0.00     0.163 HD
BRANCH   3   6
ATOM      6  C   UNL A   1      33.045  27.127  24.340  1.00  0.00     0.268 C 
ATOM      7  C   UNL A   1      33.743  26.654  25.635  1.00  0.00     0.101 C 
BRANCH   6   8
ATOM      8  N   UNL A   1      31.548  27.304  24.464  1.00  0.00    -0.318 N 
ATOM      9  H   UNL A   1      31.370  28.009  25.180  1.00  0.00     0.347 HD
ATOM     10  H   UNL A   1      31.166  26.389  24.702  1.00  0.00     0.347 HD
BRANCH   8  11
ATOM     11  C   UNL A   1      30.858  27.741  23.188  1.00  0.00     0.362 C 
BRANCH  11  12
ATOM     12  C   UNL A   1      29.328  27.944  23.241  1.00  0.00     0.275 C 
ATOM     13  O   UNL A   1      28.639  26.983  23.620  1.00  0.00    -0.268 OA
ATOM     14  N   UNL A   1      28.618  29.071  22.927  1.00  0.00    -0.348 N 
ATOM     15  H   UNL A   1      27.663  28.933  23.123  1.00  0.00     0.163 HD
BRANCH  14  16
ATOM     16  C   UNL A   1      28.836  30.447  22.381  1.00  0.00     0.086 C 
ATOM     17  C   UNL A   1      28.705  31.499  23.509  1.00  0.00     0.053 C 
ATOM     18  C   UNL A   1      27.796  30.944  21.366  1.00  0.00     0.053 C 
ATOM     19  C   UNL A   1      28.797  32.952  23.002  1.00  0.00     0.162 C 
ATOM     20  C   UNL A   1      28.233  32.279  20.811  1.00  0.00     0.162 C 
ATOM     21  O   UNL A   1      28.025  33.237  21.835  1.00  0.00    -0.381 OA
ENDBRANCH  14  16
ENDBRANCH  11  12
ENDBRANCH   8  11
ENDBRANCH   6   8
BRANCH   6  22
ATOM     22  C   UNL A   1      33.371  25.888  23.416  1.00  0.00     0.453 C 
ATOM     23  F   UNL A   1      34.494  25.239  23.798  1.00  0.00    -0.164 F 
ATOM     24  F   UNL A   1      32.356  24.974  23.498  1.00  0.00    -0.164 F 
ATOM     25  F   UNL A   1      33.453  26.131  22.103  1.00  0.00    -0.164 F 
ENDBRANCH   6  22
ENDBRANCH   3   6
ENDBRANCH   1   2
BRANCH   1  26
ATOM     26  C   UNL A   1      31.680  30.490  26.346  1.00  0.00     0.023 C 
BRANCH  26  27
ATOM     27  C   UNL A   1      31.515  32.004  26.526  1.00  0.00     0.023 C 
BRANCH  27  28
ATOM     28  C   UNL A   1      32.661  32.687  27.268  1.00  0.00     0.116 C 
BRANCH  28  29
ATOM     29  N   UNL A   1      32.362  34.068  27.620  1.00  0.00    -0.352 N 
ATOM     30  C   UNL A   1      32.973  34.879  28.533  1.00  0.00     0.251 C 
ATOM     31  H   UNL A   1      31.612  34.475  27.128  1.00  0.00     0.163 HD
ATOM     32  O   UNL A   1      32.534  36.003  28.762  1.00  0.00    -0.269 OA
BRANCH  30  33
ATOM     33  C   UNL A   1      34.137  34.370  29.271  1.00  0.00     0.039 A 
ATOM     34  C   UNL A   1      33.916  33.705  30.477  1.00  0.00     0.014 A 
ATOM     35  C   UNL A   1      35.426  34.516  28.752  1.00  0.00     0.014 A 
ATOM     36  C   UNL A   1      34.992  33.135  31.146  1.00  0.00     0.010 A 
ATOM     37  C   UNL A   1      36.489  33.890  29.387  1.00  0.00     0.010 A 
ATOM     38  C   UNL A   1      36.280  33.199  30.591  1.00  0.00    -0.014 A 
BRANCH  38  39
ATOM     39  C   UNL A   1      37.425  32.549  31.266  1.00  0.00     0.031 A 
ATOM     40  C   UNL A   1      38.154  31.427  30.586  1.00  0.00     0.074 A 
ATOM     41  C   UNL A   1      37.767  32.943  32.506  1.00  0.00     0.049 A 
ATOM     42  N   UNL A   1      39.153  30.707  31.025  1.00  0.00    -0.248 NA
ATOM     43  C   UNL A   1      37.680  31.047  29.246  1.00  0.00     0.031 C 
ATOM     44  C   UNL A   1      37.096  33.992  33.276  1.00  0.00     0.029 A 
ATOM     45  N   UNL A   1      38.764  32.504  33.339  1.00  0.00    -0.354 N 
ATOM     46  C   UNL A   1      39.416  29.782  30.024  1.00  0.00     0.074 A 
ATOM     47  C   UNL A   1      38.437  29.994  28.980  1.00  0.00     0.031 C 
ATOM     48  C   UNL A   1      37.717  34.135  34.457  1.00  0.00     0.029 A 
ATOM     49  C   UNL A   1      38.804  33.165  34.542  1.00  0.00     0.049 A 
ATOM     50  H   UNL A   1      39.390  31.785  33.099  1.00  0.00     0.167 HD
ATOM     51  C   UNL A   1      40.401  28.856  29.973  1.00  0.00     0.037 A 
ATOM     52  C   UNL A   1      39.627  33.001  35.594  1.00  0.00     0.037 A 
ATOM     53  C   UNL A   1      41.385  28.672  31.008  1.00  0.00     0.049 A 
ATOM     54  C   UNL A   1      40.712  31.962  35.512  1.00  0.00     0.074 A 
ATOM     55  C   UNL A   1      42.465  27.809  31.028  1.00  0.00     0.029 A 
ATOM     56  N   UNL A   1      41.402  29.367  32.210  1.00  0.00    -0.354 N 
ATOM     57  N   UNL A   1      41.000  31.142  34.530  1.00  0.00    -0.248 NA
ATOM     58  C   UNL A   1      41.589  31.829  36.682  1.00  0.00     0.031 C 
ATOM     59  C   UNL A   1      43.107  27.945  32.264  1.00  0.00     0.029 A 
ATOM     60  C   UNL A   1      42.460  28.931  32.991  1.00  0.00     0.049 A 
ATOM     61  H   UNL A   1      40.758  30.065  32.468  1.00  0.00     0.167 HD
ATOM     62  C   UNL A   1      42.108  30.419  34.949  1.00  0.00     0.074 A 
ATOM     63  C   UNL A   1      42.448  30.907  36.270  1.00  0.00     0.031 C 
ATOM     64  C   UNL A   1      42.784  29.438  34.300  1.00  0.00     0.037 A 
BRANCH  51  65
ATOM     65  C   UNL A   1      40.461  27.972  28.761  1.00  0.00     0.064 A 
ATOM     66  C   UNL A   1      41.210  28.324  27.627  1.00  0.00     0.173 A 
ATOM     67  C   UNL A   1      39.783  26.744  28.742  1.00  0.00     0.173 A 
ATOM     68  F   UNL A   1      41.867  29.494  27.588  1.00  0.00    -0.203 F 
ATOM     69  C   UNL A   1      41.251  27.496  26.510  1.00  0.00     0.198 A 
ATOM     70  C   UNL A   1      39.853  25.903  27.636  1.00  0.00     0.198 A 
ATOM     71  F   UNL A   1      39.054  26.358  29.800  1.00  0.00    -0.203 F 
ATOM     72  F   UNL A   1      41.929  27.878  25.419  1.00  0.00    -0.200 F 
ATOM     73  C   UNL A   1      40.579  26.283  26.516  1.00  0.00     0.200 A 
ATOM     74  F   UNL A   1      39.211  24.726  27.649  1.00  0.00    -0.200 F 
ATOM     75  F   UNL A   1      40.625  25.483  25.442  1.00  0.00    -0.200 F 
ENDBRANCH  51  65
BRANCH  52  76
ATOM     76  C   UNL A   1      39.477  33.860  36.796  1.00  0.00     0.064 A 
ATOM     77  C   UNL A   1      40.079  35.126  36.855  1.00  0.00     0.173 A 
ATOM     78  C   UNL A   1      38.733  33.440  37.908  1.00  0.00     0.173 A 
ATOM     79  F   UNL A   1      40.814  35.565  35.822  1.00  0.00    -0.203 F 
ATOM     80  C   UNL A   1      39.960  35.929  37.987  1.00  0.00     0.198 A 
ATOM     81  C   UNL A   1      38.591  34.255  39.030  1.00  0.00     0.198 A 
ATOM     82  F   UNL A   1      38.132  32.242  37.900  1.00  0.00    -0.203 F 
ATOM     83  F   UNL A   1      40.582  37.114  38.034  1.00  0.00    -0.200 F 
ATOM     84  C   UNL A   1      39.212  35.495  39.072  1.00  0.00     0.200 A 
ATOM     85  F   UNL A   1      37.855  33.839  40.069  1.00  0.00    -0.200 F 
ATOM     86  F   UNL A   1      39.095  36.268  40.160  1.00  0.00    -0.200 F 
ENDBRANCH  52  76
BRANCH  64  87
ATOM     87  C   UNL A   1      43.979  28.855  34.995  1.00  0.00     0.064 A 
ATOM     88  C   UNL A   1      45.257  29.418  34.860  1.00  0.00     0.173 A 
ATOM     89  C   UNL A   1      43.835  27.744  35.840  1.00  0.00     0.173 A 
ATOM     90  F   UNL A   1      45.448  30.472  34.052  1.00  0.00    -0.203 F 
ATOM     91  C   UNL A   1      46.351  28.873  35.525  1.00  0.00     0.198 A 
ATOM     92  C   UNL A   1      44.926  27.222  36.529  1.00  0.00     0.198 A 
ATOM     93  F   UNL A   1      42.633  27.174  36.009  1.00  0.00    -0.203 F 
ATOM     94  F   UNL A   1      47.572  29.396  35.343  1.00  0.00    -0.200 F 
ATOM     95  C   UNL A   1      46.184  27.782  36.365  1.00  0.00     0.200 A 
ATOM     96  F   UNL A   1      44.759  26.177  37.351  1.00  0.00    -0.200 F 
ATOM     97  F   UNL A   1      47.237  27.264  37.011  1.00  0.00    -0.200 F 
ENDBRANCH  64  87
ENDBRANCH  38  39
ENDBRANCH  30  33
ENDBRANCH  28  29
ENDBRANCH  27  28
ENDBRANCH  26  27
ENDBRANCH   1  26
TORSDOF 16
ENDMDL
MODEL 3
REMARK VINA RESULT:     -12.4      0.965      7.362
REMARK SMILES C[C@@]([NH2+]CC(=O)NC1CCOCC1)(C(=O)NCCCCNC(=O)c1ccc(-c2c3nc(c(-c4c(F)c(F)c(F)c(F)c4F)c4ccc([nH]4)c(-c4c(F)c(F)c(F)c(F)c4F)c4nc(c(-c5c(F)c(F)c(F)c(F)c5F)c5ccc2[nH]5)C=C4)C=C3)cc1)C(F)(F)F
REMARK SMILES IDX 17 1 16 2 14 3 15 4 2 6 1 7 3 8 4 11 5 12 6 13 7 14 8 16
REMARK SMILES IDX 9 17 13 18 10 19 12 20 11 21 87 22 88 23 89 24 90 25 18 26
REMARK SMILES IDX 19 27 20 28 21 29 22 30 23 32 24 33 25 34 86 35 26 36 85 37
REMARK SMILES IDX 27 38 28 39 29 40 79 41 30 42 84 43 78 44 80 45 31 46 83 47
REMARK SMILES IDX 77 48 76 49 32 51 64 52 44 53 63 54 45 55 48 56 62 57 81 58
REMARK SMILES IDX 46 59 47 60 61 62 82 63 49 64 33 65 34 66 42 67 35 68 36 69
REMARK SMILES IDX 40 70 43 71 37 72 38 73 41 74 39 75 65 76 66 77 74 78 67 79
REMARK SMILES IDX 68 80 72 81 75 82 69 83 70 84 73 85 71 86 50 87 51 88 59 89
REMARK SMILES IDX 52 90 53 91 57 92 60 93 54 94 55 95 58 96 56 97
REMARK H PARENT 16 5 3 9 3 10 7 15 21 31 80 50 48 61
REMARK Flexibility Score: inf
ROOT
ATOM      1  C   UNL A   1      32.995  30.194  26.131  1.00  0.00     0.116 C 
ENDROOT
BRANCH   1   2
ATOM      2  N   UNL A   1      33.277  29.779  24.783  1.00  0.00    -0.350 N 
ATOM      3  C   UNL A   1      33.572  28.601  24.178  1.00  0.00     0.290 C 
ATOM      4  O   UNL A   1      34.139  28.859  23.108  1.00  0.00    -0.267 OA
ATOM      5  H   UNL A   1      33.247  30.530  24.146  1.00  0.00     0.163 HD
BRANCH   3   6
ATOM      6  C   UNL A   1      32.960  27.167  24.548  1.00  0.00     0.268 C 
ATOM      7  C   UNL A   1      33.578  26.729  25.895  1.00  0.00     0.101 C 
BRANCH   6   8
ATOM      8  N   UNL A   1      31.468  27.414  24.595  1.00  0.00    -0.318 N 
ATOM      9  H   UNL A   1      31.289  28.147  25.282  1.00  0.00     0.347 HD
ATOM     10  H   UNL A   1      31.034  26.524  24.839  1.00  0.00     0.347 HD
BRANCH   8  11
ATOM     11  C   UNL A   1      30.860  27.842  23.275  1.00  0.00     0.362 C 
BRANCH  11  12
ATOM     12  C   UNL A   1      29.325  28.000  23.218  1.00  0.00     0.275 C 
ATOM     13  O   UNL A   1      28.640  27.015  23.540  1.00  0.00    -0.268 OA
ATOM     14  N   UNL A   1      28.606  29.108  22.862  1.00  0.00    -0.348 N 
ATOM     15  H   UNL A   1      27.644  28.941  22.987  1.00  0.00     0.163 HD
BRANCH  14  16
ATOM     16  C   UNL A   1      28.822  30.495  22.342  1.00  0.00     0.086 C 
ATOM     17  C   UNL A   1      28.810  31.512  23.509  1.00  0.00     0.053 C 
ATOM     18  C   UNL A   1      27.721  31.053  21.428  1.00  0.00     0.053 C 
ATOM     19  C   UNL A   1      28.906  32.979  23.040  1.00  0.00     0.162 C 
ATOM     20  C   UNL A   1      28.153  32.394  20.881  1.00  0.00     0.162 C 
ATOM     21  O   UNL A   1      28.054  33.322  21.948  1.00  0.00    -0.381 OA
ENDBRANCH  14  16
ENDBRANCH  11  12
ENDBRANCH   8  11
ENDBRANCH   6   8
BRANCH   6  22
ATOM     22  C   UNL A   1      33.271  25.871  23.700  1.00  0.00     0.453 C 
ATOM     23  F   UNL A   1      34.477  25.335  23.995  1.00  0.00    -0.164 F 
ATOM     24  F   UNL A   1      32.344  24.904  23.982  1.00  0.00    -0.164 F 
ATOM     25  F   UNL A   1      33.181  25.995  22.371  1.00  0.00    -0.164 F 
ENDBRANCH   6  22
ENDBRANCH   3   6
ENDBRANCH   1   2
BRANCH   1  26
ATOM     26  C   UNL A   1      31.544  30.664  26.221  1.00  0.00     0.023 C 
BRANCH  26  27
ATOM     27  C   UNL A   1      31.394  32.161  26.521  1.00  0.00     0.023 C 
BRANCH  27  28
ATOM     28  C   UNL A   1      32.597  32.797  27.211  1.00  0.00     0.116 C 
BRANCH  28  29
ATOM     29  N   UNL A   1      32.337  34.158  27.659  1.00  0.00    -0.352 N 
ATOM     30  C   UNL A   1      32.986  34.897  28.607  1.00  0.00     0.251 C 
ATOM     31  H   UNL A   1      31.584  34.611  27.213  1.00  0.00     0.163 HD
ATOM     32  O   UNL A   1      32.577  36.011  28.918  1.00  0.00    -0.269 OA
BRANCH  30  33
ATOM     33  C   UNL A   1      34.156  34.318  29.281  1.00  0.00     0.039 A 
ATOM     34  C   UNL A   1      33.945  33.544  30.422  1.00  0.00     0.014 A 
ATOM     35  C   UNL A   1      35.440  34.508  28.764  1.00  0.00     0.014 A 
ATOM     36  C   UNL A   1      35.026  32.910  31.024  1.00  0.00     0.010 A 
ATOM     37  C   UNL A   1      36.508  33.822  29.326  1.00  0.00     0.010 A 
ATOM     38  C   UNL A   1      36.308  33.022  30.462  1.00  0.00    -0.014 A 
BRANCH  38  39
ATOM     39  C   UNL A   1      37.457  32.309  31.062  1.00  0.00     0.031 A 
ATOM     40  C   UNL A   1      37.939  32.687  32.432  1.00  0.00     0.074 A 
ATOM     41  C   UNL A   1      38.088  31.358  30.347  1.00  0.00     0.049 A 
ATOM     42  N   UNL A   1      38.948  32.210  33.113  1.00  0.00    -0.248 NA
ATOM     43  C   UNL A   1      37.204  33.763  33.117  1.00  0.00     0.031 C 
ATOM     44  C   UNL A   1      37.731  30.945  28.989  1.00  0.00     0.029 A 
ATOM     45  N   UNL A   1      39.164  30.571  30.663  1.00  0.00    -0.354 N 
ATOM     46  C   UNL A   1      38.978  32.936  34.296  1.00  0.00     0.074 A 
ATOM     47  C   UNL A   1      37.922  33.923  34.217  1.00  0.00     0.031 C 
ATOM     48  C   UNL A   1      38.555  29.961  28.598  1.00  0.00     0.029 A 
ATOM     49  C   UNL A   1      39.519  29.700  29.662  1.00  0.00     0.049 A 
ATOM     50  H   UNL A   1      39.638  30.624  31.524  1.00  0.00     0.167 HD
ATOM     51  C   UNL A   1      39.798  32.776  35.360  1.00  0.00     0.037 A 
ATOM     52  C   UNL A   1      40.515  28.795  29.614  1.00  0.00     0.037 A 
ATOM     53  C   UNL A   1      40.828  31.773  35.435  1.00  0.00     0.049 A 
ATOM     54  C   UNL A   1      41.414  28.640  30.809  1.00  0.00     0.074 A 
ATOM     55  C   UNL A   1      41.672  31.481  36.491  1.00  0.00     0.029 A 
ATOM     56  N   UNL A   1      41.154  30.900  34.407  1.00  0.00    -0.354 N 
ATOM     57  N   UNL A   1      41.387  29.280  31.954  1.00  0.00    -0.248 NA
ATOM     58  C   UNL A   1      42.478  27.633  30.708  1.00  0.00     0.031 C 
ATOM     59  C   UNL A   1      42.543  30.465  36.083  1.00  0.00     0.029 A 
ATOM     60  C   UNL A   1      42.206  30.086  34.794  1.00  0.00     0.049 A 
ATOM     61  H   UNL A   1      40.705  30.866  33.531  1.00  0.00     0.167 HD
ATOM     62  C   UNL A   1      42.408  28.734  32.720  1.00  0.00     0.074 A 
ATOM     63  C   UNL A   1      43.026  27.701  31.914  1.00  0.00     0.031 C 
ATOM     64  C   UNL A   1      42.799  29.058  33.977  1.00  0.00     0.037 A 
BRANCH  51  65
ATOM     65  C   UNL A   1      39.616  33.706  36.524  1.00  0.00     0.064 A 
ATOM     66  C   UNL A   1      38.816  33.361  37.625  1.00  0.00     0.173 A 
ATOM     67  C   UNL A   1      40.269  34.947  36.552  1.00  0.00     0.173 A 
ATOM     68  F   UNL A   1      38.158  32.191  37.643  1.00  0.00    -0.203 F 
ATOM     69  C   UNL A   1      38.652  34.237  38.695  1.00  0.00     0.198 A 
ATOM     70  C   UNL A   1      40.129  35.806  37.638  1.00  0.00     0.198 A 
ATOM     71  F   UNL A   1      41.046  35.325  35.527  1.00  0.00    -0.203 F 
ATOM     72  F   UNL A   1      37.842  33.908  39.709  1.00  0.00    -0.200 F 
ATOM     73  C   UNL A   1      39.314  35.455  38.705  1.00  0.00     0.200 A 
ATOM     74  F   UNL A   1      40.778  36.979  37.650  1.00  0.00    -0.200 F 
ATOM     75  F   UNL A   1      39.161  36.295  39.738  1.00  0.00    -0.200 F 
ENDBRANCH  51  65
BRANCH  52  76
ATOM     76  C   UNL A   1      40.690  27.948  28.406  1.00  0.00     0.064 A 
ATOM     77  C   UNL A   1      41.465  28.393  27.324  1.00  0.00     0.173 A 
ATOM     78  C   UNL A   1      40.092  26.684  28.305  1.00  0.00     0.173 A 
ATOM     79  F   UNL A   1      42.043  29.602  27.367  1.00  0.00    -0.203 F 
ATOM     80  C   UNL A   1      41.617  27.614  26.179  1.00  0.00     0.198 A 
ATOM     81  C   UNL A   1      40.268  25.893  27.171  1.00  0.00     0.198 A 
ATOM     82  F   UNL A   1      39.349  26.210  29.314  1.00  0.00    -0.203 F 
ATOM     83  F   UNL A   1      42.324  28.081  25.142  1.00  0.00    -0.200 F 
ATOM     84  C   UNL A   1      41.022  26.362  26.105  1.00  0.00     0.200 A 
ATOM     85  F   UNL A   1      39.706  24.679  27.110  1.00  0.00    -0.200 F 
ATOM     86  F   UNL A   1      41.172  25.612  25.006  1.00  0.00    -0.200 F 
ENDBRANCH  52  76
BRANCH  64  87
ATOM     87  C   UNL A   1      43.925  28.262  34.570  1.00  0.00     0.064 A 
ATOM     88  C   UNL A   1      45.257  28.696  34.489  1.00  0.00     0.173 A 
ATOM     89  C   UNL A   1      43.661  27.073  35.266  1.00  0.00     0.173 A 
ATOM     90  F   UNL A   1      45.561  29.819  33.821  1.00  0.00    -0.203 F 
ATOM     91  C   UNL A   1      46.286  27.952  35.060  1.00  0.00     0.198 A 
ATOM     92  C   UNL A   1      44.689  26.349  35.863  1.00  0.00     0.198 A 
ATOM     93  F   UNL A   1      42.404  26.620  35.380  1.00  0.00    -0.203 F 
ATOM     94  F   UNL A   1      47.556  28.359  34.927  1.00  0.00    -0.200 F 
ATOM     95  C   UNL A   1      46.001  26.786  35.753  1.00  0.00     0.200 A 
ATOM     96  F   UNL A   1      44.410  25.231  36.545  1.00  0.00    -0.200 F 
ATOM     97  F   UNL A   1      46.992  26.076  36.309  1.00  0.00    -0.200 F 
ENDBRANCH  64  87
ENDBRANCH  38  39
ENDBRANCH  30  33
ENDBRANCH  28  29
ENDBRANCH  27  28
ENDBRANCH  26  27
ENDBRANCH   1  26
TORSDOF 16
ENDMDL
