MODEL 1
REMARK VINA RESULT:     -11.3      0.000      0.000
REMARK SMILES CC(C)[C@H](NC(=O)OCc1ccccc1)C(=O)NCC(=O)NCCCCNC(=O)c1ccc(-c2c3nc(c(-c4c(F)c(F)c(F)c(F)c4F)c4ccc([nH]4)c(-c4c(F)c(F)c(F)c(F)c4F)c4nc(c(-c5c(F)c(F)c(F)c(F)c5F)c5ccc2[nH]5)C=C4)C=C3)cc1
REMARK SMILES IDX 20 1 21 2 22 3 19 5 18 6 16 7 17 8 4 10 2 11 1 12 3 13 5 14
REMARK SMILES IDX 6 15 7 17 8 18 9 19 10 20 11 21 15 22 12 23 14 24 13 25
REMARK SMILES IDX 23 26 24 27 25 28 26 29 27 30 28 31 29 33 30 34 31 35 92 36
REMARK SMILES IDX 32 37 91 38 33 39 34 40 35 41 85 42 36 43 90 44 84 45 86 46
REMARK SMILES IDX 37 47 89 48 83 49 82 50 38 52 70 53 50 54 69 55 51 56 54 57
REMARK SMILES IDX 68 58 87 59 52 60 53 61 67 63 88 64 55 65 39 66 40 67 48 68
REMARK SMILES IDX 41 69 42 70 46 71 49 72 43 73 44 74 47 75 45 76 71 77 72 78
REMARK SMILES IDX 80 79 73 80 74 81 78 82 81 83 75 84 76 85 79 86 77 87 56 88
REMARK SMILES IDX 57 89 65 90 58 91 59 92 63 93 66 94 60 95 61 96 64 97 62 98
REMARK H PARENT 22 4 18 9 5 16 27 32 86 51 54 62
REMARK Flexibility Score: inf
ROOT
ATOM      1  C   UNL A   1      38.498  23.759  26.505  1.00  0.00     0.239 C 
ATOM      2  O   UNL A   1      38.595  24.913  26.929  1.00  0.00    -0.273 OA
ATOM      3  N   UNL A   1      39.555  22.904  26.665  1.00  0.00    -0.355 N 
ATOM      4  H   UNL A   1      40.293  23.249  27.217  1.00  0.00     0.163 HD
ENDROOT
BRANCH   1   5
ATOM      5  C   UNL A   1      37.230  23.292  25.792  1.00  0.00     0.216 C 
BRANCH   5   6
ATOM      6  N   UNL A   1      36.024  23.319  26.586  1.00  0.00    -0.345 N 
ATOM      7  C   UNL A   1      34.720  23.402  26.220  1.00  0.00     0.243 C 
ATOM      8  O   UNL A   1      33.886  23.170  27.104  1.00  0.00    -0.273 OA
ATOM      9  H   UNL A   1      36.174  23.269  27.558  1.00  0.00     0.164 HD
BRANCH   7  10
ATOM     10  C   UNL A   1      34.220  23.805  24.797  1.00  0.00     0.177 C 
BRANCH  10  11
ATOM     11  C   UNL A   1      34.305  25.324  24.403  1.00  0.00     0.015 C 
ATOM     12  C   UNL A   1      33.615  25.802  23.113  1.00  0.00     0.010 C 
ATOM     13  C   UNL A   1      33.966  26.256  25.570  1.00  0.00     0.010 C 
ENDBRANCH  10  11
BRANCH  10  14
ATOM     14  N   UNL A   1      32.981  23.152  24.363  1.00  0.00    -0.309 N 
ATOM     15  C   UNL A   1      32.863  21.878  23.870  1.00  0.00     0.408 C 
ATOM     16  H   UNL A   1      32.152  23.680  24.432  1.00  0.00     0.167 HD
ATOM     17  O   UNL A   1      31.886  21.587  23.163  1.00  0.00    -0.225 OA
BRANCH  15  18
ATOM     18  O   UNL A   1      33.766  20.997  24.344  1.00  0.00    -0.445 OA
BRANCH  18  19
ATOM     19  C   UNL A   1      33.404  20.174  25.481  1.00  0.00     0.270 C 
BRANCH  19  20
ATOM     20  C   UNL A   1      33.456  18.688  25.153  1.00  0.00    -0.011 A 
ATOM     21  C   UNL A   1      34.333  18.199  24.168  1.00  0.00     0.007 A 
ATOM     22  C   UNL A   1      32.633  17.765  25.808  1.00  0.00     0.007 A 
ATOM     23  C   UNL A   1      34.290  16.855  23.768  1.00  0.00     0.000 A 
ATOM     24  C   UNL A   1      32.592  16.423  25.413  1.00  0.00     0.000 A 
ATOM     25  C   UNL A   1      33.399  15.973  24.373  1.00  0.00     0.000 A 
ENDBRANCH  19  20
ENDBRANCH  18  19
ENDBRANCH  15  18
ENDBRANCH  10  14
ENDBRANCH   7  10
ENDBRANCH   5   6
ENDBRANCH   1   5
BRANCH   3  26
ATOM     26  C   UNL A   1      39.749  21.560  26.141  1.00  0.00     0.116 C 
BRANCH  26  27
ATOM     27  C   UNL A   1      41.177  21.087  26.355  1.00  0.00     0.023 C 
BRANCH  27  28
ATOM     28  C   UNL A   1      41.413  19.619  26.045  1.00  0.00     0.023 C 
BRANCH  28  29
ATOM     29  C   UNL A   1      42.804  19.133  26.397  1.00  0.00     0.116 C 
BRANCH  29  30
ATOM     30  N   UNL A   1      43.594  18.721  25.236  1.00  0.00    -0.352 N 
ATOM     31  C   UNL A   1      44.502  19.406  24.454  1.00  0.00     0.251 C 
ATOM     32  H   UNL A   1      43.451  17.786  24.963  1.00  0.00     0.163 HD
ATOM     33  O   UNL A   1      45.019  18.846  23.488  1.00  0.00    -0.269 OA
BRANCH  31  34
ATOM     34  C   UNL A   1      44.821  20.834  24.707  1.00  0.00     0.039 A 
ATOM     35  C   UNL A   1      44.257  21.821  23.890  1.00  0.00     0.014 A 
ATOM     36  C   UNL A   1      45.640  21.222  25.759  1.00  0.00     0.014 A 
ATOM     37  C   UNL A   1      44.428  23.176  24.203  1.00  0.00     0.010 A 
ATOM     38  C   UNL A   1      45.656  22.546  26.175  1.00  0.00     0.010 A 
ATOM     39  C   UNL A   1      45.074  23.550  25.390  1.00  0.00    -0.014 A 
BRANCH  39  40
ATOM     40  C   UNL A   1      45.217  24.966  25.828  1.00  0.00     0.031 A 
ATOM     41  C   UNL A   1      46.567  25.639  25.738  1.00  0.00     0.074 A 
ATOM     42  C   UNL A   1      44.187  25.614  26.410  1.00  0.00     0.049 A 
ATOM     43  N   UNL A   1      46.969  26.776  26.247  1.00  0.00    -0.248 NA
ATOM     44  C   UNL A   1      47.628  24.897  25.035  1.00  0.00     0.031 C 
ATOM     45  C   UNL A   1      42.846  25.066  26.620  1.00  0.00     0.029 A 
ATOM     46  N   UNL A   1      44.114  26.875  26.948  1.00  0.00    -0.354 N 
ATOM     47  C   UNL A   1      48.330  26.849  25.976  1.00  0.00     0.074 A 
ATOM     48  C   UNL A   1      48.702  25.611  25.332  1.00  0.00     0.031 C 
ATOM     49  C   UNL A   1      42.074  25.996  27.204  1.00  0.00     0.029 A 
ATOM     50  C   UNL A   1      42.877  27.188  27.459  1.00  0.00     0.049 A 
ATOM     51  H   UNL A   1      44.877  27.497  26.966  1.00  0.00     0.167 HD
ATOM     52  C   UNL A   1      49.189  27.871  26.204  1.00  0.00     0.037 A 
ATOM     53  C   UNL A   1      42.444  28.307  28.071  1.00  0.00     0.037 A 
ATOM     54  C   UNL A   1      48.798  29.134  26.768  1.00  0.00     0.049 A 
ATOM     55  C   UNL A   1      43.403  29.449  28.275  1.00  0.00     0.074 A 
ATOM     56  C   UNL A   1      49.563  30.270  26.958  1.00  0.00     0.029 A 
ATOM     57  N   UNL A   1      47.519  29.430  27.219  1.00  0.00    -0.354 N 
ATOM     58  N   UNL A   1      44.674  29.530  27.961  1.00  0.00    -0.248 NA
ATOM     59  C   UNL A   1      42.866  30.658  28.916  1.00  0.00     0.031 C 
ATOM     60  C   UNL A   1      48.757  31.242  27.560  1.00  0.00     0.029 A 
ATOM     61  C   UNL A   1      47.478  30.728  27.699  1.00  0.00     0.049 A 
ATOM     62  H   UNL A   1      46.755  28.810  27.201  1.00  0.00     0.167 HD
ATOM     63  C   UNL A   1      45.080  30.803  28.335  1.00  0.00     0.074 A 
ATOM     64  C   UNL A   1      43.917  31.466  28.889  1.00  0.00     0.031 C 
ATOM     65  C   UNL A   1      46.305  31.374  28.230  1.00  0.00     0.037 A 
BRANCH  52  66
ATOM     66  C   UNL A   1      50.629  27.670  25.820  1.00  0.00     0.064 A 
ATOM     67  C   UNL A   1      51.600  27.291  26.761  1.00  0.00     0.173 A 
ATOM     68  C   UNL A   1      51.045  27.850  24.491  1.00  0.00     0.173 A 
ATOM     69  F   UNL A   1      51.262  27.118  28.048  1.00  0.00    -0.203 F 
ATOM     70  C   UNL A   1      52.936  27.147  26.397  1.00  0.00     0.198 A 
ATOM     71  C   UNL A   1      52.375  27.666  24.124  1.00  0.00     0.198 A 
ATOM     72  F   UNL A   1      50.160  28.205  23.548  1.00  0.00    -0.203 F 
ATOM     73  F   UNL A   1      53.854  26.856  27.330  1.00  0.00    -0.200 F 
ATOM     74  C   UNL A   1      53.321  27.328  25.078  1.00  0.00     0.200 A 
ATOM     75  F   UNL A   1      52.743  27.827  22.845  1.00  0.00    -0.200 F 
ATOM     76  F   UNL A   1      54.607  27.186  24.730  1.00  0.00    -0.200 F 
ENDBRANCH  52  66
BRANCH  53  77
ATOM     77  C   UNL A   1      41.023  28.418  28.497  1.00  0.00     0.064 A 
ATOM     78  C   UNL A   1      40.052  28.920  27.618  1.00  0.00     0.173 A 
ATOM     79  C   UNL A   1      40.603  28.027  29.776  1.00  0.00     0.173 A 
ATOM     80  F   UNL A   1      40.407  29.328  26.390  1.00  0.00    -0.203 F 
ATOM     81  C   UNL A   1      38.720  29.044  28.009  1.00  0.00     0.198 A 
ATOM     82  C   UNL A   1      39.265  28.124  30.156  1.00  0.00     0.198 A 
ATOM     83  F   UNL A   1      41.491  27.534  30.653  1.00  0.00    -0.203 F 
ATOM     84  F   UNL A   1      37.822  29.569  27.163  1.00  0.00    -0.200 F 
ATOM     85  C   UNL A   1      38.326  28.640  29.276  1.00  0.00     0.200 A 
ATOM     86  F   UNL A   1      38.887  27.719  31.376  1.00  0.00    -0.200 F 
ATOM     87  F   UNL A   1      37.045  28.755  29.649  1.00  0.00    -0.200 F 
ENDBRANCH  53  77
BRANCH  65  88
ATOM     88  C   UNL A   1      46.445  32.799  28.680  1.00  0.00     0.064 A 
ATOM     89  C   UNL A   1      46.209  33.872  27.810  1.00  0.00     0.173 A 
ATOM     90  C   UNL A   1      46.763  33.089  30.016  1.00  0.00     0.173 A 
ATOM     91  F   UNL A   1      45.915  33.645  26.521  1.00  0.00    -0.203 F 
ATOM     92  C   UNL A   1      46.309  35.187  28.256  1.00  0.00     0.198 A 
ATOM     93  C   UNL A   1      46.830  34.404  30.465  1.00  0.00     0.198 A 
ATOM     94  F   UNL A   1      46.988  32.096  30.890  1.00  0.00    -0.203 F 
ATOM     95  F   UNL A   1      46.122  36.199  27.398  1.00  0.00    -0.200 F 
ATOM     96  C   UNL A   1      46.610  35.452  29.584  1.00  0.00     0.200 A 
ATOM     97  F   UNL A   1      47.105  34.658  31.753  1.00  0.00    -0.200 F 
ATOM     98  F   UNL A   1      46.693  36.718  30.014  1.00  0.00    -0.200 F 
ENDBRANCH  65  88
ENDBRANCH  39  40
ENDBRANCH  31  34
ENDBRANCH  29  30
ENDBRANCH  28  29
ENDBRANCH  27  28
ENDBRANCH  26  27
ENDBRANCH   3  26
TORSDOF 18
ENDMDL
MODEL 2
REMARK VINA RESULT:     -11.0      6.847     12.287
REMARK SMILES CC(C)[C@H](NC(=O)OCc1ccccc1)C(=O)NCC(=O)NCCCCNC(=O)c1ccc(-c2c3nc(c(-c4c(F)c(F)c(F)c(F)c4F)c4ccc([nH]4)c(-c4c(F)c(F)c(F)c(F)c4F)c4nc(c(-c5c(F)c(F)c(F)c(F)c5F)c5ccc2[nH]5)C=C4)C=C3)cc1
REMARK SMILES IDX 20 1 21 2 22 3 19 5 18 6 16 7 17 8 4 10 2 11 1 12 3 13 5 14
REMARK SMILES IDX 6 15 7 17 8 18 9 19 10 20 11 21 15 22 12 23 14 24 13 25
REMARK SMILES IDX 23 26 24 27 25 28 26 29 27 30 28 31 29 33 30 34 31 35 92 36
REMARK SMILES IDX 32 37 91 38 33 39 34 40 35 41 85 42 36 43 90 44 84 45 86 46
REMARK SMILES IDX 37 47 89 48 83 49 82 50 38 52 70 53 50 54 69 55 51 56 54 57
REMARK SMILES IDX 68 58 87 59 52 60 53 61 67 63 88 64 55 65 39 66 40 67 48 68
REMARK SMILES IDX 41 69 42 70 46 71 49 72 43 73 44 74 47 75 45 76 71 77 72 78
REMARK SMILES IDX 80 79 73 80 74 81 78 82 81 83 75 84 76 85 79 86 77 87 56 88
REMARK SMILES IDX 57 89 65 90 58 91 59 92 63 93 66 94 60 95 61 96 64 97 62 98
REMARK H PARENT 22 4 18 9 5 16 27 32 86 51 54 62
REMARK Flexibility Score: inf
ROOT
ATOM      1  C   UNL A   1      32.394  29.851  26.981  1.00  0.00     0.239 C 
ATOM      2  O   UNL A   1      31.865  28.890  27.544  1.00  0.00    -0.273 OA
ATOM      3  N   UNL A   1      33.140  30.726  27.723  1.00  0.00    -0.355 N 
ATOM      4  H   UNL A   1      33.293  30.457  28.658  1.00  0.00     0.163 HD
ENDROOT
BRANCH   1   5
ATOM      5  C   UNL A   1      32.207  30.078  25.481  1.00  0.00     0.216 C 
BRANCH   5   6
ATOM      6  N   UNL A   1      33.307  29.659  24.646  1.00  0.00    -0.345 N 
ATOM      7  C   UNL A   1      33.412  28.635  23.762  1.00  0.00     0.243 C 
ATOM      8  O   UNL A   1      34.399  28.654  23.014  1.00  0.00    -0.273 OA
ATOM      9  H   UNL A   1      34.119  30.209  24.733  1.00  0.00     0.164 HD
BRANCH   7  10
ATOM     10  C   UNL A   1      32.412  27.441  23.661  1.00  0.00     0.177 C 
BRANCH  10  11
ATOM     11  C   UNL A   1      32.459  26.359  24.799  1.00  0.00     0.015 C 
ATOM     12  C   UNL A   1      33.653  26.346  25.770  1.00  0.00     0.010 C 
ATOM     13  C   UNL A   1      31.139  26.254  25.569  1.00  0.00     0.010 C 
ENDBRANCH  10  11
BRANCH  10  14
ATOM     14  N   UNL A   1      32.248  26.876  22.317  1.00  0.00    -0.309 N 
ATOM     15  C   UNL A   1      33.117  26.026  21.682  1.00  0.00     0.408 C 
ATOM     16  H   UNL A   1      31.436  27.133  21.823  1.00  0.00     0.167 HD
ATOM     17  O   UNL A   1      33.100  25.953  20.443  1.00  0.00    -0.225 OA
BRANCH  15  18
ATOM     18  O   UNL A   1      33.818  25.212  22.497  1.00  0.00    -0.445 OA
BRANCH  18  19
ATOM     19  C   UNL A   1      33.478  23.803  22.532  1.00  0.00     0.270 C 
BRANCH  19  20
ATOM     20  C   UNL A   1      34.405  23.013  23.447  1.00  0.00    -0.011 A 
ATOM     21  C   UNL A   1      35.781  23.301  23.498  1.00  0.00     0.007 A 
ATOM     22  C   UNL A   1      33.926  21.976  24.254  1.00  0.00     0.007 A 
ATOM     23  C   UNL A   1      36.658  22.492  24.235  1.00  0.00     0.000 A 
ATOM     24  C   UNL A   1      34.800  21.171  24.993  1.00  0.00     0.000 A 
ATOM     25  C   UNL A   1      36.170  21.410  24.962  1.00  0.00     0.000 A 
ENDBRANCH  19  20
ENDBRANCH  18  19
ENDBRANCH  15  18
ENDBRANCH  10  14
ENDBRANCH   7  10
ENDBRANCH   5   6
ENDBRANCH   1   5
BRANCH   3  26
ATOM     26  C   UNL A   1      33.743  31.993  27.337  1.00  0.00     0.116 C 
BRANCH  26  27
ATOM     27  C   UNL A   1      32.938  33.168  27.865  1.00  0.00     0.023 C 
BRANCH  27  28
ATOM     28  C   UNL A   1      33.578  33.905  29.028  1.00  0.00     0.023 C 
BRANCH  28  29
ATOM     29  C   UNL A   1      33.391  35.408  28.982  1.00  0.00     0.116 C 
BRANCH  29  30
ATOM     30  N   UNL A   1      32.559  35.929  30.067  1.00  0.00    -0.352 N 
ATOM     31  C   UNL A   1      32.684  35.849  31.440  1.00  0.00     0.251 C 
ATOM     32  H   UNL A   1      31.766  36.427  29.763  1.00  0.00     0.163 HD
ATOM     33  O   UNL A   1      31.820  36.345  32.161  1.00  0.00    -0.269 OA
BRANCH  31  34
ATOM     34  C   UNL A   1      33.808  35.115  32.074  1.00  0.00     0.039 A 
ATOM     35  C   UNL A   1      33.580  33.847  32.623  1.00  0.00     0.014 A 
ATOM     36  C   UNL A   1      35.095  35.637  32.108  1.00  0.00     0.014 A 
ATOM     37  C   UNL A   1      34.654  33.078  33.092  1.00  0.00     0.010 A 
ATOM     38  C   UNL A   1      36.172  34.812  32.396  1.00  0.00     0.010 A 
ATOM     39  C   UNL A   1      35.971  33.528  32.920  1.00  0.00    -0.014 A 
BRANCH  39  40
ATOM     40  C   UNL A   1      37.163  32.728  33.316  1.00  0.00     0.031 A 
ATOM     41  C   UNL A   1      37.848  33.018  34.631  1.00  0.00     0.074 A 
ATOM     42  C   UNL A   1      37.703  31.832  32.465  1.00  0.00     0.049 A 
ATOM     43  N   UNL A   1      39.005  32.600  35.080  1.00  0.00    -0.248 NA
ATOM     44  C   UNL A   1      37.168  33.961  35.536  1.00  0.00     0.031 C 
ATOM     45  C   UNL A   1      37.185  31.496  31.138  1.00  0.00     0.029 A 
ATOM     46  N   UNL A   1      38.825  31.048  32.587  1.00  0.00    -0.354 N 
ATOM     47  C   UNL A   1      39.208  33.272  36.279  1.00  0.00     0.074 A 
ATOM     48  C   UNL A   1      38.100  34.183  36.448  1.00  0.00     0.031 C 
ATOM     49  C   UNL A   1      37.960  30.550  30.586  1.00  0.00     0.029 A 
ATOM     50  C   UNL A   1      39.062  30.248  31.495  1.00  0.00     0.049 A 
ATOM     51  H   UNL A   1      39.404  31.059  33.383  1.00  0.00     0.167 HD
ATOM     52  C   UNL A   1      40.206  33.118  37.181  1.00  0.00     0.037 A 
ATOM     53  C   UNL A   1      40.060  29.377  31.253  1.00  0.00     0.037 A 
ATOM     54  C   UNL A   1      41.261  32.152  37.050  1.00  0.00     0.049 A 
ATOM     55  C   UNL A   1      41.136  29.187  32.288  1.00  0.00     0.074 A 
ATOM     56  C   UNL A   1      42.270  31.846  37.945  1.00  0.00     0.029 A 
ATOM     57  N   UNL A   1      41.431  31.319  35.953  1.00  0.00    -0.354 N 
ATOM     58  N   UNL A   1      41.286  29.786  33.445  1.00  0.00    -0.248 NA
ATOM     59  C   UNL A   1      42.179  28.198  31.986  1.00  0.00     0.031 C 
ATOM     60  C   UNL A   1      43.075  30.855  37.373  1.00  0.00     0.029 A 
ATOM     61  C   UNL A   1      42.537  30.509  36.144  1.00  0.00     0.049 A 
ATOM     62  H   UNL A   1      40.852  31.306  35.157  1.00  0.00     0.167 HD
ATOM     63  C   UNL A   1      42.417  29.226  34.022  1.00  0.00     0.074 A 
ATOM     64  C   UNL A   1      42.910  28.231  33.092  1.00  0.00     0.031 C 
ATOM     65  C   UNL A   1      42.999  29.511  35.213  1.00  0.00     0.037 A 
BRANCH  52  66
ATOM     66  C   UNL A   1      40.187  34.001  38.398  1.00  0.00     0.064 A 
ATOM     67  C   UNL A   1      40.873  35.226  38.436  1.00  0.00     0.173 A 
ATOM     68  C   UNL A   1      39.465  33.623  39.542  1.00  0.00     0.173 A 
ATOM     69  F   UNL A   1      41.589  35.631  37.377  1.00  0.00    -0.203 F 
ATOM     70  C   UNL A   1      40.876  36.013  39.585  1.00  0.00     0.198 A 
ATOM     71  C   UNL A   1      39.439  34.432  40.675  1.00  0.00     0.198 A 
ATOM     72  F   UNL A   1      38.785  32.467  39.561  1.00  0.00    -0.203 F 
ATOM     73  F   UNL A   1      41.599  37.141  39.618  1.00  0.00    -0.200 F 
ATOM     74  C   UNL A   1      40.155  35.619  40.700  1.00  0.00     0.200 A 
ATOM     75  F   UNL A   1      38.729  34.057  41.748  1.00  0.00    -0.200 F 
ATOM     76  F   UNL A   1      40.157  36.379  41.804  1.00  0.00    -0.200 F 
ENDBRANCH  52  66
BRANCH  53  77
ATOM     77  C   UNL A   1      40.065  28.585  29.993  1.00  0.00     0.064 A 
ATOM     78  C   UNL A   1      39.451  27.325  29.940  1.00  0.00     0.173 A 
ATOM     79  C   UNL A   1      40.673  29.062  28.824  1.00  0.00     0.173 A 
ATOM     80  F   UNL A   1      38.872  26.815  31.038  1.00  0.00    -0.203 F 
ATOM     81  C   UNL A   1      39.461  26.566  28.771  1.00  0.00     0.198 A 
ATOM     82  C   UNL A   1      40.658  28.315  27.648  1.00  0.00     0.198 A 
ATOM     83  F   UNL A   1      41.271  30.263  28.820  1.00  0.00    -0.203 F 
ATOM     84  F   UNL A   1      38.904  25.347  28.762  1.00  0.00    -0.200 F 
ATOM     85  C   UNL A   1      40.059  27.064  27.623  1.00  0.00     0.200 A 
ATOM     86  F   UNL A   1      41.226  28.806  26.537  1.00  0.00    -0.200 F 
ATOM     87  F   UNL A   1      40.065  26.336  26.499  1.00  0.00    -0.200 F 
ENDBRANCH  53  77
BRANCH  65  88
ATOM     88  C   UNL A   1      44.204  28.706  35.603  1.00  0.00     0.064 A 
ATOM     89  C   UNL A   1      45.503  29.121  35.278  1.00  0.00     0.173 A 
ATOM     90  C   UNL A   1      44.056  27.535  36.361  1.00  0.00     0.173 A 
ATOM     91  F   UNL A   1      45.696  30.227  34.543  1.00  0.00    -0.203 F 
ATOM     92  C   UNL A   1      46.611  28.379  35.680  1.00  0.00     0.198 A 
ATOM     93  C   UNL A   1      45.167  26.813  36.788  1.00  0.00     0.198 A 
ATOM     94  F   UNL A   1      42.833  27.102  36.705  1.00  0.00    -0.203 F 
ATOM     95  F   UNL A   1      47.842  28.770  35.323  1.00  0.00    -0.200 F 
ATOM     96  C   UNL A   1      46.442  27.232  36.442  1.00  0.00     0.200 A 
ATOM     97  F   UNL A   1      45.002  25.714  37.538  1.00  0.00    -0.200 F 
ATOM     98  F   UNL A   1      47.510  26.527  36.838  1.00  0.00    -0.200 F 
ENDBRANCH  65  88
ENDBRANCH  39  40
ENDBRANCH  31  34
ENDBRANCH  29  30
ENDBRANCH  28  29
ENDBRANCH  27  28
ENDBRANCH  26  27
ENDBRANCH   3  26
TORSDOF 18
ENDMDL
MODEL 3
REMARK VINA RESULT:     -11.0      5.329      9.220
REMARK SMILES CC(C)[C@H](NC(=O)OCc1ccccc1)C(=O)NCC(=O)NCCCCNC(=O)c1ccc(-c2c3nc(c(-c4c(F)c(F)c(F)c(F)c4F)c4ccc([nH]4)c(-c4c(F)c(F)c(F)c(F)c4F)c4nc(c(-c5c(F)c(F)c(F)c(F)c5F)c5ccc2[nH]5)C=C4)C=C3)cc1
REMARK SMILES IDX 20 1 21 2 22 3 19 5 18 6 16 7 17 8 4 10 2 11 1 12 3 13 5 14
REMARK SMILES IDX 6 15 7 17 8 18 9 19 10 20 11 21 15 22 12 23 14 24 13 25
REMARK SMILES IDX 23 26 24 27 25 28 26 29 27 30 28 31 29 33 30 34 31 35 92 36
REMARK SMILES IDX 32 37 91 38 33 39 34 40 35 41 85 42 36 43 90 44 84 45 86 46
REMARK SMILES IDX 37 47 89 48 83 49 82 50 38 52 70 53 50 54 69 55 51 56 54 57
REMARK SMILES IDX 68 58 87 59 52 60 53 61 67 63 88 64 55 65 39 66 40 67 48 68
REMARK SMILES IDX 41 69 42 70 46 71 49 72 43 73 44 74 47 75 45 76 71 77 72 78
REMARK SMILES IDX 80 79 73 80 74 81 78 82 81 83 75 84 76 85 79 86 77 87 56 88
REMARK SMILES IDX 57 89 65 90 58 91 59 92 63 93 66 94 60 95 61 96 64 97 62 98
REMARK H PARENT 22 4 18 9 5 16 27 32 86 51 54 62
REMARK Flexibility Score: inf
ROOT
ATOM      1  C   UNL A   1      32.931  25.964  21.932  1.00  0.00     0.239 C 
ATOM      2  O   UNL A   1      33.286  25.822  20.759  1.00  0.00    -0.273 OA
ATOM      3  N   UNL A   1      33.540  26.923  22.696  1.00  0.00    -0.355 N 
ATOM      4  H   UNL A   1      34.157  27.516  22.209  1.00  0.00     0.163 HD
ENDROOT
BRANCH   1   5
ATOM      5  C   UNL A   1      31.844  25.075  22.534  1.00  0.00     0.216 C 
BRANCH   5   6
ATOM      6  N   UNL A   1      31.989  23.660  22.285  1.00  0.00    -0.345 N 
ATOM      7  C   UNL A   1      32.061  22.610  23.141  1.00  0.00     0.243 C 
ATOM      8  O   UNL A   1      31.949  21.483  22.638  1.00  0.00    -0.273 OA
ATOM      9  H   UNL A   1      32.045  23.417  21.332  1.00  0.00     0.164 HD
BRANCH   7  10
ATOM     10  C   UNL A   1      32.312  22.729  24.676  1.00  0.00     0.177 C 
BRANCH  10  11
ATOM     11  C   UNL A   1      31.204  23.436  25.538  1.00  0.00     0.015 C 
ATOM     12  C   UNL A   1      30.365  22.593  26.514  1.00  0.00     0.010 C 
ATOM     13  C   UNL A   1      31.713  24.707  26.226  1.00  0.00     0.010 C 
ENDBRANCH  10  11
BRANCH  10  14
ATOM     14  N   UNL A   1      33.679  23.098  25.058  1.00  0.00    -0.309 N 
ATOM     15  C   UNL A   1      34.500  22.403  25.909  1.00  0.00     0.408 C 
ATOM     16  H   UNL A   1      34.043  23.925  24.666  1.00  0.00     0.167 HD
ATOM     17  O   UNL A   1      35.431  22.996  26.476  1.00  0.00    -0.225 OA
BRANCH  15  18
ATOM     18  O   UNL A   1      34.306  21.069  25.927  1.00  0.00    -0.445 OA
BRANCH  18  19
ATOM     19  C   UNL A   1      35.034  20.248  24.980  1.00  0.00     0.270 C 
BRANCH  19  20
ATOM     20  C   UNL A   1      34.324  18.930  24.700  1.00  0.00    -0.011 A 
ATOM     21  C   UNL A   1      32.932  18.813  24.867  1.00  0.00     0.007 A 
ATOM     22  C   UNL A   1      35.026  17.796  24.278  1.00  0.00     0.007 A 
ATOM     23  C   UNL A   1      32.293  17.571  24.740  1.00  0.00     0.000 A 
ATOM     24  C   UNL A   1      34.389  16.557  24.147  1.00  0.00     0.000 A 
ATOM     25  C   UNL A   1      33.027  16.437  24.406  1.00  0.00     0.000 A 
ENDBRANCH  19  20
ENDBRANCH  18  19
ENDBRANCH  15  18
ENDBRANCH  10  14
ENDBRANCH   7  10
ENDBRANCH   5   6
ENDBRANCH   1   5
BRANCH   3  26
ATOM     26  C   UNL A   1      33.410  27.197  24.119  1.00  0.00     0.116 C 
BRANCH  26  27
ATOM     27  C   UNL A   1      32.120  27.943  24.420  1.00  0.00     0.023 C 
BRANCH  27  28
ATOM     28  C   UNL A   1      32.295  29.421  24.714  1.00  0.00     0.023 C 
BRANCH  28  29
ATOM     29  C   UNL A   1      32.757  29.717  26.127  1.00  0.00     0.116 C 
BRANCH  29  30
ATOM     30  N   UNL A   1      32.525  31.100  26.543  1.00  0.00    -0.352 N 
ATOM     31  C   UNL A   1      33.291  31.977  27.284  1.00  0.00     0.251 C 
ATOM     32  H   UNL A   1      31.666  31.474  26.240  1.00  0.00     0.163 HD
ATOM     33  O   UNL A   1      32.858  33.099  27.541  1.00  0.00    -0.269 OA
BRANCH  31  34
ATOM     34  C   UNL A   1      34.607  31.575  27.843  1.00  0.00     0.039 A 
ATOM     35  C   UNL A   1      35.634  32.522  27.939  1.00  0.00     0.014 A 
ATOM     36  C   UNL A   1      34.838  30.288  28.310  1.00  0.00     0.014 A 
ATOM     37  C   UNL A   1      36.829  32.202  28.597  1.00  0.00     0.010 A 
ATOM     38  C   UNL A   1      35.936  30.029  29.118  1.00  0.00     0.010 A 
ATOM     39  C   UNL A   1      36.964  30.971  29.254  1.00  0.00    -0.014 A 
BRANCH  39  40
ATOM     40  C   UNL A   1      38.170  30.597  30.043  1.00  0.00     0.031 A 
ATOM     41  C   UNL A   1      39.180  29.642  29.450  1.00  0.00     0.074 A 
ATOM     42  C   UNL A   1      38.311  31.008  31.320  1.00  0.00     0.049 A 
ATOM     43  N   UNL A   1      40.180  29.022  30.023  1.00  0.00    -0.248 NA
ATOM     44  C   UNL A   1      38.996  29.286  28.032  1.00  0.00     0.031 C 
ATOM     45  C   UNL A   1      37.383  31.879  32.043  1.00  0.00     0.029 A 
ATOM     46  N   UNL A   1      39.288  30.730  32.246  1.00  0.00    -0.354 N 
ATOM     47  C   UNL A   1      40.697  28.168  29.056  1.00  0.00     0.074 A 
ATOM     48  C   UNL A   1      39.855  28.289  27.889  1.00  0.00     0.031 C 
ATOM     49  C   UNL A   1      37.852  32.097  33.281  1.00  0.00     0.029 A 
ATOM     50  C   UNL A   1      39.087  31.339  33.461  1.00  0.00     0.049 A 
ATOM     51  H   UNL A   1      40.059  30.149  32.055  1.00  0.00     0.167 HD
ATOM     52  C   UNL A   1      41.799  27.384  29.116  1.00  0.00     0.037 A 
ATOM     53  C   UNL A   1      39.813  31.284  34.594  1.00  0.00     0.037 A 
ATOM     54  C   UNL A   1      42.682  27.331  30.249  1.00  0.00     0.049 A 
ATOM     55  C   UNL A   1      41.059  30.441  34.626  1.00  0.00     0.074 A 
ATOM     56  C   UNL A   1      43.874  26.643  30.383  1.00  0.00     0.029 A 
ATOM     57  N   UNL A   1      42.473  28.010  31.440  1.00  0.00    -0.354 N 
ATOM     58  N   UNL A   1      41.571  29.684  33.686  1.00  0.00    -0.248 NA
ATOM     59  C   UNL A   1      41.831  30.447  35.877  1.00  0.00     0.031 C 
ATOM     60  C   UNL A   1      44.368  26.875  31.671  1.00  0.00     0.029 A 
ATOM     61  C   UNL A   1      43.508  27.747  32.321  1.00  0.00     0.049 A 
ATOM     62  H   UNL A   1      41.703  28.592  31.632  1.00  0.00     0.167 HD
ATOM     63  C   UNL A   1      42.738  29.151  34.217  1.00  0.00     0.074 A 
ATOM     64  C   UNL A   1      42.865  29.680  35.559  1.00  0.00     0.031 C 
ATOM     65  C   UNL A   1      43.624  28.298  33.646  1.00  0.00     0.037 A 
BRANCH  52  66
ATOM     66  C   UNL A   1      42.120  26.540  27.914  1.00  0.00     0.064 A 
ATOM     67  C   UNL A   1      41.532  25.280  27.715  1.00  0.00     0.173 A 
ATOM     68  C   UNL A   1      43.021  26.999  26.940  1.00  0.00     0.173 A 
ATOM     69  F   UNL A   1      40.673  24.786  28.620  1.00  0.00    -0.203 F 
ATOM     70  C   UNL A   1      41.869  24.494  26.616  1.00  0.00     0.198 A 
ATOM     71  C   UNL A   1      43.326  26.226  25.822  1.00  0.00     0.198 A 
ATOM     72  F   UNL A   1      43.609  28.197  27.073  1.00  0.00    -0.203 F 
ATOM     73  F   UNL A   1      41.348  23.266  26.490  1.00  0.00    -0.200 F 
ATOM     74  C   UNL A   1      42.760  24.971  25.668  1.00  0.00     0.200 A 
ATOM     75  F   UNL A   1      44.176  26.695  24.898  1.00  0.00    -0.200 F 
ATOM     76  F   UNL A   1      43.081  24.214  24.609  1.00  0.00    -0.200 F 
ENDBRANCH  52  66
BRANCH  53  77
ATOM     77  C   UNL A   1      39.402  32.086  35.779  1.00  0.00     0.064 A 
ATOM     78  C   UNL A   1      39.933  33.366  35.993  1.00  0.00     0.173 A 
ATOM     79  C   UNL A   1      38.478  31.600  36.714  1.00  0.00     0.173 A 
ATOM     80  F   UNL A   1      40.837  33.867  35.138  1.00  0.00    -0.203 F 
ATOM     81  C   UNL A   1      39.569  34.121  37.106  1.00  0.00     0.198 A 
ATOM     82  C   UNL A   1      38.093  32.367  37.812  1.00  0.00     0.198 A 
ATOM     83  F   UNL A   1      37.936  30.383  36.553  1.00  0.00    -0.203 F 
ATOM     84  F   UNL A   1      40.126  35.323  37.309  1.00  0.00    -0.200 F 
ATOM     85  C   UNL A   1      38.644  33.624  38.012  1.00  0.00     0.200 A 
ATOM     86  F   UNL A   1      37.188  31.889  38.677  1.00  0.00    -0.200 F 
ATOM     87  F   UNL A   1      38.291  34.352  39.079  1.00  0.00    -0.200 F 
ENDBRANCH  53  77
BRANCH  65  88
ATOM     88  C   UNL A   1      44.834  27.920  34.450  1.00  0.00     0.064 A 
ATOM     89  C   UNL A   1      45.993  28.708  34.450  1.00  0.00     0.173 A 
ATOM     90  C   UNL A   1      44.807  26.784  35.272  1.00  0.00     0.173 A 
ATOM     91  F   UNL A   1      46.071  29.796  33.669  1.00  0.00    -0.203 F 
ATOM     92  C   UNL A   1      47.093  28.359  35.230  1.00  0.00     0.198 A 
ATOM     93  C   UNL A   1      45.897  26.456  36.074  1.00  0.00     0.198 A 
ATOM     94  F   UNL A   1      43.717  26.003  35.314  1.00  0.00    -0.203 F 
ATOM     95  F   UNL A   1      48.207  29.101  35.184  1.00  0.00    -0.200 F 
ATOM     96  C   UNL A   1      47.040  27.239  36.047  1.00  0.00     0.200 A 
ATOM     97  F   UNL A   1      45.837  25.383  36.876  1.00  0.00    -0.200 F 
ATOM     98  F   UNL A   1      48.095  26.912  36.807  1.00  0.00    -0.200 F 
ENDBRANCH  65  88
ENDBRANCH  39  40
ENDBRANCH  31  34
ENDBRANCH  29  30
ENDBRANCH  28  29
ENDBRANCH  27  28
ENDBRANCH  26  27
ENDBRANCH   3  26
TORSDOF 18
ENDMDL
