MODEL 1
REMARK VINA RESULT:     -12.8      0.000      0.000
REMARK SMILES CC1=C(C#N)C(=O)N(C)C(=O)/C1=C\Nc1ccc(C(=O)NCCCCNC(=O)c2ccc(-c3c4nc(c(-c5c(F)c(F)c(F)c(F)c5F)c5ccc([nH]5)c(-c5c(F)c(F)c(F)c(F)c5F)c5nc(c(-c6c(F)c(F)c(F)c(F)c6F)c6ccc3[nH]6)C=C5)C=C4)cc2)c(O)c1
REMARK SMILES IDX 23 1 22 2 21 3 19 4 20 5 18 7 15 8 16 9 94 10 17 11 92 12
REMARK SMILES IDX 14 13 13 15 1 16 2 17 3 18 12 19 6 20 10 21 7 22 8 23 11 24
REMARK SMILES IDX 9 25 4 26 5 27 93 28 24 30 25 31 26 32 27 33 28 35 29 36
REMARK SMILES IDX 30 37 91 38 31 39 90 40 32 41 33 42 34 43 84 44 35 45 89 46
REMARK SMILES IDX 83 47 85 48 36 49 88 50 82 51 81 52 37 54 69 55 49 56 68 57
REMARK SMILES IDX 50 58 53 59 67 60 86 61 51 62 52 63 66 65 87 66 54 67 38 68
REMARK SMILES IDX 39 69 47 70 40 71 41 72 45 73 48 74 42 75 43 76 46 77 44 78
REMARK SMILES IDX 70 79 71 80 79 81 72 82 73 83 77 84 80 85 74 86 75 87 78 88
REMARK SMILES IDX 76 89 55 90 56 91 64 92 57 93 58 94 62 95 65 96 59 97 60 98
REMARK SMILES IDX 63 99 61 100
REMARK H PARENT 21 6 14 14 93 29 26 34 85 53 53 64
REMARK Flexibility Score: inf
ROOT
ATOM      1  C   UNL A   1      31.626  30.615  26.799  1.00  0.00     0.023 C 
ENDROOT
BRANCH   1   2
ATOM      2  C   UNL A   1      31.787  30.006  25.411  1.00  0.00     0.116 C 
BRANCH   2   3
ATOM      3  N   UNL A   1      30.695  30.292  24.491  1.00  0.00    -0.352 N 
ATOM      4  C   UNL A   1      30.248  29.567  23.410  1.00  0.00     0.255 C 
ATOM      5  O   UNL A   1      29.304  29.994  22.751  1.00  0.00    -0.269 OA
ATOM      6  H   UNL A   1      30.203  31.126  24.671  1.00  0.00     0.163 HD
BRANCH   4   7
ATOM      7  C   UNL A   1      30.923  28.316  22.993  1.00  0.00     0.081 A 
ATOM      8  C   UNL A   1      32.469  26.029  22.420  1.00  0.00     0.042 A 
ATOM      9  C   UNL A   1      32.965  27.308  22.147  1.00  0.00     0.027 A 
ATOM     10  C   UNL A   1      31.161  25.912  22.906  1.00  0.00     0.073 A 
ATOM     11  C   UNL A   1      32.199  28.444  22.430  1.00  0.00     0.020 A 
ATOM     12  C   UNL A   1      30.380  27.040  23.146  1.00  0.00     0.130 A 
BRANCH   8  13
ATOM     13  N   UNL A   1      33.237  24.864  22.309  1.00  0.00    -0.361 N 
ATOM     14  H   UNL A   1      34.185  25.001  22.083  1.00  0.00     0.166 HD
BRANCH  13  15
ATOM     15  C   UNL A   1      32.850  23.556  22.469  1.00  0.00     0.097 C 
ATOM     16  C   UNL A   1      32.040  20.741  22.324  1.00  0.00     0.047 C 
ATOM     17  C   UNL A   1      32.689  21.336  23.557  1.00  0.00    -0.013 C 
ATOM     18  C   UNL A   1      32.914  20.616  24.671  1.00  0.00     0.121 C 
ATOM     19  C   UNL A   1      33.091  22.742  23.518  1.00  0.00     0.060 C 
ATOM     20  C   UNL A   1      33.540  21.197  25.884  1.00  0.00     0.271 C 
ATOM     21  C   UNL A   1      33.840  23.330  24.690  1.00  0.00     0.262 C 
ATOM     22  O   UNL A   1      33.677  20.511  26.895  1.00  0.00    -0.268 OA
ATOM     23  N   UNL A   1      33.956  22.517  25.806  1.00  0.00    -0.277 N 
ATOM     24  O   UNL A   1      34.314  24.466  24.641  1.00  0.00    -0.269 OA
ATOM     25  C   UNL A   1      34.587  23.065  26.996  1.00  0.00     0.157 C 
BRANCH  18  26
ATOM     26  C   UNL A   1      32.472  19.164  24.776  1.00  0.00     0.105 C 
ATOM     27  N   UNL A   1      32.106  17.961  24.864  1.00  0.00    -0.192 NA
ENDBRANCH  18  26
ENDBRANCH  13  15
ENDBRANCH   8  13
BRANCH  12  28
ATOM     28  O   UNL A   1      29.087  26.798  23.516  1.00  0.00    -0.507 OA
ATOM     29  H   UNL A   1      28.899  26.150  24.164  1.00  0.00     0.293 HD
ENDBRANCH  12  28
ENDBRANCH   4   7
ENDBRANCH   2   3
ENDBRANCH   1   2
BRANCH   1  30
ATOM     30  C   UNL A   1      31.446  32.129  26.854  1.00  0.00     0.023 C 
BRANCH  30  31
ATOM     31  C   UNL A   1      32.714  32.949  27.052  1.00  0.00     0.116 C 
BRANCH  31  32
ATOM     32  N   UNL A   1      32.481  34.245  27.671  1.00  0.00    -0.352 N 
ATOM     33  C   UNL A   1      33.113  34.842  28.735  1.00  0.00     0.251 C 
ATOM     34  H   UNL A   1      31.761  34.776  27.263  1.00  0.00     0.163 HD
ATOM     35  O   UNL A   1      32.690  35.908  29.180  1.00  0.00    -0.269 OA
BRANCH  33  36
ATOM     36  C   UNL A   1      34.281  34.196  29.374  1.00  0.00     0.039 A 
ATOM     37  C   UNL A   1      34.064  33.218  30.349  1.00  0.00     0.014 A 
ATOM     38  C   UNL A   1      35.584  34.548  29.021  1.00  0.00     0.014 A 
ATOM     39  C   UNL A   1      35.153  32.555  30.922  1.00  0.00     0.010 A 
ATOM     40  C   UNL A   1      36.658  33.810  29.505  1.00  0.00     0.010 A 
ATOM     41  C   UNL A   1      36.459  32.825  30.483  1.00  0.00    -0.014 A 
BRANCH  41  42
ATOM     42  C   UNL A   1      37.631  32.125  31.072  1.00  0.00     0.031 A 
ATOM     43  C   UNL A   1      38.109  32.489  32.452  1.00  0.00     0.074 A 
ATOM     44  C   UNL A   1      38.300  31.205  30.351  1.00  0.00     0.049 A 
ATOM     45  N   UNL A   1      39.126  32.019  33.130  1.00  0.00    -0.248 NA
ATOM     46  C   UNL A   1      37.371  33.554  33.148  1.00  0.00     0.031 C 
ATOM     47  C   UNL A   1      37.985  30.813  28.977  1.00  0.00     0.029 A 
ATOM     48  N   UNL A   1      39.391  30.437  30.673  1.00  0.00    -0.354 N 
ATOM     49  C   UNL A   1      39.158  32.746  34.314  1.00  0.00     0.074 A 
ATOM     50  C   UNL A   1      38.111  33.738  34.228  1.00  0.00     0.031 C 
ATOM     51  C   UNL A   1      38.842  29.857  28.585  1.00  0.00     0.029 A 
ATOM     52  C   UNL A   1      39.786  29.591  29.666  1.00  0.00     0.049 A 
ATOM     53  H   UNL A   1      39.846  30.486  31.544  1.00  0.00     0.167 HD
ATOM     54  C   UNL A   1      39.963  32.582  35.392  1.00  0.00     0.037 A 
ATOM     55  C   UNL A   1      40.794  28.699  29.621  1.00  0.00     0.037 A 
ATOM     56  C   UNL A   1      40.987  31.574  35.482  1.00  0.00     0.049 A 
ATOM     57  C   UNL A   1      41.659  28.508  30.838  1.00  0.00     0.074 A 
ATOM     58  C   UNL A   1      41.811  31.273  36.551  1.00  0.00     0.029 A 
ATOM     59  N   UNL A   1      41.332  30.706  34.455  1.00  0.00    -0.354 N 
ATOM     60  N   UNL A   1      41.624  29.138  31.988  1.00  0.00    -0.248 NA
ATOM     61  C   UNL A   1      42.689  27.465  30.758  1.00  0.00     0.031 C 
ATOM     62  C   UNL A   1      42.695  30.265  36.152  1.00  0.00     0.029 A 
ATOM     63  C   UNL A   1      42.373  29.885  34.857  1.00  0.00     0.049 A 
ATOM     64  H   UNL A   1      40.900  30.678  33.571  1.00  0.00     0.167 HD
ATOM     65  C   UNL A   1      42.602  28.549  32.778  1.00  0.00     0.074 A 
ATOM     66  C   UNL A   1      43.203  27.501  31.979  1.00  0.00     0.031 C 
ATOM     67  C   UNL A   1      42.964  28.845  34.052  1.00  0.00     0.037 A 
BRANCH  54  68
ATOM     68  C   UNL A   1      39.767  33.525  36.548  1.00  0.00     0.064 A 
ATOM     69  C   UNL A   1      38.932  33.208  37.632  1.00  0.00     0.173 A 
ATOM     70  C   UNL A   1      40.414  34.770  36.566  1.00  0.00     0.173 A 
ATOM     71  F   UNL A   1      38.279  32.036  37.663  1.00  0.00    -0.203 F 
ATOM     72  C   UNL A   1      38.709  34.123  38.658  1.00  0.00     0.198 A 
ATOM     73  C   UNL A   1      40.221  35.665  37.615  1.00  0.00     0.198 A 
ATOM     74  F   UNL A   1      41.230  35.124  35.562  1.00  0.00    -0.203 F 
ATOM     75  F   UNL A   1      37.843  33.829  39.638  1.00  0.00    -0.200 F 
ATOM     76  C   UNL A   1      39.357  35.348  38.652  1.00  0.00     0.200 A 
ATOM     77  F   UNL A   1      40.861  36.843  37.615  1.00  0.00    -0.200 F 
ATOM     78  F   UNL A   1      39.138  36.229  39.638  1.00  0.00    -0.200 F 
ENDBRANCH  54  68
BRANCH  55  79
ATOM     79  C   UNL A   1      41.003  27.889  28.392  1.00  0.00     0.064 A 
ATOM     80  C   UNL A   1      41.850  28.334  27.368  1.00  0.00     0.173 A 
ATOM     81  C   UNL A   1      40.383  26.642  28.230  1.00  0.00     0.173 A 
ATOM     82  F   UNL A   1      42.452  29.529  27.468  1.00  0.00    -0.203 F 
ATOM     83  C   UNL A   1      42.058  27.569  26.221  1.00  0.00     0.198 A 
ATOM     84  C   UNL A   1      40.615  25.864  27.096  1.00  0.00     0.198 A 
ATOM     85  F   UNL A   1      39.570  26.166  29.185  1.00  0.00    -0.203 F 
ATOM     86  F   UNL A   1      42.843  28.036  25.241  1.00  0.00    -0.200 F 
ATOM     87  C   UNL A   1      41.447  26.332  26.091  1.00  0.00     0.200 A 
ATOM     88  F   UNL A   1      40.037  24.661  26.983  1.00  0.00    -0.200 F 
ATOM     89  F   UNL A   1      41.658  25.591  24.995  1.00  0.00    -0.200 F 
ENDBRANCH  55  79
BRANCH  67  90
ATOM     90  C   UNL A   1      44.029  27.990  34.681  1.00  0.00     0.064 A 
ATOM     91  C   UNL A   1      45.391  28.315  34.595  1.00  0.00     0.173 A 
ATOM     92  C   UNL A   1      43.675  26.838  35.401  1.00  0.00     0.173 A 
ATOM     93  F   UNL A   1      45.787  29.399  33.911  1.00  0.00    -0.203 F 
ATOM     94  C   UNL A   1      46.360  27.496  35.171  1.00  0.00     0.198 A 
ATOM     95  C   UNL A   1      44.643  26.043  36.007  1.00  0.00     0.198 A 
ATOM     96  F   UNL A   1      42.386  26.486  35.523  1.00  0.00    -0.203 F 
ATOM     97  F   UNL A   1      47.659  27.792  35.021  1.00  0.00    -0.200 F 
ATOM     98  C   UNL A   1      45.985  26.365  35.881  1.00  0.00     0.200 A 
ATOM     99  F   UNL A   1      44.276  24.961  36.708  1.00  0.00    -0.200 F 
ATOM    100  F   UNL A   1      46.919  25.580  36.436  1.00  0.00    -0.200 F 
ENDBRANCH  67  90
ENDBRANCH  41  42
ENDBRANCH  33  36
ENDBRANCH  31  32
ENDBRANCH  30  31
ENDBRANCH   1  30
TORSDOF 15
ENDMDL
MODEL 2
REMARK VINA RESULT:     -12.7      1.304      7.419
REMARK SMILES CC1=C(C#N)C(=O)N(C)C(=O)/C1=C\Nc1ccc(C(=O)NCCCCNC(=O)c2ccc(-c3c4nc(c(-c5c(F)c(F)c(F)c(F)c5F)c5ccc([nH]5)c(-c5c(F)c(F)c(F)c(F)c5F)c5nc(c(-c6c(F)c(F)c(F)c(F)c6F)c6ccc3[nH]6)C=C5)C=C4)cc2)c(O)c1
REMARK SMILES IDX 23 1 22 2 21 3 19 4 20 5 18 7 15 8 16 9 94 10 17 11 92 12
REMARK SMILES IDX 14 13 13 15 1 16 2 17 3 18 12 19 6 20 10 21 7 22 8 23 11 24
REMARK SMILES IDX 9 25 4 26 5 27 93 28 24 30 25 31 26 32 27 33 28 35 29 36
REMARK SMILES IDX 30 37 91 38 31 39 90 40 32 41 33 42 34 43 84 44 35 45 89 46
REMARK SMILES IDX 83 47 85 48 36 49 88 50 82 51 81 52 37 54 69 55 49 56 68 57
REMARK SMILES IDX 50 58 53 59 67 60 86 61 51 62 52 63 66 65 87 66 54 67 38 68
REMARK SMILES IDX 39 69 47 70 40 71 41 72 45 73 48 74 42 75 43 76 46 77 44 78
REMARK SMILES IDX 70 79 71 80 79 81 72 82 73 83 77 84 80 85 74 86 75 87 78 88
REMARK SMILES IDX 76 89 55 90 56 91 64 92 57 93 58 94 62 95 65 96 59 97 60 98
REMARK SMILES IDX 63 99 61 100
REMARK H PARENT 21 6 14 14 93 29 26 34 85 53 53 64
REMARK Flexibility Score: inf
ROOT
ATOM      1  C   UNL A   1      31.391  30.681  26.499  1.00  0.00     0.023 C 
ENDROOT
BRANCH   1   2
ATOM      2  C   UNL A   1      31.912  30.054  25.211  1.00  0.00     0.116 C 
BRANCH   2   3
ATOM      3  N   UNL A   1      30.893  29.803  24.201  1.00  0.00    -0.352 N 
ATOM      4  C   UNL A   1      30.425  28.606  23.709  1.00  0.00     0.255 C 
ATOM      5  O   UNL A   1      29.556  28.613  22.841  1.00  0.00    -0.269 OA
ATOM      6  H   UNL A   1      30.477  30.607  23.816  1.00  0.00     0.163 HD
BRANCH   4   7
ATOM      7  C   UNL A   1      30.992  27.314  24.163  1.00  0.00     0.081 A 
ATOM      8  C   UNL A   1      32.255  25.047  25.264  1.00  0.00     0.042 A 
ATOM      9  C   UNL A   1      33.011  26.063  24.672  1.00  0.00     0.027 A 
ATOM     10  C   UNL A   1      30.859  25.145  25.221  1.00  0.00     0.073 A 
ATOM     11  C   UNL A   1      32.387  27.189  24.125  1.00  0.00     0.020 A 
ATOM     12  C   UNL A   1      30.233  26.244  24.637  1.00  0.00     0.130 A 
BRANCH   8  13
ATOM     13  N   UNL A   1      32.818  23.974  25.966  1.00  0.00    -0.361 N 
ATOM     14  H   UNL A   1      33.288  24.212  26.797  1.00  0.00     0.166 HD
BRANCH  13  15
ATOM     15  C   UNL A   1      32.807  22.637  25.655  1.00  0.00     0.097 C 
ATOM     16  C   UNL A   1      32.342  19.869  24.803  1.00  0.00     0.047 C 
ATOM     17  C   UNL A   1      33.733  20.433  25.006  1.00  0.00    -0.013 C 
ATOM     18  C   UNL A   1      34.843  19.692  24.830  1.00  0.00     0.121 C 
ATOM     19  C   UNL A   1      33.862  21.836  25.396  1.00  0.00     0.060 C 
ATOM     20  C   UNL A   1      36.207  20.237  25.038  1.00  0.00     0.271 C 
ATOM     21  C   UNL A   1      35.237  22.454  25.496  1.00  0.00     0.262 C 
ATOM     22  O   UNL A   1      37.187  19.505  24.915  1.00  0.00    -0.268 OA
ATOM     23  N   UNL A   1      36.305  21.582  25.359  1.00  0.00    -0.277 N 
ATOM     24  O   UNL A   1      35.384  23.662  25.688  1.00  0.00    -0.269 OA
ATOM     25  C   UNL A   1      37.650  22.105  25.538  1.00  0.00     0.157 C 
BRANCH  18  26
ATOM     26  C   UNL A   1      34.759  18.217  24.471  1.00  0.00     0.105 C 
ATOM     27  N   UNL A   1      34.691  16.994  24.173  1.00  0.00    -0.192 NA
ENDBRANCH  18  26
ENDBRANCH  13  15
ENDBRANCH   8  13
BRANCH  12  28
ATOM     28  O   UNL A   1      28.870  26.179  24.559  1.00  0.00    -0.507 OA
ATOM     29  H   UNL A   1      28.439  26.352  23.746  1.00  0.00     0.293 HD
ENDBRANCH  12  28
ENDBRANCH   4   7
ENDBRANCH   2   3
ENDBRANCH   1   2
BRANCH   1  30
ATOM     30  C   UNL A   1      31.388  32.206  26.551  1.00  0.00     0.023 C 
BRANCH  30  31
ATOM     31  C   UNL A   1      32.616  32.858  27.174  1.00  0.00     0.116 C 
BRANCH  31  32
ATOM     32  N   UNL A   1      32.390  34.224  27.619  1.00  0.00    -0.352 N 
ATOM     33  C   UNL A   1      33.012  34.946  28.609  1.00  0.00     0.251 C 
ATOM     34  H   UNL A   1      31.682  34.707  27.135  1.00  0.00     0.163 HD
ATOM     35  O   UNL A   1      32.596  36.064  28.907  1.00  0.00    -0.269 OA
BRANCH  33  36
ATOM     36  C   UNL A   1      34.162  34.374  29.345  1.00  0.00     0.039 A 
ATOM     37  C   UNL A   1      33.921  33.617  30.495  1.00  0.00     0.014 A 
ATOM     38  C   UNL A   1      35.472  34.581  28.911  1.00  0.00     0.014 A 
ATOM     39  C   UNL A   1      34.990  33.021  31.170  1.00  0.00     0.010 A 
ATOM     40  C   UNL A   1      36.520  33.894  29.514  1.00  0.00     0.010 A 
ATOM     41  C   UNL A   1      36.296  33.129  30.667  1.00  0.00    -0.014 A 
BRANCH  41  42
ATOM     42  C   UNL A   1      37.446  32.495  31.364  1.00  0.00     0.031 A 
ATOM     43  C   UNL A   1      38.186  31.358  30.715  1.00  0.00     0.074 A 
ATOM     44  C   UNL A   1      37.792  32.901  32.601  1.00  0.00     0.049 A 
ATOM     45  N   UNL A   1      39.193  30.653  31.167  1.00  0.00    -0.248 NA
ATOM     46  C   UNL A   1      37.703  30.924  29.394  1.00  0.00     0.031 C 
ATOM     47  C   UNL A   1      37.113  33.943  33.371  1.00  0.00     0.029 A 
ATOM     48  N   UNL A   1      38.801  32.479  33.431  1.00  0.00    -0.354 N 
ATOM     49  C   UNL A   1      39.443  29.687  30.201  1.00  0.00     0.074 A 
ATOM     50  C   UNL A   1      38.436  29.844  29.177  1.00  0.00     0.031 C 
ATOM     51  C   UNL A   1      37.741  34.100  34.547  1.00  0.00     0.029 A 
ATOM     52  C   UNL A   1      38.847  33.151  34.628  1.00  0.00     0.049 A 
ATOM     53  H   UNL A   1      39.433  31.764  33.190  1.00  0.00     0.167 HD
ATOM     54  C   UNL A   1      40.441  28.772  30.150  1.00  0.00     0.037 A 
ATOM     55  C   UNL A   1      39.688  33.017  35.671  1.00  0.00     0.037 A 
ATOM     56  C   UNL A   1      41.458  28.638  31.161  1.00  0.00     0.049 A 
ATOM     57  C   UNL A   1      40.810  32.018  35.585  1.00  0.00     0.074 A 
ATOM     58  C   UNL A   1      42.555  27.796  31.176  1.00  0.00     0.029 A 
ATOM     59  N   UNL A   1      41.496  29.365  32.343  1.00  0.00    -0.354 N 
ATOM     60  N   UNL A   1      41.093  31.169  34.627  1.00  0.00    -0.248 NA
ATOM     61  C   UNL A   1      41.742  31.974  36.719  1.00  0.00     0.031 C 
ATOM     62  C   UNL A   1      43.222  27.969  32.394  1.00  0.00     0.029 A 
ATOM     63  C   UNL A   1      42.584  28.973  33.106  1.00  0.00     0.049 A 
ATOM     64  H   UNL A   1      40.846  30.058  32.600  1.00  0.00     0.167 HD
ATOM     65  C   UNL A   1      42.251  30.513  35.024  1.00  0.00     0.074 A 
ATOM     66  C   UNL A   1      42.624  31.075  36.306  1.00  0.00     0.031 C 
ATOM     67  C   UNL A   1      42.945  29.541  34.382  1.00  0.00     0.037 A 
BRANCH  54  68
ATOM     68  C   UNL A   1      40.466  27.844  28.967  1.00  0.00     0.064 A 
ATOM     69  C   UNL A   1      41.230  28.120  27.820  1.00  0.00     0.173 A 
ATOM     70  C   UNL A   1      39.704  26.666  28.973  1.00  0.00     0.173 A 
ATOM     71  F   UNL A   1      41.970  29.238  27.755  1.00  0.00    -0.203 F 
ATOM     72  C   UNL A   1      41.185  27.284  26.708  1.00  0.00     0.198 A 
ATOM     73  C   UNL A   1      39.694  25.810  27.874  1.00  0.00     0.198 A 
ATOM     74  F   UNL A   1      38.961  26.345  30.042  1.00  0.00    -0.203 F 
ATOM     75  F   UNL A   1      41.858  27.614  25.597  1.00  0.00    -0.200 F 
ATOM     76  C   UNL A   1      40.421  26.127  26.737  1.00  0.00     0.200 A 
ATOM     77  F   UNL A   1      38.967  24.685  27.909  1.00  0.00    -0.200 F 
ATOM     78  F   UNL A   1      40.376  25.326  25.664  1.00  0.00    -0.200 F 
ENDBRANCH  54  68
BRANCH  55  79
ATOM     79  C   UNL A   1      39.522  33.890  36.863  1.00  0.00     0.064 A 
ATOM     80  C   UNL A   1      38.809  33.450  37.988  1.00  0.00     0.173 A 
ATOM     81  C   UNL A   1      40.097  35.167  36.915  1.00  0.00     0.173 A 
ATOM     82  F   UNL A   1      38.225  32.243  37.980  1.00  0.00    -0.203 F 
ATOM     83  C   UNL A   1      38.665  34.262  39.112  1.00  0.00     0.198 A 
ATOM     84  C   UNL A   1      39.978  35.966  38.051  1.00  0.00     0.198 A 
ATOM     85  F   UNL A   1      40.798  35.631  35.869  1.00  0.00    -0.203 F 
ATOM     86  F   UNL A   1      37.946  33.831  40.158  1.00  0.00    -0.200 F 
ATOM     87  C   UNL A   1      39.256  35.515  39.145  1.00  0.00     0.200 A 
ATOM     88  F   UNL A   1      40.566  37.169  38.086  1.00  0.00    -0.200 F 
ATOM     89  F   UNL A   1      39.129  36.289  40.232  1.00  0.00    -0.200 F 
ENDBRANCH  55  79
BRANCH  67  90
ATOM     90  C   UNL A   1      44.211  29.054  35.032  1.00  0.00     0.064 A 
ATOM     91  C   UNL A   1      44.221  27.968  35.921  1.00  0.00     0.173 A 
ATOM     92  C   UNL A   1      45.436  29.674  34.742  1.00  0.00     0.173 A 
ATOM     93  F   UNL A   1      43.077  27.345  36.242  1.00  0.00    -0.203 F 
ATOM     94  C   UNL A   1      45.404  27.549  36.525  1.00  0.00     0.198 A 
ATOM     95  C   UNL A   1      46.622  29.228  35.318  1.00  0.00     0.198 A 
ATOM     96  F   UNL A   1      45.485  30.710  33.891  1.00  0.00    -0.203 F 
ATOM     97  F   UNL A   1      45.380  26.552  37.420  1.00  0.00    -0.200 F 
ATOM     98  C   UNL A   1      46.604  28.174  36.219  1.00  0.00     0.200 A 
ATOM     99  F   UNL A   1      47.781  29.823  35.005  1.00  0.00    -0.200 F 
ATOM    100  F   UNL A   1      47.741  27.768  36.799  1.00  0.00    -0.200 F 
ENDBRANCH  67  90
ENDBRANCH  41  42
ENDBRANCH  33  36
ENDBRANCH  31  32
ENDBRANCH  30  31
ENDBRANCH   1  30
TORSDOF 15
ENDMDL
MODEL 3
REMARK VINA RESULT:     -12.7      5.260      9.983
REMARK SMILES CC1=C(C#N)C(=O)N(C)C(=O)/C1=C\Nc1ccc(C(=O)NCCCCNC(=O)c2ccc(-c3c4nc(c(-c5c(F)c(F)c(F)c(F)c5F)c5ccc([nH]5)c(-c5c(F)c(F)c(F)c(F)c5F)c5nc(c(-c6c(F)c(F)c(F)c(F)c6F)c6ccc3[nH]6)C=C5)C=C4)cc2)c(O)c1
REMARK SMILES IDX 23 1 22 2 21 3 19 4 20 5 18 7 15 8 16 9 94 10 17 11 92 12
REMARK SMILES IDX 14 13 13 15 1 16 2 17 3 18 12 19 6 20 10 21 7 22 8 23 11 24
REMARK SMILES IDX 9 25 4 26 5 27 93 28 24 30 25 31 26 32 27 33 28 35 29 36
REMARK SMILES IDX 30 37 91 38 31 39 90 40 32 41 33 42 34 43 84 44 35 45 89 46
REMARK SMILES IDX 83 47 85 48 36 49 88 50 82 51 81 52 37 54 69 55 49 56 68 57
REMARK SMILES IDX 50 58 53 59 67 60 86 61 51 62 52 63 66 65 87 66 54 67 38 68
REMARK SMILES IDX 39 69 47 70 40 71 41 72 45 73 48 74 42 75 43 76 46 77 44 78
REMARK SMILES IDX 70 79 71 80 79 81 72 82 73 83 77 84 80 85 74 86 75 87 78 88
REMARK SMILES IDX 76 89 55 90 56 91 64 92 57 93 58 94 62 95 65 96 59 97 60 98
REMARK SMILES IDX 63 99 61 100
REMARK H PARENT 21 6 14 14 93 29 26 34 85 53 53 64
REMARK Flexibility Score: inf
ROOT
ATOM      1  C   UNL A   1      37.626  21.034  24.682  1.00  0.00     0.023 C 
ENDROOT
BRANCH   1   2
ATOM      2  C   UNL A   1      36.214  21.086  25.253  1.00  0.00     0.116 C 
BRANCH   2   3
ATOM      3  N   UNL A   1      35.420  19.887  25.021  1.00  0.00    -0.352 N 
ATOM      4  C   UNL A   1      34.053  19.727  25.032  1.00  0.00     0.255 C 
ATOM      5  O   UNL A   1      33.578  18.615  24.818  1.00  0.00    -0.269 OA
ATOM      6  H   UNL A   1      35.938  19.073  24.827  1.00  0.00     0.163 HD
BRANCH   4   7
ATOM      7  C   UNL A   1      33.150  20.856  25.357  1.00  0.00     0.081 A 
ATOM      8  C   UNL A   1      31.725  23.181  26.070  1.00  0.00     0.042 A 
ATOM      9  C   UNL A   1      32.483  22.494  27.022  1.00  0.00     0.027 A 
ATOM     10  C   UNL A   1      31.626  22.642  24.782  1.00  0.00     0.073 A 
ATOM     11  C   UNL A   1      33.191  21.340  26.671  1.00  0.00     0.020 A 
ATOM     12  C   UNL A   1      32.293  21.467  24.442  1.00  0.00     0.130 A 
BRANCH   8  13
ATOM     13  N   UNL A   1      31.122  24.422  26.312  1.00  0.00    -0.361 N 
ATOM     14  H   UNL A   1      31.258  24.790  27.215  1.00  0.00     0.166 HD
BRANCH  13  15
ATOM     15  C   UNL A   1      30.367  25.194  25.465  1.00  0.00     0.097 C 
ATOM     16  C   UNL A   1      28.375  26.706  23.931  1.00  0.00     0.047 C 
ATOM     17  C   UNL A   1      29.842  27.082  23.948  1.00  0.00    -0.013 C 
ATOM     18  C   UNL A   1      30.327  28.120  23.243  1.00  0.00     0.121 C 
ATOM     19  C   UNL A   1      30.752  26.288  24.774  1.00  0.00     0.060 C 
ATOM     20  C   UNL A   1      31.765  28.487  23.249  1.00  0.00     0.271 C 
ATOM     21  C   UNL A   1      32.197  26.709  24.898  1.00  0.00     0.262 C 
ATOM     22  O   UNL A   1      32.167  29.412  22.547  1.00  0.00    -0.268 OA
ATOM     23  N   UNL A   1      32.599  27.750  24.077  1.00  0.00    -0.277 N 
ATOM     24  O   UNL A   1      32.961  26.150  25.687  1.00  0.00    -0.269 OA
ATOM     25  C   UNL A   1      34.000  28.136  24.087  1.00  0.00     0.157 C 
BRANCH  18  26
ATOM     26  C   UNL A   1      29.431  28.946  22.334  1.00  0.00     0.105 C 
ATOM     27  N   UNL A   1      28.687  29.631  21.581  1.00  0.00    -0.192 NA
ENDBRANCH  18  26
ENDBRANCH  13  15
ENDBRANCH   8  13
BRANCH  12  28
ATOM     28  O   UNL A   1      32.037  20.980  23.191  1.00  0.00    -0.507 OA
ATOM     29  H   UNL A   1      32.437  21.376  22.443  1.00  0.00     0.293 HD
ENDBRANCH  12  28
ENDBRANCH   4   7
ENDBRANCH   2   3
ENDBRANCH   1   2
BRANCH   1  30
ATOM     30  C   UNL A   1      38.425  19.767  24.976  1.00  0.00     0.023 C 
BRANCH  30  31
ATOM     31  C   UNL A   1      39.417  19.853  26.128  1.00  0.00     0.116 C 
BRANCH  31  32
ATOM     32  N   UNL A   1      40.522  18.913  26.020  1.00  0.00    -0.352 N 
ATOM     33  C   UNL A   1      41.877  19.135  26.049  1.00  0.00     0.251 C 
ATOM     34  H   UNL A   1      40.257  17.972  25.909  1.00  0.00     0.163 HD
ATOM     35  O   UNL A   1      42.656  18.209  25.828  1.00  0.00    -0.269 OA
BRANCH  33  36
ATOM     36  C   UNL A   1      42.411  20.490  26.313  1.00  0.00     0.039 A 
ATOM     37  C   UNL A   1      42.766  21.301  25.231  1.00  0.00     0.014 A 
ATOM     38  C   UNL A   1      42.565  20.965  27.617  1.00  0.00     0.014 A 
ATOM     39  C   UNL A   1      43.216  22.604  25.458  1.00  0.00     0.010 A 
ATOM     40  C   UNL A   1      42.901  22.295  27.836  1.00  0.00     0.010 A 
ATOM     41  C   UNL A   1      43.259  23.123  26.762  1.00  0.00    -0.014 A 
BRANCH  41  42
ATOM     42  C   UNL A   1      43.726  24.510  27.026  1.00  0.00     0.031 A 
ATOM     43  C   UNL A   1      42.762  25.543  27.543  1.00  0.00     0.074 A 
ATOM     44  C   UNL A   1      44.997  24.857  26.750  1.00  0.00     0.049 A 
ATOM     45  N   UNL A   1      42.963  26.810  27.808  1.00  0.00    -0.248 NA
ATOM     46  C   UNL A   1      41.373  25.105  27.751  1.00  0.00     0.031 C 
ATOM     47  C   UNL A   1      46.012  23.971  26.178  1.00  0.00     0.029 A 
ATOM     48  N   UNL A   1      45.652  26.053  26.908  1.00  0.00    -0.354 N 
ATOM     49  C   UNL A   1      41.727  27.317  28.189  1.00  0.00     0.074 A 
ATOM     50  C   UNL A   1      40.769  26.245  28.046  1.00  0.00     0.031 C 
ATOM     51  C   UNL A   1      47.168  24.645  26.062  1.00  0.00     0.029 A 
ATOM     52  C   UNL A   1      46.969  26.016  26.520  1.00  0.00     0.049 A 
ATOM     53  H   UNL A   1      45.219  26.861  27.266  1.00  0.00     0.167 HD
ATOM     54  C   UNL A   1      41.420  28.553  28.650  1.00  0.00     0.037 A 
ATOM     55  C   UNL A   1      47.910  26.979  26.535  1.00  0.00     0.037 A 
ATOM     56  C   UNL A   1      42.385  29.610  28.816  1.00  0.00     0.049 A 
ATOM     57  C   UNL A   1      47.560  28.338  27.079  1.00  0.00     0.074 A 
ATOM     58  C   UNL A   1      42.197  30.875  29.341  1.00  0.00     0.029 A 
ATOM     59  N   UNL A   1      43.720  29.523  28.450  1.00  0.00    -0.354 N 
ATOM     60  N   UNL A   1      46.408  28.783  27.522  1.00  0.00    -0.248 NA
ATOM     61  C   UNL A   1      48.648  29.322  27.146  1.00  0.00     0.031 C 
ATOM     62  C   UNL A   1      43.405  31.575  29.237  1.00  0.00     0.029 A 
ATOM     63  C   UNL A   1      44.365  30.720  28.715  1.00  0.00     0.049 A 
ATOM     64  H   UNL A   1      44.148  28.726  28.060  1.00  0.00     0.167 HD
ATOM     65  C   UNL A   1      46.638  30.084  27.949  1.00  0.00     0.074 A 
ATOM     66  C   UNL A   1      48.044  30.351  27.724  1.00  0.00     0.031 C 
ATOM     67  C   UNL A   1      45.766  30.974  28.486  1.00  0.00     0.037 A 
BRANCH  54  68
ATOM     68  C   UNL A   1      39.981  28.823  28.993  1.00  0.00     0.064 A 
ATOM     69  C   UNL A   1      39.473  28.616  30.287  1.00  0.00     0.173 A 
ATOM     70  C   UNL A   1      39.091  29.284  28.011  1.00  0.00     0.173 A 
ATOM     71  F   UNL A   1      40.276  28.165  31.263  1.00  0.00    -0.203 F 
ATOM     72  C   UNL A   1      38.122  28.804  30.568  1.00  0.00     0.198 A 
ATOM     73  C   UNL A   1      37.749  29.511  28.307  1.00  0.00     0.198 A 
ATOM     74  F   UNL A   1      39.519  29.508  26.760  1.00  0.00    -0.203 F 
ATOM     75  F   UNL A   1      37.648  28.519  31.788  1.00  0.00    -0.200 F 
ATOM     76  C   UNL A   1      37.262  29.256  29.579  1.00  0.00     0.200 A 
ATOM     77  F   UNL A   1      36.922  29.963  27.353  1.00  0.00    -0.200 F 
ATOM     78  F   UNL A   1      35.962  29.433  29.850  1.00  0.00    -0.200 F 
ENDBRANCH  54  68
BRANCH  55  79
ATOM     79  C   UNL A   1      49.284  26.670  26.060  1.00  0.00     0.064 A 
ATOM     80  C   UNL A   1      49.683  26.975  24.751  1.00  0.00     0.173 A 
ATOM     81  C   UNL A   1      50.234  26.090  26.913  1.00  0.00     0.173 A 
ATOM     82  F   UNL A   1      48.806  27.514  23.892  1.00  0.00    -0.203 F 
ATOM     83  C   UNL A   1      50.976  26.698  24.309  1.00  0.00     0.198 A 
ATOM     84  C   UNL A   1      51.535  25.841  26.479  1.00  0.00     0.198 A 
ATOM     85  F   UNL A   1      49.906  25.787  28.177  1.00  0.00    -0.203 F 
ATOM     86  F   UNL A   1      51.319  26.966  23.041  1.00  0.00    -0.200 F 
ATOM     87  C   UNL A   1      51.903  26.139  25.176  1.00  0.00     0.200 A 
ATOM     88  F   UNL A   1      52.433  25.317  27.325  1.00  0.00    -0.200 F 
ATOM     89  F   UNL A   1      53.149  25.887  24.754  1.00  0.00    -0.200 F 
ENDBRANCH  55  79
BRANCH  67  90
ATOM     90  C   UNL A   1      46.316  32.306  28.914  1.00  0.00     0.064 A 
ATOM     91  C   UNL A   1      46.330  33.417  28.057  1.00  0.00     0.173 A 
ATOM     92  C   UNL A   1      46.819  32.476  30.214  1.00  0.00     0.173 A 
ATOM     93  F   UNL A   1      45.871  33.307  26.801  1.00  0.00    -0.203 F 
ATOM     94  C   UNL A   1      46.863  34.634  28.472  1.00  0.00     0.198 A 
ATOM     95  C   UNL A   1      47.317  33.705  30.638  1.00  0.00     0.198 A 
ATOM     96  F   UNL A   1      46.821  31.450  31.078  1.00  0.00    -0.203 F 
ATOM     97  F   UNL A   1      46.924  35.663  27.615  1.00  0.00    -0.200 F 
ATOM     98  C   UNL A   1      47.350  34.779  29.763  1.00  0.00     0.200 A 
ATOM     99  F   UNL A   1      47.769  33.846  31.891  1.00  0.00    -0.200 F 
ATOM    100  F   UNL A   1      47.861  35.953  30.161  1.00  0.00    -0.200 F 
ENDBRANCH  67  90
ENDBRANCH  41  42
ENDBRANCH  33  36
ENDBRANCH  31  32
ENDBRANCH  30  31
ENDBRANCH   1  30
TORSDOF 15
ENDMDL
