MODEL 1
REMARK VINA RESULT:     -13.3      0.000      0.000
REMARK SMILES CC(=O)Nc1ccc2c(C(=O)NCCCCNC(=O)c3ccc(-c4c5nc(c(-c6c(F)c(F)c(F)c(F)c6F)c6ccc([nH]6)c(-c6c(F)c(F)c(F)c(F)c6F)c6nc(c(-c7c(F)c(F)c(F)c(F)c7F)c7ccc4[nH]7)C=C6)C=C5)cc3)c(C)c(O)nc2n1
REMARK SMILES IDX 15 1 14 2 13 3 12 4 10 5 11 6 9 8 5 9 6 10 89 11 7 12 88 13
REMARK SMILES IDX 8 14 87 15 85 16 83 17 84 18 4 19 1 20 2 21 3 22 86 24 16 26
REMARK SMILES IDX 17 27 18 28 19 30 20 31 21 32 82 33 22 34 81 35 23 36 24 37
REMARK SMILES IDX 25 38 75 39 26 40 80 41 74 42 76 43 27 44 79 45 73 46 72 47
REMARK SMILES IDX 28 49 60 50 40 51 59 52 41 53 44 54 58 55 77 56 42 57 43 58
REMARK SMILES IDX 57 60 78 61 45 62 29 63 30 64 38 65 31 66 32 67 36 68 39 69
REMARK SMILES IDX 33 70 34 71 37 72 35 73 61 74 62 75 70 76 63 77 64 78 68 79
REMARK SMILES IDX 71 80 65 81 66 82 69 83 67 84 46 85 47 86 55 87 48 88 49 89
REMARK SMILES IDX 53 90 56 91 50 92 51 93 54 94 52 95
REMARK H PARENT 12 7 4 23 86 25 17 29 76 48 44 59
REMARK Flexibility Score: inf
ROOT
ATOM      1  C   UNL A   1      31.779  31.951  26.834  1.00  0.00     0.023 C 
ENDROOT
BRANCH   1   2
ATOM      2  C   UNL A   1      32.050  30.459  26.986  1.00  0.00     0.023 C 
BRANCH   2   3
ATOM      3  C   UNL A   1      31.901  29.689  25.675  1.00  0.00     0.116 C 
BRANCH   3   4
ATOM      4  N   UNL A   1      32.007  28.261  25.916  1.00  0.00    -0.352 N 
ATOM      5  C   UNL A   1      33.162  27.587  25.602  1.00  0.00     0.252 C 
ATOM      6  O   UNL A   1      34.171  27.666  26.288  1.00  0.00    -0.269 OA
ATOM      7  H   UNL A   1      31.247  27.774  26.306  1.00  0.00     0.163 HD
BRANCH   5   8
ATOM      8  C   UNL A   1      33.047  26.594  24.507  1.00  0.00     0.059 A 
ATOM      9  C   UNL A   1      32.031  22.617  25.251  1.00  0.00     0.135 A 
ATOM     10  C   UNL A   1      31.933  23.476  26.327  1.00  0.00     0.048 A 
ATOM     11  N   UNL A   1      32.429  23.025  24.038  1.00  0.00    -0.211 NA
ATOM     12  C   UNL A   1      32.284  24.808  26.129  1.00  0.00     0.017 A 
ATOM     13  C   UNL A   1      32.684  24.311  23.817  1.00  0.00     0.166 A 
ATOM     14  C   UNL A   1      32.676  25.261  24.848  1.00  0.00     0.033 A 
ATOM     15  N   UNL A   1      32.916  24.644  22.556  1.00  0.00    -0.193 NA
ATOM     16  C   UNL A   1      33.198  25.918  22.273  1.00  0.00     0.216 A 
ATOM     17  C   UNL A   1      33.333  26.942  23.183  1.00  0.00     0.025 A 
ATOM     18  C   UNL A   1      33.735  28.305  22.726  1.00  0.00     0.051 C 
BRANCH   9  19
ATOM     19  N   UNL A   1      31.802  21.247  25.336  1.00  0.00    -0.311 N 
ATOM     20  C   UNL A   1      34.114  20.386  25.155  1.00  0.00     0.114 C 
ATOM     21  C   UNL A   1      32.623  20.180  25.150  1.00  0.00     0.222 C 
ATOM     22  O   UNL A   1      32.146  19.048  25.060  1.00  0.00    -0.275 OA
ATOM     23  H   UNL A   1      30.877  21.008  25.576  1.00  0.00     0.171 HD
ENDBRANCH   9  19
BRANCH  16  24
ATOM     24  O   UNL A   1      33.327  26.136  20.941  1.00  0.00    -0.493 OA
ATOM     25  H   UNL A   1      33.836  25.550  20.417  1.00  0.00     0.295 HD
ENDBRANCH  16  24
ENDBRANCH   5   8
ENDBRANCH   3   4
ENDBRANCH   2   3
ENDBRANCH   1   2
BRANCH   1  26
ATOM     26  C   UNL A   1      32.892  32.852  27.347  1.00  0.00     0.116 C 
BRANCH  26  27
ATOM     27  N   UNL A   1      32.447  34.193  27.689  1.00  0.00    -0.352 N 
ATOM     28  C   UNL A   1      32.999  35.030  28.636  1.00  0.00     0.251 C 
ATOM     29  H   UNL A   1      31.671  34.541  27.193  1.00  0.00     0.163 HD
ATOM     30  O   UNL A   1      32.534  36.128  28.881  1.00  0.00    -0.269 OA
BRANCH  28  31
ATOM     31  C   UNL A   1      34.162  34.517  29.384  1.00  0.00     0.039 A 
ATOM     32  C   UNL A   1      33.935  33.724  30.510  1.00  0.00     0.014 A 
ATOM     33  C   UNL A   1      35.447  34.689  28.862  1.00  0.00     0.014 A 
ATOM     34  C   UNL A   1      35.006  33.043  31.086  1.00  0.00     0.010 A 
ATOM     35  C   UNL A   1      36.501  33.965  29.404  1.00  0.00     0.010 A 
ATOM     36  C   UNL A   1      36.287  33.135  30.517  1.00  0.00    -0.014 A 
BRANCH  36  37
ATOM     37  C   UNL A   1      37.430  32.394  31.096  1.00  0.00     0.031 A 
ATOM     38  C   UNL A   1      37.928  32.766  32.460  1.00  0.00     0.074 A 
ATOM     39  C   UNL A   1      38.043  31.431  30.382  1.00  0.00     0.049 A 
ATOM     40  N   UNL A   1      38.936  32.279  33.134  1.00  0.00    -0.248 NA
ATOM     41  C   UNL A   1      37.208  33.850  33.148  1.00  0.00     0.031 C 
ATOM     42  C   UNL A   1      37.672  31.013  29.030  1.00  0.00     0.029 A 
ATOM     43  N   UNL A   1      39.117  30.636  30.694  1.00  0.00    -0.354 N 
ATOM     44  C   UNL A   1      38.975  32.999  34.318  1.00  0.00     0.074 A 
ATOM     45  C   UNL A   1      37.928  33.994  34.251  1.00  0.00     0.031 C 
ATOM     46  C   UNL A   1      38.493  30.025  28.635  1.00  0.00     0.029 A 
ATOM     47  C   UNL A   1      39.459  29.755  29.697  1.00  0.00     0.049 A 
ATOM     48  H   UNL A   1      39.596  30.690  31.552  1.00  0.00     0.167 HD
ATOM     49  C   UNL A   1      39.792  32.824  35.383  1.00  0.00     0.037 A 
ATOM     50  C   UNL A   1      40.441  28.834  29.652  1.00  0.00     0.037 A 
ATOM     51  C   UNL A   1      40.812  31.816  35.457  1.00  0.00     0.049 A 
ATOM     52  C   UNL A   1      41.343  28.665  30.844  1.00  0.00     0.074 A 
ATOM     53  C   UNL A   1      41.653  31.518  36.514  1.00  0.00     0.029 A 
ATOM     54  N   UNL A   1      41.127  30.939  34.430  1.00  0.00    -0.354 N 
ATOM     55  N   UNL A   1      41.331  29.307  31.987  1.00  0.00    -0.248 NA
ATOM     56  C   UNL A   1      42.394  27.641  30.744  1.00  0.00     0.031 C 
ATOM     57  C   UNL A   1      42.501  30.480  36.113  1.00  0.00     0.029 A 
ATOM     58  C   UNL A   1      42.164  30.110  34.821  1.00  0.00     0.049 A 
ATOM     59  H   UNL A   1      40.680  30.910  33.554  1.00  0.00     0.167 HD
ATOM     60  C   UNL A   1      42.351  28.754  32.749  1.00  0.00     0.074 A 
ATOM     61  C   UNL A   1      42.958  27.716  31.943  1.00  0.00     0.031 C 
ATOM     62  C   UNL A   1      42.749  29.078  34.002  1.00  0.00     0.037 A 
BRANCH  49  63
ATOM     63  C   UNL A   1      39.598  33.735  36.555  1.00  0.00     0.064 A 
ATOM     64  C   UNL A   1      40.199  35.003  36.599  1.00  0.00     0.173 A 
ATOM     65  C   UNL A   1      38.789  33.351  37.633  1.00  0.00     0.173 A 
ATOM     66  F   UNL A   1      40.996  35.407  35.599  1.00  0.00    -0.203 F 
ATOM     67  C   UNL A   1      40.015  35.844  37.692  1.00  0.00     0.198 A 
ATOM     68  C   UNL A   1      38.586  34.206  38.713  1.00  0.00     0.198 A 
ATOM     69  F   UNL A   1      38.193  32.149  37.637  1.00  0.00    -0.203 F 
ATOM     70  F   UNL A   1      40.635  37.031  37.734  1.00  0.00    -0.200 F 
ATOM     71  C   UNL A   1      39.204  35.448  38.745  1.00  0.00     0.200 A 
ATOM     72  F   UNL A   1      37.797  33.826  39.728  1.00  0.00    -0.200 F 
ATOM     73  F   UNL A   1      39.024  36.260  39.796  1.00  0.00    -0.200 F 
ENDBRANCH  49  63
BRANCH  50  74
ATOM     74  C   UNL A   1      40.594  27.975  28.451  1.00  0.00     0.064 A 
ATOM     75  C   UNL A   1      39.962  26.726  28.379  1.00  0.00     0.173 A 
ATOM     76  C   UNL A   1      41.358  28.386  27.349  1.00  0.00     0.173 A 
ATOM     77  F   UNL A   1      39.237  26.283  29.416  1.00  0.00    -0.203 F 
ATOM     78  C   UNL A   1      40.096  25.916  27.254  1.00  0.00     0.198 A 
ATOM     79  C   UNL A   1      41.475  27.583  26.217  1.00  0.00     0.198 A 
ATOM     80  F   UNL A   1      41.979  29.574  27.368  1.00  0.00    -0.203 F 
ATOM     81  F   UNL A   1      39.505  24.713  27.224  1.00  0.00    -0.200 F 
ATOM     82  C   UNL A   1      40.847  26.347  26.171  1.00  0.00     0.200 A 
ATOM     83  F   UNL A   1      42.192  28.007  25.167  1.00  0.00    -0.200 F 
ATOM     84  F   UNL A   1      40.970  25.570  25.086  1.00  0.00    -0.200 F 
ENDBRANCH  50  74
BRANCH  62  85
ATOM     85  C   UNL A   1      43.885  28.299  34.593  1.00  0.00     0.064 A 
ATOM     86  C   UNL A   1      45.202  28.773  34.531  1.00  0.00     0.173 A 
ATOM     87  C   UNL A   1      43.641  27.114  35.302  1.00  0.00     0.173 A 
ATOM     88  F   UNL A   1      45.485  29.896  33.853  1.00  0.00    -0.203 F 
ATOM     89  C   UNL A   1      46.239  28.084  35.155  1.00  0.00     0.198 A 
ATOM     90  C   UNL A   1      44.676  26.439  35.944  1.00  0.00     0.198 A 
ATOM     91  F   UNL A   1      42.395  26.625  35.394  1.00  0.00    -0.203 F 
ATOM     92  F   UNL A   1      47.494  28.541  35.065  1.00  0.00    -0.200 F 
ATOM     93  C   UNL A   1      45.972  26.924  35.870  1.00  0.00     0.200 A 
ATOM     94  F   UNL A   1      44.415  25.327  36.645  1.00  0.00    -0.200 F 
ATOM     95  F   UNL A   1      46.969  26.272  36.485  1.00  0.00    -0.200 F 
ENDBRANCH  62  85
ENDBRANCH  36  37
ENDBRANCH  28  31
ENDBRANCH  26  27
ENDBRANCH   1  26
TORSDOF 13
ENDMDL
MODEL 2
REMARK VINA RESULT:     -13.3      0.074      1.594
REMARK SMILES CC(=O)Nc1ccc2c(C(=O)NCCCCNC(=O)c3ccc(-c4c5nc(c(-c6c(F)c(F)c(F)c(F)c6F)c6ccc([nH]6)c(-c6c(F)c(F)c(F)c(F)c6F)c6nc(c(-c7c(F)c(F)c(F)c(F)c7F)c7ccc4[nH]7)C=C6)C=C5)cc3)c(C)c(O)nc2n1
REMARK SMILES IDX 15 1 14 2 13 3 12 4 10 5 11 6 9 8 5 9 6 10 89 11 7 12 88 13
REMARK SMILES IDX 8 14 87 15 85 16 83 17 84 18 4 19 1 20 2 21 3 22 86 24 16 26
REMARK SMILES IDX 17 27 18 28 19 30 20 31 21 32 82 33 22 34 81 35 23 36 24 37
REMARK SMILES IDX 25 38 75 39 26 40 80 41 74 42 76 43 27 44 79 45 73 46 72 47
REMARK SMILES IDX 28 49 60 50 40 51 59 52 41 53 44 54 58 55 77 56 42 57 43 58
REMARK SMILES IDX 57 60 78 61 45 62 29 63 30 64 38 65 31 66 32 67 36 68 39 69
REMARK SMILES IDX 33 70 34 71 37 72 35 73 61 74 62 75 70 76 63 77 64 78 68 79
REMARK SMILES IDX 71 80 65 81 66 82 69 83 67 84 46 85 47 86 55 87 48 88 49 89
REMARK SMILES IDX 53 90 56 91 50 92 51 93 54 94 52 95
REMARK H PARENT 12 7 4 23 86 25 17 29 76 48 44 59
REMARK Flexibility Score: inf
ROOT
ATOM      1  C   UNL A   1      31.763  31.974  26.753  1.00  0.00     0.023 C 
ENDROOT
BRANCH   1   2
ATOM      2  C   UNL A   1      32.026  30.482  26.909  1.00  0.00     0.023 C 
BRANCH   2   3
ATOM      3  C   UNL A   1      31.851  29.705  25.606  1.00  0.00     0.116 C 
BRANCH   3   4
ATOM      4  N   UNL A   1      31.945  28.277  25.854  1.00  0.00    -0.352 N 
ATOM      5  C   UNL A   1      33.103  27.597  25.566  1.00  0.00     0.252 C 
ATOM      6  O   UNL A   1      34.098  27.673  26.272  1.00  0.00    -0.269 OA
ATOM      7  H   UNL A   1      31.176  27.795  26.231  1.00  0.00     0.163 HD
BRANCH   5   8
ATOM      8  C   UNL A   1      33.005  26.599  24.473  1.00  0.00     0.059 A 
ATOM      9  C   UNL A   1      32.004  22.619  25.219  1.00  0.00     0.135 A 
ATOM     10  C   UNL A   1      31.891  23.480  26.291  1.00  0.00     0.048 A 
ATOM     11  N   UNL A   1      32.413  23.025  24.009  1.00  0.00    -0.211 NA
ATOM     12  C   UNL A   1      32.236  24.813  26.092  1.00  0.00     0.017 A 
ATOM     13  C   UNL A   1      32.662  24.312  23.787  1.00  0.00     0.166 A 
ATOM     14  C   UNL A   1      32.638  25.265  24.814  1.00  0.00     0.033 A 
ATOM     15  N   UNL A   1      32.905  24.642  22.527  1.00  0.00    -0.193 NA
ATOM     16  C   UNL A   1      33.183  25.917  22.243  1.00  0.00     0.216 A 
ATOM     17  C   UNL A   1      33.302  26.945  23.151  1.00  0.00     0.025 A 
ATOM     18  C   UNL A   1      33.701  28.309  22.694  1.00  0.00     0.051 C 
BRANCH   9  19
ATOM     19  N   UNL A   1      31.783  21.248  25.306  1.00  0.00    -0.311 N 
ATOM     20  C   UNL A   1      34.106  20.403  25.211  1.00  0.00     0.114 C 
ATOM     21  C   UNL A   1      32.618  20.186  25.156  1.00  0.00     0.222 C 
ATOM     22  O   UNL A   1      32.152  19.050  25.058  1.00  0.00    -0.275 OA
ATOM     23  H   UNL A   1      30.851  21.003  25.516  1.00  0.00     0.171 HD
ENDBRANCH   9  19
BRANCH  16  24
ATOM     24  O   UNL A   1      33.324  26.132  20.911  1.00  0.00    -0.493 OA
ATOM     25  H   UNL A   1      33.313  25.409  20.316  1.00  0.00     0.295 HD
ENDBRANCH  16  24
ENDBRANCH   5   8
ENDBRANCH   3   4
ENDBRANCH   2   3
ENDBRANCH   1   2
BRANCH   1  26
ATOM     26  C   UNL A   1      32.873  32.872  27.277  1.00  0.00     0.116 C 
BRANCH  26  27
ATOM     27  N   UNL A   1      32.427  34.211  27.624  1.00  0.00    -0.352 N 
ATOM     28  C   UNL A   1      32.976  35.042  28.578  1.00  0.00     0.251 C 
ATOM     29  H   UNL A   1      31.653  34.561  27.128  1.00  0.00     0.163 HD
ATOM     30  O   UNL A   1      32.510  36.139  28.827  1.00  0.00    -0.269 OA
BRANCH  28  31
ATOM     31  C   UNL A   1      34.136  34.525  29.328  1.00  0.00     0.039 A 
ATOM     32  C   UNL A   1      33.905  33.730  30.451  1.00  0.00     0.014 A 
ATOM     33  C   UNL A   1      35.423  34.696  28.808  1.00  0.00     0.014 A 
ATOM     34  C   UNL A   1      34.974  33.045  31.027  1.00  0.00     0.010 A 
ATOM     35  C   UNL A   1      36.474  33.968  29.350  1.00  0.00     0.010 A 
ATOM     36  C   UNL A   1      36.256  33.135  30.461  1.00  0.00    -0.014 A 
BRANCH  36  37
ATOM     37  C   UNL A   1      37.396  32.391  31.041  1.00  0.00     0.031 A 
ATOM     38  C   UNL A   1      37.887  32.754  32.410  1.00  0.00     0.074 A 
ATOM     39  C   UNL A   1      38.013  31.433  30.323  1.00  0.00     0.049 A 
ATOM     40  N   UNL A   1      38.892  32.262  33.085  1.00  0.00    -0.248 NA
ATOM     41  C   UNL A   1      37.164  33.833  33.101  1.00  0.00     0.031 C 
ATOM     42  C   UNL A   1      37.648  31.023  28.967  1.00  0.00     0.029 A 
ATOM     43  N   UNL A   1      39.085  30.635  30.636  1.00  0.00    -0.354 N 
ATOM     44  C   UNL A   1      38.925  32.974  34.275  1.00  0.00     0.074 A 
ATOM     45  C   UNL A   1      37.879  33.970  34.208  1.00  0.00     0.031 C 
ATOM     46  C   UNL A   1      38.471  30.038  28.570  1.00  0.00     0.029 A 
ATOM     47  C   UNL A   1      39.432  29.761  29.635  1.00  0.00     0.049 A 
ATOM     48  H   UNL A   1      39.559  30.684  31.496  1.00  0.00     0.167 HD
ATOM     49  C   UNL A   1      39.737  32.792  35.342  1.00  0.00     0.037 A 
ATOM     50  C   UNL A   1      40.414  28.840  29.588  1.00  0.00     0.037 A 
ATOM     51  C   UNL A   1      40.757  31.783  35.415  1.00  0.00     0.049 A 
ATOM     52  C   UNL A   1      41.310  28.663  30.784  1.00  0.00     0.074 A 
ATOM     53  C   UNL A   1      41.593  31.478  36.473  1.00  0.00     0.029 A 
ATOM     54  N   UNL A   1      41.076  30.913  34.384  1.00  0.00    -0.354 N 
ATOM     55  N   UNL A   1      41.292  29.298  31.931  1.00  0.00    -0.248 NA
ATOM     56  C   UNL A   1      42.361  27.640  30.682  1.00  0.00     0.031 C 
ATOM     57  C   UNL A   1      42.443  30.443  36.070  1.00  0.00     0.029 A 
ATOM     58  C   UNL A   1      42.111  30.081  34.774  1.00  0.00     0.049 A 
ATOM     59  H   UNL A   1      40.634  30.890  33.504  1.00  0.00     0.167 HD
ATOM     60  C   UNL A   1      42.309  28.739  32.693  1.00  0.00     0.074 A 
ATOM     61  C   UNL A   1      42.920  27.706  31.884  1.00  0.00     0.031 C 
ATOM     62  C   UNL A   1      42.701  29.055  33.951  1.00  0.00     0.037 A 
BRANCH  49  63
ATOM     63  C   UNL A   1      39.538  33.695  36.519  1.00  0.00     0.064 A 
ATOM     64  C   UNL A   1      38.754  33.302  37.615  1.00  0.00     0.173 A 
ATOM     65  C   UNL A   1      40.152  34.955  36.566  1.00  0.00     0.173 A 
ATOM     66  F   UNL A   1      38.132  32.113  37.608  1.00  0.00    -0.203 F 
ATOM     67  C   UNL A   1      38.574  34.148  38.706  1.00  0.00     0.198 A 
ATOM     68  C   UNL A   1      39.990  35.788  37.670  1.00  0.00     0.198 A 
ATOM     69  F   UNL A   1      40.910  35.376  35.542  1.00  0.00    -0.203 F 
ATOM     70  F   UNL A   1      37.784  33.770  39.720  1.00  0.00    -0.200 F 
ATOM     71  C   UNL A   1      39.196  35.386  38.735  1.00  0.00     0.200 A 
ATOM     72  F   UNL A   1      40.598  36.982  37.702  1.00  0.00    -0.200 F 
ATOM     73  F   UNL A   1      39.026  36.198  39.787  1.00  0.00    -0.200 F 
ENDBRANCH  49  63
BRANCH  50  74
ATOM     74  C   UNL A   1      40.573  27.989  28.382  1.00  0.00     0.064 A 
ATOM     75  C   UNL A   1      41.341  28.427  27.294  1.00  0.00     0.173 A 
ATOM     76  C   UNL A   1      39.977  26.723  28.295  1.00  0.00     0.173 A 
ATOM     77  F   UNL A   1      41.914  29.638  27.324  1.00  0.00    -0.203 F 
ATOM     78  C   UNL A   1      41.500  27.632  26.161  1.00  0.00     0.198 A 
ATOM     79  C   UNL A   1      40.154  25.922  27.169  1.00  0.00     0.198 A 
ATOM     80  F   UNL A   1      39.235  26.259  29.311  1.00  0.00    -0.203 F 
ATOM     81  F   UNL A   1      42.217  28.087  25.123  1.00  0.00    -0.200 F 
ATOM     82  C   UNL A   1      40.912  26.379  26.101  1.00  0.00     0.200 A 
ATOM     83  F   UNL A   1      39.593  24.706  27.119  1.00  0.00    -0.200 F 
ATOM     84  F   UNL A   1      41.071  25.612  25.013  1.00  0.00    -0.200 F 
ENDBRANCH  50  74
BRANCH  62  85
ATOM     85  C   UNL A   1      43.833  28.272  34.542  1.00  0.00     0.064 A 
ATOM     86  C   UNL A   1      45.150  28.753  34.502  1.00  0.00     0.173 A 
ATOM     87  C   UNL A   1      43.587  27.075  35.230  1.00  0.00     0.173 A 
ATOM     88  F   UNL A   1      45.434  29.887  33.844  1.00  0.00    -0.203 F 
ATOM     89  C   UNL A   1      46.182  28.058  35.127  1.00  0.00     0.198 A 
ATOM     90  C   UNL A   1      44.618  26.395  35.873  1.00  0.00     0.198 A 
ATOM     91  F   UNL A   1      42.342  26.580  35.301  1.00  0.00    -0.203 F 
ATOM     92  F   UNL A   1      47.436  28.523  35.057  1.00  0.00    -0.200 F 
ATOM     93  C   UNL A   1      45.913  26.887  35.820  1.00  0.00     0.200 A 
ATOM     94  F   UNL A   1      44.355  25.272  36.554  1.00  0.00    -0.200 F 
ATOM     95  F   UNL A   1      46.906  26.230  36.436  1.00  0.00    -0.200 F 
ENDBRANCH  62  85
ENDBRANCH  36  37
ENDBRANCH  28  31
ENDBRANCH  26  27
ENDBRANCH   1  26
TORSDOF 13
ENDMDL
MODEL 3
REMARK VINA RESULT:     -13.3      0.103      1.597
REMARK SMILES CC(=O)Nc1ccc2c(C(=O)NCCCCNC(=O)c3ccc(-c4c5nc(c(-c6c(F)c(F)c(F)c(F)c6F)c6ccc([nH]6)c(-c6c(F)c(F)c(F)c(F)c6F)c6nc(c(-c7c(F)c(F)c(F)c(F)c7F)c7ccc4[nH]7)C=C6)C=C5)cc3)c(C)c(O)nc2n1
REMARK SMILES IDX 15 1 14 2 13 3 12 4 10 5 11 6 9 8 5 9 6 10 89 11 7 12 88 13
REMARK SMILES IDX 8 14 87 15 85 16 83 17 84 18 4 19 1 20 2 21 3 22 86 24 16 26
REMARK SMILES IDX 17 27 18 28 19 30 20 31 21 32 82 33 22 34 81 35 23 36 24 37
REMARK SMILES IDX 25 38 75 39 26 40 80 41 74 42 76 43 27 44 79 45 73 46 72 47
REMARK SMILES IDX 28 49 60 50 40 51 59 52 41 53 44 54 58 55 77 56 42 57 43 58
REMARK SMILES IDX 57 60 78 61 45 62 29 63 30 64 38 65 31 66 32 67 36 68 39 69
REMARK SMILES IDX 33 70 34 71 37 72 35 73 61 74 62 75 70 76 63 77 64 78 68 79
REMARK SMILES IDX 71 80 65 81 66 82 69 83 67 84 46 85 47 86 55 87 48 88 49 89
REMARK SMILES IDX 53 90 56 91 50 92 51 93 54 94 52 95
REMARK H PARENT 12 7 4 23 86 25 17 29 76 48 44 59
REMARK Flexibility Score: inf
ROOT
ATOM      1  C   UNL A   1      31.799  31.972  26.812  1.00  0.00     0.023 C 
ENDROOT
BRANCH   1   2
ATOM      2  C   UNL A   1      32.098  30.484  26.944  1.00  0.00     0.023 C 
BRANCH   2   3
ATOM      3  C   UNL A   1      31.830  29.704  25.658  1.00  0.00     0.116 C 
BRANCH   3   4
ATOM      4  N   UNL A   1      31.947  28.278  25.900  1.00  0.00    -0.352 N 
ATOM      5  C   UNL A   1      33.110  27.614  25.597  1.00  0.00     0.252 C 
ATOM      6  O   UNL A   1      34.113  27.702  26.291  1.00  0.00    -0.269 OA
ATOM      7  H   UNL A   1      31.188  27.784  26.285  1.00  0.00     0.163 HD
BRANCH   5   8
ATOM      8  C   UNL A   1      33.014  26.618  24.502  1.00  0.00     0.059 A 
ATOM      9  C   UNL A   1      32.004  22.639  25.238  1.00  0.00     0.135 A 
ATOM     10  C   UNL A   1      31.889  23.499  26.312  1.00  0.00     0.048 A 
ATOM     11  N   UNL A   1      32.416  23.047  24.030  1.00  0.00    -0.211 NA
ATOM     12  C   UNL A   1      32.237  24.831  26.116  1.00  0.00     0.017 A 
ATOM     13  C   UNL A   1      32.668  24.334  23.811  1.00  0.00     0.166 A 
ATOM     14  C   UNL A   1      32.643  25.285  24.839  1.00  0.00     0.033 A 
ATOM     15  N   UNL A   1      32.915  24.666  22.552  1.00  0.00    -0.193 NA
ATOM     16  C   UNL A   1      33.195  25.940  22.271  1.00  0.00     0.216 A 
ATOM     17  C   UNL A   1      33.314  26.966  23.181  1.00  0.00     0.025 A 
ATOM     18  C   UNL A   1      33.717  28.330  22.727  1.00  0.00     0.051 C 
BRANCH   9  19
ATOM     19  N   UNL A   1      31.779  21.268  25.322  1.00  0.00    -0.311 N 
ATOM     20  C   UNL A   1      34.100  20.418  25.209  1.00  0.00     0.114 C 
ATOM     21  C   UNL A   1      32.611  20.205  25.163  1.00  0.00     0.222 C 
ATOM     22  O   UNL A   1      32.141  19.070  25.064  1.00  0.00    -0.275 OA
ATOM     23  H   UNL A   1      30.849  21.025  25.537  1.00  0.00     0.171 HD
ENDBRANCH   9  19
BRANCH  16  24
ATOM     24  O   UNL A   1      33.340  26.158  20.940  1.00  0.00    -0.493 OA
ATOM     25  H   UNL A   1      33.819  26.902  20.636  1.00  0.00     0.295 HD
ENDBRANCH  16  24
ENDBRANCH   5   8
ENDBRANCH   3   4
ENDBRANCH   2   3
ENDBRANCH   1   2
BRANCH   1  26
ATOM     26  C   UNL A   1      32.896  32.888  27.334  1.00  0.00     0.116 C 
BRANCH  26  27
ATOM     27  N   UNL A   1      32.426  34.213  27.701  1.00  0.00    -0.352 N 
ATOM     28  C   UNL A   1      32.964  35.043  28.661  1.00  0.00     0.251 C 
ATOM     29  H   UNL A   1      31.641  34.554  27.214  1.00  0.00     0.163 HD
ATOM     30  O   UNL A   1      32.479  36.128  28.926  1.00  0.00    -0.269 OA
BRANCH  28  31
ATOM     31  C   UNL A   1      34.140  34.541  29.396  1.00  0.00     0.039 A 
ATOM     32  C   UNL A   1      33.934  33.825  30.576  1.00  0.00     0.014 A 
ATOM     33  C   UNL A   1      35.408  34.641  28.817  1.00  0.00     0.014 A 
ATOM     34  C   UNL A   1      35.006  33.147  31.153  1.00  0.00     0.010 A 
ATOM     35  C   UNL A   1      36.462  33.919  29.364  1.00  0.00     0.010 A 
ATOM     36  C   UNL A   1      36.267  33.164  30.533  1.00  0.00    -0.014 A 
BRANCH  36  37
ATOM     37  C   UNL A   1      37.409  32.425  31.114  1.00  0.00     0.031 A 
ATOM     38  C   UNL A   1      37.904  32.798  32.479  1.00  0.00     0.074 A 
ATOM     39  C   UNL A   1      38.024  31.462  30.402  1.00  0.00     0.049 A 
ATOM     40  N   UNL A   1      38.912  32.312  33.155  1.00  0.00    -0.248 NA
ATOM     41  C   UNL A   1      37.183  33.882  33.165  1.00  0.00     0.031 C 
ATOM     42  C   UNL A   1      37.655  31.042  29.049  1.00  0.00     0.029 A 
ATOM     43  N   UNL A   1      39.098  30.667  30.716  1.00  0.00    -0.354 N 
ATOM     44  C   UNL A   1      38.949  33.033  34.339  1.00  0.00     0.074 A 
ATOM     45  C   UNL A   1      37.901  34.027  34.268  1.00  0.00     0.031 C 
ATOM     46  C   UNL A   1      38.477  30.054  28.657  1.00  0.00     0.029 A 
ATOM     47  C   UNL A   1      39.442  29.786  29.721  1.00  0.00     0.049 A 
ATOM     48  H   UNL A   1      39.575  30.723  31.575  1.00  0.00     0.167 HD
ATOM     49  C   UNL A   1      39.764  32.859  35.404  1.00  0.00     0.037 A 
ATOM     50  C   UNL A   1      40.424  28.866  29.678  1.00  0.00     0.037 A 
ATOM     51  C   UNL A   1      40.785  31.851  35.481  1.00  0.00     0.049 A 
ATOM     52  C   UNL A   1      41.325  28.698  30.871  1.00  0.00     0.074 A 
ATOM     53  C   UNL A   1      41.625  31.555  36.539  1.00  0.00     0.029 A 
ATOM     54  N   UNL A   1      41.102  30.974  34.455  1.00  0.00    -0.354 N 
ATOM     55  N   UNL A   1      41.310  29.341  32.014  1.00  0.00    -0.248 NA
ATOM     56  C   UNL A   1      42.376  27.675  30.774  1.00  0.00     0.031 C 
ATOM     57  C   UNL A   1      42.474  30.517  36.141  1.00  0.00     0.029 A 
ATOM     58  C   UNL A   1      42.138  30.146  34.848  1.00  0.00     0.049 A 
ATOM     59  H   UNL A   1      40.657  30.945  33.578  1.00  0.00     0.167 HD
ATOM     60  C   UNL A   1      42.330  28.789  32.777  1.00  0.00     0.074 A 
ATOM     61  C   UNL A   1      42.939  27.750  31.973  1.00  0.00     0.031 C 
ATOM     62  C   UNL A   1      42.726  29.114  34.031  1.00  0.00     0.037 A 
BRANCH  49  63
ATOM     63  C   UNL A   1      39.568  33.771  36.575  1.00  0.00     0.064 A 
ATOM     64  C   UNL A   1      38.780  33.389  37.672  1.00  0.00     0.173 A 
ATOM     65  C   UNL A   1      40.189  35.027  36.615  1.00  0.00     0.173 A 
ATOM     66  F   UNL A   1      38.152  32.204  37.672  1.00  0.00    -0.203 F 
ATOM     67  C   UNL A   1      38.603  34.242  38.758  1.00  0.00     0.198 A 
ATOM     68  C   UNL A   1      40.030  35.868  37.714  1.00  0.00     0.198 A 
ATOM     69  F   UNL A   1      40.952  35.438  35.591  1.00  0.00    -0.203 F 
ATOM     70  F   UNL A   1      37.810  33.875  39.773  1.00  0.00    -0.200 F 
ATOM     71  C   UNL A   1      39.232  35.477  38.780  1.00  0.00     0.200 A 
ATOM     72  F   UNL A   1      40.645  37.058  37.739  1.00  0.00    -0.200 F 
ATOM     73  F   UNL A   1      39.065  36.297  39.827  1.00  0.00    -0.200 F 
ENDBRANCH  49  63
BRANCH  50  74
ATOM     74  C   UNL A   1      40.580  28.006  28.477  1.00  0.00     0.064 A 
ATOM     75  C   UNL A   1      39.949  26.756  28.405  1.00  0.00     0.173 A 
ATOM     76  C   UNL A   1      41.346  28.416  27.377  1.00  0.00     0.173 A 
ATOM     77  F   UNL A   1      39.223  26.314  29.442  1.00  0.00    -0.203 F 
ATOM     78  C   UNL A   1      40.086  25.945  27.281  1.00  0.00     0.198 A 
ATOM     79  C   UNL A   1      41.465  27.612  26.245  1.00  0.00     0.198 A 
ATOM     80  F   UNL A   1      41.966  29.605  27.396  1.00  0.00    -0.203 F 
ATOM     81  F   UNL A   1      39.495  24.742  27.250  1.00  0.00    -0.200 F 
ATOM     82  C   UNL A   1      40.838  26.376  26.199  1.00  0.00     0.200 A 
ATOM     83  F   UNL A   1      42.183  28.037  25.196  1.00  0.00    -0.200 F 
ATOM     84  F   UNL A   1      40.963  25.598  25.115  1.00  0.00    -0.200 F 
ENDBRANCH  50  74
BRANCH  62  85
ATOM     85  C   UNL A   1      43.861  28.336  34.624  1.00  0.00     0.064 A 
ATOM     86  C   UNL A   1      43.646  27.109  35.265  1.00  0.00     0.173 A 
ATOM     87  C   UNL A   1      45.183  28.781  34.471  1.00  0.00     0.173 A 
ATOM     88  F   UNL A   1      42.398  26.650  35.445  1.00  0.00    -0.203 F 
ATOM     89  C   UNL A   1      44.717  26.354  35.739  1.00  0.00     0.198 A 
ATOM     90  C   UNL A   1      46.252  28.012  34.925  1.00  0.00     0.198 A 
ATOM     91  F   UNL A   1      45.438  29.946  33.857  1.00  0.00    -0.203 F 
ATOM     92  F   UNL A   1      44.488  25.195  36.369  1.00  0.00    -0.200 F 
ATOM     93  C   UNL A   1      46.017  26.802  35.558  1.00  0.00     0.200 A 
ATOM     94  F   UNL A   1      47.508  28.439  34.738  1.00  0.00    -0.200 F 
ATOM     95  F   UNL A   1      47.047  26.065  35.998  1.00  0.00    -0.200 F 
ENDBRANCH  62  85
ENDBRANCH  36  37
ENDBRANCH  28  31
ENDBRANCH  26  27
ENDBRANCH   1  26
TORSDOF 13
ENDMDL
