MODEL 1
REMARK VINA RESULT:     -12.4      0.000      0.000
REMARK SMILES O=C(CCS(=O)(=O)N1CCN(C(=O)[C@@H]2CCCO2)CC1)NCCCCNC(=O)c1ccc(-c2c3nc(c(-c4c(F)c(F)c(F)c(F)c4F)c4ccc([nH]4)c(-c4c(F)c(F)c(F)c(F)c4F)c4nc(c(-c5c(F)c(F)c(F)c(F)c5F)c5ccc2[nH]5)C=C4)C=C3)cc1
REMARK SMILES IDX 22 1 21 2 1 3 2 4 3 6 4 7 5 8 6 9 7 10 8 11 9 12 20 13 10 14
REMARK SMILES IDX 19 15 11 16 12 17 13 18 14 19 15 20 18 21 16 22 17 23 23 24
REMARK SMILES IDX 24 25 25 26 26 27 27 28 28 30 29 31 30 32 91 33 31 34 90 35
REMARK SMILES IDX 32 36 33 37 34 38 84 39 35 40 89 41 83 42 85 43 36 44 88 45
REMARK SMILES IDX 82 46 81 47 37 49 69 50 49 51 68 52 50 53 53 54 67 55 86 56
REMARK SMILES IDX 51 57 52 58 66 60 87 61 54 62 38 63 39 64 47 65 40 66 41 67
REMARK SMILES IDX 45 68 48 69 42 70 43 71 46 72 44 73 70 74 71 75 79 76 72 77
REMARK SMILES IDX 73 78 77 79 80 80 74 81 75 82 78 83 76 84 55 85 56 86 64 87
REMARK SMILES IDX 57 88 58 89 62 90 65 91 59 92 60 93 63 94 61 95
REMARK H PARENT 21 5 26 29 85 48 53 59
REMARK Flexibility Score: inf
ROOT
ATOM      1  C   UNL A   1      33.044  30.117  26.633  1.00  0.00     0.116 C 
ENDROOT
BRANCH   1   2
ATOM      2  N   UNL A   1      33.138  28.668  26.682  1.00  0.00    -0.356 N 
ATOM      3  O   UNL A   1      34.049  28.459  24.586  1.00  0.00    -0.275 OA
ATOM      4  C   UNL A   1      33.648  27.947  25.626  1.00  0.00     0.221 C 
ATOM      5  H   UNL A   1      32.829  28.192  27.487  1.00  0.00     0.163 HD
BRANCH   4   6
ATOM      6  C   UNL A   1      33.720  26.452  25.845  1.00  0.00     0.117 C 
BRANCH   6   7
ATOM      7  C   UNL A   1      32.450  25.761  25.376  1.00  0.00     0.164 C 
BRANCH   7   8
ATOM      8  S   UNL A   1      32.692  24.753  23.915  1.00  0.00     0.214 S 
ATOM      9  O   UNL A   1      33.951  25.148  23.317  1.00  0.00    -0.212 OA
ATOM     10  O   UNL A   1      32.429  23.374  24.250  1.00  0.00    -0.212 OA
BRANCH   8  11
ATOM     11  N   UNL A   1      31.473  25.254  22.873  1.00  0.00    -0.198 NA
ATOM     12  C   UNL A   1      30.079  25.192  23.409  1.00  0.00     0.123 C 
ATOM     13  C   UNL A   1      31.712  26.491  22.066  1.00  0.00     0.123 C 
ATOM     14  C   UNL A   1      29.612  26.487  24.074  1.00  0.00     0.136 C 
ATOM     15  C   UNL A   1      31.258  27.762  22.798  1.00  0.00     0.136 C 
ATOM     16  N   UNL A   1      29.860  27.647  23.214  1.00  0.00    -0.338 N 
ATOM     17  C   UNL A   1      28.832  28.528  22.917  1.00  0.00     0.251 C 
ATOM     18  O   UNL A   1      27.664  28.263  23.223  1.00  0.00    -0.272 OA
BRANCH  17  19
ATOM     19  C   UNL A   1      29.128  29.851  22.174  1.00  0.00     0.207 C 
ATOM     20  C   UNL A   1      29.000  31.100  23.030  1.00  0.00     0.044 C 
ATOM     21  O   UNL A   1      28.311  30.037  21.013  1.00  0.00    -0.368 OA
ATOM     22  C   UNL A   1      28.622  32.164  22.026  1.00  0.00     0.032 C 
ATOM     23  C   UNL A   1      27.904  31.404  20.932  1.00  0.00     0.161 C 
ENDBRANCH  17  19
ENDBRANCH   8  11
ENDBRANCH   7   8
ENDBRANCH   6   7
ENDBRANCH   4   6
ENDBRANCH   1   2
BRANCH   1  24
ATOM     24  C   UNL A   1      31.644  30.633  26.293  1.00  0.00     0.023 C 
BRANCH  24  25
ATOM     25  C   UNL A   1      31.404  32.125  26.543  1.00  0.00     0.023 C 
BRANCH  25  26
ATOM     26  C   UNL A   1      32.579  32.895  27.145  1.00  0.00     0.116 C 
BRANCH  26  27
ATOM     27  N   UNL A   1      32.264  34.211  27.654  1.00  0.00    -0.352 N 
ATOM     28  C   UNL A   1      32.942  34.986  28.570  1.00  0.00     0.251 C 
ATOM     29  H   UNL A   1      31.441  34.613  27.293  1.00  0.00     0.163 HD
ATOM     30  O   UNL A   1      32.519  36.110  28.831  1.00  0.00    -0.269 OA
BRANCH  28  31
ATOM     31  C   UNL A   1      34.130  34.471  29.303  1.00  0.00     0.039 A 
ATOM     32  C   UNL A   1      33.921  33.871  30.549  1.00  0.00     0.014 A 
ATOM     33  C   UNL A   1      35.435  34.578  28.818  1.00  0.00     0.014 A 
ATOM     34  C   UNL A   1      34.993  33.313  31.256  1.00  0.00     0.010 A 
ATOM     35  C   UNL A   1      36.497  33.957  29.489  1.00  0.00     0.010 A 
ATOM     36  C   UNL A   1      36.289  33.305  30.713  1.00  0.00    -0.014 A 
BRANCH  36  37
ATOM     37  C   UNL A   1      37.396  32.588  31.412  1.00  0.00     0.031 A 
ATOM     38  C   UNL A   1      38.107  31.424  30.772  1.00  0.00     0.074 A 
ATOM     39  C   UNL A   1      37.759  32.977  32.651  1.00  0.00     0.049 A 
ATOM     40  N   UNL A   1      39.123  30.726  31.222  1.00  0.00    -0.248 NA
ATOM     41  C   UNL A   1      37.607  30.974  29.464  1.00  0.00     0.031 C 
ATOM     42  C   UNL A   1      37.125  34.054  33.416  1.00  0.00     0.029 A 
ATOM     43  N   UNL A   1      38.750  32.520  33.489  1.00  0.00    -0.354 N 
ATOM     44  C   UNL A   1      39.382  29.762  30.257  1.00  0.00     0.074 A 
ATOM     45  C   UNL A   1      38.385  29.928  29.220  1.00  0.00     0.031 C 
ATOM     46  C   UNL A   1      37.764  34.199  34.587  1.00  0.00     0.029 A 
ATOM     47  C   UNL A   1      38.826  33.202  34.680  1.00  0.00     0.049 A 
ATOM     48  H   UNL A   1      39.348  31.774  33.257  1.00  0.00     0.167 HD
ATOM     49  C   UNL A   1      40.372  28.834  30.225  1.00  0.00     0.037 A 
ATOM     50  C   UNL A   1      39.654  33.046  35.733  1.00  0.00     0.037 A 
ATOM     51  C   UNL A   1      41.366  28.662  31.254  1.00  0.00     0.049 A 
ATOM     52  C   UNL A   1      40.724  31.988  35.684  1.00  0.00     0.074 A 
ATOM     53  C   UNL A   1      42.442  27.790  31.277  1.00  0.00     0.029 A 
ATOM     54  N   UNL A   1      41.397  29.361  32.452  1.00  0.00    -0.354 N 
ATOM     55  N   UNL A   1      41.017  31.150  34.721  1.00  0.00    -0.248 NA
ATOM     56  C   UNL A   1      41.583  31.859  36.870  1.00  0.00     0.031 C 
ATOM     57  C   UNL A   1      43.082  27.912  32.515  1.00  0.00     0.029 A 
ATOM     58  C   UNL A   1      42.451  28.913  33.236  1.00  0.00     0.049 A 
ATOM     59  H   UNL A   1      40.766  30.072  32.708  1.00  0.00     0.167 HD
ATOM     60  C   UNL A   1      42.112  30.421  35.169  1.00  0.00     0.074 A 
ATOM     61  C   UNL A   1      42.441  30.927  36.484  1.00  0.00     0.031 C 
ATOM     62  C   UNL A   1      42.782  29.422  34.542  1.00  0.00     0.037 A 
BRANCH  49  63
ATOM     63  C   UNL A   1      40.432  27.918  29.033  1.00  0.00     0.064 A 
ATOM     64  C   UNL A   1      39.693  26.726  28.981  1.00  0.00     0.173 A 
ATOM     65  C   UNL A   1      41.191  28.265  27.905  1.00  0.00     0.173 A 
ATOM     66  F   UNL A   1      38.948  26.345  30.031  1.00  0.00    -0.203 F 
ATOM     67  C   UNL A   1      39.736  25.902  27.858  1.00  0.00     0.198 A 
ATOM     68  C   UNL A   1      41.206  27.456  26.771  1.00  0.00     0.198 A 
ATOM     69  F   UNL A   1      41.906  29.401  27.893  1.00  0.00    -0.203 F 
ATOM     70  F   UNL A   1      39.058  24.746  27.850  1.00  0.00    -0.200 F 
ATOM     71  C   UNL A   1      40.486  26.272  26.752  1.00  0.00     0.200 A 
ATOM     72  F   UNL A   1      41.913  27.826  25.694  1.00  0.00    -0.200 F 
ATOM     73  F   UNL A   1      40.516  25.485  25.667  1.00  0.00    -0.200 F 
ENDBRANCH  49  63
BRANCH  50  74
ATOM     74  C   UNL A   1      39.521  33.929  36.924  1.00  0.00     0.064 A 
ATOM     75  C   UNL A   1      40.131  35.191  36.963  1.00  0.00     0.173 A 
ATOM     76  C   UNL A   1      38.801  33.520  38.057  1.00  0.00     0.173 A 
ATOM     77  F   UNL A   1      40.850  35.619  35.914  1.00  0.00    -0.203 F 
ATOM     78  C   UNL A   1      40.051  35.997  38.097  1.00  0.00     0.198 A 
ATOM     79  C   UNL A   1      38.692  34.341  39.177  1.00  0.00     0.198 A 
ATOM     80  F   UNL A   1      38.195  32.324  38.074  1.00  0.00    -0.203 F 
ATOM     81  F   UNL A   1      40.692  37.173  38.127  1.00  0.00    -0.200 F 
ATOM     82  C   UNL A   1      39.326  35.575  39.200  1.00  0.00     0.200 A 
ATOM     83  F   UNL A   1      37.977  33.937  40.236  1.00  0.00    -0.200 F 
ATOM     84  F   UNL A   1      39.246  36.351  40.290  1.00  0.00    -0.200 F 
ENDBRANCH  50  74
BRANCH  62  85
ATOM     85  C   UNL A   1      43.971  28.833  35.251  1.00  0.00     0.064 A 
ATOM     86  C   UNL A   1      45.268  29.337  35.070  1.00  0.00     0.173 A 
ATOM     87  C   UNL A   1      43.804  27.769  36.153  1.00  0.00     0.173 A 
ATOM     88  F   UNL A   1      45.489  30.342  34.208  1.00  0.00    -0.203 F 
ATOM     89  C   UNL A   1      46.355  28.778  35.738  1.00  0.00     0.198 A 
ATOM     90  C   UNL A   1      44.887  27.237  36.847  1.00  0.00     0.198 A 
ATOM     91  F   UNL A   1      42.585  27.253  36.371  1.00  0.00    -0.203 F 
ATOM     92  F   UNL A   1      47.592  29.237  35.504  1.00  0.00    -0.200 F 
ATOM     93  C   UNL A   1      46.163  27.735  36.632  1.00  0.00     0.200 A 
ATOM     94  F   UNL A   1      44.696  26.242  37.722  1.00  0.00    -0.200 F 
ATOM     95  F   UNL A   1      47.209  27.205  37.281  1.00  0.00    -0.200 F 
ENDBRANCH  62  85
ENDBRANCH  36  37
ENDBRANCH  28  31
ENDBRANCH  26  27
ENDBRANCH  25  26
ENDBRANCH  24  25
ENDBRANCH   1  24
TORSDOF 15
ENDMDL
MODEL 2
REMARK VINA RESULT:     -12.3      2.189      4.139
REMARK SMILES O=C(CCS(=O)(=O)N1CCN(C(=O)[C@@H]2CCCO2)CC1)NCCCCNC(=O)c1ccc(-c2c3nc(c(-c4c(F)c(F)c(F)c(F)c4F)c4ccc([nH]4)c(-c4c(F)c(F)c(F)c(F)c4F)c4nc(c(-c5c(F)c(F)c(F)c(F)c5F)c5ccc2[nH]5)C=C4)C=C3)cc1
REMARK SMILES IDX 22 1 21 2 1 3 2 4 3 6 4 7 5 8 6 9 7 10 8 11 9 12 20 13 10 14
REMARK SMILES IDX 19 15 11 16 12 17 13 18 14 19 15 20 18 21 16 22 17 23 23 24
REMARK SMILES IDX 24 25 25 26 26 27 27 28 28 30 29 31 30 32 91 33 31 34 90 35
REMARK SMILES IDX 32 36 33 37 34 38 84 39 35 40 89 41 83 42 85 43 36 44 88 45
REMARK SMILES IDX 82 46 81 47 37 49 69 50 49 51 68 52 50 53 53 54 67 55 86 56
REMARK SMILES IDX 51 57 52 58 66 60 87 61 54 62 38 63 39 64 47 65 40 66 41 67
REMARK SMILES IDX 45 68 48 69 42 70 43 71 46 72 44 73 70 74 71 75 79 76 72 77
REMARK SMILES IDX 73 78 77 79 80 80 74 81 75 82 78 83 76 84 55 85 56 86 64 87
REMARK SMILES IDX 57 88 58 89 62 90 65 91 59 92 60 93 63 94 61 95
REMARK H PARENT 21 5 26 29 85 48 53 59
REMARK Flexibility Score: inf
ROOT
ATOM      1  C   UNL A   1      31.139  30.036  24.997  1.00  0.00     0.116 C 
ENDROOT
BRANCH   1   2
ATOM      2  N   UNL A   1      31.164  28.586  24.919  1.00  0.00    -0.356 N 
ATOM      3  O   UNL A   1      29.559  28.449  23.284  1.00  0.00    -0.275 OA
ATOM      4  C   UNL A   1      30.351  27.901  24.043  1.00  0.00     0.221 C 
ATOM      5  H   UNL A   1      31.774  28.082  25.505  1.00  0.00     0.163 HD
BRANCH   4   6
ATOM      6  C   UNL A   1      30.523  26.398  24.049  1.00  0.00     0.117 C 
BRANCH   6   7
ATOM      7  C   UNL A   1      30.250  25.814  25.425  1.00  0.00     0.164 C 
BRANCH   7   8
ATOM      8  S   UNL A   1      31.707  25.118  26.200  1.00  0.00     0.214 S 
ATOM      9  O   UNL A   1      32.622  26.210  26.465  1.00  0.00    -0.212 OA
ATOM     10  O   UNL A   1      31.294  24.222  27.253  1.00  0.00    -0.212 OA
BRANCH   8  11
ATOM     11  N   UNL A   1      32.398  24.180  24.989  1.00  0.00    -0.198 NA
ATOM     12  C   UNL A   1      33.872  23.951  25.090  1.00  0.00     0.123 C 
ATOM     13  C   UNL A   1      31.665  22.949  24.559  1.00  0.00     0.123 C 
ATOM     14  C   UNL A   1      34.252  22.683  25.854  1.00  0.00     0.136 C 
ATOM     15  C   UNL A   1      32.060  21.717  25.385  1.00  0.00     0.136 C 
ATOM     16  N   UNL A   1      33.509  21.521  25.361  1.00  0.00    -0.338 N 
ATOM     17  C   UNL A   1      34.184  20.371  24.981  1.00  0.00     0.251 C 
ATOM     18  O   UNL A   1      35.417  20.364  24.887  1.00  0.00    -0.272 OA
BRANCH  17  19
ATOM     19  C   UNL A   1      33.402  19.081  24.645  1.00  0.00     0.207 C 
ATOM     20  C   UNL A   1      34.272  17.871  24.352  1.00  0.00     0.044 C 
ATOM     21  O   UNL A   1      32.500  19.243  23.545  1.00  0.00    -0.368 OA
ATOM     22  C   UNL A   1      33.414  17.053  23.415  1.00  0.00     0.032 C 
ATOM     23  C   UNL A   1      32.543  18.076  22.721  1.00  0.00     0.161 C 
ENDBRANCH  17  19
ENDBRANCH   8  11
ENDBRANCH   7   8
ENDBRANCH   6   7
ENDBRANCH   4   6
ENDBRANCH   1   2
BRANCH   1  24
ATOM     24  C   UNL A   1      31.663  30.592  26.323  1.00  0.00     0.023 C 
BRANCH  24  25
ATOM     25  C   UNL A   1      31.410  32.083  26.568  1.00  0.00     0.023 C 
BRANCH  25  26
ATOM     26  C   UNL A   1      32.592  32.874  27.127  1.00  0.00     0.116 C 
BRANCH  26  27
ATOM     27  N   UNL A   1      32.276  34.196  27.621  1.00  0.00    -0.352 N 
ATOM     28  C   UNL A   1      32.941  34.972  28.546  1.00  0.00     0.251 C 
ATOM     29  H   UNL A   1      31.463  34.601  27.240  1.00  0.00     0.163 HD
ATOM     30  O   UNL A   1      32.520  36.101  28.790  1.00  0.00    -0.269 OA
BRANCH  28  31
ATOM     31  C   UNL A   1      34.110  34.455  29.306  1.00  0.00     0.039 A 
ATOM     32  C   UNL A   1      33.861  33.746  30.486  1.00  0.00     0.014 A 
ATOM     33  C   UNL A   1      35.433  34.658  28.909  1.00  0.00     0.014 A 
ATOM     34  C   UNL A   1      34.918  33.182  31.210  1.00  0.00     0.010 A 
ATOM     35  C   UNL A   1      36.485  34.034  29.593  1.00  0.00     0.010 A 
ATOM     36  C   UNL A   1      36.242  33.277  30.747  1.00  0.00    -0.014 A 
BRANCH  36  37
ATOM     37  C   UNL A   1      37.343  32.556  31.453  1.00  0.00     0.031 A 
ATOM     38  C   UNL A   1      38.047  31.384  30.821  1.00  0.00     0.074 A 
ATOM     39  C   UNL A   1      37.705  32.950  32.691  1.00  0.00     0.049 A 
ATOM     40  N   UNL A   1      39.057  30.682  31.278  1.00  0.00    -0.248 NA
ATOM     41  C   UNL A   1      37.548  30.930  29.515  1.00  0.00     0.031 C 
ATOM     42  C   UNL A   1      37.076  34.035  33.448  1.00  0.00     0.029 A 
ATOM     43  N   UNL A   1      38.690  32.492  33.534  1.00  0.00    -0.354 N 
ATOM     44  C   UNL A   1      39.313  29.711  30.319  1.00  0.00     0.074 A 
ATOM     45  C   UNL A   1      38.320  29.878  29.279  1.00  0.00     0.031 C 
ATOM     46  C   UNL A   1      37.713  34.183  34.620  1.00  0.00     0.029 A 
ATOM     47  C   UNL A   1      38.768  33.180  34.721  1.00  0.00     0.049 A 
ATOM     48  H   UNL A   1      39.285  31.740  33.308  1.00  0.00     0.167 HD
ATOM     49  C   UNL A   1      40.297  28.777  30.294  1.00  0.00     0.037 A 
ATOM     50  C   UNL A   1      39.592  33.024  35.777  1.00  0.00     0.037 A 
ATOM     51  C   UNL A   1      41.287  28.604  31.327  1.00  0.00     0.049 A 
ATOM     52  C   UNL A   1      40.655  31.958  35.737  1.00  0.00     0.074 A 
ATOM     53  C   UNL A   1      42.357  27.726  31.358  1.00  0.00     0.029 A 
ATOM     54  N   UNL A   1      41.320  29.310  32.521  1.00  0.00    -0.354 N 
ATOM     55  N   UNL A   1      40.946  31.114  34.780  1.00  0.00    -0.248 NA
ATOM     56  C   UNL A   1      41.510  31.831  36.926  1.00  0.00     0.031 C 
ATOM     57  C   UNL A   1      42.995  27.850  32.597  1.00  0.00     0.029 A 
ATOM     58  C   UNL A   1      42.369  28.859  33.310  1.00  0.00     0.049 A 
ATOM     59  H   UNL A   1      40.692  30.026  32.772  1.00  0.00     0.167 HD
ATOM     60  C   UNL A   1      42.035  30.380  35.234  1.00  0.00     0.074 A 
ATOM     61  C   UNL A   1      42.364  30.891  36.547  1.00  0.00     0.031 C 
ATOM     62  C   UNL A   1      42.699  29.374  34.615  1.00  0.00     0.037 A 
BRANCH  49  63
ATOM     63  C   UNL A   1      40.354  27.854  29.108  1.00  0.00     0.064 A 
ATOM     64  C   UNL A   1      39.627  26.654  29.071  1.00  0.00     0.173 A 
ATOM     65  C   UNL A   1      41.098  28.201  27.970  1.00  0.00     0.173 A 
ATOM     66  F   UNL A   1      38.898  26.272  30.131  1.00  0.00    -0.203 F 
ATOM     67  C   UNL A   1      39.667  25.824  27.953  1.00  0.00     0.198 A 
ATOM     68  C   UNL A   1      41.109  27.386  26.841  1.00  0.00     0.198 A 
ATOM     69  F   UNL A   1      41.801  29.344  27.943  1.00  0.00    -0.203 F 
ATOM     70  F   UNL A   1      39.001  24.660  27.960  1.00  0.00    -0.200 F 
ATOM     71  C   UNL A   1      40.402  26.194  26.837  1.00  0.00     0.200 A 
ATOM     72  F   UNL A   1      41.801  27.756  25.754  1.00  0.00    -0.200 F 
ATOM     73  F   UNL A   1      40.428  25.400  25.757  1.00  0.00    -0.200 F 
ENDBRANCH  49  63
BRANCH  50  74
ATOM     74  C   UNL A   1      39.461  33.914  36.963  1.00  0.00     0.064 A 
ATOM     75  C   UNL A   1      40.123  35.150  37.018  1.00  0.00     0.173 A 
ATOM     76  C   UNL A   1      38.693  33.538  38.076  1.00  0.00     0.173 A 
ATOM     77  F   UNL A   1      40.888  35.545  35.991  1.00  0.00    -0.203 F 
ATOM     78  C   UNL A   1      40.043  35.961  38.149  1.00  0.00     0.198 A 
ATOM     79  C   UNL A   1      38.586  34.366  39.191  1.00  0.00     0.198 A 
ATOM     80  F   UNL A   1      38.037  32.368  38.076  1.00  0.00    -0.203 F 
ATOM     81  F   UNL A   1      40.731  37.109  38.196  1.00  0.00    -0.200 F 
ATOM     82  C   UNL A   1      39.270  35.572  39.231  1.00  0.00     0.200 A 
ATOM     83  F   UNL A   1      37.824  33.994  40.229  1.00  0.00    -0.200 F 
ATOM     84  F   UNL A   1      39.191  36.353  40.317  1.00  0.00    -0.200 F 
ENDBRANCH  50  74
BRANCH  62  85
ATOM     85  C   UNL A   1      43.883  28.780  35.330  1.00  0.00     0.064 A 
ATOM     86  C   UNL A   1      43.760  27.663  36.170  1.00  0.00     0.173 A 
ATOM     87  C   UNL A   1      45.167  29.318  35.143  1.00  0.00     0.173 A 
ATOM     88  F   UNL A   1      42.555  27.117  36.397  1.00  0.00    -0.203 F 
ATOM     89  C   UNL A   1      44.869  27.128  36.820  1.00  0.00     0.198 A 
ATOM     90  C   UNL A   1      46.279  28.758  35.765  1.00  0.00     0.198 A 
ATOM     91  F   UNL A   1      45.345  30.382  34.345  1.00  0.00    -0.203 F 
ATOM     92  F   UNL A   1      44.718  26.097  37.662  1.00  0.00    -0.200 F 
ATOM     93  C   UNL A   1      46.129  27.669  36.610  1.00  0.00     0.200 A 
ATOM     94  F   UNL A   1      47.496  29.273  35.547  1.00  0.00    -0.200 F 
ATOM     95  F   UNL A   1      47.197  27.148  37.229  1.00  0.00    -0.200 F 
ENDBRANCH  62  85
ENDBRANCH  36  37
ENDBRANCH  28  31
ENDBRANCH  26  27
ENDBRANCH  25  26
ENDBRANCH  24  25
ENDBRANCH   1  24
TORSDOF 15
ENDMDL
MODEL 3
REMARK VINA RESULT:     -12.3      2.071      8.196
REMARK SMILES O=C(CCS(=O)(=O)N1CCN(C(=O)[C@@H]2CCCO2)CC1)NCCCCNC(=O)c1ccc(-c2c3nc(c(-c4c(F)c(F)c(F)c(F)c4F)c4ccc([nH]4)c(-c4c(F)c(F)c(F)c(F)c4F)c4nc(c(-c5c(F)c(F)c(F)c(F)c5F)c5ccc2[nH]5)C=C4)C=C3)cc1
REMARK SMILES IDX 22 1 21 2 1 3 2 4 3 6 4 7 5 8 6 9 7 10 8 11 9 12 20 13 10 14
REMARK SMILES IDX 19 15 11 16 12 17 13 18 14 19 15 20 18 21 16 22 17 23 23 24
REMARK SMILES IDX 24 25 25 26 26 27 27 28 28 30 29 31 30 32 91 33 31 34 90 35
REMARK SMILES IDX 32 36 33 37 34 38 84 39 35 40 89 41 83 42 85 43 36 44 88 45
REMARK SMILES IDX 82 46 81 47 37 49 69 50 49 51 68 52 50 53 53 54 67 55 86 56
REMARK SMILES IDX 51 57 52 58 66 60 87 61 54 62 38 63 39 64 47 65 40 66 41 67
REMARK SMILES IDX 45 68 48 69 42 70 43 71 46 72 44 73 70 74 71 75 79 76 72 77
REMARK SMILES IDX 73 78 77 79 80 80 74 81 75 82 78 83 76 84 55 85 56 86 64 87
REMARK SMILES IDX 57 88 58 89 62 90 65 91 59 92 60 93 63 94 61 95
REMARK H PARENT 21 5 26 29 85 48 53 59
REMARK Flexibility Score: inf
ROOT
ATOM      1  C   UNL A   1      32.945  30.101  26.163  1.00  0.00     0.116 C 
ENDROOT
BRANCH   1   2
ATOM      2  N   UNL A   1      33.016  29.817  24.740  1.00  0.00    -0.356 N 
ATOM      3  O   UNL A   1      31.586  28.024  24.826  1.00  0.00    -0.275 OA
ATOM      4  C   UNL A   1      32.309  28.776  24.181  1.00  0.00     0.221 C 
ATOM      5  H   UNL A   1      33.581  30.381  24.164  1.00  0.00     0.163 HD
BRANCH   4   6
ATOM      6  C   UNL A   1      32.452  28.635  22.681  1.00  0.00     0.117 C 
BRANCH   6   7
ATOM      7  C   UNL A   1      33.450  27.548  22.319  1.00  0.00     0.164 C 
BRANCH   7   8
ATOM      8  S   UNL A   1      32.680  25.968  21.974  1.00  0.00     0.214 S 
ATOM      9  O   UNL A   1      31.248  26.142  22.113  1.00  0.00    -0.212 OA
ATOM     10  O   UNL A   1      33.249  25.426  20.764  1.00  0.00    -0.212 OA
BRANCH   8  11
ATOM     11  N   UNL A   1      33.182  24.989  23.244  1.00  0.00    -0.198 NA
ATOM     12  C   UNL A   1      32.144  24.645  24.264  1.00  0.00     0.123 C 
ATOM     13  C   UNL A   1      34.061  23.823  22.919  1.00  0.00     0.123 C 
ATOM     14  C   UNL A   1      31.396  23.345  23.973  1.00  0.00     0.136 C 
ATOM     15  C   UNL A   1      33.254  22.556  22.599  1.00  0.00     0.136 C 
ATOM     16  N   UNL A   1      32.324  22.249  23.685  1.00  0.00    -0.338 N 
ATOM     17  C   UNL A   1      32.227  21.053  24.380  1.00  0.00     0.251 C 
ATOM     18  O   UNL A   1      31.483  20.951  25.362  1.00  0.00    -0.272 OA
BRANCH  17  19
ATOM     19  C   UNL A   1      33.072  19.831  23.952  1.00  0.00     0.207 C 
ATOM     20  C   UNL A   1      32.346  18.843  23.054  1.00  0.00     0.044 C 
ATOM     21  O   UNL A   1      33.601  19.099  25.062  1.00  0.00    -0.368 OA
ATOM     22  C   UNL A   1      33.026  17.532  23.371  1.00  0.00     0.032 C 
ATOM     23  C   UNL A   1      33.509  17.698  24.795  1.00  0.00     0.161 C 
ENDBRANCH  17  19
ENDBRANCH   8  11
ENDBRANCH   7   8
ENDBRANCH   6   7
ENDBRANCH   4   6
ENDBRANCH   1   2
BRANCH   1  24
ATOM     24  C   UNL A   1      31.583  30.629  26.620  1.00  0.00     0.023 C 
BRANCH  24  25
ATOM     25  C   UNL A   1      31.427  32.152  26.629  1.00  0.00     0.023 C 
BRANCH  25  26
ATOM     26  C   UNL A   1      32.620  32.939  27.170  1.00  0.00     0.116 C 
BRANCH  26  27
ATOM     27  N   UNL A   1      32.306  34.233  27.733  1.00  0.00    -0.352 N 
ATOM     28  C   UNL A   1      33.012  34.993  28.640  1.00  0.00     0.251 C 
ATOM     29  H   UNL A   1      31.461  34.631  27.421  1.00  0.00     0.163 HD
ATOM     30  O   UNL A   1      32.583  36.101  28.953  1.00  0.00    -0.269 OA
BRANCH  28  31
ATOM     31  C   UNL A   1      34.241  34.480  29.303  1.00  0.00     0.039 A 
ATOM     32  C   UNL A   1      34.092  33.780  30.505  1.00  0.00     0.014 A 
ATOM     33  C   UNL A   1      35.526  34.679  28.794  1.00  0.00     0.014 A 
ATOM     34  C   UNL A   1      35.206  33.220  31.141  1.00  0.00     0.010 A 
ATOM     35  C   UNL A   1      36.632  34.058  29.391  1.00  0.00     0.010 A 
ATOM     36  C   UNL A   1      36.486  33.310  30.567  1.00  0.00    -0.014 A 
BRANCH  36  37
ATOM     37  C   UNL A   1      37.642  32.592  31.183  1.00  0.00     0.031 A 
ATOM     38  C   UNL A   1      38.155  32.956  32.552  1.00  0.00     0.074 A 
ATOM     39  C   UNL A   1      38.254  31.608  30.492  1.00  0.00     0.049 A 
ATOM     40  N   UNL A   1      39.115  32.397  33.250  1.00  0.00    -0.248 NA
ATOM     41  C   UNL A   1      37.521  34.101  33.220  1.00  0.00     0.031 C 
ATOM     42  C   UNL A   1      37.899  31.184  29.136  1.00  0.00     0.029 A 
ATOM     43  N   UNL A   1      39.298  30.780  30.832  1.00  0.00    -0.354 N 
ATOM     44  C   UNL A   1      39.197  33.119  34.434  1.00  0.00     0.074 A 
ATOM     45  C   UNL A   1      38.227  34.189  34.339  1.00  0.00     0.031 C 
ATOM     46  C   UNL A   1      38.682  30.156  28.776  1.00  0.00     0.029 A 
ATOM     47  C   UNL A   1      39.623  29.870  29.854  1.00  0.00     0.049 A 
ATOM     48  H   UNL A   1      39.769  30.834  31.694  1.00  0.00     0.167 HD
ATOM     49  C   UNL A   1      39.992  32.901  35.511  1.00  0.00     0.037 A 
ATOM     50  C   UNL A   1      40.572  28.912  29.823  1.00  0.00     0.037 A 
ATOM     51  C   UNL A   1      40.961  31.838  35.610  1.00  0.00     0.049 A 
ATOM     52  C   UNL A   1      41.462  28.712  31.020  1.00  0.00     0.074 A 
ATOM     53  C   UNL A   1      41.767  31.504  36.686  1.00  0.00     0.029 A 
ATOM     54  N   UNL A   1      41.272  30.949  34.592  1.00  0.00    -0.354 N 
ATOM     55  N   UNL A   1      41.459  29.339  32.170  1.00  0.00    -0.248 NA
ATOM     56  C   UNL A   1      42.487  27.661  30.916  1.00  0.00     0.031 C 
ATOM     57  C   UNL A   1      42.613  30.460  36.297  1.00  0.00     0.029 A 
ATOM     58  C   UNL A   1      42.283  30.092  35.002  1.00  0.00     0.049 A 
ATOM     59  H   UNL A   1      40.838  30.929  33.708  1.00  0.00     0.167 HD
ATOM     60  C   UNL A   1      42.452  28.740  32.936  1.00  0.00     0.074 A 
ATOM     61  C   UNL A   1      43.026  27.687  32.126  1.00  0.00     0.031 C 
ATOM     62  C   UNL A   1      42.849  29.039  34.197  1.00  0.00     0.037 A 
BRANCH  49  63
ATOM     63  C   UNL A   1      39.857  33.836  36.681  1.00  0.00     0.064 A 
ATOM     64  C   UNL A   1      40.516  35.075  36.715  1.00  0.00     0.173 A 
ATOM     65  C   UNL A   1      39.010  33.517  37.754  1.00  0.00     0.173 A 
ATOM     66  F   UNL A   1      41.336  35.432  35.715  1.00  0.00    -0.203 F 
ATOM     67  C   UNL A   1      40.356  35.944  37.792  1.00  0.00     0.198 A 
ATOM     68  C   UNL A   1      38.827  34.402  38.814  1.00  0.00     0.198 A 
ATOM     69  F   UNL A   1      38.343  32.353  37.768  1.00  0.00    -0.203 F 
ATOM     70  F   UNL A   1      41.032  37.101  37.824  1.00  0.00    -0.200 F 
ATOM     71  C   UNL A   1      39.507  35.610  38.837  1.00  0.00     0.200 A 
ATOM     72  F   UNL A   1      37.988  34.088  39.811  1.00  0.00    -0.200 F 
ATOM     73  F   UNL A   1      39.345  36.453  39.866  1.00  0.00    -0.200 F 
ENDBRANCH  49  63
BRANCH  50  74
ATOM     74  C   UNL A   1      40.721  28.048  28.620  1.00  0.00     0.064 A 
ATOM     75  C   UNL A   1      41.519  28.446  27.537  1.00  0.00     0.173 A 
ATOM     76  C   UNL A   1      40.050  26.820  28.516  1.00  0.00     0.173 A 
ATOM     77  F   UNL A   1      42.163  29.622  27.577  1.00  0.00    -0.203 F 
ATOM     78  C   UNL A   1      41.619  27.663  26.388  1.00  0.00     0.198 A 
ATOM     79  C   UNL A   1      40.178  26.023  27.381  1.00  0.00     0.198 A 
ATOM     80  F   UNL A   1      39.275  26.390  29.522  1.00  0.00    -0.203 F 
ATOM     81  F   UNL A   1      42.343  28.095  25.347  1.00  0.00    -0.200 F 
ATOM     82  C   UNL A   1      40.954  26.450  26.313  1.00  0.00     0.200 A 
ATOM     83  F   UNL A   1      39.547  24.842  27.319  1.00  0.00    -0.200 F 
ATOM     84  F   UNL A   1      41.052  25.696  25.210  1.00  0.00    -0.200 F 
ENDBRANCH  50  74
BRANCH  62  85
ATOM     85  C   UNL A   1      43.932  28.189  34.804  1.00  0.00     0.064 A 
ATOM     86  C   UNL A   1      43.641  27.024  35.531  1.00  0.00     0.173 A 
ATOM     87  C   UNL A   1      45.283  28.526  34.625  1.00  0.00     0.173 A 
ATOM     88  F   UNL A   1      42.367  26.662  35.746  1.00  0.00    -0.203 F 
ATOM     89  C   UNL A   1      44.659  26.249  36.083  1.00  0.00     0.198 A 
ATOM     90  C   UNL A   1      46.299  27.730  35.146  1.00  0.00     0.198 A 
ATOM     91  F   UNL A   1      45.620  29.625  33.932  1.00  0.00    -0.203 F 
ATOM     92  F   UNL A   1      44.355  25.174  36.822  1.00  0.00    -0.200 F 
ATOM     93  C   UNL A   1      45.986  26.597  35.882  1.00  0.00     0.200 A 
ATOM     94  F   UNL A   1      47.580  28.059  34.936  1.00  0.00    -0.200 F 
ATOM     95  F   UNL A   1      46.965  25.846  36.406  1.00  0.00    -0.200 F 
ENDBRANCH  62  85
ENDBRANCH  36  37
ENDBRANCH  28  31
ENDBRANCH  26  27
ENDBRANCH  25  26
ENDBRANCH  24  25
ENDBRANCH   1  24
TORSDOF 15
ENDMDL
