MODEL 1
REMARK VINA RESULT:     -13.2      0.000      0.000
REMARK SMILES Cn1c(=O)c2c(nc(Nc3cccc(Cl)c3Cl)n2CC(=O)NCCCCNC(=O)c2ccc(-c3c4nc(c(-c5c(F)c(F)c(F)c(F)c5F)c5ccc([nH]5)c(-c5c(F)c(F)c(F)c(F)c5F)c5nc(c(-c6c(F)c(F)c(F)c(F)c6F)c6ccc3[nH]6)C=C5)C=C4)cc2)n(C)c1=O
REMARK SMILES IDX 24 1 23 2 22 3 20 4 21 5 19 7 18 8 1 9 2 10 3 11 95 12 4 13
REMARK SMILES IDX 5 14 93 15 96 16 6 17 94 18 7 19 8 20 9 21 10 23 11 24 16 25
REMARK SMILES IDX 12 26 14 27 17 28 13 29 15 30 25 31 26 32 27 33 28 34 29 36
REMARK SMILES IDX 30 37 31 38 92 39 32 40 91 41 33 42 34 43 35 44 85 45 36 46
REMARK SMILES IDX 90 47 84 48 86 49 37 50 89 51 83 52 82 53 38 55 70 56 50 57
REMARK SMILES IDX 69 58 51 59 54 60 68 61 87 62 52 63 53 64 67 66 88 67 55 68
REMARK SMILES IDX 39 69 40 70 48 71 41 72 42 73 46 74 49 75 43 76 44 77 47 78
REMARK SMILES IDX 45 79 71 80 72 81 80 82 73 83 74 84 78 85 81 86 75 87 76 88
REMARK SMILES IDX 79 89 77 90 56 91 57 92 65 93 58 94 59 95 63 96 66 97 60 98
REMARK SMILES IDX 61 99 64 100 62 101
REMARK H PARENT 22 6 9 22 27 35 86 54 54 65
REMARK Flexibility Score: inf
ROOT
ATOM      1  C   UNL A   1      34.686  30.383  27.073  1.00  0.00     0.023 C 
ENDROOT
BRANCH   1   2
ATOM      2  C   UNL A   1      34.260  28.942  27.341  1.00  0.00     0.116 C 
BRANCH   2   3
ATOM      3  N   UNL A   1      32.874  28.692  27.023  1.00  0.00    -0.355 N 
ATOM      4  C   UNL A   1      32.328  28.166  25.888  1.00  0.00     0.240 C 
ATOM      5  O   UNL A   1      31.128  27.886  25.933  1.00  0.00    -0.273 OA
ATOM      6  H   UNL A   1      32.230  28.937  27.726  1.00  0.00     0.163 HD
BRANCH   4   7
ATOM      7  C   UNL A   1      33.185  27.788  24.692  1.00  0.00     0.226 C 
BRANCH   7   8
ATOM      8  N   UNL A   1      32.805  26.580  23.976  1.00  0.00    -0.295 N 
ATOM      9  C   UNL A   1      35.027  22.888  26.457  1.00  0.00     0.159 C 
ATOM     10  N   UNL A   1      34.196  23.446  25.407  1.00  0.00    -0.261 N 
ATOM     11  C   UNL A   1      34.092  24.844  25.366  1.00  0.00     0.282 A 
ATOM     12  C   UNL A   1      33.538  22.550  24.546  1.00  0.00     0.332 A 
ATOM     13  O   UNL A   1      34.672  25.587  26.139  1.00  0.00    -0.267 OA
ATOM     14  C   UNL A   1      33.230  25.313  24.329  1.00  0.00     0.154 A 
ATOM     15  N   UNL A   1      32.750  23.104  23.538  1.00  0.00    -0.279 N 
ATOM     16  O   UNL A   1      33.646  21.329  24.686  1.00  0.00    -0.247 OA
ATOM     17  C   UNL A   1      32.619  24.470  23.459  1.00  0.00     0.170 A 
ATOM     18  C   UNL A   1      32.055  22.249  22.593  1.00  0.00     0.157 C 
ATOM     19  N   UNL A   1      31.872  25.141  22.553  1.00  0.00    -0.194 NA
ATOM     20  C   UNL A   1      32.021  26.424  22.833  1.00  0.00     0.210 A 
BRANCH  20  21
ATOM     21  N   UNL A   1      31.355  27.356  22.108  1.00  0.00    -0.324 N 
ATOM     22  H   UNL A   1      31.714  27.465  21.198  1.00  0.00     0.170 HD
BRANCH  21  23
ATOM     23  C   UNL A   1      30.262  28.200  22.376  1.00  0.00     0.061 A 
ATOM     24  C   UNL A   1      30.387  29.544  21.971  1.00  0.00     0.028 A 
ATOM     25  C   UNL A   1      29.074  27.799  23.018  1.00  0.00     0.083 A 
ATOM     26  C   UNL A   1      29.323  30.437  22.078  1.00  0.00     0.004 A 
ATOM     27  C   UNL A   1      27.998  28.700  23.114  1.00  0.00     0.061 A 
ATOM     28  Cl  UNL A   1      28.954  26.202  23.690  1.00  0.00    -0.080 Cl
ATOM     29  C   UNL A   1      28.121  30.006  22.627  1.00  0.00     0.022 A 
ATOM     30  Cl  UNL A   1      26.471  28.252  23.789  1.00  0.00    -0.083 Cl
ENDBRANCH  21  23
ENDBRANCH  20  21
ENDBRANCH   7   8
ENDBRANCH   4   7
ENDBRANCH   2   3
ENDBRANCH   1   2
BRANCH   1  31
ATOM     31  C   UNL A   1      33.924  31.446  27.871  1.00  0.00     0.023 C 
BRANCH  31  32
ATOM     32  C   UNL A   1      34.755  32.659  28.264  1.00  0.00     0.116 C 
BRANCH  32  33
ATOM     33  N   UNL A   1      34.728  32.938  29.695  1.00  0.00    -0.352 N 
ATOM     34  C   UNL A   1      35.392  32.251  30.692  1.00  0.00     0.251 C 
ATOM     35  H   UNL A   1      34.176  33.701  29.982  1.00  0.00     0.163 HD
ATOM     36  O   UNL A   1      34.996  32.289  31.851  1.00  0.00    -0.269 OA
BRANCH  34  37
ATOM     37  C   UNL A   1      36.589  31.462  30.342  1.00  0.00     0.039 A 
ATOM     38  C   UNL A   1      37.823  32.084  30.158  1.00  0.00     0.014 A 
ATOM     39  C   UNL A   1      36.468  30.077  30.207  1.00  0.00     0.014 A 
ATOM     40  C   UNL A   1      38.942  31.291  29.920  1.00  0.00     0.010 A 
ATOM     41  C   UNL A   1      37.592  29.285  30.101  1.00  0.00     0.010 A 
ATOM     42  C   UNL A   1      38.831  29.885  29.927  1.00  0.00    -0.014 A 
BRANCH  42  43
ATOM     43  C   UNL A   1      40.042  29.065  29.910  1.00  0.00     0.031 A 
ATOM     44  C   UNL A   1      40.634  28.861  31.257  1.00  0.00     0.074 A 
ATOM     45  C   UNL A   1      40.563  28.433  28.834  1.00  0.00     0.049 A 
ATOM     46  N   UNL A   1      41.714  29.410  31.700  1.00  0.00    -0.248 NA
ATOM     47  C   UNL A   1      39.880  28.121  32.280  1.00  0.00     0.031 C 
ATOM     48  C   UNL A   1      40.005  28.292  27.488  1.00  0.00     0.029 A 
ATOM     49  N   UNL A   1      41.720  27.712  28.748  1.00  0.00    -0.354 N 
ATOM     50  C   UNL A   1      41.894  28.936  32.991  1.00  0.00     0.074 A 
ATOM     51  C   UNL A   1      40.660  28.285  33.352  1.00  0.00     0.031 C 
ATOM     52  C   UNL A   1      40.702  27.356  26.802  1.00  0.00     0.029 A 
ATOM     53  C   UNL A   1      41.849  26.949  27.591  1.00  0.00     0.049 A 
ATOM     54  H   UNL A   1      42.410  27.732  29.451  1.00  0.00     0.167 HD
ATOM     55  C   UNL A   1      43.142  28.915  33.534  1.00  0.00     0.037 A 
ATOM     56  C   UNL A   1      42.828  26.048  27.307  1.00  0.00     0.037 A 
ATOM     57  C   UNL A   1      44.029  29.795  32.807  1.00  0.00     0.049 A 
ATOM     58  C   UNL A   1      44.003  26.413  28.138  1.00  0.00     0.074 A 
ATOM     59  C   UNL A   1      44.007  31.139  32.482  1.00  0.00     0.029 A 
ATOM     60  N   UNL A   1      44.942  29.228  31.950  1.00  0.00    -0.354 N 
ATOM     61  N   UNL A   1      44.704  27.497  27.957  1.00  0.00    -0.248 NA
ATOM     62  C   UNL A   1      44.099  25.811  29.460  1.00  0.00     0.031 C 
ATOM     63  C   UNL A   1      44.495  31.201  31.144  1.00  0.00     0.029 A 
ATOM     64  C   UNL A   1      44.869  29.913  30.768  1.00  0.00     0.049 A 
ATOM     65  H   UNL A   1      45.536  28.469  32.150  1.00  0.00     0.167 HD
ATOM     66  C   UNL A   1      44.942  27.966  29.238  1.00  0.00     0.074 A 
ATOM     67  C   UNL A   1      44.609  26.852  30.124  1.00  0.00     0.031 C 
ATOM     68  C   UNL A   1      45.099  29.298  29.484  1.00  0.00     0.037 A 
BRANCH  55  69
ATOM     69  C   UNL A   1      43.673  27.796  34.402  1.00  0.00     0.064 A 
ATOM     70  C   UNL A   1      43.564  26.472  33.927  1.00  0.00     0.173 A 
ATOM     71  C   UNL A   1      43.940  27.926  35.782  1.00  0.00     0.173 A 
ATOM     72  F   UNL A   1      43.313  26.228  32.631  1.00  0.00    -0.203 F 
ATOM     73  C   UNL A   1      43.581  25.375  34.790  1.00  0.00     0.198 A 
ATOM     74  C   UNL A   1      44.009  26.823  36.631  1.00  0.00     0.198 A 
ATOM     75  F   UNL A   1      44.028  29.112  36.389  1.00  0.00    -0.203 F 
ATOM     76  F   UNL A   1      43.306  24.153  34.314  1.00  0.00    -0.200 F 
ATOM     77  C   UNL A   1      43.788  25.554  36.145  1.00  0.00     0.200 A 
ATOM     78  F   UNL A   1      44.198  27.019  37.944  1.00  0.00    -0.200 F 
ATOM     79  F   UNL A   1      43.726  24.513  36.986  1.00  0.00    -0.200 F 
ENDBRANCH  55  69
BRANCH  56  80
ATOM     80  C   UNL A   1      42.723  24.727  26.629  1.00  0.00     0.064 A 
ATOM     81  C   UNL A   1      43.394  24.484  25.413  1.00  0.00     0.173 A 
ATOM     82  C   UNL A   1      42.226  23.590  27.294  1.00  0.00     0.173 A 
ATOM     83  F   UNL A   1      43.933  25.500  24.722  1.00  0.00    -0.203 F 
ATOM     84  C   UNL A   1      43.598  23.186  24.926  1.00  0.00     0.198 A 
ATOM     85  C   UNL A   1      42.424  22.296  26.803  1.00  0.00     0.198 A 
ATOM     86  F   UNL A   1      41.618  23.699  28.483  1.00  0.00    -0.203 F 
ATOM     87  F   UNL A   1      44.309  22.996  23.805  1.00  0.00    -0.200 F 
ATOM     88  C   UNL A   1      43.127  22.093  25.631  1.00  0.00     0.200 A 
ATOM     89  F   UNL A   1      41.989  21.245  27.511  1.00  0.00    -0.200 F 
ATOM     90  F   UNL A   1      43.382  20.848  25.204  1.00  0.00    -0.200 F 
ENDBRANCH  56  80
BRANCH  68  91
ATOM     91  C   UNL A   1      45.292  30.237  28.329  1.00  0.00     0.064 A 
ATOM     92  C   UNL A   1      44.245  30.829  27.605  1.00  0.00     0.173 A 
ATOM     93  C   UNL A   1      46.590  30.717  28.099  1.00  0.00     0.173 A 
ATOM     94  F   UNL A   1      42.968  30.485  27.823  1.00  0.00    -0.203 F 
ATOM     95  C   UNL A   1      44.492  31.852  26.689  1.00  0.00     0.198 A 
ATOM     96  C   UNL A   1      46.829  31.762  27.213  1.00  0.00     0.198 A 
ATOM     97  F   UNL A   1      47.624  30.215  28.794  1.00  0.00    -0.203 F 
ATOM     98  F   UNL A   1      43.475  32.414  26.017  1.00  0.00    -0.200 F 
ATOM     99  C   UNL A   1      45.781  32.328  26.508  1.00  0.00     0.200 A 
ATOM    100  F   UNL A   1      48.070  32.250  27.080  1.00  0.00    -0.200 F 
ATOM    101  F   UNL A   1      46.009  33.356  25.678  1.00  0.00    -0.200 F 
ENDBRANCH  68  91
ENDBRANCH  42  43
ENDBRANCH  34  37
ENDBRANCH  32  33
ENDBRANCH  31  32
ENDBRANCH   1  31
TORSDOF 14
ENDMDL
MODEL 2
REMARK VINA RESULT:     -13.0      1.684      2.257
REMARK SMILES Cn1c(=O)c2c(nc(Nc3cccc(Cl)c3Cl)n2CC(=O)NCCCCNC(=O)c2ccc(-c3c4nc(c(-c5c(F)c(F)c(F)c(F)c5F)c5ccc([nH]5)c(-c5c(F)c(F)c(F)c(F)c5F)c5nc(c(-c6c(F)c(F)c(F)c(F)c6F)c6ccc3[nH]6)C=C5)C=C4)cc2)n(C)c1=O
REMARK SMILES IDX 24 1 23 2 22 3 20 4 21 5 19 7 18 8 1 9 2 10 3 11 95 12 4 13
REMARK SMILES IDX 5 14 93 15 96 16 6 17 94 18 7 19 8 20 9 21 10 23 11 24 16 25
REMARK SMILES IDX 12 26 14 27 17 28 13 29 15 30 25 31 26 32 27 33 28 34 29 36
REMARK SMILES IDX 30 37 31 38 92 39 32 40 91 41 33 42 34 43 35 44 85 45 36 46
REMARK SMILES IDX 90 47 84 48 86 49 37 50 89 51 83 52 82 53 38 55 70 56 50 57
REMARK SMILES IDX 69 58 51 59 54 60 68 61 87 62 52 63 53 64 67 66 88 67 55 68
REMARK SMILES IDX 39 69 40 70 48 71 41 72 42 73 46 74 49 75 43 76 44 77 47 78
REMARK SMILES IDX 45 79 71 80 72 81 80 82 73 83 74 84 78 85 81 86 75 87 76 88
REMARK SMILES IDX 79 89 77 90 56 91 57 92 65 93 58 94 59 95 63 96 66 97 60 98
REMARK SMILES IDX 61 99 64 100 62 101
REMARK H PARENT 22 6 9 22 27 35 86 54 54 65
REMARK Flexibility Score: inf
ROOT
ATOM      1  C   UNL A   1      32.163  28.161  26.171  1.00  0.00     0.023 C 
ENDROOT
BRANCH   1   2
ATOM      2  C   UNL A   1      32.748  26.792  26.504  1.00  0.00     0.116 C 
BRANCH   2   3
ATOM      3  N   UNL A   1      31.743  25.817  26.857  1.00  0.00    -0.355 N 
ATOM      4  C   UNL A   1      31.773  24.458  26.729  1.00  0.00     0.240 C 
ATOM      5  O   UNL A   1      30.858  23.833  27.272  1.00  0.00    -0.273 OA
ATOM      6  H   UNL A   1      30.916  26.185  27.246  1.00  0.00     0.163 HD
BRANCH   4   7
ATOM      7  C   UNL A   1      32.954  23.742  26.097  1.00  0.00     0.226 C 
BRANCH   7   8
ATOM      8  N   UNL A   1      32.720  23.117  24.804  1.00  0.00    -0.295 N 
ATOM      9  C   UNL A   1      32.834  18.231  25.721  1.00  0.00     0.159 C 
ATOM     10  N   UNL A   1      32.691  19.403  24.877  1.00  0.00    -0.261 N 
ATOM     11  C   UNL A   1      32.883  20.647  25.494  1.00  0.00     0.282 A 
ATOM     12  C   UNL A   1      32.340  19.201  23.531  1.00  0.00     0.332 A 
ATOM     13  O   UNL A   1      33.178  20.780  26.669  1.00  0.00    -0.267 OA
ATOM     14  C   UNL A   1      32.691  21.749  24.607  1.00  0.00     0.154 A 
ATOM     15  N   UNL A   1      32.215  20.338  22.732  1.00  0.00    -0.279 N 
ATOM     16  O   UNL A   1      32.140  18.069  23.081  1.00  0.00    -0.247 OA
ATOM     17  C   UNL A   1      32.394  21.579  23.294  1.00  0.00     0.170 A 
ATOM     18  C   UNL A   1      31.877  20.215  21.326  1.00  0.00     0.157 C 
ATOM     19  N   UNL A   1      32.280  22.762  22.649  1.00  0.00    -0.194 NA
ATOM     20  C   UNL A   1      32.525  23.697  23.550  1.00  0.00     0.210 A 
BRANCH  20  21
ATOM     21  N   UNL A   1      32.450  25.005  23.206  1.00  0.00    -0.324 N 
ATOM     22  H   UNL A   1      33.318  25.384  22.937  1.00  0.00     0.170 HD
BRANCH  21  23
ATOM     23  C   UNL A   1      31.399  25.939  23.149  1.00  0.00     0.061 A 
ATOM     24  C   UNL A   1      30.139  25.500  23.605  1.00  0.00     0.028 A 
ATOM     25  C   UNL A   1      31.518  27.258  22.669  1.00  0.00     0.083 A 
ATOM     26  C   UNL A   1      29.059  26.375  23.706  1.00  0.00     0.004 A 
ATOM     27  C   UNL A   1      30.429  28.140  22.784  1.00  0.00     0.061 A 
ATOM     28  Cl  UNL A   1      33.005  27.776  21.936  1.00  0.00    -0.080 Cl
ATOM     29  C   UNL A   1      29.213  27.701  23.319  1.00  0.00     0.022 A 
ATOM     30  Cl  UNL A   1      30.530  29.802  22.319  1.00  0.00    -0.083 Cl
ENDBRANCH  21  23
ENDBRANCH  20  21
ENDBRANCH   7   8
ENDBRANCH   4   7
ENDBRANCH   2   3
ENDBRANCH   1   2
BRANCH   1  31
ATOM     31  C   UNL A   1      32.394  29.243  27.233  1.00  0.00     0.023 C 
BRANCH  31  32
ATOM     32  C   UNL A   1      33.738  29.949  27.135  1.00  0.00     0.116 C 
BRANCH  32  33
ATOM     33  N   UNL A   1      33.781  31.212  27.863  1.00  0.00    -0.352 N 
ATOM     34  C   UNL A   1      34.737  31.620  28.771  1.00  0.00     0.251 C 
ATOM     35  H   UNL A   1      33.046  31.844  27.687  1.00  0.00     0.163 HD
ATOM     36  O   UNL A   1      34.481  32.476  29.611  1.00  0.00    -0.269 OA
BRANCH  34  37
ATOM     37  C   UNL A   1      36.079  31.008  28.720  1.00  0.00     0.039 A 
ATOM     38  C   UNL A   1      37.199  31.709  29.168  1.00  0.00     0.014 A 
ATOM     39  C   UNL A   1      36.210  29.709  28.225  1.00  0.00     0.014 A 
ATOM     40  C   UNL A   1      38.429  31.059  29.187  1.00  0.00     0.010 A 
ATOM     41  C   UNL A   1      37.399  29.025  28.365  1.00  0.00     0.010 A 
ATOM     42  C   UNL A   1      38.522  29.701  28.818  1.00  0.00    -0.014 A 
BRANCH  42  43
ATOM     43  C   UNL A   1      39.765  28.969  29.063  1.00  0.00     0.031 A 
ATOM     44  C   UNL A   1      40.070  28.796  30.506  1.00  0.00     0.074 A 
ATOM     45  C   UNL A   1      40.545  28.385  28.126  1.00  0.00     0.049 A 
ATOM     46  N   UNL A   1      40.990  29.416  31.164  1.00  0.00    -0.248 NA
ATOM     47  C   UNL A   1      39.171  27.995  31.351  1.00  0.00     0.031 C 
ATOM     48  C   UNL A   1      40.297  28.216  26.693  1.00  0.00     0.029 A 
ATOM     49  N   UNL A   1      41.742  27.748  28.292  1.00  0.00    -0.354 N 
ATOM     50  C   UNL A   1      40.925  28.944  32.468  1.00  0.00     0.074 A 
ATOM     51  C   UNL A   1      39.693  28.205  32.563  1.00  0.00     0.031 C 
ATOM     52  C   UNL A   1      41.188  27.338  26.176  1.00  0.00     0.029 A 
ATOM     53  C   UNL A   1      42.168  27.006  27.194  1.00  0.00     0.049 A 
ATOM     54  H   UNL A   1      42.264  27.811  29.125  1.00  0.00     0.167 HD
ATOM     55  C   UNL A   1      42.029  29.007  33.263  1.00  0.00     0.037 A 
ATOM     56  C   UNL A   1      43.246  26.180  27.130  1.00  0.00     0.037 A 
ATOM     57  C   UNL A   1      42.985  29.954  32.735  1.00  0.00     0.049 A 
ATOM     58  C   UNL A   1      44.189  26.619  28.189  1.00  0.00     0.074 A 
ATOM     59  C   UNL A   1      42.937  31.296  32.404  1.00  0.00     0.029 A 
ATOM     60  N   UNL A   1      44.096  29.460  32.095  1.00  0.00    -0.354 N 
ATOM     61  N   UNL A   1      44.834  27.752  28.153  1.00  0.00    -0.248 NA
ATOM     62  C   UNL A   1      44.045  26.015  29.504  1.00  0.00     0.031 C 
ATOM     63  C   UNL A   1      43.691  31.404  31.199  1.00  0.00     0.029 A 
ATOM     64  C   UNL A   1      44.227  30.149  30.919  1.00  0.00     0.049 A 
ATOM     65  H   UNL A   1      44.687  28.743  32.421  1.00  0.00     0.167 HD
ATOM     66  C   UNL A   1      44.761  28.225  29.452  1.00  0.00     0.074 A 
ATOM     67  C   UNL A   1      44.327  27.083  30.255  1.00  0.00     0.031 C 
ATOM     68  C   UNL A   1      44.767  29.563  29.717  1.00  0.00     0.037 A 
BRANCH  55  69
ATOM     69  C   UNL A   1      42.441  27.921  34.231  1.00  0.00     0.064 A 
ATOM     70  C   UNL A   1      43.065  26.766  33.713  1.00  0.00     0.173 A 
ATOM     71  C   UNL A   1      41.943  27.805  35.547  1.00  0.00     0.173 A 
ATOM     72  F   UNL A   1      43.577  26.761  32.473  1.00  0.00    -0.203 F 
ATOM     73  C   UNL A   1      43.063  25.554  34.407  1.00  0.00     0.198 A 
ATOM     74  C   UNL A   1      41.991  26.606  36.254  1.00  0.00     0.198 A 
ATOM     75  F   UNL A   1      41.290  28.795  36.159  1.00  0.00    -0.203 F 
ATOM     76  F   UNL A   1      43.517  24.446  33.805  1.00  0.00    -0.200 F 
ATOM     77  C   UNL A   1      42.512  25.471  35.671  1.00  0.00     0.200 A 
ATOM     78  F   UNL A   1      41.439  26.543  37.474  1.00  0.00    -0.200 F 
ATOM     79  F   UNL A   1      42.436  24.294  36.305  1.00  0.00    -0.200 F 
ENDBRANCH  55  69
BRANCH  56  80
ATOM     80  C   UNL A   1      43.381  24.861  26.453  1.00  0.00     0.064 A 
ATOM     81  C   UNL A   1      44.318  24.673  25.416  1.00  0.00     0.173 A 
ATOM     82  C   UNL A   1      42.827  23.687  26.999  1.00  0.00     0.173 A 
ATOM     83  F   UNL A   1      44.926  25.728  24.854  1.00  0.00    -0.203 F 
ATOM     84  C   UNL A   1      44.710  23.396  24.994  1.00  0.00     0.198 A 
ATOM     85  C   UNL A   1      43.215  22.414  26.573  1.00  0.00     0.198 A 
ATOM     86  F   UNL A   1      41.967  23.745  28.025  1.00  0.00    -0.203 F 
ATOM     87  F   UNL A   1      45.661  23.263  24.058  1.00  0.00    -0.200 F 
ATOM     88  C   UNL A   1      44.170  22.268  25.585  1.00  0.00     0.200 A 
ATOM     89  F   UNL A   1      42.705  21.330  27.174  1.00  0.00    -0.200 F 
ATOM     90  F   UNL A   1      44.596  21.046  25.232  1.00  0.00    -0.200 F 
ENDBRANCH  56  80
BRANCH  68  91
ATOM     91  C   UNL A   1      45.133  30.524  28.624  1.00  0.00     0.064 A 
ATOM     92  C   UNL A   1      44.228  31.029  27.676  1.00  0.00     0.173 A 
ATOM     93  C   UNL A   1      46.404  31.114  28.685  1.00  0.00     0.173 A 
ATOM     94  F   UNL A   1      42.970  30.574  27.607  1.00  0.00    -0.203 F 
ATOM     95  C   UNL A   1      44.587  32.076  26.827  1.00  0.00     0.198 A 
ATOM     96  C   UNL A   1      46.745  32.183  27.862  1.00  0.00     0.198 A 
ATOM     97  F   UNL A   1      47.295  30.699  29.600  1.00  0.00    -0.203 F 
ATOM     98  F   UNL A   1      43.703  32.553  25.937  1.00  0.00    -0.200 F 
ATOM     99  C   UNL A   1      45.838  32.662  26.933  1.00  0.00     0.200 A 
ATOM    100  F   UNL A   1      47.939  32.777  28.004  1.00  0.00    -0.200 F 
ATOM    101  F   UNL A   1      46.158  33.711  26.162  1.00  0.00    -0.200 F 
ENDBRANCH  68  91
ENDBRANCH  42  43
ENDBRANCH  34  37
ENDBRANCH  32  33
ENDBRANCH  31  32
ENDBRANCH   1  31
TORSDOF 14
ENDMDL
MODEL 3
REMARK VINA RESULT:     -12.9      3.231      8.978
REMARK SMILES Cn1c(=O)c2c(nc(Nc3cccc(Cl)c3Cl)n2CC(=O)NCCCCNC(=O)c2ccc(-c3c4nc(c(-c5c(F)c(F)c(F)c(F)c5F)c5ccc([nH]5)c(-c5c(F)c(F)c(F)c(F)c5F)c5nc(c(-c6c(F)c(F)c(F)c(F)c6F)c6ccc3[nH]6)C=C5)C=C4)cc2)n(C)c1=O
REMARK SMILES IDX 24 1 23 2 22 3 20 4 21 5 19 7 18 8 1 9 2 10 3 11 95 12 4 13
REMARK SMILES IDX 5 14 93 15 96 16 6 17 94 18 7 19 8 20 9 21 10 23 11 24 16 25
REMARK SMILES IDX 12 26 14 27 17 28 13 29 15 30 25 31 26 32 27 33 28 34 29 36
REMARK SMILES IDX 30 37 31 38 92 39 32 40 91 41 33 42 34 43 35 44 85 45 36 46
REMARK SMILES IDX 90 47 84 48 86 49 37 50 89 51 83 52 82 53 38 55 70 56 50 57
REMARK SMILES IDX 69 58 51 59 54 60 68 61 87 62 52 63 53 64 67 66 88 67 55 68
REMARK SMILES IDX 39 69 40 70 48 71 41 72 42 73 46 74 49 75 43 76 44 77 47 78
REMARK SMILES IDX 45 79 71 80 72 81 80 82 73 83 74 84 78 85 81 86 75 87 76 88
REMARK SMILES IDX 79 89 77 90 56 91 57 92 65 93 58 94 59 95 63 96 66 97 60 98
REMARK SMILES IDX 61 99 64 100 62 101
REMARK H PARENT 22 6 9 22 27 35 86 54 54 65
REMARK Flexibility Score: inf
ROOT
ATOM      1  C   UNL A   1      37.986  20.820  25.203  1.00  0.00     0.023 C 
ENDROOT
BRANCH   1   2
ATOM      2  C   UNL A   1      36.465  20.923  25.151  1.00  0.00     0.116 C 
BRANCH   2   3
ATOM      3  N   UNL A   1      35.907  21.646  26.270  1.00  0.00    -0.355 N 
ATOM      4  C   UNL A   1      34.990  22.657  26.277  1.00  0.00     0.240 C 
ATOM      5  O   UNL A   1      34.540  22.985  27.378  1.00  0.00    -0.273 OA
ATOM      6  H   UNL A   1      36.236  21.369  27.156  1.00  0.00     0.163 HD
BRANCH   4   7
ATOM      7  C   UNL A   1      34.427  23.232  24.989  1.00  0.00     0.226 C 
BRANCH   7   8
ATOM      8  N   UNL A   1      33.033  23.646  25.016  1.00  0.00    -0.295 N 
ATOM      9  C   UNL A   1      33.132  28.501  23.946  1.00  0.00     0.159 C 
ATOM     10  N   UNL A   1      32.484  27.244  24.270  1.00  0.00    -0.261 N 
ATOM     11  C   UNL A   1      33.325  26.148  24.511  1.00  0.00     0.282 A 
ATOM     12  C   UNL A   1      31.078  27.216  24.281  1.00  0.00     0.332 A 
ATOM     13  O   UNL A   1      34.542  26.212  24.482  1.00  0.00    -0.267 OA
ATOM     14  C   UNL A   1      32.612  24.943  24.787  1.00  0.00     0.154 A 
ATOM     15  N   UNL A   1      30.472  26.002  24.603  1.00  0.00    -0.279 N 
ATOM     16  O   UNL A   1      30.413  28.218  24.007  1.00  0.00    -0.247 OA
ATOM     17  C   UNL A   1      31.258  24.900  24.846  1.00  0.00     0.170 A 
ATOM     18  C   UNL A   1      29.026  25.893  24.657  1.00  0.00     0.157 C 
ATOM     19  N   UNL A   1      30.808  23.659  25.143  1.00  0.00    -0.194 NA
ATOM     20  C   UNL A   1      31.883  22.906  25.295  1.00  0.00     0.210 A 
BRANCH  20  21
ATOM     21  N   UNL A   1      31.751  21.585  25.567  1.00  0.00    -0.324 N 
ATOM     22  H   UNL A   1      31.217  21.410  26.375  1.00  0.00     0.170 HD
BRANCH  21  23
ATOM     23  C   UNL A   1      32.212  20.412  24.944  1.00  0.00     0.061 A 
ATOM     24  C   UNL A   1      32.759  19.422  25.786  1.00  0.00     0.028 A 
ATOM     25  C   UNL A   1      32.171  20.166  23.557  1.00  0.00     0.083 A 
ATOM     26  C   UNL A   1      33.136  18.175  25.291  1.00  0.00     0.004 A 
ATOM     27  C   UNL A   1      32.541  18.903  23.064  1.00  0.00     0.061 A 
ATOM     28  Cl  UNL A   1      31.672  21.429  22.474  1.00  0.00    -0.080 Cl
ATOM     29  C   UNL A   1      33.002  17.909  23.934  1.00  0.00     0.022 A 
ATOM     30  Cl  UNL A   1      32.415  18.488  21.390  1.00  0.00    -0.083 Cl
ENDBRANCH  21  23
ENDBRANCH  20  21
ENDBRANCH   7   8
ENDBRANCH   4   7
ENDBRANCH   2   3
ENDBRANCH   1   2
BRANCH   1  31
ATOM     31  C   UNL A   1      38.703  22.050  25.770  1.00  0.00     0.023 C 
BRANCH  31  32
ATOM     32  C   UNL A   1      39.817  21.734  26.757  1.00  0.00     0.116 C 
BRANCH  32  33
ATOM     33  N   UNL A   1      41.150  21.822  26.171  1.00  0.00    -0.352 N 
ATOM     34  C   UNL A   1      41.897  22.965  25.966  1.00  0.00     0.251 C 
ATOM     35  H   UNL A   1      41.563  20.973  25.891  1.00  0.00     0.163 HD
ATOM     36  O   UNL A   1      42.786  22.991  25.122  1.00  0.00    -0.269 OA
BRANCH  34  37
ATOM     37  C   UNL A   1      41.610  24.163  26.778  1.00  0.00     0.039 A 
ATOM     38  C   UNL A   1      42.250  24.365  28.000  1.00  0.00     0.014 A 
ATOM     39  C   UNL A   1      40.692  25.099  26.298  1.00  0.00     0.014 A 
ATOM     40  C   UNL A   1      42.017  25.553  28.688  1.00  0.00     0.010 A 
ATOM     41  C   UNL A   1      40.561  26.327  26.911  1.00  0.00     0.010 A 
ATOM     42  C   UNL A   1      41.197  26.552  28.123  1.00  0.00    -0.014 A 
BRANCH  42  43
ATOM     43  C   UNL A   1      41.147  27.878  28.738  1.00  0.00     0.031 A 
ATOM     44  C   UNL A   1      42.268  28.761  28.324  1.00  0.00     0.074 A 
ATOM     45  C   UNL A   1      40.155  28.358  29.522  1.00  0.00     0.049 A 
ATOM     46  N   UNL A   1      43.274  29.100  29.056  1.00  0.00    -0.248 NA
ATOM     47  C   UNL A   1      42.389  29.174  26.917  1.00  0.00     0.031 C 
ATOM     48  C   UNL A   1      38.858  27.757  29.839  1.00  0.00     0.029 A 
ATOM     49  N   UNL A   1      40.089  29.558  30.172  1.00  0.00    -0.354 N 
ATOM     50  C   UNL A   1      44.064  29.933  28.276  1.00  0.00     0.074 A 
ATOM     51  C   UNL A   1      43.564  29.809  26.930  1.00  0.00     0.031 C 
ATOM     52  C   UNL A   1      38.059  28.681  30.422  1.00  0.00     0.029 A 
ATOM     53  C   UNL A   1      38.830  29.885  30.668  1.00  0.00     0.049 A 
ATOM     54  H   UNL A   1      40.872  30.145  30.280  1.00  0.00     0.167 HD
ATOM     55  C   UNL A   1      44.892  30.832  28.874  1.00  0.00     0.037 A 
ATOM     56  C   UNL A   1      38.453  31.061  31.237  1.00  0.00     0.037 A 
ATOM     57  C   UNL A   1      45.119  30.475  30.257  1.00  0.00     0.049 A 
ATOM     58  C   UNL A   1      39.688  31.707  31.751  1.00  0.00     0.074 A 
ATOM     59  C   UNL A   1      45.597  29.348  30.900  1.00  0.00     0.029 A 
ATOM     60  N   UNL A   1      44.463  31.196  31.226  1.00  0.00    -0.354 N 
ATOM     61  N   UNL A   1      40.380  31.240  32.752  1.00  0.00    -0.248 NA
ATOM     62  C   UNL A   1      40.403  32.595  30.847  1.00  0.00     0.031 C 
ATOM     63  C   UNL A   1      44.773  29.206  32.055  1.00  0.00     0.029 A 
ATOM     64  C   UNL A   1      43.908  30.298  32.096  1.00  0.00     0.049 A 
ATOM     65  H   UNL A   1      44.403  32.178  31.283  1.00  0.00     0.167 HD
ATOM     66  C   UNL A   1      41.697  31.386  32.351  1.00  0.00     0.074 A 
ATOM     67  C   UNL A   1      41.654  32.290  31.203  1.00  0.00     0.031 C 
ATOM     68  C   UNL A   1      42.668  30.535  32.792  1.00  0.00     0.037 A 
BRANCH  55  69
ATOM     69  C   UNL A   1      45.125  32.239  28.371  1.00  0.00     0.064 A 
ATOM     70  C   UNL A   1      44.005  33.081  28.198  1.00  0.00     0.173 A 
ATOM     71  C   UNL A   1      46.308  32.662  27.730  1.00  0.00     0.173 A 
ATOM     72  F   UNL A   1      42.827  32.778  28.764  1.00  0.00    -0.203 F 
ATOM     73  C   UNL A   1      44.036  34.179  27.338  1.00  0.00     0.198 A 
ATOM     74  C   UNL A   1      46.346  33.791  26.913  1.00  0.00     0.198 A 
ATOM     75  F   UNL A   1      47.439  31.952  27.764  1.00  0.00    -0.203 F 
ATOM     76  F   UNL A   1      42.904  34.847  27.076  1.00  0.00    -0.200 F 
ATOM     77  C   UNL A   1      45.203  34.524  26.684  1.00  0.00     0.200 A 
ATOM     78  F   UNL A   1      47.485  34.101  26.277  1.00  0.00    -0.200 F 
ATOM     79  F   UNL A   1      45.215  35.528  25.797  1.00  0.00    -0.200 F 
ENDBRANCH  55  69
BRANCH  56  80
ATOM     80  C   UNL A   1      37.176  31.812  31.089  1.00  0.00     0.064 A 
ATOM     81  C   UNL A   1      36.289  31.951  32.176  1.00  0.00     0.173 A 
ATOM     82  C   UNL A   1      36.938  32.659  29.990  1.00  0.00     0.173 A 
ATOM     83  F   UNL A   1      36.454  31.212  33.283  1.00  0.00    -0.203 F 
ATOM     84  C   UNL A   1      35.268  32.910  32.181  1.00  0.00     0.198 A 
ATOM     85  C   UNL A   1      35.915  33.611  29.994  1.00  0.00     0.198 A 
ATOM     86  F   UNL A   1      37.750  32.649  28.924  1.00  0.00    -0.203 F 
ATOM     87  F   UNL A   1      34.497  33.061  33.267  1.00  0.00    -0.200 F 
ATOM     88  C   UNL A   1      35.093  33.751  31.096  1.00  0.00     0.200 A 
ATOM     89  F   UNL A   1      35.775  34.438  28.949  1.00  0.00    -0.200 F 
ATOM     90  F   UNL A   1      34.163  34.716  31.127  1.00  0.00    -0.200 F 
ENDBRANCH  56  80
BRANCH  68  91
ATOM     91  C   UNL A   1      42.364  29.606  33.931  1.00  0.00     0.064 A 
ATOM     92  C   UNL A   1      41.760  28.346  33.787  1.00  0.00     0.173 A 
ATOM     93  C   UNL A   1      42.908  29.924  35.184  1.00  0.00     0.173 A 
ATOM     94  F   UNL A   1      41.287  27.934  32.603  1.00  0.00    -0.203 F 
ATOM     95  C   UNL A   1      41.703  27.451  34.855  1.00  0.00     0.198 A 
ATOM     96  C   UNL A   1      42.882  29.014  36.236  1.00  0.00     0.198 A 
ATOM     97  F   UNL A   1      43.533  31.099  35.366  1.00  0.00    -0.203 F 
ATOM     98  F   UNL A   1      41.133  26.246  34.694  1.00  0.00    -0.200 F 
ATOM     99  C   UNL A   1      42.279  27.779  36.072  1.00  0.00     0.200 A 
ATOM    100  F   UNL A   1      43.484  29.319  37.394  1.00  0.00    -0.200 F 
ATOM    101  F   UNL A   1      42.282  26.892  37.077  1.00  0.00    -0.200 F 
ENDBRANCH  68  91
ENDBRANCH  42  43
ENDBRANCH  34  37
ENDBRANCH  32  33
ENDBRANCH  31  32
ENDBRANCH   1  31
TORSDOF 14
ENDMDL
