MODEL 1
REMARK VINA RESULT:     -11.4      0.000      0.000
REMARK SMILES CCCCSc1ccccc1C(=O)NCCCCNC(=O)c1ccc(-c2c3nc(c(-c4c(F)c(F)c(F)c(F)c4F)c4ccc([nH]4)c(-c4c(F)c(F)c(F)c(F)c4F)c4nc(c(-c5c(F)c(F)c(F)c(F)c5F)c5ccc2[nH]5)C=C4)C=C3)cc1
REMARK SMILES IDX 15 1 14 2 12 3 13 4 11 6 6 7 7 8 8 9 10 10 9 11 5 12 4 13
REMARK SMILES IDX 3 14 2 15 1 16 16 17 17 18 18 19 19 20 20 21 21 23 22 24
REMARK SMILES IDX 23 25 84 26 24 27 83 28 25 29 26 30 27 31 77 32 28 33 82 34
REMARK SMILES IDX 76 35 78 36 29 37 81 38 75 39 74 40 30 42 62 43 42 44 61 45
REMARK SMILES IDX 43 46 46 47 60 48 79 49 44 50 45 51 59 53 80 54 47 55 31 56
REMARK SMILES IDX 32 57 40 58 33 59 34 60 38 61 41 62 35 63 36 64 39 65 37 66
REMARK SMILES IDX 63 67 64 68 72 69 65 70 66 71 70 72 73 73 67 74 68 75 71 76
REMARK SMILES IDX 69 77 48 78 49 79 57 80 50 81 51 82 55 83 58 84 52 85 53 86
REMARK SMILES IDX 56 87 54 88
REMARK H PARENT 14 5 19 22 78 41 46 52
REMARK Flexibility Score: inf
ROOT
ATOM      1  C   UNL A   1      33.511  29.667  26.681  1.00  0.00     0.116 C 
ENDROOT
BRANCH   1   2
ATOM      2  N   UNL A   1      33.650  29.646  25.248  1.00  0.00    -0.352 N 
ATOM      3  C   UNL A   1      33.024  29.035  24.200  1.00  0.00     0.252 C 
ATOM      4  O   UNL A   1      33.554  29.315  23.114  1.00  0.00    -0.269 OA
ATOM      5  H   UNL A   1      34.388  30.221  24.945  1.00  0.00     0.163 HD
BRANCH   3   6
ATOM      6  C   UNL A   1      31.811  28.133  24.168  1.00  0.00     0.053 A 
ATOM      7  C   UNL A   1      30.564  28.230  23.512  1.00  0.00     0.020 A 
ATOM      8  C   UNL A   1      29.540  27.300  23.832  1.00  0.00     0.016 A 
ATOM      9  C   UNL A   1      29.737  26.247  24.719  1.00  0.00     0.001 A 
ATOM     10  C   UNL A   1      31.980  27.021  25.043  1.00  0.00     0.015 A 
ATOM     11  C   UNL A   1      30.971  26.095  25.315  1.00  0.00     0.001 A 
BRANCH   7  12
ATOM     12  S   UNL A   1      30.009  29.467  22.365  1.00  0.00    -0.125 SA
BRANCH  12  13
ATOM     13  C   UNL A   1      28.464  30.127  23.123  1.00  0.00     0.075 C 
BRANCH  13  14
ATOM     14  C   UNL A   1      27.701  31.263  22.427  1.00  0.00     0.011 C 
BRANCH  14  15
ATOM     15  C   UNL A   1      28.506  32.481  21.973  1.00  0.00    -0.003 C 
ATOM     16  C   UNL A   1      28.978  33.360  23.121  1.00  0.00     0.004 C 
ENDBRANCH  14  15
ENDBRANCH  13  14
ENDBRANCH  12  13
ENDBRANCH   7  12
ENDBRANCH   3   6
ENDBRANCH   1   2
BRANCH   1  17
ATOM     17  C   UNL A   1      32.136  30.203  27.089  1.00  0.00     0.023 C 
BRANCH  17  18
ATOM     18  C   UNL A   1      31.922  31.683  26.793  1.00  0.00     0.023 C 
BRANCH  18  19
ATOM     19  C   UNL A   1      32.944  32.598  27.453  1.00  0.00     0.116 C 
BRANCH  19  20
ATOM     20  N   UNL A   1      32.479  33.964  27.666  1.00  0.00    -0.352 N 
ATOM     21  C   UNL A   1      32.993  34.897  28.535  1.00  0.00     0.251 C 
ATOM     22  H   UNL A   1      31.709  34.251  27.124  1.00  0.00     0.163 HD
ATOM     23  O   UNL A   1      32.483  36.003  28.664  1.00  0.00    -0.269 OA
BRANCH  21  24
ATOM     24  C   UNL A   1      34.153  34.508  29.357  1.00  0.00     0.039 A 
ATOM     25  C   UNL A   1      33.928  33.904  30.595  1.00  0.00     0.014 A 
ATOM     26  C   UNL A   1      35.446  34.634  28.842  1.00  0.00     0.014 A 
ATOM     27  C   UNL A   1      35.005  33.352  31.289  1.00  0.00     0.010 A 
ATOM     28  C   UNL A   1      36.502  34.015  29.496  1.00  0.00     0.010 A 
ATOM     29  C   UNL A   1      36.290  33.365  30.723  1.00  0.00    -0.014 A 
BRANCH  29  30
ATOM     30  C   UNL A   1      37.438  32.717  31.401  1.00  0.00     0.031 A 
ATOM     31  C   UNL A   1      38.134  31.564  30.740  1.00  0.00     0.074 A 
ATOM     32  C   UNL A   1      37.798  33.114  32.637  1.00  0.00     0.049 A 
ATOM     33  N   UNL A   1      39.089  30.798  31.200  1.00  0.00    -0.248 NA
ATOM     34  C   UNL A   1      37.669  31.200  29.391  1.00  0.00     0.031 C 
ATOM     35  C   UNL A   1      37.162  34.187  33.404  1.00  0.00     0.029 A 
ATOM     36  N   UNL A   1      38.781  32.648  33.473  1.00  0.00    -0.354 N 
ATOM     37  C   UNL A   1      39.322  29.853  30.210  1.00  0.00     0.074 A 
ATOM     38  C   UNL A   1      38.374  30.105  29.148  1.00  0.00     0.031 C 
ATOM     39  C   UNL A   1      37.785  34.311  34.587  1.00  0.00     0.029 A 
ATOM     40  C   UNL A   1      38.840  33.307  34.677  1.00  0.00     0.049 A 
ATOM     41  H   UNL A   1      39.388  31.911  33.232  1.00  0.00     0.167 HD
ATOM     42  C   UNL A   1      40.262  28.880  30.179  1.00  0.00     0.037 A 
ATOM     43  C   UNL A   1      39.653  33.116  35.732  1.00  0.00     0.037 A 
ATOM     44  C   UNL A   1      41.227  28.657  31.220  1.00  0.00     0.049 A 
ATOM     45  C   UNL A   1      40.702  32.038  35.665  1.00  0.00     0.074 A 
ATOM     46  C   UNL A   1      42.260  27.737  31.259  1.00  0.00     0.029 A 
ATOM     47  N   UNL A   1      41.281  29.370  32.408  1.00  0.00    -0.354 N 
ATOM     48  N   UNL A   1      40.955  31.191  34.696  1.00  0.00    -0.248 NA
ATOM     49  C   UNL A   1      41.580  31.893  36.834  1.00  0.00     0.031 C 
ATOM     50  C   UNL A   1      42.919  27.872  32.485  1.00  0.00     0.029 A 
ATOM     51  C   UNL A   1      42.323  28.903  33.193  1.00  0.00     0.049 A 
ATOM     52  H   UNL A   1      40.670  30.101  32.657  1.00  0.00     0.167 HD
ATOM     53  C   UNL A   1      42.040  30.436  35.123  1.00  0.00     0.074 A 
ATOM     54  C   UNL A   1      42.401  30.932  36.435  1.00  0.00     0.031 C 
ATOM     55  C   UNL A   1      42.677  29.424  34.488  1.00  0.00     0.037 A 
BRANCH  42  56
ATOM     56  C   UNL A   1      40.293  27.990  28.971  1.00  0.00     0.064 A 
ATOM     57  C   UNL A   1      41.034  28.329  27.829  1.00  0.00     0.173 A 
ATOM     58  C   UNL A   1      39.594  26.774  28.964  1.00  0.00     0.173 A 
ATOM     59  F   UNL A   1      41.707  29.489  27.782  1.00  0.00    -0.203 F 
ATOM     60  C   UNL A   1      41.049  27.499  26.713  1.00  0.00     0.198 A 
ATOM     61  C   UNL A   1      39.634  25.932  27.856  1.00  0.00     0.198 A 
ATOM     62  F   UNL A   1      38.871  26.401  30.031  1.00  0.00    -0.203 F 
ATOM     63  F   UNL A   1      41.721  27.869  25.613  1.00  0.00    -0.200 F 
ATOM     64  C   UNL A   1      40.355  26.299  26.728  1.00  0.00     0.200 A 
ATOM     65  F   UNL A   1      38.972  24.767  27.876  1.00  0.00    -0.200 F 
ATOM     66  F   UNL A   1      40.374  25.498  25.654  1.00  0.00    -0.200 F 
ENDBRANCH  42  56
BRANCH  43  67
ATOM     67  C   UNL A   1      39.534  33.985  36.931  1.00  0.00     0.064 A 
ATOM     68  C   UNL A   1      38.778  33.579  38.039  1.00  0.00     0.173 A 
ATOM     69  C   UNL A   1      40.163  35.238  36.994  1.00  0.00     0.173 A 
ATOM     70  F   UNL A   1      38.141  32.398  38.017  1.00  0.00    -0.203 F 
ATOM     71  C   UNL A   1      38.635  34.400  39.155  1.00  0.00     0.198 A 
ATOM     72  C   UNL A   1      40.040  36.047  38.121  1.00  0.00     0.198 A 
ATOM     73  F   UNL A   1      40.902  35.670  35.963  1.00  0.00    -0.203 F 
ATOM     74  F   UNL A   1      37.868  34.006  40.181  1.00  0.00    -0.200 F 
ATOM     75  C   UNL A   1      39.270  35.632  39.197  1.00  0.00     0.200 A 
ATOM     76  F   UNL A   1      40.665  37.232  38.164  1.00  0.00    -0.200 F 
ATOM     77  F   UNL A   1      39.134  36.421  40.272  1.00  0.00    -0.200 F 
ENDBRANCH  43  67
BRANCH  55  78
ATOM     78  C   UNL A   1      43.858  28.813  35.181  1.00  0.00     0.064 A 
ATOM     79  C   UNL A   1      45.153  29.323  35.015  1.00  0.00     0.173 A 
ATOM     80  C   UNL A   1      43.682  27.734  36.061  1.00  0.00     0.173 A 
ATOM     81  F   UNL A   1      45.373  30.344  34.173  1.00  0.00    -0.203 F 
ATOM     82  C   UNL A   1      46.234  28.763  35.690  1.00  0.00     0.198 A 
ATOM     83  C   UNL A   1      44.760  27.194  36.755  1.00  0.00     0.198 A 
ATOM     84  F   UNL A   1      42.460  27.215  36.258  1.00  0.00    -0.203 F 
ATOM     85  F   UNL A   1      47.470  29.239  35.486  1.00  0.00    -0.200 F 
ATOM     86  C   UNL A   1      46.034  27.704  36.565  1.00  0.00     0.200 A 
ATOM     87  F   UNL A   1      44.564  26.180  37.610  1.00  0.00    -0.200 F 
ATOM     88  F   UNL A   1      47.075  27.171  37.221  1.00  0.00    -0.200 F 
ENDBRANCH  55  78
ENDBRANCH  29  30
ENDBRANCH  21  24
ENDBRANCH  19  20
ENDBRANCH  18  19
ENDBRANCH  17  18
ENDBRANCH   1  17
TORSDOF 15
ENDMDL
MODEL 2
REMARK VINA RESULT:     -11.4      1.125      7.564
REMARK SMILES CCCCSc1ccccc1C(=O)NCCCCNC(=O)c1ccc(-c2c3nc(c(-c4c(F)c(F)c(F)c(F)c4F)c4ccc([nH]4)c(-c4c(F)c(F)c(F)c(F)c4F)c4nc(c(-c5c(F)c(F)c(F)c(F)c5F)c5ccc2[nH]5)C=C4)C=C3)cc1
REMARK SMILES IDX 15 1 14 2 12 3 13 4 11 6 6 7 7 8 8 9 10 10 9 11 5 12 4 13
REMARK SMILES IDX 3 14 2 15 1 16 16 17 17 18 18 19 19 20 20 21 21 23 22 24
REMARK SMILES IDX 23 25 84 26 24 27 83 28 25 29 26 30 27 31 77 32 28 33 82 34
REMARK SMILES IDX 76 35 78 36 29 37 81 38 75 39 74 40 30 42 62 43 42 44 61 45
REMARK SMILES IDX 43 46 46 47 60 48 79 49 44 50 45 51 59 53 80 54 47 55 31 56
REMARK SMILES IDX 32 57 40 58 33 59 34 60 38 61 41 62 35 63 36 64 39 65 37 66
REMARK SMILES IDX 63 67 64 68 72 69 65 70 66 71 70 72 73 73 67 74 68 75 71 76
REMARK SMILES IDX 69 77 48 78 49 79 57 80 50 81 51 82 55 83 58 84 52 85 53 86
REMARK SMILES IDX 56 87 54 88
REMARK H PARENT 14 5 19 22 78 41 46 52
REMARK Flexibility Score: inf
ROOT
ATOM      1  C   UNL A   1      32.543  29.612  27.264  1.00  0.00     0.116 C 
ENDROOT
BRANCH   1   2
ATOM      2  N   UNL A   1      31.747  28.413  27.261  1.00  0.00    -0.352 N 
ATOM      3  C   UNL A   1      31.627  27.305  26.473  1.00  0.00     0.252 C 
ATOM      4  O   UNL A   1      30.740  26.538  26.879  1.00  0.00    -0.269 OA
ATOM      5  H   UNL A   1      31.128  28.384  28.025  1.00  0.00     0.163 HD
BRANCH   3   6
ATOM      6  C   UNL A   1      32.405  26.877  25.249  1.00  0.00     0.053 A 
ATOM      7  C   UNL A   1      32.376  27.297  23.901  1.00  0.00     0.020 A 
ATOM      8  C   UNL A   1      33.108  26.562  22.932  1.00  0.00     0.016 A 
ATOM      9  C   UNL A   1      33.915  25.480  23.267  1.00  0.00     0.001 A 
ATOM     10  C   UNL A   1      33.270  25.786  25.552  1.00  0.00     0.015 A 
ATOM     11  C   UNL A   1      34.011  25.100  24.589  1.00  0.00     0.001 A 
BRANCH   7  12
ATOM     12  S   UNL A   1      31.428  28.609  23.169  1.00  0.00    -0.125 SA
BRANCH  12  13
ATOM     13  C   UNL A   1      29.701  27.967  23.159  1.00  0.00     0.075 C 
BRANCH  13  14
ATOM     14  C   UNL A   1      28.531  28.937  22.935  1.00  0.00     0.011 C 
BRANCH  14  15
ATOM     15  C   UNL A   1      28.845  30.434  22.934  1.00  0.00    -0.003 C 
ATOM     16  C   UNL A   1      27.758  31.284  23.574  1.00  0.00     0.004 C 
ENDBRANCH  14  15
ENDBRANCH  13  14
ENDBRANCH  12  13
ENDBRANCH   7  12
ENDBRANCH   3   6
ENDBRANCH   1   2
BRANCH   1  17
ATOM     17  C   UNL A   1      31.993  30.636  26.266  1.00  0.00     0.023 C 
BRANCH  17  18
ATOM     18  C   UNL A   1      31.575  31.963  26.888  1.00  0.00     0.023 C 
BRANCH  18  19
ATOM     19  C   UNL A   1      32.744  32.821  27.353  1.00  0.00     0.116 C 
BRANCH  19  20
ATOM     20  N   UNL A   1      32.389  34.202  27.663  1.00  0.00    -0.352 N 
ATOM     21  C   UNL A   1      32.989  35.034  28.578  1.00  0.00     0.251 C 
ATOM     22  H   UNL A   1      31.634  34.581  27.158  1.00  0.00     0.163 HD
ATOM     23  O   UNL A   1      32.568  36.165  28.790  1.00  0.00    -0.269 OA
BRANCH  21  24
ATOM     24  C   UNL A   1      34.130  34.505  29.348  1.00  0.00     0.039 A 
ATOM     25  C   UNL A   1      33.877  33.744  30.489  1.00  0.00     0.014 A 
ATOM     26  C   UNL A   1      35.431  34.665  28.863  1.00  0.00     0.014 A 
ATOM     27  C   UNL A   1      34.932  33.073  31.108  1.00  0.00     0.010 A 
ATOM     28  C   UNL A   1      36.464  33.934  29.434  1.00  0.00     0.010 A 
ATOM     29  C   UNL A   1      36.222  33.128  30.559  1.00  0.00    -0.014 A 
BRANCH  29  30
ATOM     30  C   UNL A   1      37.346  32.363  31.149  1.00  0.00     0.031 A 
ATOM     31  C   UNL A   1      37.844  32.715  32.520  1.00  0.00     0.074 A 
ATOM     32  C   UNL A   1      37.965  31.412  30.422  1.00  0.00     0.049 A 
ATOM     33  N   UNL A   1      38.871  32.240  33.176  1.00  0.00    -0.248 NA
ATOM     34  C   UNL A   1      37.107  33.769  33.237  1.00  0.00     0.031 C 
ATOM     35  C   UNL A   1      37.607  31.019  29.058  1.00  0.00     0.029 A 
ATOM     36  N   UNL A   1      39.036  30.612  30.726  1.00  0.00    -0.354 N 
ATOM     37  C   UNL A   1      38.914  32.950  34.369  1.00  0.00     0.074 A 
ATOM     38  C   UNL A   1      37.848  33.925  34.323  1.00  0.00     0.031 C 
ATOM     39  C   UNL A   1      38.429  30.038  28.652  1.00  0.00     0.029 A 
ATOM     40  C   UNL A   1      39.393  29.757  29.712  1.00  0.00     0.049 A 
ATOM     41  H   UNL A   1      39.506  30.647  31.591  1.00  0.00     0.167 HD
ATOM     42  C   UNL A   1      39.754  32.785  35.417  1.00  0.00     0.037 A 
ATOM     43  C   UNL A   1      40.388  28.853  29.647  1.00  0.00     0.037 A 
ATOM     44  C   UNL A   1      40.788  31.789  35.473  1.00  0.00     0.049 A 
ATOM     45  C   UNL A   1      41.296  28.676  30.835  1.00  0.00     0.074 A 
ATOM     46  C   UNL A   1      41.652  31.498  36.513  1.00  0.00     0.029 A 
ATOM     47  N   UNL A   1      41.094  30.914  34.441  1.00  0.00    -0.354 N 
ATOM     48  N   UNL A   1      41.288  29.310  31.983  1.00  0.00    -0.248 NA
ATOM     49  C   UNL A   1      42.346  27.655  30.720  1.00  0.00     0.031 C 
ATOM     50  C   UNL A   1      42.504  30.469  36.099  1.00  0.00     0.029 A 
ATOM     51  C   UNL A   1      42.143  30.091  34.816  1.00  0.00     0.049 A 
ATOM     52  H   UNL A   1      40.634  30.883  33.571  1.00  0.00     0.167 HD
ATOM     53  C   UNL A   1      42.308  28.744  32.737  1.00  0.00     0.074 A 
ATOM     54  C   UNL A   1      42.907  27.710  31.920  1.00  0.00     0.031 C 
ATOM     55  C   UNL A   1      42.712  29.054  33.993  1.00  0.00     0.037 A 
BRANCH  42  56
ATOM     56  C   UNL A   1      39.576  33.699  36.594  1.00  0.00     0.064 A 
ATOM     57  C   UNL A   1      40.178  34.966  36.635  1.00  0.00     0.173 A 
ATOM     58  C   UNL A   1      38.777  33.315  37.680  1.00  0.00     0.173 A 
ATOM     59  F   UNL A   1      40.964  35.374  35.627  1.00  0.00    -0.203 F 
ATOM     60  C   UNL A   1      40.011  35.801  37.736  1.00  0.00     0.198 A 
ATOM     61  C   UNL A   1      38.589  34.165  38.767  1.00  0.00     0.198 A 
ATOM     62  F   UNL A   1      38.177  32.114  37.689  1.00  0.00    -0.203 F 
ATOM     63  F   UNL A   1      40.639  36.986  37.777  1.00  0.00    -0.200 F 
ATOM     64  C   UNL A   1      39.213  35.405  38.797  1.00  0.00     0.200 A 
ATOM     65  F   UNL A   1      37.808  33.784  39.787  1.00  0.00    -0.200 F 
ATOM     66  F   UNL A   1      39.049  36.212  39.854  1.00  0.00    -0.200 F 
ENDBRANCH  42  56
BRANCH  43  67
ATOM     67  C   UNL A   1      40.559  28.019  28.430  1.00  0.00     0.064 A 
ATOM     68  C   UNL A   1      39.968  26.752  28.340  1.00  0.00     0.173 A 
ATOM     69  C   UNL A   1      41.321  28.463  27.338  1.00  0.00     0.173 A 
ATOM     70  F   UNL A   1      39.247  26.275  29.366  1.00  0.00    -0.203 F 
ATOM     71  C   UNL A   1      40.148  25.950  27.215  1.00  0.00     0.198 A 
ATOM     72  C   UNL A   1      41.480  27.670  26.204  1.00  0.00     0.198 A 
ATOM     73  F   UNL A   1      41.904  29.669  27.374  1.00  0.00    -0.203 F 
ATOM     74  F   UNL A   1      39.609  24.724  27.175  1.00  0.00    -0.200 F 
ATOM     75  C   UNL A   1      40.901  26.412  26.146  1.00  0.00     0.200 A 
ATOM     76  F   UNL A   1      42.198  28.125  25.167  1.00  0.00    -0.200 F 
ATOM     77  F   UNL A   1      41.073  25.641  25.063  1.00  0.00    -0.200 F 
ENDBRANCH  43  67
BRANCH  55  78
ATOM     78  C   UNL A   1      43.825  28.238  34.578  1.00  0.00     0.064 A 
ATOM     79  C   UNL A   1      45.162  28.650  34.491  1.00  0.00     0.173 A 
ATOM     80  C   UNL A   1      43.544  27.055  35.277  1.00  0.00     0.173 A 
ATOM     81  F   UNL A   1      45.482  29.766  33.819  1.00  0.00    -0.203 F 
ATOM     82  C   UNL A   1      46.181  27.895  35.065  1.00  0.00     0.198 A 
ATOM     83  C   UNL A   1      44.561  26.318  35.874  1.00  0.00     0.198 A 
ATOM     84  F   UNL A   1      42.279  26.623  35.394  1.00  0.00    -0.203 F 
ATOM     85  F   UNL A   1      47.457  28.285  34.936  1.00  0.00    -0.200 F 
ATOM     86  C   UNL A   1      45.878  26.735  35.763  1.00  0.00     0.200 A 
ATOM     87  F   UNL A   1      44.266  25.203  36.559  1.00  0.00    -0.200 F 
ATOM     88  F   UNL A   1      46.860  26.014  36.323  1.00  0.00    -0.200 F 
ENDBRANCH  55  78
ENDBRANCH  29  30
ENDBRANCH  21  24
ENDBRANCH  19  20
ENDBRANCH  18  19
ENDBRANCH  17  18
ENDBRANCH   1  17
TORSDOF 15
ENDMDL
MODEL 3
REMARK VINA RESULT:     -11.2      1.052      2.715
REMARK SMILES CCCCSc1ccccc1C(=O)NCCCCNC(=O)c1ccc(-c2c3nc(c(-c4c(F)c(F)c(F)c(F)c4F)c4ccc([nH]4)c(-c4c(F)c(F)c(F)c(F)c4F)c4nc(c(-c5c(F)c(F)c(F)c(F)c5F)c5ccc2[nH]5)C=C4)C=C3)cc1
REMARK SMILES IDX 15 1 14 2 12 3 13 4 11 6 6 7 7 8 8 9 10 10 9 11 5 12 4 13
REMARK SMILES IDX 3 14 2 15 1 16 16 17 17 18 18 19 19 20 20 21 21 23 22 24
REMARK SMILES IDX 23 25 84 26 24 27 83 28 25 29 26 30 27 31 77 32 28 33 82 34
REMARK SMILES IDX 76 35 78 36 29 37 81 38 75 39 74 40 30 42 62 43 42 44 61 45
REMARK SMILES IDX 43 46 46 47 60 48 79 49 44 50 45 51 59 53 80 54 47 55 31 56
REMARK SMILES IDX 32 57 40 58 33 59 34 60 38 61 41 62 35 63 36 64 39 65 37 66
REMARK SMILES IDX 63 67 64 68 72 69 65 70 66 71 70 72 73 73 67 74 68 75 71 76
REMARK SMILES IDX 69 77 48 78 49 79 57 80 50 81 51 82 55 83 58 84 52 85 53 86
REMARK SMILES IDX 56 87 54 88
REMARK H PARENT 14 5 19 22 78 41 46 52
REMARK Flexibility Score: inf
ROOT
ATOM      1  C   UNL A   1      33.513  29.568  26.703  1.00  0.00     0.116 C 
ENDROOT
BRANCH   1   2
ATOM      2  N   UNL A   1      33.620  29.573  25.267  1.00  0.00    -0.352 N 
ATOM      3  C   UNL A   1      32.936  29.028  24.220  1.00  0.00     0.252 C 
ATOM      4  O   UNL A   1      33.459  29.300  23.129  1.00  0.00    -0.269 OA
ATOM      5  H   UNL A   1      34.387  30.108  24.961  1.00  0.00     0.163 HD
BRANCH   3   6
ATOM      6  C   UNL A   1      31.668  28.204  24.194  1.00  0.00     0.053 A 
ATOM      7  C   UNL A   1      31.367  26.896  24.634  1.00  0.00     0.020 A 
ATOM      8  C   UNL A   1      30.112  26.324  24.295  1.00  0.00     0.016 A 
ATOM      9  C   UNL A   1      29.132  27.028  23.602  1.00  0.00     0.001 A 
ATOM     10  C   UNL A   1      30.624  28.899  23.517  1.00  0.00     0.015 A 
ATOM     11  C   UNL A   1      29.383  28.330  23.227  1.00  0.00     0.001 A 
BRANCH   7  12
ATOM     12  S   UNL A   1      32.411  25.752  25.502  1.00  0.00    -0.125 SA
BRANCH  12  13
ATOM     13  C   UNL A   1      31.353  24.261  25.736  1.00  0.00     0.075 C 
BRANCH  13  14
ATOM     14  C   UNL A   1      31.616  23.321  26.921  1.00  0.00     0.011 C 
BRANCH  14  15
ATOM     15  C   UNL A   1      32.757  22.313  26.784  1.00  0.00    -0.003 C 
ATOM     16  C   UNL A   1      34.080  22.810  27.345  1.00  0.00     0.004 C 
ENDBRANCH  14  15
ENDBRANCH  13  14
ENDBRANCH  12  13
ENDBRANCH   7  12
ENDBRANCH   3   6
ENDBRANCH   1   2
BRANCH   1  17
ATOM     17  C   UNL A   1      32.148  30.101  27.151  1.00  0.00     0.023 C 
BRANCH  17  18
ATOM     18  C   UNL A   1      31.909  31.572  26.834  1.00  0.00     0.023 C 
BRANCH  18  19
ATOM     19  C   UNL A   1      32.944  32.510  27.440  1.00  0.00     0.116 C 
BRANCH  19  20
ATOM     20  N   UNL A   1      32.470  33.873  27.648  1.00  0.00    -0.352 N 
ATOM     21  C   UNL A   1      32.985  34.816  28.506  1.00  0.00     0.251 C 
ATOM     22  H   UNL A   1      31.693  34.151  27.111  1.00  0.00     0.163 HD
ATOM     23  O   UNL A   1      32.467  35.919  28.633  1.00  0.00    -0.269 OA
BRANCH  21  24
ATOM     24  C   UNL A   1      34.155  34.441  29.320  1.00  0.00     0.039 A 
ATOM     25  C   UNL A   1      33.946  33.852  30.567  1.00  0.00     0.014 A 
ATOM     26  C   UNL A   1      35.442  34.566  28.789  1.00  0.00     0.014 A 
ATOM     27  C   UNL A   1      35.032  33.312  31.256  1.00  0.00     0.010 A 
ATOM     28  C   UNL A   1      36.507  33.959  29.440  1.00  0.00     0.010 A 
ATOM     29  C   UNL A   1      36.311  33.323  30.677  1.00  0.00    -0.014 A 
BRANCH  29  30
ATOM     30  C   UNL A   1      37.469  32.688  31.349  1.00  0.00     0.031 A 
ATOM     31  C   UNL A   1      38.194  31.562  30.671  1.00  0.00     0.074 A 
ATOM     32  C   UNL A   1      37.814  33.069  32.594  1.00  0.00     0.049 A 
ATOM     33  N   UNL A   1      39.163  30.809  31.124  1.00  0.00    -0.248 NA
ATOM     34  C   UNL A   1      37.745  31.213  29.313  1.00  0.00     0.031 C 
ATOM     35  C   UNL A   1      37.149  34.114  33.377  1.00  0.00     0.029 A 
ATOM     36  N   UNL A   1      38.802  32.610  33.427  1.00  0.00    -0.354 N 
ATOM     37  C   UNL A   1      39.422  29.888  30.117  1.00  0.00     0.074 A 
ATOM     38  C   UNL A   1      38.475  30.139  29.055  1.00  0.00     0.031 C 
ATOM     39  C   UNL A   1      37.763  34.230  34.566  1.00  0.00     0.029 A 
ATOM     40  C   UNL A   1      38.839  33.247  34.644  1.00  0.00     0.049 A 
ATOM     41  H   UNL A   1      39.426  31.890  33.177  1.00  0.00     0.167 HD
ATOM     42  C   UNL A   1      40.383  28.935  30.074  1.00  0.00     0.037 A 
ATOM     43  C   UNL A   1      39.651  33.055  35.701  1.00  0.00     0.037 A 
ATOM     44  C   UNL A   1      41.347  28.714  31.117  1.00  0.00     0.049 A 
ATOM     45  C   UNL A   1      40.722  32.001  35.620  1.00  0.00     0.074 A 
ATOM     46  C   UNL A   1      42.399  27.817  31.145  1.00  0.00     0.029 A 
ATOM     47  N   UNL A   1      41.378  29.407  32.319  1.00  0.00    -0.354 N 
ATOM     48  N   UNL A   1      41.000  31.178  34.637  1.00  0.00    -0.248 NA
ATOM     49  C   UNL A   1      41.597  31.854  36.791  1.00  0.00     0.031 C 
ATOM     50  C   UNL A   1      43.048  27.943  32.378  1.00  0.00     0.029 A 
ATOM     51  C   UNL A   1      42.425  28.948  33.101  1.00  0.00     0.049 A 
ATOM     52  H   UNL A   1      40.750  30.120  32.577  1.00  0.00     0.167 HD
ATOM     53  C   UNL A   1      42.098  30.439  35.057  1.00  0.00     0.074 A 
ATOM     54  C   UNL A   1      42.441  30.918  36.380  1.00  0.00     0.031 C 
ATOM     55  C   UNL A   1      42.761  29.452  34.408  1.00  0.00     0.037 A 
BRANCH  42  56
ATOM     56  C   UNL A   1      40.440  28.069  28.851  1.00  0.00     0.064 A 
ATOM     57  C   UNL A   1      39.734  26.859  28.776  1.00  0.00     0.173 A 
ATOM     58  C   UNL A   1      41.191  28.462  27.734  1.00  0.00     0.173 A 
ATOM     59  F   UNL A   1      39.013  26.432  29.824  1.00  0.00    -0.203 F 
ATOM     60  C   UNL A   1      39.801  26.060  27.638  1.00  0.00     0.198 A 
ATOM     61  C   UNL A   1      41.233  27.674  26.586  1.00  0.00     0.198 A 
ATOM     62  F   UNL A   1      41.884  29.611  27.753  1.00  0.00    -0.203 F 
ATOM     63  F   UNL A   1      39.160  24.883  27.609  1.00  0.00    -0.200 F 
ATOM     64  C   UNL A   1      40.544  26.470  26.542  1.00  0.00     0.200 A 
ATOM     65  F   UNL A   1      41.944  28.078  25.524  1.00  0.00    -0.200 F 
ATOM     66  F   UNL A   1      40.606  25.703  25.446  1.00  0.00    -0.200 F 
ENDBRANCH  42  56
BRANCH  43  67
ATOM     67  C   UNL A   1      39.506  33.899  36.914  1.00  0.00     0.064 A 
ATOM     68  C   UNL A   1      38.748  33.458  38.008  1.00  0.00     0.173 A 
ATOM     69  C   UNL A   1      40.111  35.161  37.006  1.00  0.00     0.173 A 
ATOM     70  F   UNL A   1      38.133  32.267  37.959  1.00  0.00    -0.203 F 
ATOM     71  C   UNL A   1      38.580  34.256  39.138  1.00  0.00     0.198 A 
ATOM     72  C   UNL A   1      39.964  35.947  38.147  1.00  0.00     0.198 A 
ATOM     73  F   UNL A   1      40.850  35.626  35.989  1.00  0.00    -0.203 F 
ATOM     74  F   UNL A   1      37.813  33.829  40.150  1.00  0.00    -0.200 F 
ATOM     75  C   UNL A   1      39.193  35.497  39.208  1.00  0.00     0.200 A 
ATOM     76  F   UNL A   1      40.567  37.142  38.217  1.00  0.00    -0.200 F 
ATOM     77  F   UNL A   1      39.033  36.264  40.296  1.00  0.00    -0.200 F 
ENDBRANCH  43  67
BRANCH  55  78
ATOM     78  C   UNL A   1      43.951  28.855  35.096  1.00  0.00     0.064 A 
ATOM     79  C   UNL A   1      45.234  29.400  34.953  1.00  0.00     0.173 A 
ATOM     80  C   UNL A   1      43.794  27.752  35.950  1.00  0.00     0.173 A 
ATOM     81  F   UNL A   1      45.436  30.444  34.136  1.00  0.00    -0.203 F 
ATOM     82  C   UNL A   1      46.323  28.850  35.624  1.00  0.00     0.198 A 
ATOM     83  C   UNL A   1      44.879  27.223  36.641  1.00  0.00     0.198 A 
ATOM     84  F   UNL A   1      42.584  27.199  36.125  1.00  0.00    -0.203 F 
ATOM     85  F   UNL A   1      47.548  29.361  35.442  1.00  0.00    -0.200 F 
ATOM     86  C   UNL A   1      46.143  27.767  36.473  1.00  0.00     0.200 A 
ATOM     87  F   UNL A   1      44.702  26.184  37.470  1.00  0.00    -0.200 F 
ATOM     88  F   UNL A   1      47.191  27.245  37.125  1.00  0.00    -0.200 F 
ENDBRANCH  55  78
ENDBRANCH  29  30
ENDBRANCH  21  24
ENDBRANCH  19  20
ENDBRANCH  18  19
ENDBRANCH  17  18
ENDBRANCH   1  17
TORSDOF 15
ENDMDL
