MODEL 1
REMARK VINA RESULT:     -13.6      0.000      0.000
REMARK SMILES C[C@@H]1CC(C)(C)C[C@@](CC(=O)Nc2cccc(C(F)(F)F)c2)(C(=O)NCCCCNC(=O)c2ccc(-c3c4nc(c(-c5c(F)c(F)c(F)c(F)c5F)c5ccc([nH]5)c(-c5c(F)c(F)c(F)c(F)c5F)c5nc(c(-c6c(F)c(F)c(F)c(F)c6F)c6ccc3[nH]6)C=C5)C=C4)cc2)C1
REMARK SMILES IDX 26 1 25 2 23 3 24 4 8 6 1 7 2 8 3 9 96 10 4 11 5 12 6 13
REMARK SMILES IDX 7 14 9 15 10 16 11 17 12 18 13 20 14 21 22 22 15 23 17 24
REMARK SMILES IDX 16 25 18 26 19 27 20 28 21 29 27 30 28 31 29 32 30 33 31 34
REMARK SMILES IDX 32 36 33 37 34 38 95 39 35 40 94 41 36 42 37 43 38 44 88 45
REMARK SMILES IDX 39 46 93 47 87 48 89 49 40 50 92 51 86 52 85 53 41 55 73 56
REMARK SMILES IDX 53 57 72 58 54 59 57 60 71 61 90 62 55 63 56 64 70 66 91 67
REMARK SMILES IDX 58 68 42 69 43 70 51 71 44 72 45 73 49 74 52 75 46 76 47 77
REMARK SMILES IDX 50 78 48 79 74 80 75 81 83 82 76 83 77 84 81 85 84 86 78 87
REMARK SMILES IDX 79 88 82 89 80 90 59 91 60 92 68 93 61 94 62 95 66 96 69 97
REMARK SMILES IDX 63 98 64 99 67 100 65 101
REMARK H PARENT 25 5 12 19 30 35 89 54 57 65
REMARK Flexibility Score: inf
ROOT
ATOM      1  C   UNL A   1      36.479  21.518  25.644  1.00  0.00     0.116 C 
ENDROOT
BRANCH   1   2
ATOM      2  N   UNL A   1      35.426  21.400  26.657  1.00  0.00    -0.356 N 
ATOM      3  C   UNL A   1      34.155  21.918  26.779  1.00  0.00     0.226 C 
ATOM      4  O   UNL A   1      33.542  21.568  27.792  1.00  0.00    -0.274 OA
ATOM      5  H   UNL A   1      35.681  20.826  27.415  1.00  0.00     0.163 HD
BRANCH   3   6
ATOM      6  C   UNL A   1      33.488  22.881  25.714  1.00  0.00     0.059 C 
ATOM      7  C   UNL A   1      33.430  25.504  23.527  1.00  0.00     0.008 C 
ATOM      8  C   UNL A   1      34.182  24.179  23.490  1.00  0.00    -0.013 C 
ATOM      9  C   UNL A   1      33.492  23.153  22.620  1.00  0.00     0.009 C 
ATOM     10  C   UNL A   1      34.575  23.523  24.817  1.00  0.00     0.020 C 
ATOM     11  C   UNL A   1      32.354  22.364  23.300  1.00  0.00    -0.034 C 
ATOM     12  C   UNL A   1      31.028  23.139  23.279  1.00  0.00     0.011 C 
ATOM     13  C   UNL A   1      32.160  21.113  22.400  1.00  0.00     0.011 C 
ATOM     14  C   UNL A   1      32.669  21.922  24.770  1.00  0.00     0.024 C 
BRANCH   6  15
ATOM     15  C   UNL A   1      32.725  23.885  26.613  1.00  0.00     0.117 C 
BRANCH  15  16
ATOM     16  C   UNL A   1      31.240  24.074  26.795  1.00  0.00     0.225 C 
ATOM     17  O   UNL A   1      30.624  23.168  27.382  1.00  0.00    -0.275 OA
ATOM     18  N   UNL A   1      30.482  25.153  26.501  1.00  0.00    -0.326 N 
ATOM     19  H   UNL A   1      29.601  25.067  26.930  1.00  0.00     0.169 HD
BRANCH  18  20
ATOM     20  C   UNL A   1      30.541  26.362  25.780  1.00  0.00     0.041 A 
ATOM     21  C   UNL A   1      29.731  26.371  24.628  1.00  0.00     0.026 A 
ATOM     22  C   UNL A   1      31.387  27.448  25.993  1.00  0.00     0.039 A 
ATOM     23  C   UNL A   1      29.859  27.350  23.646  1.00  0.00     0.003 A 
ATOM     24  C   UNL A   1      31.611  28.386  24.951  1.00  0.00     0.058 A 
ATOM     25  C   UNL A   1      30.823  28.336  23.791  1.00  0.00     0.013 A 
BRANCH  24  26
ATOM     26  C   UNL A   1      32.744  29.390  25.015  1.00  0.00     0.416 C 
ATOM     27  F   UNL A   1      33.239  29.701  23.778  1.00  0.00    -0.166 F 
ATOM     28  F   UNL A   1      32.372  30.573  25.571  1.00  0.00    -0.166 F 
ATOM     29  F   UNL A   1      33.814  28.945  25.723  1.00  0.00    -0.166 F 
ENDBRANCH  24  26
ENDBRANCH  18  20
ENDBRANCH  15  16
ENDBRANCH   6  15
ENDBRANCH   3   6
ENDBRANCH   1   2
BRANCH   1  30
ATOM     30  C   UNL A   1      36.609  20.286  24.730  1.00  0.00     0.023 C 
BRANCH  30  31
ATOM     31  C   UNL A   1      37.805  19.355  24.989  1.00  0.00     0.023 C 
BRANCH  31  32
ATOM     32  C   UNL A   1      38.999  19.938  25.752  1.00  0.00     0.116 C 
BRANCH  32  33
ATOM     33  N   UNL A   1      40.123  19.022  25.870  1.00  0.00    -0.352 N 
ATOM     34  C   UNL A   1      41.459  19.243  26.128  1.00  0.00     0.251 C 
ATOM     35  H   UNL A   1      39.887  18.075  25.744  1.00  0.00     0.163 HD
ATOM     36  O   UNL A   1      42.235  18.296  26.079  1.00  0.00    -0.269 OA
BRANCH  34  37
ATOM     37  C   UNL A   1      41.992  20.596  26.436  1.00  0.00     0.039 A 
ATOM     38  C   UNL A   1      42.255  21.464  25.368  1.00  0.00     0.014 A 
ATOM     39  C   UNL A   1      42.299  21.003  27.735  1.00  0.00     0.014 A 
ATOM     40  C   UNL A   1      42.756  22.748  25.606  1.00  0.00     0.010 A 
ATOM     41  C   UNL A   1      42.731  22.313  27.980  1.00  0.00     0.010 A 
ATOM     42  C   UNL A   1      42.968  23.200  26.918  1.00  0.00    -0.014 A 
BRANCH  42  43
ATOM     43  C   UNL A   1      43.431  24.592  27.183  1.00  0.00     0.031 A 
ATOM     44  C   UNL A   1      42.483  25.635  27.712  1.00  0.00     0.074 A 
ATOM     45  C   UNL A   1      44.704  24.937  26.901  1.00  0.00     0.049 A 
ATOM     46  N   UNL A   1      42.704  26.898  27.984  1.00  0.00    -0.248 NA
ATOM     47  C   UNL A   1      41.096  25.209  27.942  1.00  0.00     0.031 C 
ATOM     48  C   UNL A   1      45.711  24.046  26.326  1.00  0.00     0.029 A 
ATOM     49  N   UNL A   1      45.365  26.133  27.050  1.00  0.00    -0.354 N 
ATOM     50  C   UNL A   1      41.487  27.416  28.406  1.00  0.00     0.074 A 
ATOM     51  C   UNL A   1      40.517  26.348  28.294  1.00  0.00     0.031 C 
ATOM     52  C   UNL A   1      46.865  24.716  26.188  1.00  0.00     0.029 A 
ATOM     53  C   UNL A   1      46.673  26.094  26.634  1.00  0.00     0.049 A 
ATOM     54  H   UNL A   1      44.941  26.941  27.420  1.00  0.00     0.167 HD
ATOM     55  C   UNL A   1      41.204  28.659  28.869  1.00  0.00     0.037 A 
ATOM     56  C   UNL A   1      47.615  27.057  26.606  1.00  0.00     0.037 A 
ATOM     57  C   UNL A   1      42.171  29.721  28.990  1.00  0.00     0.049 A 
ATOM     58  C   UNL A   1      47.283  28.428  27.133  1.00  0.00     0.074 A 
ATOM     59  C   UNL A   1      41.997  30.996  29.501  1.00  0.00     0.029 A 
ATOM     60  N   UNL A   1      43.495  29.635  28.584  1.00  0.00    -0.354 N 
ATOM     61  N   UNL A   1      46.149  28.881  27.608  1.00  0.00    -0.248 NA
ATOM     62  C   UNL A   1      48.370  29.417  27.136  1.00  0.00     0.031 C 
ATOM     63  C   UNL A   1      43.198  31.698  29.353  1.00  0.00     0.029 A 
ATOM     64  C   UNL A   1      44.142  30.842  28.810  1.00  0.00     0.049 A 
ATOM     65  H   UNL A   1      43.914  28.834  28.193  1.00  0.00     0.167 HD
ATOM     66  C   UNL A   1      46.389  30.195  27.988  1.00  0.00     0.074 A 
ATOM     67  C   UNL A   1      47.785  30.459  27.707  1.00  0.00     0.031 C 
ATOM     68  C   UNL A   1      45.531  31.098  28.522  1.00  0.00     0.037 A 
BRANCH  55  69
ATOM     69  C   UNL A   1      39.782  28.937  29.278  1.00  0.00     0.064 A 
ATOM     70  C   UNL A   1      38.837  29.437  28.368  1.00  0.00     0.173 A 
ATOM     71  C   UNL A   1      39.355  28.689  30.591  1.00  0.00     0.173 A 
ATOM     72  F   UNL A   1      39.191  29.700  27.101  1.00  0.00    -0.203 F 
ATOM     73  C   UNL A   1      37.534  29.723  28.769  1.00  0.00     0.198 A 
ATOM     74  C   UNL A   1      38.041  28.941  30.980  1.00  0.00     0.198 A 
ATOM     75  F   UNL A   1      40.211  28.201  31.501  1.00  0.00    -0.203 F 
ATOM     76  F   UNL A   1      36.670  30.264  27.899  1.00  0.00    -0.200 F 
ATOM     77  C   UNL A   1      37.136  29.470  30.073  1.00  0.00     0.200 A 
ATOM     78  F   UNL A   1      37.653  28.680  32.236  1.00  0.00    -0.200 F 
ATOM     79  F   UNL A   1      35.882  29.746  30.458  1.00  0.00    -0.200 F 
ENDBRANCH  55  69
BRANCH  56  80
ATOM     80  C   UNL A   1      48.971  26.747  26.082  1.00  0.00     0.064 A 
ATOM     81  C   UNL A   1      49.309  27.002  24.746  1.00  0.00     0.173 A 
ATOM     82  C   UNL A   1      49.961  26.198  26.911  1.00  0.00     0.173 A 
ATOM     83  F   UNL A   1      48.391  27.506  23.907  1.00  0.00    -0.203 F 
ATOM     84  C   UNL A   1      50.579  26.705  24.255  1.00  0.00     0.198 A 
ATOM     85  C   UNL A   1      51.239  25.931  26.427  1.00  0.00     0.198 A 
ATOM     86  F   UNL A   1      49.691  25.940  28.200  1.00  0.00    -0.203 F 
ATOM     87  F   UNL A   1      50.862  26.920  22.963  1.00  0.00    -0.200 F 
ATOM     88  C   UNL A   1      51.545  26.178  25.098  1.00  0.00     0.200 A 
ATOM     89  F   UNL A   1      52.176  25.438  27.249  1.00  0.00    -0.200 F 
ATOM     90  F   UNL A   1      52.770  25.903  24.628  1.00  0.00    -0.200 F 
ENDBRANCH  56  80
BRANCH  68  91
ATOM     91  C   UNL A   1      46.086  32.453  28.869  1.00  0.00     0.064 A 
ATOM     92  C   UNL A   1      46.043  33.526  27.965  1.00  0.00     0.173 A 
ATOM     93  C   UNL A   1      46.652  32.685  30.133  1.00  0.00     0.173 A 
ATOM     94  F   UNL A   1      45.526  33.355  26.738  1.00  0.00    -0.203 F 
ATOM     95  C   UNL A   1      46.579  34.766  28.299  1.00  0.00     0.198 A 
ATOM     96  C   UNL A   1      47.154  33.937  30.475  1.00  0.00     0.198 A 
ATOM     97  F   UNL A   1      46.712  31.698  31.039  1.00  0.00    -0.203 F 
ATOM     98  F   UNL A   1      46.582  35.758  27.396  1.00  0.00    -0.200 F 
ATOM     99  C   UNL A   1      47.128  34.974  29.555  1.00  0.00     0.200 A 
ATOM    100  F   UNL A   1      47.670  34.139  31.696  1.00  0.00    -0.200 F 
ATOM    101  F   UNL A   1      47.642  36.169  29.876  1.00  0.00    -0.200 F 
ENDBRANCH  68  91
ENDBRANCH  42  43
ENDBRANCH  34  37
ENDBRANCH  32  33
ENDBRANCH  31  32
ENDBRANCH  30  31
ENDBRANCH   1  30
TORSDOF 15
ENDMDL
MODEL 2
REMARK VINA RESULT:     -13.6      0.806      2.172
REMARK SMILES C[C@@H]1CC(C)(C)C[C@@](CC(=O)Nc2cccc(C(F)(F)F)c2)(C(=O)NCCCCNC(=O)c2ccc(-c3c4nc(c(-c5c(F)c(F)c(F)c(F)c5F)c5ccc([nH]5)c(-c5c(F)c(F)c(F)c(F)c5F)c5nc(c(-c6c(F)c(F)c(F)c(F)c6F)c6ccc3[nH]6)C=C5)C=C4)cc2)C1
REMARK SMILES IDX 26 1 25 2 23 3 24 4 8 6 1 7 2 8 3 9 96 10 4 11 5 12 6 13
REMARK SMILES IDX 7 14 9 15 10 16 11 17 12 18 13 20 14 21 22 22 15 23 17 24
REMARK SMILES IDX 16 25 18 26 19 27 20 28 21 29 27 30 28 31 29 32 30 33 31 34
REMARK SMILES IDX 32 36 33 37 34 38 95 39 35 40 94 41 36 42 37 43 38 44 88 45
REMARK SMILES IDX 39 46 93 47 87 48 89 49 40 50 92 51 86 52 85 53 41 55 73 56
REMARK SMILES IDX 53 57 72 58 54 59 57 60 71 61 90 62 55 63 56 64 70 66 91 67
REMARK SMILES IDX 58 68 42 69 43 70 51 71 44 72 45 73 49 74 52 75 46 76 47 77
REMARK SMILES IDX 50 78 48 79 74 80 75 81 83 82 76 83 77 84 81 85 84 86 78 87
REMARK SMILES IDX 79 88 82 89 80 90 59 91 60 92 68 93 61 94 62 95 66 96 69 97
REMARK SMILES IDX 63 98 64 99 67 100 65 101
REMARK H PARENT 25 5 12 19 30 35 89 54 57 65
REMARK Flexibility Score: inf
ROOT
ATOM      1  C   UNL A   1      36.486  21.560  25.666  1.00  0.00     0.116 C 
ENDROOT
BRANCH   1   2
ATOM      2  N   UNL A   1      35.439  21.558  26.693  1.00  0.00    -0.356 N 
ATOM      3  C   UNL A   1      34.210  22.168  26.805  1.00  0.00     0.226 C 
ATOM      4  O   UNL A   1      33.586  21.903  27.837  1.00  0.00    -0.274 OA
ATOM      5  H   UNL A   1      35.664  20.998  27.472  1.00  0.00     0.163 HD
BRANCH   3   6
ATOM      6  C   UNL A   1      33.599  23.131  25.707  1.00  0.00     0.059 C 
ATOM      7  C   UNL A   1      33.698  25.660  23.413  1.00  0.00     0.008 C 
ATOM      8  C   UNL A   1      34.354  24.285  23.425  1.00  0.00    -0.013 C 
ATOM      9  C   UNL A   1      33.583  23.274  22.604  1.00  0.00     0.009 C 
ATOM     10  C   UNL A   1      34.717  23.658  24.774  1.00  0.00     0.020 C 
ATOM     11  C   UNL A   1      32.401  22.596  23.328  1.00  0.00    -0.034 C 
ATOM     12  C   UNL A   1      31.132  23.461  23.287  1.00  0.00     0.011 C 
ATOM     13  C   UNL A   1      32.109  21.327  22.482  1.00  0.00     0.011 C 
ATOM     14  C   UNL A   1      32.703  22.195  24.812  1.00  0.00     0.024 C 
BRANCH   6  15
ATOM     15  C   UNL A   1      32.918  24.222  26.571  1.00  0.00     0.117 C 
BRANCH  15  16
ATOM     16  C   UNL A   1      31.462  24.598  26.670  1.00  0.00     0.225 C 
ATOM     17  O   UNL A   1      30.696  23.758  27.174  1.00  0.00    -0.275 OA
ATOM     18  N   UNL A   1      30.871  25.779  26.383  1.00  0.00    -0.326 N 
ATOM     19  H   UNL A   1      29.959  25.793  26.753  1.00  0.00     0.169 HD
BRANCH  18  20
ATOM     20  C   UNL A   1      31.134  26.997  25.726  1.00  0.00     0.041 A 
ATOM     21  C   UNL A   1      31.869  27.911  26.505  1.00  0.00     0.026 A 
ATOM     22  C   UNL A   1      30.643  27.433  24.497  1.00  0.00     0.039 A 
ATOM     23  C   UNL A   1      31.990  29.252  26.149  1.00  0.00     0.003 A 
ATOM     24  C   UNL A   1      30.657  28.816  24.179  1.00  0.00     0.058 A 
ATOM     25  C   UNL A   1      31.354  29.711  25.006  1.00  0.00     0.013 A 
BRANCH  24  26
ATOM     26  C   UNL A   1      29.862  29.373  23.016  1.00  0.00     0.416 C 
ATOM     27  F   UNL A   1      28.849  28.540  22.628  1.00  0.00    -0.166 F 
ATOM     28  F   UNL A   1      29.271  30.563  23.301  1.00  0.00    -0.166 F 
ATOM     29  F   UNL A   1      30.610  29.566  21.899  1.00  0.00    -0.166 F 
ENDBRANCH  24  26
ENDBRANCH  18  20
ENDBRANCH  15  16
ENDBRANCH   6  15
ENDBRANCH   3   6
ENDBRANCH   1   2
BRANCH   1  30
ATOM     30  C   UNL A   1      36.521  20.286  24.804  1.00  0.00     0.023 C 
BRANCH  30  31
ATOM     31  C   UNL A   1      37.801  19.437  24.874  1.00  0.00     0.023 C 
BRANCH  31  32
ATOM     32  C   UNL A   1      38.971  19.992  25.694  1.00  0.00     0.116 C 
BRANCH  32  33
ATOM     33  N   UNL A   1      40.093  19.075  25.811  1.00  0.00    -0.352 N 
ATOM     34  C   UNL A   1      41.424  19.290  26.098  1.00  0.00     0.251 C 
ATOM     35  H   UNL A   1      39.860  18.130  25.659  1.00  0.00     0.163 HD
ATOM     36  O   UNL A   1      42.202  18.345  26.041  1.00  0.00    -0.269 OA
BRANCH  34  37
ATOM     37  C   UNL A   1      41.950  20.636  26.447  1.00  0.00     0.039 A 
ATOM     38  C   UNL A   1      42.261  21.517  25.403  1.00  0.00     0.014 A 
ATOM     39  C   UNL A   1      42.205  21.023  27.763  1.00  0.00     0.014 A 
ATOM     40  C   UNL A   1      42.759  22.795  25.679  1.00  0.00     0.010 A 
ATOM     41  C   UNL A   1      42.632  22.327  28.043  1.00  0.00     0.010 A 
ATOM     42  C   UNL A   1      42.919  23.228  27.005  1.00  0.00    -0.014 A 
BRANCH  42  43
ATOM     43  C   UNL A   1      43.377  24.613  27.308  1.00  0.00     0.031 A 
ATOM     44  C   UNL A   1      42.424  25.640  27.860  1.00  0.00     0.074 A 
ATOM     45  C   UNL A   1      44.650  24.968  27.041  1.00  0.00     0.049 A 
ATOM     46  N   UNL A   1      42.641  26.896  28.165  1.00  0.00    -0.248 NA
ATOM     47  C   UNL A   1      41.037  25.204  28.072  1.00  0.00     0.031 C 
ATOM     48  C   UNL A   1      45.662  24.095  26.448  1.00  0.00     0.029 A 
ATOM     49  N   UNL A   1      45.308  26.161  27.224  1.00  0.00    -0.354 N 
ATOM     50  C   UNL A   1      41.420  27.400  28.595  1.00  0.00     0.074 A 
ATOM     51  C   UNL A   1      40.453  26.333  28.450  1.00  0.00     0.031 C 
ATOM     52  C   UNL A   1      46.815  24.771  26.332  1.00  0.00     0.029 A 
ATOM     53  C   UNL A   1      46.618  26.136  26.813  1.00  0.00     0.049 A 
ATOM     54  H   UNL A   1      44.880  26.958  27.613  1.00  0.00     0.167 HD
ATOM     55  C   UNL A   1      41.132  28.630  29.089  1.00  0.00     0.037 A 
ATOM     56  C   UNL A   1      47.557  27.102  26.815  1.00  0.00     0.037 A 
ATOM     57  C   UNL A   1      42.096  29.690  29.242  1.00  0.00     0.049 A 
ATOM     58  C   UNL A   1      47.220  28.457  27.376  1.00  0.00     0.074 A 
ATOM     59  C   UNL A   1      41.917  30.951  29.785  1.00  0.00     0.029 A 
ATOM     60  N   UNL A   1      43.423  29.618  28.840  1.00  0.00    -0.354 N 
ATOM     61  N   UNL A   1      46.083  28.895  27.857  1.00  0.00    -0.248 NA
ATOM     62  C   UNL A   1      48.305  29.449  27.409  1.00  0.00     0.031 C 
ATOM     63  C   UNL A   1      43.117  31.659  29.661  1.00  0.00     0.029 A 
ATOM     64  C   UNL A   1      44.065  30.820  29.100  1.00  0.00     0.049 A 
ATOM     65  H   UNL A   1      43.845  28.828  28.430  1.00  0.00     0.167 HD
ATOM     66  C   UNL A   1      46.318  30.199  28.272  1.00  0.00     0.074 A 
ATOM     67  C   UNL A   1      47.715  30.474  28.005  1.00  0.00     0.031 C 
ATOM     68  C   UNL A   1      45.456  31.087  28.826  1.00  0.00     0.037 A 
BRANCH  55  69
ATOM     69  C   UNL A   1      39.708  28.894  29.498  1.00  0.00     0.064 A 
ATOM     70  C   UNL A   1      39.260  28.658  30.808  1.00  0.00     0.173 A 
ATOM     71  C   UNL A   1      38.782  29.402  28.574  1.00  0.00     0.173 A 
ATOM     72  F   UNL A   1      40.100  28.165  31.731  1.00  0.00    -0.203 F 
ATOM     73  C   UNL A   1      37.930  28.873  31.162  1.00  0.00     0.198 A 
ATOM     74  C   UNL A   1      37.462  29.651  28.942  1.00  0.00     0.198 A 
ATOM     75  F   UNL A   1      39.156  29.658  27.312  1.00  0.00    -0.203 F 
ATOM     76  F   UNL A   1      37.511  28.574  32.400  1.00  0.00    -0.200 F 
ATOM     77  C   UNL A   1      37.034  29.374  30.231  1.00  0.00     0.200 A 
ATOM     78  F   UNL A   1      36.601  30.152  28.045  1.00  0.00    -0.200 F 
ATOM     79  F   UNL A   1      35.755  29.580  30.573  1.00  0.00    -0.200 F 
ENDBRANCH  55  69
BRANCH  56  80
ATOM     80  C   UNL A   1      48.917  26.808  26.289  1.00  0.00     0.064 A 
ATOM     81  C   UNL A   1      49.908  26.252  27.109  1.00  0.00     0.173 A 
ATOM     82  C   UNL A   1      49.248  27.068  24.950  1.00  0.00     0.173 A 
ATOM     83  F   UNL A   1      49.648  26.005  28.401  1.00  0.00    -0.203 F 
ATOM     84  C   UNL A   1      51.183  25.983  26.615  1.00  0.00     0.198 A 
ATOM     85  C   UNL A   1      50.513  26.769  24.450  1.00  0.00     0.198 A 
ATOM     86  F   UNL A   1      48.333  27.594  24.122  1.00  0.00    -0.203 F 
ATOM     87  F   UNL A   1      52.125  25.491  27.431  1.00  0.00    -0.200 F 
ATOM     88  C   UNL A   1      51.482  26.234  25.284  1.00  0.00     0.200 A 
ATOM     89  F   UNL A   1      50.792  26.996  23.159  1.00  0.00    -0.200 F 
ATOM     90  F   UNL A   1      52.705  25.963  24.807  1.00  0.00    -0.200 F 
ENDBRANCH  56  80
BRANCH  68  91
ATOM     91  C   UNL A   1      46.005  32.433  29.210  1.00  0.00     0.064 A 
ATOM     92  C   UNL A   1      46.570  32.671  30.473  1.00  0.00     0.173 A 
ATOM     93  C   UNL A   1      45.983  33.497  28.293  1.00  0.00     0.173 A 
ATOM     94  F   UNL A   1      46.604  31.694  31.392  1.00  0.00    -0.203 F 
ATOM     95  C   UNL A   1      47.056  33.930  30.815  1.00  0.00     0.198 A 
ATOM     96  C   UNL A   1      46.503  34.744  28.628  1.00  0.00     0.198 A 
ATOM     97  F   UNL A   1      45.462  33.324  27.069  1.00  0.00    -0.203 F 
ATOM     98  F   UNL A   1      47.535  34.149  32.048  1.00  0.00    -0.200 F 
ATOM     99  C   UNL A   1      47.028  34.964  29.891  1.00  0.00     0.200 A 
ATOM    100  F   UNL A   1      46.488  35.736  27.727  1.00  0.00    -0.200 F 
ATOM    101  F   UNL A   1      47.498  36.174  30.222  1.00  0.00    -0.200 F 
ENDBRANCH  68  91
ENDBRANCH  42  43
ENDBRANCH  34  37
ENDBRANCH  32  33
ENDBRANCH  31  32
ENDBRANCH  30  31
ENDBRANCH   1  30
TORSDOF 15
ENDMDL
MODEL 3
REMARK VINA RESULT:     -13.5      0.586      7.066
REMARK SMILES C[C@@H]1CC(C)(C)C[C@@](CC(=O)Nc2cccc(C(F)(F)F)c2)(C(=O)NCCCCNC(=O)c2ccc(-c3c4nc(c(-c5c(F)c(F)c(F)c(F)c5F)c5ccc([nH]5)c(-c5c(F)c(F)c(F)c(F)c5F)c5nc(c(-c6c(F)c(F)c(F)c(F)c6F)c6ccc3[nH]6)C=C5)C=C4)cc2)C1
REMARK SMILES IDX 26 1 25 2 23 3 24 4 8 6 1 7 2 8 3 9 96 10 4 11 5 12 6 13
REMARK SMILES IDX 7 14 9 15 10 16 11 17 12 18 13 20 14 21 22 22 15 23 17 24
REMARK SMILES IDX 16 25 18 26 19 27 20 28 21 29 27 30 28 31 29 32 30 33 31 34
REMARK SMILES IDX 32 36 33 37 34 38 95 39 35 40 94 41 36 42 37 43 38 44 88 45
REMARK SMILES IDX 39 46 93 47 87 48 89 49 40 50 92 51 86 52 85 53 41 55 73 56
REMARK SMILES IDX 53 57 72 58 54 59 57 60 71 61 90 62 55 63 56 64 70 66 91 67
REMARK SMILES IDX 58 68 42 69 43 70 51 71 44 72 45 73 49 74 52 75 46 76 47 77
REMARK SMILES IDX 50 78 48 79 74 80 75 81 83 82 76 83 77 84 81 85 84 86 78 87
REMARK SMILES IDX 79 88 82 89 80 90 59 91 60 92 68 93 61 94 62 95 66 96 69 97
REMARK SMILES IDX 63 98 64 99 67 100 65 101
REMARK H PARENT 25 5 12 19 30 35 89 54 57 65
REMARK Flexibility Score: inf
ROOT
ATOM      1  C   UNL A   1      36.412  21.441  25.495  1.00  0.00     0.116 C 
ENDROOT
BRANCH   1   2
ATOM      2  N   UNL A   1      35.460  21.457  26.610  1.00  0.00    -0.356 N 
ATOM      3  C   UNL A   1      34.249  22.077  26.824  1.00  0.00     0.226 C 
ATOM      4  O   UNL A   1      33.718  21.827  27.910  1.00  0.00    -0.274 OA
ATOM      5  H   UNL A   1      35.749  20.904  27.372  1.00  0.00     0.163 HD
BRANCH   3   6
ATOM      6  C   UNL A   1      33.549  23.033  25.774  1.00  0.00     0.059 C 
ATOM      7  C   UNL A   1      33.393  25.699  23.645  1.00  0.00     0.008 C 
ATOM      8  C   UNL A   1      34.203  24.410  23.586  1.00  0.00    -0.013 C 
ATOM      9  C   UNL A   1      33.567  23.374  22.687  1.00  0.00     0.009 C 
ATOM     10  C   UNL A   1      34.614  23.743  24.902  1.00  0.00     0.020 C 
ATOM     11  C   UNL A   1      32.459  22.520  23.339  1.00  0.00    -0.034 C 
ATOM     12  C   UNL A   1      31.100  23.236  23.323  1.00  0.00     0.011 C 
ATOM     13  C   UNL A   1      32.328  21.283  22.410  1.00  0.00     0.011 C 
ATOM     14  C   UNL A   1      32.781  22.061  24.802  1.00  0.00     0.024 C 
BRANCH   6  15
ATOM     15  C   UNL A   1      32.734  23.982  26.688  1.00  0.00     0.117 C 
BRANCH  15  16
ATOM     16  C   UNL A   1      31.242  24.100  26.862  1.00  0.00     0.225 C 
ATOM     17  O   UNL A   1      30.666  23.165  27.445  1.00  0.00    -0.275 OA
ATOM     18  N   UNL A   1      30.435  25.142  26.563  1.00  0.00    -0.326 N 
ATOM     19  H   UNL A   1      29.556  25.014  26.988  1.00  0.00     0.169 HD
BRANCH  18  20
ATOM     20  C   UNL A   1      30.440  26.353  25.843  1.00  0.00     0.041 A 
ATOM     21  C   UNL A   1      29.710  26.296  24.641  1.00  0.00     0.026 A 
ATOM     22  C   UNL A   1      31.176  27.506  26.108  1.00  0.00     0.039 A 
ATOM     23  C   UNL A   1      29.820  27.284  23.665  1.00  0.00     0.003 A 
ATOM     24  C   UNL A   1      31.389  28.461  25.079  1.00  0.00     0.058 A 
ATOM     25  C   UNL A   1      30.686  28.346  23.870  1.00  0.00     0.013 A 
BRANCH  24  26
ATOM     26  C   UNL A   1      32.428  29.556  25.214  1.00  0.00     0.416 C 
ATOM     27  F   UNL A   1      33.294  29.331  26.248  1.00  0.00    -0.166 F 
ATOM     28  F   UNL A   1      33.203  29.688  24.106  1.00  0.00    -0.166 F 
ATOM     29  F   UNL A   1      31.889  30.777  25.462  1.00  0.00    -0.166 F 
ENDBRANCH  24  26
ENDBRANCH  18  20
ENDBRANCH  15  16
ENDBRANCH   6  15
ENDBRANCH   3   6
ENDBRANCH   1   2
BRANCH   1  30
ATOM     30  C   UNL A   1      36.538  20.075  24.798  1.00  0.00     0.023 C 
BRANCH  30  31
ATOM     31  C   UNL A   1      37.944  19.456  24.737  1.00  0.00     0.023 C 
BRANCH  31  32
ATOM     32  C   UNL A   1      38.985  19.972  25.735  1.00  0.00     0.116 C 
BRANCH  32  33
ATOM     33  N   UNL A   1      40.141  19.101  25.880  1.00  0.00    -0.352 N 
ATOM     34  C   UNL A   1      41.458  19.373  26.183  1.00  0.00     0.251 C 
ATOM     35  H   UNL A   1      39.948  18.146  25.736  1.00  0.00     0.163 HD
ATOM     36  O   UNL A   1      42.274  18.459  26.149  1.00  0.00    -0.269 OA
BRANCH  34  37
ATOM     37  C   UNL A   1      41.925  20.743  26.523  1.00  0.00     0.039 A 
ATOM     38  C   UNL A   1      42.082  21.667  25.482  1.00  0.00     0.014 A 
ATOM     39  C   UNL A   1      42.273  21.116  27.822  1.00  0.00     0.014 A 
ATOM     40  C   UNL A   1      42.518  22.969  25.750  1.00  0.00     0.010 A 
ATOM     41  C   UNL A   1      42.638  22.438  28.101  1.00  0.00     0.010 A 
ATOM     42  C   UNL A   1      42.769  23.381  27.069  1.00  0.00    -0.014 A 
BRANCH  42  43
ATOM     43  C   UNL A   1      43.162  24.786  27.370  1.00  0.00     0.031 A 
ATOM     44  C   UNL A   1      44.567  25.266  27.124  1.00  0.00     0.074 A 
ATOM     45  C   UNL A   1      42.261  25.629  27.913  1.00  0.00     0.049 A 
ATOM     46  N   UNL A   1      45.093  26.447  27.343  1.00  0.00    -0.248 NA
ATOM     47  C   UNL A   1      45.515  24.281  26.586  1.00  0.00     0.031 C 
ATOM     48  C   UNL A   1      40.884  25.281  28.261  1.00  0.00     0.029 A 
ATOM     49  N   UNL A   1      42.371  26.950  28.277  1.00  0.00    -0.354 N 
ATOM     50  C   UNL A   1      46.429  26.343  26.979  1.00  0.00     0.074 A 
ATOM     51  C   UNL A   1      46.649  24.967  26.586  1.00  0.00     0.031 C 
ATOM     52  C   UNL A   1      40.271  26.360  28.771  1.00  0.00     0.029 A 
ATOM     53  C   UNL A   1      41.219  27.470  28.816  1.00  0.00     0.049 A 
ATOM     54  H   UNL A   1      43.197  27.473  28.164  1.00  0.00     0.167 HD
ATOM     55  C   UNL A   1      47.382  27.308  26.949  1.00  0.00     0.037 A 
ATOM     56  C   UNL A   1      40.953  28.700  29.298  1.00  0.00     0.037 A 
ATOM     57  C   UNL A   1      47.162  28.680  27.332  1.00  0.00     0.049 A 
ATOM     58  C   UNL A   1      42.022  29.759  29.248  1.00  0.00     0.074 A 
ATOM     59  C   UNL A   1      48.046  29.744  27.283  1.00  0.00     0.029 A 
ATOM     60  N   UNL A   1      45.972  29.176  27.846  1.00  0.00    -0.354 N 
ATOM     61  N   UNL A   1      43.258  29.669  28.823  1.00  0.00    -0.248 NA
ATOM     62  C   UNL A   1      41.651  31.097  29.730  1.00  0.00     0.031 C 
ATOM     63  C   UNL A   1      47.410  30.870  27.818  1.00  0.00     0.029 A 
ATOM     64  C   UNL A   1      46.107  30.526  28.141  1.00  0.00     0.049 A 
ATOM     65  H   UNL A   1      45.152  28.648  27.981  1.00  0.00     0.167 HD
ATOM     66  C   UNL A   1      43.805  30.938  28.961  1.00  0.00     0.074 A 
ATOM     67  C   UNL A   1      42.757  31.786  29.491  1.00  0.00     0.031 C 
ATOM     68  C   UNL A   1      45.060  31.361  28.674  1.00  0.00     0.037 A 
BRANCH  55  69
ATOM     69  C   UNL A   1      48.757  26.907  26.488  1.00  0.00     0.064 A 
ATOM     70  C   UNL A   1      49.152  27.031  25.146  1.00  0.00     0.173 A 
ATOM     71  C   UNL A   1      49.698  26.404  27.400  1.00  0.00     0.173 A 
ATOM     72  F   UNL A   1      48.291  27.499  24.229  1.00  0.00    -0.203 F 
ATOM     73  C   UNL A   1      50.416  26.622  24.727  1.00  0.00     0.198 A 
ATOM     74  C   UNL A   1      50.974  26.030  26.984  1.00  0.00     0.198 A 
ATOM     75  F   UNL A   1      49.382  26.273  28.696  1.00  0.00    -0.203 F 
ATOM     76  F   UNL A   1      50.743  26.686  23.429  1.00  0.00    -0.200 F 
ATOM     77  C   UNL A   1      51.327  26.127  25.647  1.00  0.00     0.200 A 
ATOM     78  F   UNL A   1      51.860  25.568  27.878  1.00  0.00    -0.200 F 
ATOM     79  F   UNL A   1      52.543  25.733  25.243  1.00  0.00    -0.200 F 
ENDBRANCH  55  69
BRANCH  56  80
ATOM     80  C   UNL A   1      39.604  28.999  29.847  1.00  0.00     0.064 A 
ATOM     81  C   UNL A   1      38.598  29.550  29.042  1.00  0.00     0.173 A 
ATOM     82  C   UNL A   1      39.291  28.730  31.188  1.00  0.00     0.173 A 
ATOM     83  F   UNL A   1      38.854  29.846  27.759  1.00  0.00    -0.203 F 
ATOM     84  C   UNL A   1      37.336  29.835  29.561  1.00  0.00     0.198 A 
ATOM     85  C   UNL A   1      38.020  28.986  31.697  1.00  0.00     0.198 A 
ATOM     86  F   UNL A   1      40.217  28.197  32.000  1.00  0.00    -0.203 F 
ATOM     87  F   UNL A   1      36.406  30.401  28.780  1.00  0.00    -0.200 F 
ATOM     88  C   UNL A   1      37.046  29.545  30.885  1.00  0.00     0.200 A 
ATOM     89  F   UNL A   1      37.738  28.688  32.973  1.00  0.00    -0.200 F 
ATOM     90  F   UNL A   1      35.829  29.809  31.380  1.00  0.00    -0.200 F 
ENDBRANCH  56  80
BRANCH  68  91
ATOM     91  C   UNL A   1      45.364  32.817  28.897  1.00  0.00     0.064 A 
ATOM     92  C   UNL A   1      45.903  33.286  30.105  1.00  0.00     0.173 A 
ATOM     93  C   UNL A   1      45.129  33.755  27.879  1.00  0.00     0.173 A 
ATOM     94  F   UNL A   1      46.134  32.435  31.117  1.00  0.00    -0.203 F 
ATOM     95  C   UNL A   1      46.159  34.641  30.298  1.00  0.00     0.198 A 
ATOM     96  C   UNL A   1      45.419  35.104  28.063  1.00  0.00     0.198 A 
ATOM     97  F   UNL A   1      44.622  33.362  26.701  1.00  0.00    -0.203 F 
ATOM     98  F   UNL A   1      46.615  35.073  31.482  1.00  0.00    -0.200 F 
ATOM     99  C   UNL A   1      45.923  35.548  29.276  1.00  0.00     0.200 A 
ATOM    100  F   UNL A   1      45.206  35.976  27.068  1.00  0.00    -0.200 F 
ATOM    101  F   UNL A   1      46.172  36.851  29.463  1.00  0.00    -0.200 F 
ENDBRANCH  68  91
ENDBRANCH  42  43
ENDBRANCH  34  37
ENDBRANCH  32  33
ENDBRANCH  31  32
ENDBRANCH  30  31
ENDBRANCH   1  30
TORSDOF 15
ENDMDL
