MODEL 1
REMARK VINA RESULT:     -10.7      0.000      0.000
REMARK SMILES O=C(Cc1c(F)cc(Cl)cc1F)NCCCCNC(=O)c1ccc(-c2c3nc(c(-c4c(F)c(F)c(F)c(F)c4F)c4ccc([nH]4)c(-c4c(F)c(F)c(F)c(F)c4F)c4nc(c(-c5c(F)c(F)c(F)c(F)c5F)c5ccc2[nH]5)C=C4)C=C3)cc1
REMARK SMILES IDX 16 1 15 2 14 3 13 4 1 5 2 6 3 8 4 9 5 10 11 11 6 12 7 13
REMARK SMILES IDX 10 14 12 15 8 16 9 17 17 18 18 19 19 20 20 22 21 23 22 24
REMARK SMILES IDX 83 25 23 26 82 27 24 28 25 29 26 30 76 31 27 32 81 33 75 34
REMARK SMILES IDX 77 35 28 36 80 37 74 38 73 39 29 41 61 42 41 43 60 44 42 45
REMARK SMILES IDX 45 46 59 47 78 48 43 49 44 50 58 52 79 53 46 54 30 55 31 56
REMARK SMILES IDX 39 57 32 58 33 59 37 60 40 61 34 62 35 63 38 64 36 65 62 66
REMARK SMILES IDX 63 67 71 68 64 69 65 70 69 71 72 72 66 73 67 74 70 75 68 76
REMARK SMILES IDX 47 77 48 78 56 79 49 80 50 81 54 82 57 83 51 84 52 85 55 86
REMARK SMILES IDX 53 87
REMARK H PARENT 13 7 18 21 77 40 45 51
REMARK Flexibility Score: inf
ROOT
ATOM      1  C   UNL A   1      33.407  33.783  28.173  1.00  0.00     0.023 C 
ENDROOT
BRANCH   1   2
ATOM      2  C   UNL A   1      33.928  35.117  28.713  1.00  0.00     0.023 C 
BRANCH   2   3
ATOM      3  C   UNL A   1      33.348  35.548  30.057  1.00  0.00     0.116 C 
BRANCH   3   4
ATOM      4  N   UNL A   1      33.552  34.558  31.095  1.00  0.00    -0.356 N 
ATOM      5  O   UNL A   1      34.716  35.954  32.508  1.00  0.00    -0.275 OA
ATOM      6  C   UNL A   1      34.170  34.877  32.289  1.00  0.00     0.224 C 
ATOM      7  H   UNL A   1      33.241  33.636  30.947  1.00  0.00     0.163 HD
BRANCH   6   8
ATOM      8  C   UNL A   1      34.130  33.767  33.319  1.00  0.00     0.141 C 
BRANCH   8   9
ATOM      9  C   UNL A   1      35.429  33.041  33.587  1.00  0.00     0.033 A 
ATOM     10  C   UNL A   1      36.271  33.269  34.679  1.00  0.00     0.131 A 
ATOM     11  C   UNL A   1      35.814  32.040  32.687  1.00  0.00     0.131 A 
ATOM     12  F   UNL A   1      35.977  34.197  35.597  1.00  0.00    -0.207 F 
ATOM     13  C   UNL A   1      37.436  32.531  34.874  1.00  0.00     0.060 A 
ATOM     14  C   UNL A   1      36.977  31.294  32.859  1.00  0.00     0.060 A 
ATOM     15  F   UNL A   1      35.038  31.774  31.626  1.00  0.00    -0.207 F 
ATOM     16  C   UNL A   1      37.785  31.543  33.961  1.00  0.00     0.046 A 
ATOM     17  Cl  UNL A   1      39.215  30.621  34.205  1.00  0.00    -0.084 Cl
ENDBRANCH   8   9
ENDBRANCH   6   8
ENDBRANCH   3   4
ENDBRANCH   2   3
ENDBRANCH   1   2
BRANCH   1  18
ATOM     18  C   UNL A   1      34.399  32.625  28.230  1.00  0.00     0.116 C 
BRANCH  18  19
ATOM     19  N   UNL A   1      33.795  31.351  27.874  1.00  0.00    -0.352 N 
ATOM     20  C   UNL A   1      34.371  30.111  27.743  1.00  0.00     0.251 C 
ATOM     21  H   UNL A   1      32.825  31.382  27.701  1.00  0.00     0.163 HD
ATOM     22  O   UNL A   1      33.724  29.178  27.273  1.00  0.00    -0.269 OA
BRANCH  20  23
ATOM     23  C   UNL A   1      35.779  29.894  28.141  1.00  0.00     0.039 A 
ATOM     24  C   UNL A   1      36.051  29.458  29.441  1.00  0.00     0.014 A 
ATOM     25  C   UNL A   1      36.828  30.127  27.249  1.00  0.00     0.014 A 
ATOM     26  C   UNL A   1      37.369  29.191  29.821  1.00  0.00     0.010 A 
ATOM     27  C   UNL A   1      38.130  29.787  27.603  1.00  0.00     0.010 A 
ATOM     28  C   UNL A   1      38.415  29.317  28.894  1.00  0.00    -0.014 A 
BRANCH  28  29
ATOM     29  C   UNL A   1      39.813  28.971  29.262  1.00  0.00     0.031 A 
ATOM     30  C   UNL A   1      40.615  29.891  30.139  1.00  0.00     0.074 A 
ATOM     31  C   UNL A   1      40.373  27.847  28.776  1.00  0.00     0.049 A 
ATOM     32  N   UNL A   1      41.857  29.779  30.538  1.00  0.00    -0.248 NA
ATOM     33  C   UNL A   1      39.939  31.108  30.615  1.00  0.00     0.031 C 
ATOM     34  C   UNL A   1      39.710  26.889  27.892  1.00  0.00     0.029 A 
ATOM     35  N   UNL A   1      41.629  27.320  28.955  1.00  0.00    -0.354 N 
ATOM     36  C   UNL A   1      42.107  30.906  31.310  1.00  0.00     0.074 A 
ATOM     37  C   UNL A   1      40.914  31.722  31.268  1.00  0.00     0.031 C 
ATOM     38  C   UNL A   1      40.548  25.873  27.636  1.00  0.00     0.029 A 
ATOM     39  C   UNL A   1      41.823  26.128  28.300  1.00  0.00     0.049 A 
ATOM     40  H   UNL A   1      42.322  27.755  29.501  1.00  0.00     0.167 HD
ATOM     41  C   UNL A   1      43.221  31.217  32.016  1.00  0.00     0.037 A 
ATOM     42  C   UNL A   1      42.908  25.329  28.242  1.00  0.00     0.037 A 
ATOM     43  C   UNL A   1      44.403  30.396  32.065  1.00  0.00     0.049 A 
ATOM     44  C   UNL A   1      44.150  25.719  28.996  1.00  0.00     0.074 A 
ATOM     45  C   UNL A   1      45.568  30.607  32.780  1.00  0.00     0.029 A 
ATOM     46  N   UNL A   1      44.572  29.208  31.368  1.00  0.00    -0.354 N 
ATOM     47  N   UNL A   1      44.358  26.760  29.765  1.00  0.00    -0.248 NA
ATOM     48  C   UNL A   1      45.309  24.822  28.876  1.00  0.00     0.031 C 
ATOM     49  C   UNL A   1      46.462  29.578  32.474  1.00  0.00     0.029 A 
ATOM     50  C   UNL A   1      45.833  28.690  31.614  1.00  0.00     0.049 A 
ATOM     51  H   UNL A   1      43.894  28.793  30.786  1.00  0.00     0.167 HD
ATOM     52  C   UNL A   1      45.658  26.635  30.237  1.00  0.00     0.074 A 
ATOM     53  C   UNL A   1      46.186  25.406  29.682  1.00  0.00     0.031 C 
ATOM     54  C   UNL A   1      46.349  27.465  31.056  1.00  0.00     0.037 A 
BRANCH  41  55
ATOM     55  C   UNL A   1      43.211  32.494  32.805  1.00  0.00     0.064 A 
ATOM     56  C   UNL A   1      43.573  33.718  32.221  1.00  0.00     0.173 A 
ATOM     57  C   UNL A   1      42.787  32.506  34.142  1.00  0.00     0.173 A 
ATOM     58  F   UNL A   1      43.996  33.761  30.948  1.00  0.00    -0.203 F 
ATOM     59  C   UNL A   1      43.535  34.902  32.954  1.00  0.00     0.198 A 
ATOM     60  C   UNL A   1      42.717  33.697  34.861  1.00  0.00     0.198 A 
ATOM     61  F   UNL A   1      42.424  31.365  34.747  1.00  0.00    -0.203 F 
ATOM     62  F   UNL A   1      43.930  36.050  32.388  1.00  0.00    -0.200 F 
ATOM     63  C   UNL A   1      43.098  34.892  34.270  1.00  0.00     0.200 A 
ATOM     64  F   UNL A   1      42.280  33.688  36.128  1.00  0.00    -0.200 F 
ATOM     65  F   UNL A   1      43.049  36.033  34.970  1.00  0.00    -0.200 F 
ENDBRANCH  41  55
BRANCH  42  66
ATOM     66  C   UNL A   1      42.843  24.060  27.471  1.00  0.00     0.064 A 
ATOM     67  C   UNL A   1      43.219  24.022  26.121  1.00  0.00     0.173 A 
ATOM     68  C   UNL A   1      42.439  22.858  28.069  1.00  0.00     0.173 A 
ATOM     69  F   UNL A   1      43.593  25.150  25.499  1.00  0.00    -0.203 F 
ATOM     70  C   UNL A   1      43.192  22.831  25.399  1.00  0.00     0.198 A 
ATOM     71  C   UNL A   1      42.438  21.662  27.352  1.00  0.00     0.198 A 
ATOM     72  F   UNL A   1      42.071  22.838  29.358  1.00  0.00    -0.203 F 
ATOM     73  F   UNL A   1      43.530  22.829  24.102  1.00  0.00    -0.200 F 
ATOM     74  C   UNL A   1      42.811  21.651  26.017  1.00  0.00     0.200 A 
ATOM     75  F   UNL A   1      42.086  20.520  27.960  1.00  0.00    -0.200 F 
ATOM     76  F   UNL A   1      42.803  20.503  25.327  1.00  0.00    -0.200 F 
ENDBRANCH  42  66
BRANCH  54  77
ATOM     77  C   UNL A   1      47.753  27.078  31.421  1.00  0.00     0.064 A 
ATOM     78  C   UNL A   1      48.017  26.160  32.449  1.00  0.00     0.173 A 
ATOM     79  C   UNL A   1      48.842  27.566  30.681  1.00  0.00     0.173 A 
ATOM     80  F   UNL A   1      47.013  25.674  33.194  1.00  0.00    -0.203 F 
ATOM     81  C   UNL A   1      49.319  25.754  32.729  1.00  0.00     0.198 A 
ATOM     82  C   UNL A   1      50.138  27.132  30.943  1.00  0.00     0.198 A 
ATOM     83  F   UNL A   1      48.644  28.439  29.682  1.00  0.00    -0.203 F 
ATOM     84  F   UNL A   1      49.551  24.901  33.736  1.00  0.00    -0.200 F 
ATOM     85  C   UNL A   1      50.377  26.230  31.968  1.00  0.00     0.200 A 
ATOM     86  F   UNL A   1      51.157  27.580  30.195  1.00  0.00    -0.200 F 
ATOM     87  F   UNL A   1      51.627  25.822  32.226  1.00  0.00    -0.200 F 
ENDBRANCH  54  77
ENDBRANCH  28  29
ENDBRANCH  20  23
ENDBRANCH  18  19
ENDBRANCH   1  18
TORSDOF 12
ENDMDL
MODEL 2
REMARK VINA RESULT:     -10.7      0.275      1.500
REMARK SMILES O=C(Cc1c(F)cc(Cl)cc1F)NCCCCNC(=O)c1ccc(-c2c3nc(c(-c4c(F)c(F)c(F)c(F)c4F)c4ccc([nH]4)c(-c4c(F)c(F)c(F)c(F)c4F)c4nc(c(-c5c(F)c(F)c(F)c(F)c5F)c5ccc2[nH]5)C=C4)C=C3)cc1
REMARK SMILES IDX 16 1 15 2 14 3 13 4 1 5 2 6 3 8 4 9 5 10 11 11 6 12 7 13
REMARK SMILES IDX 10 14 12 15 8 16 9 17 17 18 18 19 19 20 20 22 21 23 22 24
REMARK SMILES IDX 83 25 23 26 82 27 24 28 25 29 26 30 76 31 27 32 81 33 75 34
REMARK SMILES IDX 77 35 28 36 80 37 74 38 73 39 29 41 61 42 41 43 60 44 42 45
REMARK SMILES IDX 45 46 59 47 78 48 43 49 44 50 58 52 79 53 46 54 30 55 31 56
REMARK SMILES IDX 39 57 32 58 33 59 37 60 40 61 34 62 35 63 38 64 36 65 62 66
REMARK SMILES IDX 63 67 71 68 64 69 65 70 69 71 72 72 66 73 67 74 70 75 68 76
REMARK SMILES IDX 47 77 48 78 56 79 49 80 50 81 54 82 57 83 51 84 52 85 55 86
REMARK SMILES IDX 53 87
REMARK H PARENT 13 7 18 21 77 40 45 51
REMARK Flexibility Score: inf
ROOT
ATOM      1  C   UNL A   1      33.548  33.753  28.001  1.00  0.00     0.023 C 
ENDROOT
BRANCH   1   2
ATOM      2  C   UNL A   1      34.016  35.081  28.601  1.00  0.00     0.023 C 
BRANCH   2   3
ATOM      3  C   UNL A   1      33.328  35.487  29.901  1.00  0.00     0.116 C 
BRANCH   3   4
ATOM      4  N   UNL A   1      33.555  34.539  30.972  1.00  0.00    -0.356 N 
ATOM      5  O   UNL A   1      34.420  36.075  32.452  1.00  0.00    -0.275 OA
ATOM      6  C   UNL A   1      34.025  34.939  32.207  1.00  0.00     0.224 C 
ATOM      7  H   UNL A   1      33.368  33.585  30.816  1.00  0.00     0.163 HD
BRANCH   6   8
ATOM      8  C   UNL A   1      34.025  33.843  33.253  1.00  0.00     0.141 C 
BRANCH   8   9
ATOM      9  C   UNL A   1      35.318  33.083  33.440  1.00  0.00     0.033 A 
ATOM     10  C   UNL A   1      35.815  32.109  32.571  1.00  0.00     0.131 A 
ATOM     11  C   UNL A   1      36.101  33.393  34.559  1.00  0.00     0.131 A 
ATOM     12  F   UNL A   1      35.141  31.757  31.469  1.00  0.00    -0.207 F 
ATOM     13  C   UNL A   1      37.036  31.477  32.796  1.00  0.00     0.060 A 
ATOM     14  C   UNL A   1      37.322  32.771  34.808  1.00  0.00     0.060 A 
ATOM     15  F   UNL A   1      35.676  34.329  35.422  1.00  0.00    -0.207 F 
ATOM     16  C   UNL A   1      37.786  31.813  33.916  1.00  0.00     0.046 A 
ATOM     17  Cl  UNL A   1      39.300  31.046  34.191  1.00  0.00    -0.084 Cl
ENDBRANCH   8   9
ENDBRANCH   6   8
ENDBRANCH   3   4
ENDBRANCH   2   3
ENDBRANCH   1   2
BRANCH   1  18
ATOM     18  C   UNL A   1      34.464  32.561  28.262  1.00  0.00     0.116 C 
BRANCH  18  19
ATOM     19  N   UNL A   1      33.830  31.288  27.954  1.00  0.00    -0.352 N 
ATOM     20  C   UNL A   1      34.382  30.036  27.841  1.00  0.00     0.251 C 
ATOM     21  H   UNL A   1      32.857  31.332  27.805  1.00  0.00     0.163 HD
ATOM     22  O   UNL A   1      33.708  29.103  27.411  1.00  0.00    -0.269 OA
BRANCH  20  23
ATOM     23  C   UNL A   1      35.796  29.804  28.210  1.00  0.00     0.039 A 
ATOM     24  C   UNL A   1      36.088  29.331  29.492  1.00  0.00     0.014 A 
ATOM     25  C   UNL A   1      36.830  30.062  27.307  1.00  0.00     0.014 A 
ATOM     26  C   UNL A   1      37.411  29.051  29.842  1.00  0.00     0.010 A 
ATOM     27  C   UNL A   1      38.138  29.709  27.630  1.00  0.00     0.010 A 
ATOM     28  C   UNL A   1      38.443  29.202  28.902  1.00  0.00    -0.014 A 
BRANCH  28  29
ATOM     29  C   UNL A   1      39.845  28.842  29.237  1.00  0.00     0.031 A 
ATOM     30  C   UNL A   1      40.684  29.765  30.077  1.00  0.00     0.074 A 
ATOM     31  C   UNL A   1      40.376  27.703  28.755  1.00  0.00     0.049 A 
ATOM     32  N   UNL A   1      41.934  29.643  30.443  1.00  0.00    -0.248 NA
ATOM     33  C   UNL A   1      40.037  30.999  30.551  1.00  0.00     0.031 C 
ATOM     34  C   UNL A   1      39.676  26.740  27.906  1.00  0.00     0.029 A 
ATOM     35  N   UNL A   1      41.630  27.161  28.907  1.00  0.00    -0.354 N 
ATOM     36  C   UNL A   1      42.221  30.778  31.188  1.00  0.00     0.074 A 
ATOM     37  C   UNL A   1      41.038  31.610  31.166  1.00  0.00     0.031 C 
ATOM     38  C   UNL A   1      40.494  25.709  27.643  1.00  0.00     0.029 A 
ATOM     39  C   UNL A   1      41.790  25.956  28.268  1.00  0.00     0.049 A 
ATOM     40  H   UNL A   1      42.344  27.595  29.427  1.00  0.00     0.167 HD
ATOM     41  C   UNL A   1      43.359  31.085  31.858  1.00  0.00     0.037 A 
ATOM     42  C   UNL A   1      42.862  25.142  28.193  1.00  0.00     0.037 A 
ATOM     43  C   UNL A   1      44.530  30.249  31.889  1.00  0.00     0.049 A 
ATOM     44  C   UNL A   1      44.130  25.527  28.906  1.00  0.00     0.074 A 
ATOM     45  C   UNL A   1      45.717  30.456  32.567  1.00  0.00     0.029 A 
ATOM     46  N   UNL A   1      44.663  29.047  31.207  1.00  0.00    -0.354 N 
ATOM     47  N   UNL A   1      44.373  26.577  29.651  1.00  0.00    -0.248 NA
ATOM     48  C   UNL A   1      45.273  24.613  28.769  1.00  0.00     0.031 C 
ATOM     49  C   UNL A   1      46.588  29.410  32.254  1.00  0.00     0.029 A 
ATOM     50  C   UNL A   1      45.924  28.517  31.426  1.00  0.00     0.049 A 
ATOM     51  H   UNL A   1      43.965  28.633  30.650  1.00  0.00     0.167 HD
ATOM     52  C   UNL A   1      45.683  26.442  30.089  1.00  0.00     0.074 A 
ATOM     53  C   UNL A   1      46.180  25.197  29.540  1.00  0.00     0.031 C 
ATOM     54  C   UNL A   1      46.408  27.276  30.875  1.00  0.00     0.037 A 
BRANCH  41  55
ATOM     55  C   UNL A   1      43.388  32.375  32.626  1.00  0.00     0.064 A 
ATOM     56  C   UNL A   1      42.998  32.435  33.973  1.00  0.00     0.173 A 
ATOM     57  C   UNL A   1      43.859  33.553  32.028  1.00  0.00     0.173 A 
ATOM     58  F   UNL A   1      42.529  31.339  34.590  1.00  0.00    -0.203 F 
ATOM     59  C   UNL A   1      43.053  33.631  34.684  1.00  0.00     0.198 A 
ATOM     60  C   UNL A   1      43.945  34.740  32.752  1.00  0.00     0.198 A 
ATOM     61  F   UNL A   1      44.250  33.552  30.744  1.00  0.00    -0.203 F 
ATOM     62  F   UNL A   1      42.630  33.673  35.954  1.00  0.00    -0.200 F 
ATOM     63  C   UNL A   1      43.535  34.780  34.076  1.00  0.00     0.200 A 
ATOM     64  F   UNL A   1      44.426  35.847  32.167  1.00  0.00    -0.200 F 
ATOM     65  F   UNL A   1      43.601  35.928  34.764  1.00  0.00    -0.200 F 
ENDBRANCH  41  55
BRANCH  42  66
ATOM     66  C   UNL A   1      42.759  23.862  27.445  1.00  0.00     0.064 A 
ATOM     67  C   UNL A   1      43.142  23.786  26.099  1.00  0.00     0.173 A 
ATOM     68  C   UNL A   1      42.311  22.685  28.062  1.00  0.00     0.173 A 
ATOM     69  F   UNL A   1      43.557  24.889  25.458  1.00  0.00    -0.203 F 
ATOM     70  C   UNL A   1      43.079  22.583  25.399  1.00  0.00     0.198 A 
ATOM     71  C   UNL A   1      42.273  21.477  27.368  1.00  0.00     0.198 A 
ATOM     72  F   UNL A   1      41.935  22.702  29.350  1.00  0.00    -0.203 F 
ATOM     73  F   UNL A   1      43.424  22.545  24.104  1.00  0.00    -0.200 F 
ATOM     74  C   UNL A   1      42.654  21.428  26.036  1.00  0.00     0.200 A 
ATOM     75  F   UNL A   1      41.879  20.359  27.994  1.00  0.00    -0.200 F 
ATOM     76  F   UNL A   1      42.611  20.268  25.367  1.00  0.00    -0.200 F 
ENDBRANCH  42  66
BRANCH  54  77
ATOM     77  C   UNL A   1      47.817  26.875  31.207  1.00  0.00     0.064 A 
ATOM     78  C   UNL A   1      48.099  25.998  32.265  1.00  0.00     0.173 A 
ATOM     79  C   UNL A   1      48.887  27.308  30.409  1.00  0.00     0.173 A 
ATOM     80  F   UNL A   1      47.113  25.566  33.065  1.00  0.00    -0.203 F 
ATOM     81  C   UNL A   1      49.402  25.577  32.517  1.00  0.00     0.198 A 
ATOM     82  C   UNL A   1      50.184  26.859  30.644  1.00  0.00     0.198 A 
ATOM     83  F   UNL A   1      48.671  28.140  29.380  1.00  0.00    -0.203 F 
ATOM     84  F   UNL A   1      49.653  24.764  33.552  1.00  0.00    -0.200 F 
ATOM     85  C   UNL A   1      50.442  25.997  31.699  1.00  0.00     0.200 A 
ATOM     86  F   UNL A   1      51.183  27.252  29.842  1.00  0.00    -0.200 F 
ATOM     87  F   UNL A   1      51.691  25.574  31.931  1.00  0.00    -0.200 F 
ENDBRANCH  54  77
ENDBRANCH  28  29
ENDBRANCH  20  23
ENDBRANCH  18  19
ENDBRANCH   1  18
TORSDOF 12
ENDMDL
MODEL 3
REMARK VINA RESULT:     -10.7      3.732      9.721
REMARK SMILES O=C(Cc1c(F)cc(Cl)cc1F)NCCCCNC(=O)c1ccc(-c2c3nc(c(-c4c(F)c(F)c(F)c(F)c4F)c4ccc([nH]4)c(-c4c(F)c(F)c(F)c(F)c4F)c4nc(c(-c5c(F)c(F)c(F)c(F)c5F)c5ccc2[nH]5)C=C4)C=C3)cc1
REMARK SMILES IDX 16 1 15 2 14 3 13 4 1 5 2 6 3 8 4 9 5 10 11 11 6 12 7 13
REMARK SMILES IDX 10 14 12 15 8 16 9 17 17 18 18 19 19 20 20 22 21 23 22 24
REMARK SMILES IDX 83 25 23 26 82 27 24 28 25 29 26 30 76 31 27 32 81 33 75 34
REMARK SMILES IDX 77 35 28 36 80 37 74 38 73 39 29 41 61 42 41 43 60 44 42 45
REMARK SMILES IDX 45 46 59 47 78 48 43 49 44 50 58 52 79 53 46 54 30 55 31 56
REMARK SMILES IDX 39 57 32 58 33 59 37 60 40 61 34 62 35 63 38 64 36 65 62 66
REMARK SMILES IDX 63 67 71 68 64 69 65 70 69 71 72 72 66 73 67 74 70 75 68 76
REMARK SMILES IDX 47 77 48 78 56 79 49 80 50 81 54 82 57 83 51 84 52 85 55 86
REMARK SMILES IDX 53 87
REMARK H PARENT 13 7 18 21 77 40 45 51
REMARK Flexibility Score: inf
ROOT
ATOM      1  C   UNL A   1      35.877  23.972  25.714  1.00  0.00     0.023 C 
ENDROOT
BRANCH   1   2
ATOM      2  C   UNL A   1      35.235  22.770  26.412  1.00  0.00     0.023 C 
BRANCH   2   3
ATOM      3  C   UNL A   1      33.770  22.948  26.801  1.00  0.00     0.116 C 
BRANCH   3   4
ATOM      4  N   UNL A   1      33.149  24.073  26.134  1.00  0.00    -0.356 N 
ATOM      5  O   UNL A   1      31.183  23.982  27.327  1.00  0.00    -0.275 OA
ATOM      6  C   UNL A   1      31.909  24.547  26.515  1.00  0.00     0.224 C 
ATOM      7  H   UNL A   1      33.623  24.513  25.391  1.00  0.00     0.163 HD
BRANCH   6   8
ATOM      8  C   UNL A   1      31.504  25.837  25.832  1.00  0.00     0.141 C 
BRANCH   8   9
ATOM      9  C   UNL A   1      32.319  27.066  26.161  1.00  0.00     0.033 A 
ATOM     10  C   UNL A   1      33.526  27.421  25.554  1.00  0.00     0.131 A 
ATOM     11  C   UNL A   1      31.818  27.939  27.135  1.00  0.00     0.131 A 
ATOM     12  F   UNL A   1      34.075  26.653  24.605  1.00  0.00    -0.207 F 
ATOM     13  C   UNL A   1      34.201  28.592  25.890  1.00  0.00     0.060 A 
ATOM     14  C   UNL A   1      32.477  29.113  27.490  1.00  0.00     0.060 A 
ATOM     15  F   UNL A   1      30.657  27.652  27.743  1.00  0.00    -0.207 F 
ATOM     16  C   UNL A   1      33.671  29.436  26.859  1.00  0.00     0.046 A 
ATOM     17  Cl  UNL A   1      34.493  30.890  27.267  1.00  0.00    -0.084 Cl
ENDBRANCH   8   9
ENDBRANCH   6   8
ENDBRANCH   3   4
ENDBRANCH   2   3
ENDBRANCH   1   2
BRANCH   1  18
ATOM     18  C   UNL A   1      37.081  23.648  24.834  1.00  0.00     0.116 C 
BRANCH  18  19
ATOM     19  N   UNL A   1      37.958  22.651  25.427  1.00  0.00    -0.352 N 
ATOM     20  C   UNL A   1      39.058  22.815  26.232  1.00  0.00     0.251 C 
ATOM     21  H   UNL A   1      37.728  21.716  25.218  1.00  0.00     0.163 HD
ATOM     22  O   UNL A   1      39.772  21.853  26.502  1.00  0.00    -0.269 OA
BRANCH  20  23
ATOM     23  C   UNL A   1      39.407  24.153  26.759  1.00  0.00     0.039 A 
ATOM     24  C   UNL A   1      39.044  24.475  28.070  1.00  0.00     0.014 A 
ATOM     25  C   UNL A   1      40.075  25.090  25.968  1.00  0.00     0.014 A 
ATOM     26  C   UNL A   1      39.414  25.710  28.607  1.00  0.00     0.010 A 
ATOM     27  C   UNL A   1      40.511  26.288  26.529  1.00  0.00     0.010 A 
ATOM     28  C   UNL A   1      40.183  26.612  27.854  1.00  0.00    -0.014 A 
BRANCH  28  29
ATOM     29  C   UNL A   1      40.643  27.900  28.435  1.00  0.00     0.031 A 
ATOM     30  C   UNL A   1      42.099  28.116  28.739  1.00  0.00     0.074 A 
ATOM     31  C   UNL A   1      39.745  28.861  28.725  1.00  0.00     0.049 A 
ATOM     32  N   UNL A   1      42.686  29.154  29.279  1.00  0.00    -0.248 NA
ATOM     33  C   UNL A   1      43.015  27.012  28.411  1.00  0.00     0.031 C 
ATOM     34  C   UNL A   1      38.303  28.761  28.505  1.00  0.00     0.029 A 
ATOM     35  N   UNL A   1      39.912  30.112  29.268  1.00  0.00    -0.354 N 
ATOM     36  C   UNL A   1      44.033  28.829  29.353  1.00  0.00     0.074 A 
ATOM     37  C   UNL A   1      44.170  27.474  28.867  1.00  0.00     0.031 C 
ATOM     38  C   UNL A   1      37.721  29.912  28.874  1.00  0.00     0.029 A 
ATOM     39  C   UNL A   1      38.741  30.818  29.396  1.00  0.00     0.049 A 
ATOM     40  H   UNL A   1      40.789  30.468  29.539  1.00  0.00     0.167 HD
ATOM     41  C   UNL A   1      45.069  29.602  29.760  1.00  0.00     0.037 A 
ATOM     42  C   UNL A   1      38.514  32.055  29.879  1.00  0.00     0.037 A 
ATOM     43  C   UNL A   1      44.932  30.955  30.232  1.00  0.00     0.049 A 
ATOM     44  C   UNL A   1      39.674  32.878  30.370  1.00  0.00     0.074 A 
ATOM     45  C   UNL A   1      45.924  31.832  30.632  1.00  0.00     0.029 A 
ATOM     46  N   UNL A   1      43.725  31.627  30.371  1.00  0.00    -0.354 N 
ATOM     47  N   UNL A   1      40.951  32.580  30.386  1.00  0.00    -0.248 NA
ATOM     48  C   UNL A   1      39.364  34.210  30.909  1.00  0.00     0.031 C 
ATOM     49  C   UNL A   1      45.316  33.013  31.065  1.00  0.00     0.029 A 
ATOM     50  C   UNL A   1      43.947  32.897  30.878  1.00  0.00     0.049 A 
ATOM     51  H   UNL A   1      42.843  31.256  30.142  1.00  0.00     0.167 HD
ATOM     52  C   UNL A   1      41.597  33.690  30.914  1.00  0.00     0.074 A 
ATOM     53  C   UNL A   1      40.573  34.676  31.189  1.00  0.00     0.031 C 
ATOM     54  C   UNL A   1      42.920  33.872  31.148  1.00  0.00     0.037 A 
BRANCH  41  55
ATOM     55  C   UNL A   1      46.447  29.008  29.701  1.00  0.00     0.064 A 
ATOM     56  C   UNL A   1      46.993  28.314  30.793  1.00  0.00     0.173 A 
ATOM     57  C   UNL A   1      47.210  29.085  28.527  1.00  0.00     0.173 A 
ATOM     58  F   UNL A   1      46.309  28.220  31.943  1.00  0.00    -0.203 F 
ATOM     59  C   UNL A   1      48.261  27.744  30.719  1.00  0.00     0.198 A 
ATOM     60  C   UNL A   1      48.463  28.484  28.445  1.00  0.00     0.198 A 
ATOM     61  F   UNL A   1      46.734  29.731  27.451  1.00  0.00    -0.203 F 
ATOM     62  F   UNL A   1      48.779  27.128  31.789  1.00  0.00    -0.200 F 
ATOM     63  C   UNL A   1      48.991  27.820  29.543  1.00  0.00     0.200 A 
ATOM     64  F   UNL A   1      49.162  28.546  27.302  1.00  0.00    -0.200 F 
ATOM     65  F   UNL A   1      50.205  27.260  29.468  1.00  0.00    -0.200 F 
ENDBRANCH  41  55
BRANCH  42  66
ATOM     66  C   UNL A   1      37.131  32.600  29.880  1.00  0.00     0.064 A 
ATOM     67  C   UNL A   1      36.269  32.364  30.959  1.00  0.00     0.173 A 
ATOM     68  C   UNL A   1      36.653  33.391  28.825  1.00  0.00     0.173 A 
ATOM     69  F   UNL A   1      36.672  31.595  31.982  1.00  0.00    -0.203 F 
ATOM     70  C   UNL A   1      34.981  32.897  30.982  1.00  0.00     0.198 A 
ATOM     71  C   UNL A   1      35.375  33.945  28.862  1.00  0.00     0.198 A 
ATOM     72  F   UNL A   1      37.439  33.649  27.769  1.00  0.00    -0.203 F 
ATOM     73  F   UNL A   1      34.168  32.631  32.015  1.00  0.00    -0.200 F 
ATOM     74  C   UNL A   1      34.539  33.695  29.939  1.00  0.00     0.200 A 
ATOM     75  F   UNL A   1      34.959  34.731  27.859  1.00  0.00    -0.200 F 
ATOM     76  F   UNL A   1      33.308  34.222  29.971  1.00  0.00    -0.200 F 
ENDBRANCH  42  66
BRANCH  54  77
ATOM     77  C   UNL A   1      43.353  35.190  31.721  1.00  0.00     0.064 A 
ATOM     78  C   UNL A   1      43.747  36.255  30.896  1.00  0.00     0.173 A 
ATOM     79  C   UNL A   1      43.295  35.419  33.105  1.00  0.00     0.173 A 
ATOM     80  F   UNL A   1      43.831  36.084  29.569  1.00  0.00    -0.203 F 
ATOM     81  C   UNL A   1      44.076  37.495  31.437  1.00  0.00     0.198 A 
ATOM     82  C   UNL A   1      43.593  36.670  33.638  1.00  0.00     0.198 A 
ATOM     83  F   UNL A   1      42.916  34.438  33.938  1.00  0.00    -0.203 F 
ATOM     84  F   UNL A   1      44.481  38.488  30.633  1.00  0.00    -0.200 F 
ATOM     85  C   UNL A   1      43.987  37.706  32.805  1.00  0.00     0.200 A 
ATOM     86  F   UNL A   1      43.489  36.876  34.959  1.00  0.00    -0.200 F 
ATOM     87  F   UNL A   1      44.284  38.906  33.321  1.00  0.00    -0.200 F 
ENDBRANCH  54  77
ENDBRANCH  28  29
ENDBRANCH  20  23
ENDBRANCH  18  19
ENDBRANCH   1  18
TORSDOF 12
ENDMDL
