MODEL 1
REMARK VINA RESULT:     -11.0      0.000      0.000
REMARK SMILES O=C(NCCCCNC(=O)C1CC2(CCCC2)C1)c1ccc(-c2c3nc(c(-c4c(F)c(F)c(F)c(F)c4F)c4ccc([nH]4)c(-c4c(F)c(F)c(F)c(F)c4F)c4nc(c(-c5c(F)c(F)c(F)c(F)c5F)c5ccc2[nH]5)C=C4)C=C3)cc1
REMARK SMILES IDX 4 1 3 2 1 3 2 4 19 6 20 7 81 8 21 9 80 10 22 11 23 12 24 13
REMARK SMILES IDX 74 14 25 15 79 16 73 17 75 18 26 19 78 20 72 21 71 22 27 24
REMARK SMILES IDX 59 25 39 26 58 27 40 28 43 29 57 30 76 31 41 32 42 33 56 35
REMARK SMILES IDX 77 36 44 37 28 38 29 39 37 40 30 41 31 42 35 43 38 44 32 45
REMARK SMILES IDX 33 46 36 47 34 48 60 49 61 50 69 51 62 52 63 53 67 54 70 55
REMARK SMILES IDX 64 56 65 57 68 58 66 59 45 60 46 61 54 62 47 63 48 64 52 65
REMARK SMILES IDX 55 66 49 67 50 68 53 69 51 70 5 71 6 72 7 73 8 74 9 75 10 77
REMARK SMILES IDX 11 78 12 79 18 80 13 81 14 82 17 83 15 84 16 85
REMARK H PARENT 3 5 75 23 43 34 8 76
REMARK Flexibility Score: inf
ROOT
ATOM      1  C   UNL A   1      41.006  21.931  26.277  1.00  0.00     0.116 C 
ENDROOT
BRANCH   1   2
ATOM      2  N   UNL A   1      39.660  22.162  25.775  1.00  0.00    -0.352 N 
ATOM      3  O   UNL A   1      37.613  23.130  25.814  1.00  0.00    -0.269 OA
ATOM      4  C   UNL A   1      38.808  23.190  26.090  1.00  0.00     0.251 C 
ATOM      5  H   UNL A   1      39.319  21.500  25.130  1.00  0.00     0.163 HD
BRANCH   4   6
ATOM      6  C   UNL A   1      39.362  24.369  26.777  1.00  0.00     0.039 A 
ATOM      7  C   UNL A   1      39.131  24.533  28.145  1.00  0.00     0.014 A 
ATOM      8  C   UNL A   1      40.070  25.327  26.051  1.00  0.00     0.014 A 
ATOM      9  C   UNL A   1      39.483  25.725  28.758  1.00  0.00     0.010 A 
ATOM     10  C   UNL A   1      40.517  26.481  26.698  1.00  0.00     0.010 A 
ATOM     11  C   UNL A   1      40.208  26.698  28.050  1.00  0.00    -0.014 A 
BRANCH  11  12
ATOM     12  C   UNL A   1      40.710  27.887  28.779  1.00  0.00     0.031 A 
ATOM     13  C   UNL A   1      42.149  28.010  29.184  1.00  0.00     0.074 A 
ATOM     14  C   UNL A   1      39.835  28.874  29.055  1.00  0.00     0.049 A 
ATOM     15  N   UNL A   1      42.742  28.982  29.830  1.00  0.00    -0.248 NA
ATOM     16  C   UNL A   1      43.041  26.896  28.827  1.00  0.00     0.031 C 
ATOM     17  C   UNL A   1      38.409  28.852  28.715  1.00  0.00     0.029 A 
ATOM     18  N   UNL A   1      40.011  30.087  29.667  1.00  0.00    -0.354 N 
ATOM     19  C   UNL A   1      44.065  28.593  29.976  1.00  0.00     0.074 A 
ATOM     20  C   UNL A   1      44.187  27.282  29.372  1.00  0.00     0.031 C 
ATOM     21  C   UNL A   1      37.852  30.013  29.077  1.00  0.00     0.029 A 
ATOM     22  C   UNL A   1      38.858  30.829  29.745  1.00  0.00     0.049 A 
ATOM     23  H   UNL A   1      40.877  30.396  30.016  1.00  0.00     0.167 HD
ATOM     24  C   UNL A   1      45.084  29.275  30.556  1.00  0.00     0.037 A 
ATOM     25  C   UNL A   1      38.627  32.023  30.318  1.00  0.00     0.037 A 
ATOM     26  C   UNL A   1      44.947  30.584  31.145  1.00  0.00     0.049 A 
ATOM     27  C   UNL A   1      39.766  32.734  30.986  1.00  0.00     0.074 A 
ATOM     28  C   UNL A   1      45.924  31.376  31.725  1.00  0.00     0.029 A 
ATOM     29  N   UNL A   1      43.757  31.291  31.238  1.00  0.00    -0.354 N 
ATOM     30  N   UNL A   1      41.021  32.373  31.086  1.00  0.00    -0.248 NA
ATOM     31  C   UNL A   1      39.454  34.019  31.626  1.00  0.00     0.031 C 
ATOM     32  C   UNL A   1      45.315  32.533  32.220  1.00  0.00     0.029 A 
ATOM     33  C   UNL A   1      43.968  32.495  31.894  1.00  0.00     0.049 A 
ATOM     34  H   UNL A   1      42.888  30.983  30.890  1.00  0.00     0.167 HD
ATOM     35  C   UNL A   1      41.655  33.391  31.783  1.00  0.00     0.074 A 
ATOM     36  C   UNL A   1      40.648  34.395  32.059  1.00  0.00     0.031 C 
ATOM     37  C   UNL A   1      42.954  33.483  32.162  1.00  0.00     0.037 A 
BRANCH  24  38
ATOM     38  C   UNL A   1      46.431  28.612  30.606  1.00  0.00     0.064 A 
ATOM     39  C   UNL A   1      46.813  27.786  31.673  1.00  0.00     0.173 A 
ATOM     40  C   UNL A   1      47.339  28.769  29.545  1.00  0.00     0.173 A 
ATOM     41  F   UNL A   1      45.990  27.607  32.717  1.00  0.00    -0.203 F 
ATOM     42  C   UNL A   1      48.060  27.162  31.689  1.00  0.00     0.198 A 
ATOM     43  C   UNL A   1      48.571  28.121  29.550  1.00  0.00     0.198 A 
ATOM     44  F   UNL A   1      47.024  29.542  28.494  1.00  0.00    -0.203 F 
ATOM     45  F   UNL A   1      48.420  26.414  32.741  1.00  0.00    -0.200 F 
ATOM     46  C   UNL A   1      48.934  27.324  30.624  1.00  0.00     0.200 A 
ATOM     47  F   UNL A   1      49.408  28.266  28.512  1.00  0.00    -0.200 F 
ATOM     48  F   UNL A   1      50.129  26.718  30.638  1.00  0.00    -0.200 F 
ENDBRANCH  24  38
BRANCH  25  49
ATOM     49  C   UNL A   1      37.259  32.601  30.289  1.00  0.00     0.064 A 
ATOM     50  C   UNL A   1      36.333  32.311  31.300  1.00  0.00     0.173 A 
ATOM     51  C   UNL A   1      36.857  33.469  29.263  1.00  0.00     0.173 A 
ATOM     52  F   UNL A   1      36.666  31.476  32.295  1.00  0.00    -0.203 F 
ATOM     53  C   UNL A   1      35.050  32.855  31.275  1.00  0.00     0.198 A 
ATOM     54  C   UNL A   1      35.586  34.038  29.257  1.00  0.00     0.198 A 
ATOM     55  F   UNL A   1      37.710  33.786  28.277  1.00  0.00    -0.203 F 
ATOM     56  F   UNL A   1      34.169  32.528  32.229  1.00  0.00    -0.200 F 
ATOM     57  C   UNL A   1      34.681  33.723  30.258  1.00  0.00     0.200 A 
ATOM     58  F   UNL A   1      35.242  34.894  28.285  1.00  0.00    -0.200 F 
ATOM     59  F   UNL A   1      33.450  34.252  30.240  1.00  0.00    -0.200 F 
ENDBRANCH  25  49
BRANCH  37  60
ATOM     60  C   UNL A   1      43.360  34.731  32.892  1.00  0.00     0.064 A 
ATOM     61  C   UNL A   1      43.706  35.906  32.208  1.00  0.00     0.173 A 
ATOM     62  C   UNL A   1      43.385  34.755  34.295  1.00  0.00     0.173 A 
ATOM     63  F   UNL A   1      43.717  35.928  30.866  1.00  0.00    -0.203 F 
ATOM     64  C   UNL A   1      44.090  37.050  32.902  1.00  0.00     0.198 A 
ATOM     65  C   UNL A   1      43.736  35.912  34.984  1.00  0.00     0.198 A 
ATOM     66  F   UNL A   1      43.060  33.659  34.997  1.00  0.00    -0.203 F 
ATOM     67  F   UNL A   1      44.471  38.144  32.226  1.00  0.00    -0.200 F 
ATOM     68  C   UNL A   1      44.098  37.054  34.288  1.00  0.00     0.200 A 
ATOM     69  F   UNL A   1      43.730  35.917  36.325  1.00  0.00    -0.200 F 
ATOM     70  F   UNL A   1      44.463  38.158  34.954  1.00  0.00    -0.200 F 
ENDBRANCH  37  60
ENDBRANCH  11  12
ENDBRANCH   4   6
ENDBRANCH   1   2
BRANCH   1  71
ATOM     71  C   UNL A   1      40.982  21.113  27.559  1.00  0.00     0.023 C 
BRANCH  71  72
ATOM     72  C   UNL A   1      41.810  19.827  27.485  1.00  0.00     0.023 C 
BRANCH  72  73
ATOM     73  C   UNL A   1      42.188  19.430  26.063  1.00  0.00     0.116 C 
BRANCH  73  74
ATOM     74  N   UNL A   1      43.618  19.264  25.989  1.00  0.00    -0.356 N 
ATOM     75  C   UNL A   1      44.357  19.724  24.933  1.00  0.00     0.223 C 
ATOM     76  H   UNL A   1      44.081  18.802  26.726  1.00  0.00     0.163 HD
ATOM     77  O   UNL A   1      45.062  18.936  24.303  1.00  0.00    -0.275 OA
BRANCH  75  78
ATOM     78  C   UNL A   1      44.512  21.215  24.945  1.00  0.00     0.079 C 
ATOM     79  C   UNL A   1      45.018  22.098  23.748  1.00  0.00     0.020 C 
ATOM     80  C   UNL A   1      45.523  22.018  25.768  1.00  0.00     0.020 C 
ATOM     81  C   UNL A   1      45.067  23.240  24.837  1.00  0.00    -0.028 C 
ATOM     82  C   UNL A   1      43.644  23.874  24.913  1.00  0.00     0.007 C 
ATOM     83  C   UNL A   1      46.011  24.415  25.040  1.00  0.00     0.007 C 
ATOM     84  C   UNL A   1      43.823  25.260  25.499  1.00  0.00     0.001 C 
ATOM     85  C   UNL A   1      45.226  25.240  26.072  1.00  0.00     0.001 C 
ENDBRANCH  75  78
ENDBRANCH  73  74
ENDBRANCH  72  73
ENDBRANCH  71  72
ENDBRANCH   1  71
TORSDOF 11
ENDMDL
MODEL 2
REMARK VINA RESULT:     -10.9      4.956     10.396
REMARK SMILES O=C(NCCCCNC(=O)C1CC2(CCCC2)C1)c1ccc(-c2c3nc(c(-c4c(F)c(F)c(F)c(F)c4F)c4ccc([nH]4)c(-c4c(F)c(F)c(F)c(F)c4F)c4nc(c(-c5c(F)c(F)c(F)c(F)c5F)c5ccc2[nH]5)C=C4)C=C3)cc1
REMARK SMILES IDX 4 1 3 2 1 3 2 4 19 6 20 7 81 8 21 9 80 10 22 11 23 12 24 13
REMARK SMILES IDX 74 14 25 15 79 16 73 17 75 18 26 19 78 20 72 21 71 22 27 24
REMARK SMILES IDX 59 25 39 26 58 27 40 28 43 29 57 30 76 31 41 32 42 33 56 35
REMARK SMILES IDX 77 36 44 37 28 38 29 39 37 40 30 41 31 42 35 43 38 44 32 45
REMARK SMILES IDX 33 46 36 47 34 48 60 49 61 50 69 51 62 52 63 53 67 54 70 55
REMARK SMILES IDX 64 56 65 57 68 58 66 59 45 60 46 61 54 62 47 63 48 64 52 65
REMARK SMILES IDX 55 66 49 67 50 68 53 69 51 70 5 71 6 72 7 73 8 74 9 75 10 77
REMARK SMILES IDX 11 78 12 79 18 80 13 81 14 82 17 83 15 84 16 85
REMARK H PARENT 3 5 75 23 43 34 8 76
REMARK Flexibility Score: inf
ROOT
ATOM      1  C   UNL A   1      32.783  33.127  27.251  1.00  0.00     0.116 C 
ENDROOT
BRANCH   1   2
ATOM      2  N   UNL A   1      32.532  34.470  27.751  1.00  0.00    -0.352 N 
ATOM      3  O   UNL A   1      32.529  36.079  29.345  1.00  0.00    -0.269 OA
ATOM      4  C   UNL A   1      33.022  35.049  28.894  1.00  0.00     0.251 C 
ATOM      5  H   UNL A   1      31.938  35.032  27.202  1.00  0.00     0.163 HD
BRANCH   4   6
ATOM      6  C   UNL A   1      34.153  34.397  29.576  1.00  0.00     0.039 A 
ATOM      7  C   UNL A   1      35.447  34.581  29.083  1.00  0.00     0.014 A 
ATOM      8  C   UNL A   1      33.918  33.571  30.676  1.00  0.00     0.014 A 
ATOM      9  C   UNL A   1      36.488  33.825  29.598  1.00  0.00     0.010 A 
ATOM     10  C   UNL A   1      34.989  32.893  31.262  1.00  0.00     0.010 A 
ATOM     11  C   UNL A   1      36.277  32.998  30.714  1.00  0.00    -0.014 A 
BRANCH  11  12
ATOM     12  C   UNL A   1      37.443  32.332  31.341  1.00  0.00     0.031 A 
ATOM     13  C   UNL A   1      37.919  32.709  32.713  1.00  0.00     0.074 A 
ATOM     14  C   UNL A   1      38.060  31.355  30.647  1.00  0.00     0.049 A 
ATOM     15  N   UNL A   1      38.926  32.225  33.396  1.00  0.00    -0.248 NA
ATOM     16  C   UNL A   1      37.178  33.772  33.408  1.00  0.00     0.031 C 
ATOM     17  C   UNL A   1      37.685  30.916  29.300  1.00  0.00     0.029 A 
ATOM     18  N   UNL A   1      39.116  30.547  30.977  1.00  0.00    -0.354 N 
ATOM     19  C   UNL A   1      38.953  32.934  34.589  1.00  0.00     0.074 A 
ATOM     20  C   UNL A   1      37.876  33.901  34.529  1.00  0.00     0.031 C 
ATOM     21  C   UNL A   1      38.463  29.889  28.939  1.00  0.00     0.029 A 
ATOM     22  C   UNL A   1      39.442  29.650  29.991  1.00  0.00     0.049 A 
ATOM     23  H   UNL A   1      39.594  30.605  31.836  1.00  0.00     0.167 HD
ATOM     24  C   UNL A   1      39.798  32.782  35.638  1.00  0.00     0.037 A 
ATOM     25  C   UNL A   1      40.440  28.749  29.926  1.00  0.00     0.037 A 
ATOM     26  C   UNL A   1      40.860  31.808  35.685  1.00  0.00     0.049 A 
ATOM     27  C   UNL A   1      41.383  28.634  31.086  1.00  0.00     0.074 A 
ATOM     28  C   UNL A   1      41.748  31.548  36.716  1.00  0.00     0.029 A 
ATOM     29  N   UNL A   1      41.185  30.938  34.654  1.00  0.00    -0.354 N 
ATOM     30  N   UNL A   1      41.377  29.284  32.224  1.00  0.00    -0.248 NA
ATOM     31  C   UNL A   1      42.474  27.661  30.953  1.00  0.00     0.031 C 
ATOM     32  C   UNL A   1      42.644  30.565  36.286  1.00  0.00     0.029 A 
ATOM     33  C   UNL A   1      42.279  30.163  35.011  1.00  0.00     0.049 A 
ATOM     34  H   UNL A   1      40.708  30.879  33.794  1.00  0.00     0.167 HD
ATOM     35  C   UNL A   1      42.449  28.788  32.950  1.00  0.00     0.074 A 
ATOM     36  C   UNL A   1      43.069  27.766  32.132  1.00  0.00     0.031 C 
ATOM     37  C   UNL A   1      42.884  29.151  34.183  1.00  0.00     0.037 A 
BRANCH  24  38
ATOM     38  C   UNL A   1      39.628  33.703  36.813  1.00  0.00     0.064 A 
ATOM     39  C   UNL A   1      40.237  34.966  36.860  1.00  0.00     0.173 A 
ATOM     40  C   UNL A   1      38.805  33.335  37.889  1.00  0.00     0.173 A 
ATOM     41  F   UNL A   1      41.041  35.366  35.863  1.00  0.00    -0.203 F 
ATOM     42  C   UNL A   1      40.049  35.815  37.950  1.00  0.00     0.198 A 
ATOM     43  C   UNL A   1      38.594  34.198  38.962  1.00  0.00     0.198 A 
ATOM     44  F   UNL A   1      38.191  32.143  37.894  1.00  0.00    -0.203 F 
ATOM     45  F   UNL A   1      40.677  36.998  37.992  1.00  0.00    -0.200 F 
ATOM     46  C   UNL A   1      39.221  35.433  38.995  1.00  0.00     0.200 A 
ATOM     47  F   UNL A   1      37.782  33.833  39.965  1.00  0.00    -0.200 F 
ATOM     48  F   UNL A   1      39.035  36.253  40.039  1.00  0.00    -0.200 F 
ENDBRANCH  24  38
BRANCH  25  49
ATOM     49  C   UNL A   1      40.594  27.908  28.712  1.00  0.00     0.064 A 
ATOM     50  C   UNL A   1      39.925  26.683  28.594  1.00  0.00     0.173 A 
ATOM     51  C   UNL A   1      41.398  28.321  27.638  1.00  0.00     0.173 A 
ATOM     52  F   UNL A   1      39.157  26.240  29.599  1.00  0.00    -0.203 F 
ATOM     53  C   UNL A   1      40.068  25.894  27.454  1.00  0.00     0.198 A 
ATOM     54  C   UNL A   1      41.513  27.548  26.486  1.00  0.00     0.198 A 
ATOM     55  F   UNL A   1      42.052  29.490  27.698  1.00  0.00    -0.203 F 
ATOM     56  F   UNL A   1      39.453  24.707  27.384  1.00  0.00    -0.200 F 
ATOM     57  C   UNL A   1      40.855  26.331  26.399  1.00  0.00     0.200 A 
ATOM     58  F   UNL A   1      42.256  27.985  25.460  1.00  0.00    -0.200 F 
ATOM     59  F   UNL A   1      40.984  25.576  25.299  1.00  0.00    -0.200 F 
ENDBRANCH  25  49
BRANCH  37  60
ATOM     60  C   UNL A   1      44.071  28.410  34.728  1.00  0.00     0.064 A 
ATOM     61  C   UNL A   1      43.930  27.201  35.424  1.00  0.00     0.173 A 
ATOM     62  C   UNL A   1      45.368  28.909  34.534  1.00  0.00     0.173 A 
ATOM     63  F   UNL A   1      42.709  26.692  35.654  1.00  0.00    -0.203 F 
ATOM     64  C   UNL A   1      45.041  26.533  35.932  1.00  0.00     0.198 A 
ATOM     65  C   UNL A   1      46.479  28.221  35.013  1.00  0.00     0.198 A 
ATOM     66  F   UNL A   1      45.559  30.060  33.871  1.00  0.00    -0.203 F 
ATOM     67  F   UNL A   1      44.878  25.409  36.644  1.00  0.00    -0.200 F 
ATOM     68  C   UNL A   1      46.314  27.041  35.719  1.00  0.00     0.200 A 
ATOM     69  F   UNL A   1      47.710  28.706  34.794  1.00  0.00    -0.200 F 
ATOM     70  F   UNL A   1      47.383  26.394  36.204  1.00  0.00    -0.200 F 
ENDBRANCH  37  60
ENDBRANCH  11  12
ENDBRANCH   4   6
ENDBRANCH   1   2
BRANCH   1  71
ATOM     71  C   UNL A   1      31.489  32.443  26.838  1.00  0.00     0.023 C 
BRANCH  71  72
ATOM     72  C   UNL A   1      31.665  30.971  26.455  1.00  0.00     0.023 C 
BRANCH  72  73
ATOM     73  C   UNL A   1      33.040  30.413  26.807  1.00  0.00     0.116 C 
BRANCH  73  74
ATOM     74  N   UNL A   1      32.871  29.240  27.628  1.00  0.00    -0.356 N 
ATOM     75  C   UNL A   1      32.080  28.189  27.252  1.00  0.00     0.223 C 
ATOM     76  H   UNL A   1      33.343  29.194  28.492  1.00  0.00     0.163 HD
ATOM     77  O   UNL A   1      31.166  27.828  27.994  1.00  0.00    -0.275 OA
BRANCH  75  78
ATOM     78  C   UNL A   1      32.699  27.362  26.166  1.00  0.00     0.079 C 
ATOM     79  C   UNL A   1      33.895  27.798  25.245  1.00  0.00     0.020 C 
ATOM     80  C   UNL A   1      32.036  26.944  24.851  1.00  0.00     0.020 C 
ATOM     81  C   UNL A   1      33.518  26.498  24.433  1.00  0.00    -0.028 C 
ATOM     82  C   UNL A   1      34.258  25.299  25.101  1.00  0.00     0.007 C 
ATOM     83  C   UNL A   1      33.553  26.178  22.946  1.00  0.00     0.007 C 
ATOM     84  C   UNL A   1      34.355  24.214  24.047  1.00  0.00     0.001 C 
ATOM     85  C   UNL A   1      33.376  24.653  22.975  1.00  0.00     0.001 C 
ENDBRANCH  75  78
ENDBRANCH  73  74
ENDBRANCH  72  73
ENDBRANCH  71  72
ENDBRANCH   1  71
TORSDOF 11
ENDMDL
MODEL 3
REMARK VINA RESULT:     -10.9      3.856     10.347
REMARK SMILES O=C(NCCCCNC(=O)C1CC2(CCCC2)C1)c1ccc(-c2c3nc(c(-c4c(F)c(F)c(F)c(F)c4F)c4ccc([nH]4)c(-c4c(F)c(F)c(F)c(F)c4F)c4nc(c(-c5c(F)c(F)c(F)c(F)c5F)c5ccc2[nH]5)C=C4)C=C3)cc1
REMARK SMILES IDX 4 1 3 2 1 3 2 4 19 6 20 7 81 8 21 9 80 10 22 11 23 12 24 13
REMARK SMILES IDX 74 14 25 15 79 16 73 17 75 18 26 19 78 20 72 21 71 22 27 24
REMARK SMILES IDX 59 25 39 26 58 27 40 28 43 29 57 30 76 31 41 32 42 33 56 35
REMARK SMILES IDX 77 36 44 37 28 38 29 39 37 40 30 41 31 42 35 43 38 44 32 45
REMARK SMILES IDX 33 46 36 47 34 48 60 49 61 50 69 51 62 52 63 53 67 54 70 55
REMARK SMILES IDX 64 56 65 57 68 58 66 59 45 60 46 61 54 62 47 63 48 64 52 65
REMARK SMILES IDX 55 66 49 67 50 68 53 69 51 70 5 71 6 72 7 73 8 74 9 75 10 77
REMARK SMILES IDX 11 78 12 79 18 80 13 81 14 82 17 83 15 84 16 85
REMARK H PARENT 3 5 75 23 43 34 8 76
REMARK Flexibility Score: inf
ROOT
ATOM      1  C   UNL A   1      34.347  32.850  28.146  1.00  0.00     0.116 C 
ENDROOT
BRANCH   1   2
ATOM      2  N   UNL A   1      33.700  31.661  27.613  1.00  0.00    -0.352 N 
ATOM      3  O   UNL A   1      33.687  29.587  26.704  1.00  0.00    -0.269 OA
ATOM      4  C   UNL A   1      34.252  30.423  27.403  1.00  0.00     0.251 C 
ATOM      5  H   UNL A   1      32.749  31.756  27.375  1.00  0.00     0.163 HD
BRANCH   4   6
ATOM      6  C   UNL A   1      35.550  30.123  28.031  1.00  0.00     0.039 A 
ATOM      7  C   UNL A   1      36.717  30.215  27.267  1.00  0.00     0.014 A 
ATOM      8  C   UNL A   1      35.599  29.710  29.363  1.00  0.00     0.014 A 
ATOM      9  C   UNL A   1      37.914  29.755  27.791  1.00  0.00     0.010 A 
ATOM     10  C   UNL A   1      36.827  29.348  29.921  1.00  0.00     0.010 A 
ATOM     11  C   UNL A   1      37.989  29.347  29.133  1.00  0.00    -0.014 A 
BRANCH  11  12
ATOM     12  C   UNL A   1      39.314  29.017  29.707  1.00  0.00     0.031 A 
ATOM     13  C   UNL A   1      40.133  27.873  29.185  1.00  0.00     0.074 A 
ATOM     14  C   UNL A   1      39.779  29.789  30.708  1.00  0.00     0.049 A 
ATOM     15  N   UNL A   1      41.308  27.452  29.583  1.00  0.00    -0.248 NA
ATOM     16  C   UNL A   1      39.561  27.092  28.078  1.00  0.00     0.031 C 
ATOM     17  C   UNL A   1      39.059  30.921  31.298  1.00  0.00     0.029 A 
ATOM     18  N   UNL A   1      40.964  29.755  31.396  1.00  0.00    -0.354 N 
ATOM     19  C   UNL A   1      41.606  26.351  28.795  1.00  0.00     0.074 A 
ATOM     20  C   UNL A   1      40.479  26.149  27.909  1.00  0.00     0.031 C 
ATOM     21  C   UNL A   1      39.834  31.503  32.222  1.00  0.00     0.029 A 
ATOM     22  C   UNL A   1      41.069  30.740  32.346  1.00  0.00     0.049 A 
ATOM     23  H   UNL A   1      41.669  29.091  31.225  1.00  0.00     0.167 HD
ATOM     24  C   UNL A   1      42.725  25.585  28.809  1.00  0.00     0.037 A 
ATOM     25  C   UNL A   1      42.041  30.986  33.243  1.00  0.00     0.037 A 
ATOM     26  C   UNL A   1      43.843  25.805  29.693  1.00  0.00     0.049 A 
ATOM     27  C   UNL A   1      43.247  30.096  33.261  1.00  0.00     0.074 A 
ATOM     28  C   UNL A   1      45.039  25.109  29.762  1.00  0.00     0.029 A 
ATOM     29  N   UNL A   1      43.901  26.790  30.669  1.00  0.00    -0.354 N 
ATOM     30  N   UNL A   1      43.535  29.079  32.486  1.00  0.00    -0.248 NA
ATOM     31  C   UNL A   1      44.263  30.385  34.280  1.00  0.00     0.031 C 
ATOM     32  C   UNL A   1      45.792  25.635  30.816  1.00  0.00     0.029 A 
ATOM     33  C   UNL A   1      45.097  26.700  31.365  1.00  0.00     0.049 A 
ATOM     34  H   UNL A   1      43.196  27.456  30.841  1.00  0.00     0.167 HD
ATOM     35  C   UNL A   1      44.772  28.617  32.910  1.00  0.00     0.074 A 
ATOM     36  C   UNL A   1      45.189  29.482  33.995  1.00  0.00     0.031 C 
ATOM     37  C   UNL A   1      45.495  27.569  32.444  1.00  0.00     0.037 A 
BRANCH  24  38
ATOM     38  C   UNL A   1      42.790  24.422  27.859  1.00  0.00     0.064 A 
ATOM     39  C   UNL A   1      43.197  24.575  26.526  1.00  0.00     0.173 A 
ATOM     40  C   UNL A   1      42.485  23.125  28.304  1.00  0.00     0.173 A 
ATOM     41  F   UNL A   1      43.493  25.792  26.045  1.00  0.00    -0.203 F 
ATOM     42  C   UNL A   1      43.272  23.480  25.667  1.00  0.00     0.198 A 
ATOM     43  C   UNL A   1      42.591  22.029  27.452  1.00  0.00     0.198 A 
ATOM     44  F   UNL A   1      42.098  22.918  29.572  1.00  0.00    -0.203 F 
ATOM     45  F   UNL A   1      43.620  23.658  24.385  1.00  0.00    -0.200 F 
ATOM     46  C   UNL A   1      42.977  22.207  26.133  1.00  0.00     0.200 A 
ATOM     47  F   UNL A   1      42.319  20.798  27.909  1.00  0.00    -0.200 F 
ATOM     48  F   UNL A   1      43.056  21.154  25.308  1.00  0.00    -0.200 F 
ENDBRANCH  24  38
BRANCH  25  49
ATOM     49  C   UNL A   1      41.893  32.114  34.198  1.00  0.00     0.064 A 
ATOM     50  C   UNL A   1      42.375  33.391  33.886  1.00  0.00     0.173 A 
ATOM     51  C   UNL A   1      41.248  31.942  35.433  1.00  0.00     0.173 A 
ATOM     52  F   UNL A   1      43.009  33.602  32.723  1.00  0.00    -0.203 F 
ATOM     53  C   UNL A   1      42.234  34.450  34.780  1.00  0.00     0.198 A 
ATOM     54  C   UNL A   1      41.079  33.008  36.311  1.00  0.00     0.198 A 
ATOM     55  F   UNL A   1      40.760  30.740  35.776  1.00  0.00    -0.203 F 
ATOM     56  F   UNL A   1      42.743  35.651  34.477  1.00  0.00    -0.200 F 
ATOM     57  C   UNL A   1      41.580  34.259  35.989  1.00  0.00     0.200 A 
ATOM     58  F   UNL A   1      40.426  32.824  37.468  1.00  0.00    -0.200 F 
ATOM     59  F   UNL A   1      41.438  35.281  36.844  1.00  0.00    -0.200 F 
ENDBRANCH  25  49
BRANCH  37  60
ATOM     60  C   UNL A   1      46.827  27.322  33.092  1.00  0.00     0.064 A 
ATOM     61  C   UNL A   1      46.967  26.458  34.188  1.00  0.00     0.173 A 
ATOM     62  C   UNL A   1      47.983  27.945  32.595  1.00  0.00     0.173 A 
ATOM     63  F   UNL A   1      45.889  25.854  34.713  1.00  0.00    -0.203 F 
ATOM     64  C   UNL A   1      48.208  26.250  34.782  1.00  0.00     0.198 A 
ATOM     65  C   UNL A   1      49.228  27.707  33.170  1.00  0.00     0.198 A 
ATOM     66  F   UNL A   1      47.906  28.777  31.546  1.00  0.00    -0.203 F 
ATOM     67  F   UNL A   1      48.308  25.465  35.865  1.00  0.00    -0.200 F 
ATOM     68  C   UNL A   1      49.338  26.869  34.268  1.00  0.00     0.200 A 
ATOM     69  F   UNL A   1      50.321  28.295  32.663  1.00  0.00    -0.200 F 
ATOM     70  F   UNL A   1      50.533  26.663  34.838  1.00  0.00    -0.200 F 
ENDBRANCH  37  60
ENDBRANCH  11  12
ENDBRANCH   4   6
ENDBRANCH   1   2
BRANCH   1  71
ATOM     71  C   UNL A   1      33.358  33.996  28.293  1.00  0.00     0.023 C 
BRANCH  71  72
ATOM     72  C   UNL A   1      34.022  35.357  28.523  1.00  0.00     0.023 C 
BRANCH  72  73
ATOM     73  C   UNL A   1      33.042  36.449  28.933  1.00  0.00     0.116 C 
BRANCH  73  74
ATOM     74  N   UNL A   1      33.620  37.216  30.008  1.00  0.00    -0.356 N 
ATOM     75  C   UNL A   1      33.268  37.025  31.317  1.00  0.00     0.223 C 
ATOM     76  H   UNL A   1      34.293  37.902  29.793  1.00  0.00     0.163 HD
ATOM     77  O   UNL A   1      32.842  37.977  31.971  1.00  0.00    -0.275 OA
BRANCH  75  78
ATOM     78  C   UNL A   1      33.837  35.760  31.888  1.00  0.00     0.079 C 
ATOM     79  C   UNL A   1      33.099  34.780  32.869  1.00  0.00     0.020 C 
ATOM     80  C   UNL A   1      34.991  35.652  32.888  1.00  0.00     0.020 C 
ATOM     81  C   UNL A   1      34.527  34.123  33.011  1.00  0.00    -0.028 C 
ATOM     82  C   UNL A   1      34.687  33.096  31.847  1.00  0.00     0.007 C 
ATOM     83  C   UNL A   1      35.237  33.469  34.186  1.00  0.00     0.007 C 
ATOM     84  C   UNL A   1      35.751  32.111  32.288  1.00  0.00     0.001 C 
ATOM     85  C   UNL A   1      36.414  32.789  33.471  1.00  0.00     0.001 C 
ENDBRANCH  75  78
ENDBRANCH  73  74
ENDBRANCH  72  73
ENDBRANCH  71  72
ENDBRANCH   1  71
TORSDOF 11
ENDMDL
