MODEL 1
REMARK VINA RESULT:     -12.9      0.000      0.000
REMARK SMILES Cn1cc(-c2cc(C(F)(F)F)c3c(C4CC4)nn(CC(=O)NCCCCNC(=O)c4ccc(-c5c6nc(c(-c7c(F)c(F)c(F)c(F)c7F)c7ccc([nH]7)c(-c7c(F)c(F)c(F)c(F)c7F)c7nc(c(-c8c(F)c(F)c(F)c(F)c8F)c8ccc5[nH]8)C=C7)C=C6)cc4)c3n2)cn1
REMARK SMILES IDX 24 1 23 2 22 3 20 4 21 5 19 7 18 8 5 9 6 10 94 11 7 12 93 13
REMARK SMILES IDX 12 14 13 15 17 16 4 17 1 18 2 19 3 20 96 21 95 22 8 23 9 24
REMARK SMILES IDX 10 25 11 26 14 27 15 28 16 29 25 30 26 31 27 32 28 33 29 35
REMARK SMILES IDX 30 36 31 37 92 38 32 39 91 40 33 41 34 42 35 43 85 44 36 45
REMARK SMILES IDX 90 46 84 47 86 48 37 49 89 50 83 51 82 52 38 54 70 55 50 56
REMARK SMILES IDX 69 57 51 58 54 59 68 60 87 61 52 62 53 63 67 65 88 66 55 67
REMARK SMILES IDX 39 68 40 69 48 70 41 71 42 72 46 73 49 74 43 75 44 76 47 77
REMARK SMILES IDX 45 78 71 79 72 80 80 81 73 82 74 83 78 84 81 85 75 86 76 87
REMARK SMILES IDX 79 88 77 89 56 90 57 91 65 92 58 93 59 94 63 95 66 96 60 97
REMARK SMILES IDX 61 98 64 99 62 100
REMARK H PARENT 22 6 27 34 86 53 54 64
REMARK Flexibility Score: inf
ROOT
ATOM      1  C   UNL A   1      35.312  30.523  27.627  1.00  0.00     0.023 C 
ENDROOT
BRANCH   1   2
ATOM      2  C   UNL A   1      34.530  29.404  26.941  1.00  0.00     0.116 C 
BRANCH   2   3
ATOM      3  N   UNL A   1      33.361  29.001  27.692  1.00  0.00    -0.354 N 
ATOM      4  C   UNL A   1      32.357  28.175  27.262  1.00  0.00     0.241 C 
ATOM      5  O   UNL A   1      31.412  27.935  28.012  1.00  0.00    -0.273 OA
ATOM      6  H   UNL A   1      33.278  29.357  28.606  1.00  0.00     0.163 HD
BRANCH   4   7
ATOM      7  C   UNL A   1      32.501  27.507  25.927  1.00  0.00     0.246 C 
BRANCH   7   8
ATOM      8  N   UNL A   1      33.176  26.225  25.989  1.00  0.00    -0.237 N 
ATOM      9  C   UNL A   1      30.837  23.848  25.608  1.00  0.00     0.077 A 
ATOM     10  C   UNL A   1      31.560  22.666  25.756  1.00  0.00     0.043 A 
ATOM     11  N   UNL A   1      31.197  24.918  26.355  1.00  0.00    -0.228 NA
ATOM     12  C   UNL A   1      32.881  22.740  26.265  1.00  0.00     0.071 A 
ATOM     13  C   UNL A   1      32.531  25.061  26.267  1.00  0.00     0.159 A 
ATOM     14  C   UNL A   1      33.434  24.024  26.098  1.00  0.00     0.055 A 
ATOM     15  C   UNL A   1      34.552  24.673  25.508  1.00  0.00     0.076 A 
ATOM     16  N   UNL A   1      34.415  26.013  25.489  1.00  0.00    -0.175 NA
BRANCH   9  17
ATOM     17  C   UNL A   1      30.496  24.374  24.256  1.00  0.00     0.038 A 
ATOM     18  C   UNL A   1      32.633  25.723  21.739  1.00  0.00     0.173 C 
ATOM     19  N   UNL A   1      31.464  25.312  22.496  1.00  0.00    -0.275 N 
ATOM     20  C   UNL A   1      31.332  24.122  23.169  1.00  0.00     0.118 A 
ATOM     21  N   UNL A   1      30.555  26.225  22.881  1.00  0.00    -0.181 NA
ATOM     22  C   UNL A   1      30.018  25.686  23.983  1.00  0.00     0.145 A 
ENDBRANCH   9  17
BRANCH  12  23
ATOM     23  C   UNL A   1      33.464  21.677  27.153  1.00  0.00     0.417 C 
ATOM     24  F   UNL A   1      33.320  20.403  26.716  1.00  0.00    -0.166 F 
ATOM     25  F   UNL A   1      34.809  21.851  27.317  1.00  0.00    -0.166 F 
ATOM     26  F   UNL A   1      32.942  21.692  28.412  1.00  0.00    -0.166 F 
ENDBRANCH  12  23
BRANCH  15  27
ATOM     27  C   UNL A   1      35.685  24.071  24.676  1.00  0.00     0.041 C 
ATOM     28  C   UNL A   1      35.957  22.600  24.519  1.00  0.00     0.011 C 
ATOM     29  C   UNL A   1      35.321  23.337  23.394  1.00  0.00     0.011 C 
ENDBRANCH  15  27
ENDBRANCH   7   8
ENDBRANCH   4   7
ENDBRANCH   2   3
ENDBRANCH   1   2
BRANCH   1  30
ATOM     30  C   UNL A   1      34.533  31.809  27.895  1.00  0.00     0.023 C 
BRANCH  30  31
ATOM     31  C   UNL A   1      35.394  32.935  28.431  1.00  0.00     0.116 C 
BRANCH  31  32
ATOM     32  N   UNL A   1      35.153  33.174  29.851  1.00  0.00    -0.352 N 
ATOM     33  C   UNL A   1      35.672  32.495  30.932  1.00  0.00     0.251 C 
ATOM     34  H   UNL A   1      34.540  33.915  30.064  1.00  0.00     0.163 HD
ATOM     35  O   UNL A   1      35.152  32.551  32.031  1.00  0.00    -0.269 OA
BRANCH  33  36
ATOM     36  C   UNL A   1      36.905  31.724  30.730  1.00  0.00     0.039 A 
ATOM     37  C   UNL A   1      38.129  32.356  30.510  1.00  0.00     0.014 A 
ATOM     38  C   UNL A   1      36.804  30.334  30.755  1.00  0.00     0.014 A 
ATOM     39  C   UNL A   1      39.256  31.561  30.340  1.00  0.00     0.010 A 
ATOM     40  C   UNL A   1      37.926  29.558  30.749  1.00  0.00     0.010 A 
ATOM     41  C   UNL A   1      39.132  30.168  30.454  1.00  0.00    -0.014 A 
BRANCH  41  42
ATOM     42  C   UNL A   1      40.281  29.299  30.328  1.00  0.00     0.031 A 
ATOM     43  C   UNL A   1      40.937  28.984  31.616  1.00  0.00     0.074 A 
ATOM     44  C   UNL A   1      40.586  28.685  29.166  1.00  0.00     0.049 A 
ATOM     45  N   UNL A   1      42.072  29.431  32.036  1.00  0.00    -0.248 NA
ATOM     46  C   UNL A   1      40.181  28.227  32.626  1.00  0.00     0.031 C 
ATOM     47  C   UNL A   1      39.838  28.657  27.905  1.00  0.00     0.029 A 
ATOM     48  N   UNL A   1      41.649  27.885  28.899  1.00  0.00    -0.354 N 
ATOM     49  C   UNL A   1      42.273  28.850  33.282  1.00  0.00     0.074 A 
ATOM     50  C   UNL A   1      41.006  28.288  33.673  1.00  0.00     0.031 C 
ATOM     51  C   UNL A   1      40.367  27.720  27.083  1.00  0.00     0.029 A 
ATOM     52  C   UNL A   1      41.579  27.204  27.689  1.00  0.00     0.049 A 
ATOM     53  H   UNL A   1      42.411  27.794  29.516  1.00  0.00     0.167 HD
ATOM     54  C   UNL A   1      43.534  28.668  33.763  1.00  0.00     0.037 A 
ATOM     55  C   UNL A   1      42.461  26.265  27.261  1.00  0.00     0.037 A 
ATOM     56  C   UNL A   1      44.483  29.462  33.020  1.00  0.00     0.049 A 
ATOM     57  C   UNL A   1      43.719  26.488  28.028  1.00  0.00     0.074 A 
ATOM     58  C   UNL A   1      44.658  30.818  32.812  1.00  0.00     0.029 A 
ATOM     59  N   UNL A   1      45.186  28.841  32.016  1.00  0.00    -0.354 N 
ATOM     60  N   UNL A   1      44.462  27.553  27.902  1.00  0.00    -0.248 NA
ATOM     61  C   UNL A   1      43.876  25.757  29.278  1.00  0.00     0.031 C 
ATOM     62  C   UNL A   1      45.030  30.936  31.440  1.00  0.00     0.029 A 
ATOM     63  C   UNL A   1      45.141  29.650  30.910  1.00  0.00     0.049 A 
ATOM     64  H   UNL A   1      45.641  27.970  32.080  1.00  0.00     0.167 HD
ATOM     65  C   UNL A   1      44.852  27.866  29.196  1.00  0.00     0.074 A 
ATOM     66  C   UNL A   1      44.512  26.688  29.993  1.00  0.00     0.031 C 
ATOM     67  C   UNL A   1      45.136  29.153  29.552  1.00  0.00     0.037 A 
BRANCH  54  68
ATOM     68  C   UNL A   1      43.961  27.512  34.631  1.00  0.00     0.064 A 
ATOM     69  C   UNL A   1      43.882  26.204  34.110  1.00  0.00     0.173 A 
ATOM     70  C   UNL A   1      44.163  27.597  36.024  1.00  0.00     0.173 A 
ATOM     71  F   UNL A   1      43.672  26.001  32.800  1.00  0.00    -0.203 F 
ATOM     72  C   UNL A   1      43.924  25.076  34.934  1.00  0.00     0.198 A 
ATOM     73  C   UNL A   1      44.260  26.468  36.836  1.00  0.00     0.198 A 
ATOM     74  F   UNL A   1      44.162  28.764  36.679  1.00  0.00    -0.203 F 
ATOM     75  F   UNL A   1      43.716  23.862  34.408  1.00  0.00    -0.200 F 
ATOM     76  C   UNL A   1      44.107  25.210  36.297  1.00  0.00     0.200 A 
ATOM     77  F   UNL A   1      44.418  26.621  38.159  1.00  0.00    -0.200 F 
ATOM     78  F   UNL A   1      44.089  24.136  37.096  1.00  0.00    -0.200 F 
ENDBRANCH  54  68
BRANCH  55  79
ATOM     79  C   UNL A   1      42.167  24.961  26.610  1.00  0.00     0.064 A 
ATOM     80  C   UNL A   1      42.983  24.497  25.561  1.00  0.00     0.173 A 
ATOM     81  C   UNL A   1      41.316  24.011  27.204  1.00  0.00     0.173 A 
ATOM     82  F   UNL A   1      43.843  25.330  24.957  1.00  0.00    -0.203 F 
ATOM     83  C   UNL A   1      42.995  23.152  25.178  1.00  0.00     0.198 A 
ATOM     84  C   UNL A   1      41.327  22.669  26.817  1.00  0.00     0.198 A 
ATOM     85  F   UNL A   1      40.532  24.339  28.240  1.00  0.00    -0.203 F 
ATOM     86  F   UNL A   1      43.851  22.732  24.234  1.00  0.00    -0.200 F 
ATOM     87  C   UNL A   1      42.182  22.235  25.822  1.00  0.00     0.200 A 
ATOM     88  F   UNL A   1      40.557  21.784  27.469  1.00  0.00    -0.200 F 
ATOM     89  F   UNL A   1      42.254  20.932  25.515  1.00  0.00    -0.200 F 
ENDBRANCH  55  79
BRANCH  67  90
ATOM     90  C   UNL A   1      45.243  30.178  28.455  1.00  0.00     0.064 A 
ATOM     91  C   UNL A   1      44.187  31.012  28.045  1.00  0.00     0.173 A 
ATOM     92  C   UNL A   1      46.507  30.433  27.910  1.00  0.00     0.173 A 
ATOM     93  F   UNL A   1      42.967  30.895  28.581  1.00  0.00    -0.203 F 
ATOM     94  C   UNL A   1      44.385  32.030  27.112  1.00  0.00     0.198 A 
ATOM     95  C   UNL A   1      46.710  31.470  27.005  1.00  0.00     0.198 A 
ATOM     96  F   UNL A   1      47.563  29.702  28.301  1.00  0.00    -0.203 F 
ATOM     97  F   UNL A   1      43.359  32.809  26.735  1.00  0.00    -0.200 F 
ATOM     98  C   UNL A   1      45.649  32.264  26.600  1.00  0.00     0.200 A 
ATOM     99  F   UNL A   1      47.946  31.722  26.550  1.00  0.00    -0.200 F 
ATOM    100  F   UNL A   1      45.853  33.271  25.740  1.00  0.00    -0.200 F 
ENDBRANCH  67  90
ENDBRANCH  41  42
ENDBRANCH  33  36
ENDBRANCH  31  32
ENDBRANCH  30  31
ENDBRANCH   1  30
TORSDOF 15
ENDMDL
MODEL 2
REMARK VINA RESULT:     -12.7      3.614      8.633
REMARK SMILES Cn1cc(-c2cc(C(F)(F)F)c3c(C4CC4)nn(CC(=O)NCCCCNC(=O)c4ccc(-c5c6nc(c(-c7c(F)c(F)c(F)c(F)c7F)c7ccc([nH]7)c(-c7c(F)c(F)c(F)c(F)c7F)c7nc(c(-c8c(F)c(F)c(F)c(F)c8F)c8ccc5[nH]8)C=C7)C=C6)cc4)c3n2)cn1
REMARK SMILES IDX 24 1 23 2 22 3 20 4 21 5 19 7 18 8 5 9 6 10 94 11 7 12 93 13
REMARK SMILES IDX 12 14 13 15 17 16 4 17 1 18 2 19 3 20 96 21 95 22 8 23 9 24
REMARK SMILES IDX 10 25 11 26 14 27 15 28 16 29 25 30 26 31 27 32 28 33 29 35
REMARK SMILES IDX 30 36 31 37 92 38 32 39 91 40 33 41 34 42 35 43 85 44 36 45
REMARK SMILES IDX 90 46 84 47 86 48 37 49 89 50 83 51 82 52 38 54 70 55 50 56
REMARK SMILES IDX 69 57 51 58 54 59 68 60 87 61 52 62 53 63 67 65 88 66 55 67
REMARK SMILES IDX 39 68 40 69 48 70 41 71 42 72 46 73 49 74 43 75 44 76 47 77
REMARK SMILES IDX 45 78 71 79 72 80 80 81 73 82 74 83 78 84 81 85 75 86 76 87
REMARK SMILES IDX 79 88 77 89 56 90 57 91 65 92 58 93 59 94 63 95 66 96 60 97
REMARK SMILES IDX 61 98 64 99 62 100
REMARK H PARENT 22 6 27 34 86 53 54 64
REMARK Flexibility Score: inf
ROOT
ATOM      1  C   UNL A   1      38.924  21.351  25.979  1.00  0.00     0.023 C 
ENDROOT
BRANCH   1   2
ATOM      2  C   UNL A   1      37.644  21.660  25.206  1.00  0.00     0.116 C 
BRANCH   2   3
ATOM      3  N   UNL A   1      36.474  21.698  26.057  1.00  0.00    -0.354 N 
ATOM      4  C   UNL A   1      35.791  22.814  26.458  1.00  0.00     0.241 C 
ATOM      5  O   UNL A   1      34.818  22.689  27.201  1.00  0.00    -0.273 OA
ATOM      6  H   UNL A   1      36.136  20.832  26.382  1.00  0.00     0.163 HD
BRANCH   4   7
ATOM      7  C   UNL A   1      36.189  24.142  25.887  1.00  0.00     0.246 C 
BRANCH   7   8
ATOM      8  N   UNL A   1      35.130  24.796  25.143  1.00  0.00    -0.237 N 
ATOM      9  C   UNL A   1      33.863  22.529  23.017  1.00  0.00     0.077 A 
ATOM     10  C   UNL A   1      32.917  23.260  22.301  1.00  0.00     0.043 A 
ATOM     11  N   UNL A   1      35.002  23.153  23.398  1.00  0.00    -0.228 NA
ATOM     12  C   UNL A   1      32.924  24.673  22.418  1.00  0.00     0.071 A 
ATOM     13  C   UNL A   1      34.668  24.333  23.951  1.00  0.00     0.159 A 
ATOM     14  C   UNL A   1      33.569  25.097  23.594  1.00  0.00     0.055 A 
ATOM     15  C   UNL A   1      33.330  25.868  24.764  1.00  0.00     0.076 A 
ATOM     16  N   UNL A   1      34.305  25.723  25.682  1.00  0.00    -0.175 NA
BRANCH   9  17
ATOM     17  C   UNL A   1      33.458  21.658  24.156  1.00  0.00     0.038 A 
ATOM     18  C   UNL A   1      32.576  18.202  24.169  1.00  0.00     0.173 C 
ATOM     19  N   UNL A   1      32.802  19.580  24.565  1.00  0.00    -0.275 N 
ATOM     20  C   UNL A   1      33.897  20.336  24.224  1.00  0.00     0.118 A 
ATOM     21  N   UNL A   1      31.778  20.329  25.012  1.00  0.00    -0.181 NA
ATOM     22  C   UNL A   1      32.148  21.579  24.703  1.00  0.00     0.145 A 
ENDBRANCH   9  17
BRANCH  12  23
ATOM     23  C   UNL A   1      32.581  25.578  21.268  1.00  0.00     0.417 C 
ATOM     24  F   UNL A   1      31.281  25.952  21.183  1.00  0.00    -0.166 F 
ATOM     25  F   UNL A   1      33.287  26.746  21.329  1.00  0.00    -0.166 F 
ATOM     26  F   UNL A   1      32.885  25.036  20.055  1.00  0.00    -0.166 F 
ENDBRANCH  12  23
BRANCH  15  27
ATOM     27  C   UNL A   1      32.045  26.567  25.210  1.00  0.00     0.041 C 
ATOM     28  C   UNL A   1      31.900  27.406  26.450  1.00  0.00     0.011 C 
ATOM     29  C   UNL A   1      31.991  28.086  25.130  1.00  0.00     0.011 C 
ENDBRANCH  15  27
ENDBRANCH   7   8
ENDBRANCH   4   7
ENDBRANCH   2   3
ENDBRANCH   1   2
BRANCH   1  30
ATOM     30  C   UNL A   1      39.453  22.479  26.864  1.00  0.00     0.023 C 
BRANCH  30  31
ATOM     31  C   UNL A   1      40.765  22.146  27.546  1.00  0.00     0.116 C 
BRANCH  31  32
ATOM     32  N   UNL A   1      41.897  22.259  26.631  1.00  0.00    -0.352 N 
ATOM     33  C   UNL A   1      42.468  23.404  26.117  1.00  0.00     0.251 C 
ATOM     34  H   UNL A   1      42.304  21.410  26.343  1.00  0.00     0.163 HD
ATOM     35  O   UNL A   1      43.167  23.376  25.121  1.00  0.00    -0.269 OA
BRANCH  33  36
ATOM     36  C   UNL A   1      42.242  24.665  26.834  1.00  0.00     0.039 A 
ATOM     37  C   UNL A   1      42.906  24.952  28.026  1.00  0.00     0.014 A 
ATOM     38  C   UNL A   1      41.327  25.561  26.282  1.00  0.00     0.014 A 
ATOM     39  C   UNL A   1      42.651  26.171  28.642  1.00  0.00     0.010 A 
ATOM     40  C   UNL A   1      41.196  26.818  26.794  1.00  0.00     0.010 A 
ATOM     41  C   UNL A   1      41.788  27.085  28.016  1.00  0.00    -0.014 A 
BRANCH  41  42
ATOM     42  C   UNL A   1      41.522  28.383  28.593  1.00  0.00     0.031 A 
ATOM     43  C   UNL A   1      42.511  29.418  28.218  1.00  0.00     0.074 A 
ATOM     44  C   UNL A   1      40.370  28.653  29.242  1.00  0.00     0.049 A 
ATOM     45  N   UNL A   1      43.419  29.931  28.976  1.00  0.00    -0.248 NA
ATOM     46  C   UNL A   1      42.621  29.808  26.804  1.00  0.00     0.031 C 
ATOM     47  C   UNL A   1      39.177  27.816  29.403  1.00  0.00     0.029 A 
ATOM     48  N   UNL A   1      40.012  29.805  29.862  1.00  0.00    -0.354 N 
ATOM     49  C   UNL A   1      44.089  30.862  28.193  1.00  0.00     0.074 A 
ATOM     50  C   UNL A   1      43.693  30.602  26.833  1.00  0.00     0.031 C 
ATOM     51  C   UNL A   1      38.161  28.563  29.898  1.00  0.00     0.029 A 
ATOM     52  C   UNL A   1      38.676  29.875  30.240  1.00  0.00     0.049 A 
ATOM     53  H   UNL A   1      40.651  30.535  30.032  1.00  0.00     0.167 HD
ATOM     54  C   UNL A   1      44.717  31.924  28.769  1.00  0.00     0.037 A 
ATOM     55  C   UNL A   1      38.063  30.965  30.767  1.00  0.00     0.037 A 
ATOM     56  C   UNL A   1      44.888  31.710  30.186  1.00  0.00     0.049 A 
ATOM     57  C   UNL A   1      39.141  31.823  31.332  1.00  0.00     0.074 A 
ATOM     58  C   UNL A   1      45.566  30.778  30.949  1.00  0.00     0.029 A 
ATOM     59  N   UNL A   1      43.967  32.281  31.032  1.00  0.00    -0.354 N 
ATOM     60  N   UNL A   1      39.878  31.478  32.352  1.00  0.00    -0.248 NA
ATOM     61  C   UNL A   1      39.714  32.836  30.457  1.00  0.00     0.031 C 
ATOM     62  C   UNL A   1      44.698  30.496  32.045  1.00  0.00     0.029 A 
ATOM     63  C   UNL A   1      43.581  31.326  31.937  1.00  0.00     0.049 A 
ATOM     64  H   UNL A   1      43.643  33.210  30.994  1.00  0.00     0.167 HD
ATOM     65  C   UNL A   1      41.158  31.897  32.021  1.00  0.00     0.074 A 
ATOM     66  C   UNL A   1      40.983  32.783  30.869  1.00  0.00     0.031 C 
ATOM     67  C   UNL A   1      42.258  31.258  32.515  1.00  0.00     0.037 A 
BRANCH  54  68
ATOM     68  C   UNL A   1      44.831  33.292  28.145  1.00  0.00     0.064 A 
ATOM     69  C   UNL A   1      46.109  33.783  27.808  1.00  0.00     0.173 A 
ATOM     70  C   UNL A   1      43.793  34.248  28.131  1.00  0.00     0.173 A 
ATOM     71  F   UNL A   1      47.176  32.969  27.807  1.00  0.00    -0.203 F 
ATOM     72  C   UNL A   1      46.338  35.138  27.555  1.00  0.00     0.198 A 
ATOM     73  C   UNL A   1      44.016  35.589  27.824  1.00  0.00     0.198 A 
ATOM     74  F   UNL A   1      42.546  33.957  28.521  1.00  0.00    -0.203 F 
ATOM     75  F   UNL A   1      47.590  35.576  27.367  1.00  0.00    -0.200 F 
ATOM     76  C   UNL A   1      45.291  36.041  27.569  1.00  0.00     0.200 A 
ATOM     77  F   UNL A   1      42.989  36.451  27.863  1.00  0.00    -0.200 F 
ATOM     78  F   UNL A   1      45.516  37.348  27.386  1.00  0.00    -0.200 F 
ENDBRANCH  54  68
BRANCH  55  79
ATOM     79  C   UNL A   1      36.725  31.519  30.426  1.00  0.00     0.064 A 
ATOM     80  C   UNL A   1      35.853  31.937  31.448  1.00  0.00     0.173 A 
ATOM     81  C   UNL A   1      36.414  31.954  29.124  1.00  0.00     0.173 A 
ATOM     82  F   UNL A   1      36.092  31.590  32.721  1.00  0.00    -0.203 F 
ATOM     83  C   UNL A   1      34.778  32.794  31.193  1.00  0.00     0.198 A 
ATOM     84  C   UNL A   1      35.336  32.806  28.871  1.00  0.00     0.198 A 
ATOM     85  F   UNL A   1      37.204  31.649  28.086  1.00  0.00    -0.203 F 
ATOM     86  F   UNL A   1      34.023  33.241  32.207  1.00  0.00    -0.200 F 
ATOM     87  C   UNL A   1      34.533  33.245  29.907  1.00  0.00     0.200 A 
ATOM     88  F   UNL A   1      35.128  33.261  27.626  1.00  0.00    -0.200 F 
ATOM     89  F   UNL A   1      33.556  34.132  29.673  1.00  0.00    -0.200 F 
ENDBRANCH  55  79
BRANCH  67  90
ATOM     90  C   UNL A   1      42.047  30.244  33.609  1.00  0.00     0.064 A 
ATOM     91  C   UNL A   1      41.745  28.889  33.385  1.00  0.00     0.173 A 
ATOM     92  C   UNL A   1      42.320  30.629  34.927  1.00  0.00     0.173 A 
ATOM     93  F   UNL A   1      41.559  28.420  32.146  1.00  0.00    -0.203 F 
ATOM     94  C   UNL A   1      41.690  27.973  34.435  1.00  0.00     0.198 A 
ATOM     95  C   UNL A   1      42.298  29.708  35.970  1.00  0.00     0.198 A 
ATOM     96  F   UNL A   1      42.663  31.899  35.196  1.00  0.00    -0.203 F 
ATOM     97  F   UNL A   1      41.396  26.687  34.194  1.00  0.00    -0.200 F 
ATOM     98  C   UNL A   1      41.977  28.383  35.726  1.00  0.00     0.200 A 
ATOM     99  F   UNL A   1      42.623  30.100  37.210  1.00  0.00    -0.200 F 
ATOM    100  F   UNL A   1      41.971  27.496  36.731  1.00  0.00    -0.200 F 
ENDBRANCH  67  90
ENDBRANCH  41  42
ENDBRANCH  33  36
ENDBRANCH  31  32
ENDBRANCH  30  31
ENDBRANCH   1  30
TORSDOF 15
ENDMDL
MODEL 3
REMARK VINA RESULT:     -12.7      3.309      8.387
REMARK SMILES Cn1cc(-c2cc(C(F)(F)F)c3c(C4CC4)nn(CC(=O)NCCCCNC(=O)c4ccc(-c5c6nc(c(-c7c(F)c(F)c(F)c(F)c7F)c7ccc([nH]7)c(-c7c(F)c(F)c(F)c(F)c7F)c7nc(c(-c8c(F)c(F)c(F)c(F)c8F)c8ccc5[nH]8)C=C7)C=C6)cc4)c3n2)cn1
REMARK SMILES IDX 24 1 23 2 22 3 20 4 21 5 19 7 18 8 5 9 6 10 94 11 7 12 93 13
REMARK SMILES IDX 12 14 13 15 17 16 4 17 1 18 2 19 3 20 96 21 95 22 8 23 9 24
REMARK SMILES IDX 10 25 11 26 14 27 15 28 16 29 25 30 26 31 27 32 28 33 29 35
REMARK SMILES IDX 30 36 31 37 92 38 32 39 91 40 33 41 34 42 35 43 85 44 36 45
REMARK SMILES IDX 90 46 84 47 86 48 37 49 89 50 83 51 82 52 38 54 70 55 50 56
REMARK SMILES IDX 69 57 51 58 54 59 68 60 87 61 52 62 53 63 67 65 88 66 55 67
REMARK SMILES IDX 39 68 40 69 48 70 41 71 42 72 46 73 49 74 43 75 44 76 47 77
REMARK SMILES IDX 45 78 71 79 72 80 80 81 73 82 74 83 78 84 81 85 75 86 76 87
REMARK SMILES IDX 79 88 77 89 56 90 57 91 65 92 58 93 59 94 63 95 66 96 60 97
REMARK SMILES IDX 61 98 64 99 62 100
REMARK H PARENT 22 6 27 34 86 53 54 64
REMARK Flexibility Score: inf
ROOT
ATOM      1  C   UNL A   1      34.824  22.554  26.488  1.00  0.00     0.023 C 
ENDROOT
BRANCH   1   2
ATOM      2  C   UNL A   1      33.494  22.151  25.854  1.00  0.00     0.116 C 
BRANCH   2   3
ATOM      3  N   UNL A   1      32.364  22.400  26.723  1.00  0.00    -0.354 N 
ATOM      4  C   UNL A   1      31.277  23.183  26.446  1.00  0.00     0.241 C 
ATOM      5  O   UNL A   1      30.397  23.313  27.297  1.00  0.00    -0.273 OA
ATOM      6  H   UNL A   1      32.381  21.961  27.604  1.00  0.00     0.163 HD
BRANCH   4   7
ATOM      7  C   UNL A   1      31.145  23.768  25.071  1.00  0.00     0.246 C 
BRANCH   7   8
ATOM      8  N   UNL A   1      30.929  25.202  25.069  1.00  0.00    -0.237 N 
ATOM      9  C   UNL A   1      33.948  26.664  24.975  1.00  0.00     0.077 A 
ATOM     10  C   UNL A   1      33.645  28.022  25.051  1.00  0.00     0.043 A 
ATOM     11  N   UNL A   1      33.176  25.794  25.667  1.00  0.00    -0.228 NA
ATOM     12  C   UNL A   1      32.326  28.402  25.408  1.00  0.00     0.071 A 
ATOM     13  C   UNL A   1      31.887  26.096  25.428  1.00  0.00     0.159 A 
ATOM     14  C   UNL A   1      31.402  27.367  25.169  1.00  0.00     0.055 A 
ATOM     15  C   UNL A   1      30.204  27.105  24.450  1.00  0.00     0.076 A 
ATOM     16  N   UNL A   1      29.892  25.796  24.434  1.00  0.00    -0.175 NA
BRANCH   9  17
ATOM     17  C   UNL A   1      34.243  26.017  23.666  1.00  0.00     0.038 A 
ATOM     18  C   UNL A   1      32.129  25.574  20.827  1.00  0.00     0.173 C 
ATOM     19  N   UNL A   1      33.243  25.504  21.754  1.00  0.00    -0.275 N 
ATOM     20  C   UNL A   1      33.739  26.557  22.482  1.00  0.00     0.118 A 
ATOM     21  N   UNL A   1      33.651  24.313  22.228  1.00  0.00    -0.181 NA
ATOM     22  C   UNL A   1      34.195  24.618  23.413  1.00  0.00     0.145 A 
ENDBRANCH   9  17
BRANCH  12  23
ATOM     23  C   UNL A   1      32.034  29.622  26.235  1.00  0.00     0.417 C 
ATOM     24  F   UNL A   1      31.404  29.397  27.412  1.00  0.00    -0.166 F 
ATOM     25  F   UNL A   1      33.182  30.285  26.562  1.00  0.00    -0.166 F 
ATOM     26  F   UNL A   1      31.265  30.537  25.579  1.00  0.00    -0.166 F 
ENDBRANCH  12  23
BRANCH  15  27
ATOM     27  C   UNL A   1      29.431  28.023  23.502  1.00  0.00     0.041 C 
ATOM     28  C   UNL A   1      29.586  29.517  23.425  1.00  0.00     0.011 C 
ATOM     29  C   UNL A   1      30.193  28.676  22.358  1.00  0.00     0.011 C 
ENDBRANCH  15  27
ENDBRANCH   7   8
ENDBRANCH   4   7
ENDBRANCH   2   3
ENDBRANCH   1   2
BRANCH   1  30
ATOM     30  C   UNL A   1      36.071  22.266  25.654  1.00  0.00     0.023 C 
BRANCH  30  31
ATOM     31  C   UNL A   1      37.266  23.114  26.043  1.00  0.00     0.116 C 
BRANCH  31  32
ATOM     32  N   UNL A   1      38.388  22.296  26.495  1.00  0.00    -0.352 N 
ATOM     33  C   UNL A   1      39.647  22.709  26.876  1.00  0.00     0.251 C 
ATOM     34  H   UNL A   1      38.226  21.326  26.531  1.00  0.00     0.163 HD
ATOM     35  O   UNL A   1      40.589  21.939  26.904  1.00  0.00    -0.269 OA
BRANCH  33  36
ATOM     36  C   UNL A   1      39.814  24.107  27.290  1.00  0.00     0.039 A 
ATOM     37  C   UNL A   1      38.872  25.081  26.957  1.00  0.00     0.014 A 
ATOM     38  C   UNL A   1      40.957  24.428  28.021  1.00  0.00     0.014 A 
ATOM     39  C   UNL A   1      39.090  26.381  27.394  1.00  0.00     0.010 A 
ATOM     40  C   UNL A   1      41.093  25.662  28.586  1.00  0.00     0.010 A 
ATOM     41  C   UNL A   1      40.208  26.653  28.198  1.00  0.00    -0.014 A 
BRANCH  41  42
ATOM     42  C   UNL A   1      40.459  27.979  28.714  1.00  0.00     0.031 A 
ATOM     43  C   UNL A   1      41.648  28.635  28.126  1.00  0.00     0.074 A 
ATOM     44  C   UNL A   1      39.571  28.617  29.505  1.00  0.00     0.049 A 
ATOM     45  N   UNL A   1      42.782  28.845  28.704  1.00  0.00    -0.248 NA
ATOM     46  C   UNL A   1      41.644  28.941  26.687  1.00  0.00     0.031 C 
ATOM     47  C   UNL A   1      38.218  28.210  29.899  1.00  0.00     0.029 A 
ATOM     48  N   UNL A   1      39.697  29.835  30.089  1.00  0.00    -0.354 N 
ATOM     49  C   UNL A   1      43.573  29.496  27.766  1.00  0.00     0.074 A 
ATOM     50  C   UNL A   1      42.901  29.350  26.502  1.00  0.00     0.031 C 
ATOM     51  C   UNL A   1      37.583  29.253  30.484  1.00  0.00     0.029 A 
ATOM     52  C   UNL A   1      38.531  30.337  30.653  1.00  0.00     0.049 A 
ATOM     53  H   UNL A   1      40.551  30.326  30.111  1.00  0.00     0.167 HD
ATOM     54  C   UNL A   1      44.586  30.313  28.166  1.00  0.00     0.037 A 
ATOM     55  C   UNL A   1      38.383  31.577  31.186  1.00  0.00     0.037 A 
ATOM     56  C   UNL A   1      44.909  30.084  29.555  1.00  0.00     0.049 A 
ATOM     57  C   UNL A   1      39.753  32.056  31.524  1.00  0.00     0.074 A 
ATOM     58  C   UNL A   1      45.375  29.000  30.273  1.00  0.00     0.029 A 
ATOM     59  N   UNL A   1      44.363  30.937  30.485  1.00  0.00    -0.354 N 
ATOM     60  N   UNL A   1      40.500  31.513  32.446  1.00  0.00    -0.248 NA
ATOM     61  C   UNL A   1      40.465  32.814  30.504  1.00  0.00     0.031 C 
ATOM     62  C   UNL A   1      44.652  29.033  31.503  1.00  0.00     0.029 A 
ATOM     63  C   UNL A   1      43.849  30.174  31.502  1.00  0.00     0.049 A 
ATOM     64  H   UNL A   1      44.345  31.920  30.429  1.00  0.00     0.167 HD
ATOM     65  C   UNL A   1      41.775  31.493  31.901  1.00  0.00     0.074 A 
ATOM     66  C   UNL A   1      41.702  32.365  30.728  1.00  0.00     0.031 C 
ATOM     67  C   UNL A   1      42.684  30.546  32.272  1.00  0.00     0.037 A 
BRANCH  54  68
ATOM     68  C   UNL A   1      45.020  31.559  27.437  1.00  0.00     0.064 A 
ATOM     69  C   UNL A   1      46.320  31.613  26.895  1.00  0.00     0.173 A 
ATOM     70  C   UNL A   1      44.337  32.792  27.497  1.00  0.00     0.173 A 
ATOM     71  F   UNL A   1      47.071  30.505  26.806  1.00  0.00    -0.203 F 
ATOM     72  C   UNL A   1      46.915  32.821  26.518  1.00  0.00     0.198 A 
ATOM     73  C   UNL A   1      44.913  33.987  27.068  1.00  0.00     0.198 A 
ATOM     74  F   UNL A   1      43.136  32.920  28.073  1.00  0.00    -0.203 F 
ATOM     75  F   UNL A   1      48.196  32.837  26.130  1.00  0.00    -0.200 F 
ATOM     76  C   UNL A   1      46.212  34.007  26.610  1.00  0.00     0.200 A 
ATOM     77  F   UNL A   1      44.221  35.130  27.185  1.00  0.00    -0.200 F 
ATOM     78  F   UNL A   1      46.797  35.172  26.305  1.00  0.00    -0.200 F 
ENDBRANCH  54  68
BRANCH  55  79
ATOM     79  C   UNL A   1      37.250  32.523  31.007  1.00  0.00     0.064 A 
ATOM     80  C   UNL A   1      36.977  33.064  29.736  1.00  0.00     0.173 A 
ATOM     81  C   UNL A   1      36.233  32.652  31.971  1.00  0.00     0.173 A 
ATOM     82  F   UNL A   1      37.882  32.961  28.752  1.00  0.00    -0.203 F 
ATOM     83  C   UNL A   1      35.738  33.635  29.431  1.00  0.00     0.198 A 
ATOM     84  C   UNL A   1      34.997  33.227  31.664  1.00  0.00     0.198 A 
ATOM     85  F   UNL A   1      36.373  32.132  33.197  1.00  0.00    -0.203 F 
ATOM     86  F   UNL A   1      35.486  34.059  28.184  1.00  0.00    -0.200 F 
ATOM     87  C   UNL A   1      34.741  33.697  30.390  1.00  0.00     0.200 A 
ATOM     88  F   UNL A   1      34.028  33.253  32.592  1.00  0.00    -0.200 F 
ATOM     89  F   UNL A   1      33.525  34.166  30.075  1.00  0.00    -0.200 F 
ENDBRANCH  55  79
BRANCH  67  90
ATOM     90  C   UNL A   1      42.347  29.675  33.454  1.00  0.00     0.064 A 
ATOM     91  C   UNL A   1      41.711  28.424  33.360  1.00  0.00     0.173 A 
ATOM     92  C   UNL A   1      42.831  30.053  34.711  1.00  0.00     0.173 A 
ATOM     93  F   UNL A   1      41.298  27.947  32.181  1.00  0.00    -0.203 F 
ATOM     94  C   UNL A   1      41.543  27.608  34.479  1.00  0.00     0.198 A 
ATOM     95  C   UNL A   1      42.694  29.224  35.821  1.00  0.00     0.198 A 
ATOM     96  F   UNL A   1      43.491  31.214  34.853  1.00  0.00    -0.203 F 
ATOM     97  F   UNL A   1      40.930  26.421  34.362  1.00  0.00    -0.200 F 
ATOM     98  C   UNL A   1      42.044  28.005  35.706  1.00  0.00     0.200 A 
ATOM     99  F   UNL A   1      43.223  29.592  36.996  1.00  0.00    -0.200 F 
ATOM    100  F   UNL A   1      41.926  27.203  36.774  1.00  0.00    -0.200 F 
ENDBRANCH  67  90
ENDBRANCH  41  42
ENDBRANCH  33  36
ENDBRANCH  31  32
ENDBRANCH  30  31
ENDBRANCH   1  30
TORSDOF 15
ENDMDL
