MODEL 1
REMARK VINA RESULT:     -12.7      0.000      0.000
REMARK SMILES O=C(NCCCCNC(=O)c1cncc(C(=O)c2ccsc2)c1)c1ccc(-c2c3nc(c(-c4c(F)c(F)c(F)c(F)c4F)c4ccc([nH]4)c(-c4c(F)c(F)c(F)c(F)c4F)c4nc(c(-c5c(F)c(F)c(F)c(F)c5F)c5ccc2[nH]5)C=C4)C=C3)cc1
REMARK SMILES IDX 5 1 4 2 3 3 1 4 2 5 24 7 25 8 86 9 26 10 85 11 27 12 28 13
REMARK SMILES IDX 29 14 79 15 30 16 84 17 78 18 80 19 31 20 83 21 77 22 76 23
REMARK SMILES IDX 32 25 64 26 44 27 63 28 45 29 48 30 62 31 81 32 46 33 47 34
REMARK SMILES IDX 61 36 82 37 49 38 33 39 34 40 42 41 35 42 36 43 40 44 43 45
REMARK SMILES IDX 37 46 38 47 41 48 39 49 65 50 66 51 74 52 67 53 68 54 72 55
REMARK SMILES IDX 75 56 69 57 70 58 73 59 71 60 50 61 51 62 59 63 52 64 53 65
REMARK SMILES IDX 57 66 60 67 54 68 55 69 58 70 56 71 6 72 7 73 8 74 9 75
REMARK SMILES IDX 10 77 11 78 12 79 23 80 13 81 15 82 14 83 16 84 17 85 18 86
REMARK SMILES IDX 19 87 22 88 20 89 21 90
REMARK H PARENT 3 6 80 24 48 35 8 76
REMARK Flexibility Score: inf
ROOT
ATOM      1  C   UNL A   1      31.339  32.064  26.924  1.00  0.00     0.023 C 
ENDROOT
BRANCH   1   2
ATOM      2  C   UNL A   1      32.632  32.820  27.185  1.00  0.00     0.116 C 
BRANCH   2   3
ATOM      3  N   UNL A   1      32.409  34.195  27.604  1.00  0.00    -0.352 N 
ATOM      4  O   UNL A   1      32.617  36.008  28.934  1.00  0.00    -0.269 OA
ATOM      5  C   UNL A   1      33.030  34.900  28.606  1.00  0.00     0.251 C 
ATOM      6  H   UNL A   1      31.719  34.686  27.100  1.00  0.00     0.163 HD
BRANCH   5   7
ATOM      7  C   UNL A   1      34.191  34.307  29.300  1.00  0.00     0.039 A 
ATOM      8  C   UNL A   1      34.004  33.503  30.428  1.00  0.00     0.014 A 
ATOM      9  C   UNL A   1      35.478  34.550  28.814  1.00  0.00     0.014 A 
ATOM     10  C   UNL A   1      35.104  33.048  31.142  1.00  0.00     0.010 A 
ATOM     11  C   UNL A   1      36.583  34.014  29.480  1.00  0.00     0.010 A 
ATOM     12  C   UNL A   1      36.403  33.267  30.656  1.00  0.00    -0.014 A 
BRANCH  12  13
ATOM     13  C   UNL A   1      37.542  32.585  31.317  1.00  0.00     0.031 A 
ATOM     14  C   UNL A   1      38.256  31.436  30.671  1.00  0.00     0.074 A 
ATOM     15  C   UNL A   1      37.918  33.032  32.532  1.00  0.00     0.049 A 
ATOM     16  N   UNL A   1      39.255  30.726  31.135  1.00  0.00    -0.248 NA
ATOM     17  C   UNL A   1      37.796  31.021  29.337  1.00  0.00     0.031 C 
ATOM     18  C   UNL A   1      37.276  34.130  33.260  1.00  0.00     0.029 A 
ATOM     19  N   UNL A   1      38.925  32.626  33.370  1.00  0.00    -0.354 N 
ATOM     20  C   UNL A   1      39.528  29.772  30.165  1.00  0.00     0.074 A 
ATOM     21  C   UNL A   1      38.585  29.982  29.088  1.00  0.00     0.031 C 
ATOM     22  C   UNL A   1      37.918  34.328  34.419  1.00  0.00     0.029 A 
ATOM     23  C   UNL A   1      38.968  33.327  34.550  1.00  0.00     0.049 A 
ATOM     24  H   UNL A   1      39.556  31.904  33.148  1.00  0.00     0.167 HD
ATOM     25  C   UNL A   1      40.484  28.812  30.182  1.00  0.00     0.037 A 
ATOM     26  C   UNL A   1      39.740  33.159  35.640  1.00  0.00     0.037 A 
ATOM     27  C   UNL A   1      41.432  28.631  31.253  1.00  0.00     0.049 A 
ATOM     28  C   UNL A   1      40.764  32.061  35.634  1.00  0.00     0.074 A 
ATOM     29  C   UNL A   1      42.490  27.740  31.324  1.00  0.00     0.029 A 
ATOM     30  N   UNL A   1      41.428  29.341  32.445  1.00  0.00    -0.354 N 
ATOM     31  N   UNL A   1      41.062  31.214  34.680  1.00  0.00    -0.248 NA
ATOM     32  C   UNL A   1      41.554  31.890  36.860  1.00  0.00     0.031 C 
ATOM     33  C   UNL A   1      43.085  27.866  32.584  1.00  0.00     0.029 A 
ATOM     34  C   UNL A   1      42.435  28.874  33.276  1.00  0.00     0.049 A 
ATOM     35  H   UNL A   1      40.803  30.068  32.667  1.00  0.00     0.167 HD
ATOM     36  C   UNL A   1      42.077  30.416  35.185  1.00  0.00     0.074 A 
ATOM     37  C   UNL A   1      42.369  30.903  36.517  1.00  0.00     0.031 C 
ATOM     38  C   UNL A   1      42.705  29.366  34.603  1.00  0.00     0.037 A 
BRANCH  25  39
ATOM     39  C   UNL A   1      40.563  27.859  29.025  1.00  0.00     0.064 A 
ATOM     40  C   UNL A   1      39.763  26.710  28.958  1.00  0.00     0.173 A 
ATOM     41  C   UNL A   1      41.366  28.165  27.915  1.00  0.00     0.173 A 
ATOM     42  F   UNL A   1      38.981  26.370  29.994  1.00  0.00    -0.203 F 
ATOM     43  C   UNL A   1      39.768  25.901  27.823  1.00  0.00     0.198 A 
ATOM     44  C   UNL A   1      41.350  27.368  26.774  1.00  0.00     0.198 A 
ATOM     45  F   UNL A   1      42.144  29.259  27.925  1.00  0.00    -0.203 F 
ATOM     46  F   UNL A   1      39.006  24.799  27.786  1.00  0.00    -0.200 F 
ATOM     47  C   UNL A   1      40.551  26.237  26.729  1.00  0.00     0.200 A 
ATOM     48  F   UNL A   1      42.096  27.704  25.713  1.00  0.00    -0.200 F 
ATOM     49  F   UNL A   1      40.533  25.471  25.629  1.00  0.00    -0.200 F 
ENDBRANCH  25  39
BRANCH  26  50
ATOM     50  C   UNL A   1      39.535  34.014  36.838  1.00  0.00     0.064 A 
ATOM     51  C   UNL A   1      40.130  35.278  36.937  1.00  0.00     0.173 A 
ATOM     52  C   UNL A   1      38.755  33.573  37.917  1.00  0.00     0.173 A 
ATOM     53  F   UNL A   1      40.898  35.737  35.938  1.00  0.00    -0.203 F 
ATOM     54  C   UNL A   1      39.979  36.056  38.083  1.00  0.00     0.198 A 
ATOM     55  C   UNL A   1      38.573  34.367  39.047  1.00  0.00     0.198 A 
ATOM     56  F   UNL A   1      38.158  32.373  37.871  1.00  0.00    -0.203 F 
ATOM     57  F   UNL A   1      40.607  37.235  38.177  1.00  0.00    -0.200 F 
ATOM     58  C   UNL A   1      39.195  35.602  39.134  1.00  0.00     0.200 A 
ATOM     59  F   UNL A   1      37.799  33.932  40.051  1.00  0.00    -0.200 F 
ATOM     60  F   UNL A   1      39.050  36.350  40.237  1.00  0.00    -0.200 F 
ENDBRANCH  26  50
BRANCH  38  61
ATOM     61  C   UNL A   1      43.769  28.679  35.406  1.00  0.00     0.064 A 
ATOM     62  C   UNL A   1      45.119  29.043  35.292  1.00  0.00     0.173 A 
ATOM     63  C   UNL A   1      43.435  27.666  36.316  1.00  0.00     0.173 A 
ATOM     64  F   UNL A   1      45.490  29.992  34.419  1.00  0.00    -0.203 F 
ATOM     65  C   UNL A   1      46.098  28.401  36.043  1.00  0.00     0.198 A 
ATOM     66  C   UNL A   1      44.414  27.048  37.090  1.00  0.00     0.198 A 
ATOM     67  F   UNL A   1      42.158  27.284  36.464  1.00  0.00    -0.203 F 
ATOM     68  F   UNL A   1      47.387  28.729  35.880  1.00  0.00    -0.200 F 
ATOM     69  C   UNL A   1      45.745  27.411  36.946  1.00  0.00     0.200 A 
ATOM     70  F   UNL A   1      44.069  26.100  37.971  1.00  0.00    -0.200 F 
ATOM     71  F   UNL A   1      46.688  26.798  37.674  1.00  0.00    -0.200 F 
ENDBRANCH  38  61
ENDBRANCH  12  13
ENDBRANCH   5   7
ENDBRANCH   2   3
ENDBRANCH   1   2
BRANCH   1  72
ATOM     72  C   UNL A   1      31.400  31.065  25.773  1.00  0.00     0.023 C 
BRANCH  72  73
ATOM     73  C   UNL A   1      32.439  29.959  25.933  1.00  0.00     0.116 C 
BRANCH  73  74
ATOM     74  N   UNL A   1      33.151  29.674  24.695  1.00  0.00    -0.352 N 
ATOM     75  C   UNL A   1      32.806  28.848  23.655  1.00  0.00     0.252 C 
ATOM     76  H   UNL A   1      34.009  30.145  24.589  1.00  0.00     0.163 HD
ATOM     77  O   UNL A   1      33.616  28.596  22.769  1.00  0.00    -0.269 OA
BRANCH  75  78
ATOM     78  C   UNL A   1      31.460  28.257  23.596  1.00  0.00     0.058 A 
ATOM     79  C   UNL A   1      31.264  26.956  24.026  1.00  0.00     0.124 A 
ATOM     80  C   UNL A   1      30.366  28.980  23.118  1.00  0.00     0.029 A 
ATOM     81  N   UNL A   1      30.043  26.370  24.070  1.00  0.00    -0.263 NA
ATOM     82  C   UNL A   1      29.088  28.422  23.180  1.00  0.00     0.042 A 
ATOM     83  C   UNL A   1      28.985  27.121  23.664  1.00  0.00     0.123 A 
BRANCH  82  84
ATOM     84  C   UNL A   1      27.845  29.182  22.883  1.00  0.00     0.195 C 
ATOM     85  O   UNL A   1      26.765  28.714  23.227  1.00  0.00    -0.289 OA
BRANCH  84  86
ATOM     86  C   UNL A   1      27.939  30.522  22.301  1.00  0.00     0.033 A 
ATOM     87  C   UNL A   1      28.038  31.778  22.991  1.00  0.00     0.024 A 
ATOM     88  C   UNL A   1      27.974  30.717  20.932  1.00  0.00     0.077 A 
ATOM     89  C   UNL A   1      28.067  32.855  22.132  1.00  0.00     0.065 A 
ATOM     90  S   UNL A   1      28.019  32.369  20.495  1.00  0.00    -0.152 S 
ENDBRANCH  84  86
ENDBRANCH  82  84
ENDBRANCH  75  78
ENDBRANCH  73  74
ENDBRANCH  72  73
ENDBRANCH   1  72
TORSDOF 13
ENDMDL
MODEL 2
REMARK VINA RESULT:     -12.6      0.770      2.117
REMARK SMILES O=C(NCCCCNC(=O)c1cncc(C(=O)c2ccsc2)c1)c1ccc(-c2c3nc(c(-c4c(F)c(F)c(F)c(F)c4F)c4ccc([nH]4)c(-c4c(F)c(F)c(F)c(F)c4F)c4nc(c(-c5c(F)c(F)c(F)c(F)c5F)c5ccc2[nH]5)C=C4)C=C3)cc1
REMARK SMILES IDX 5 1 4 2 3 3 1 4 2 5 24 7 25 8 86 9 26 10 85 11 27 12 28 13
REMARK SMILES IDX 29 14 79 15 30 16 84 17 78 18 80 19 31 20 83 21 77 22 76 23
REMARK SMILES IDX 32 25 64 26 44 27 63 28 45 29 48 30 62 31 81 32 46 33 47 34
REMARK SMILES IDX 61 36 82 37 49 38 33 39 34 40 42 41 35 42 36 43 40 44 43 45
REMARK SMILES IDX 37 46 38 47 41 48 39 49 65 50 66 51 74 52 67 53 68 54 72 55
REMARK SMILES IDX 75 56 69 57 70 58 73 59 71 60 50 61 51 62 59 63 52 64 53 65
REMARK SMILES IDX 57 66 60 67 54 68 55 69 58 70 56 71 6 72 7 73 8 74 9 75
REMARK SMILES IDX 10 77 11 78 12 79 23 80 13 81 15 82 14 83 16 84 17 85 18 86
REMARK SMILES IDX 19 87 22 88 20 89 21 90
REMARK H PARENT 3 6 80 24 48 35 8 76
REMARK Flexibility Score: inf
ROOT
ATOM      1  C   UNL A   1      31.327  31.957  26.784  1.00  0.00     0.023 C 
ENDROOT
BRANCH   1   2
ATOM      2  C   UNL A   1      32.628  32.717  26.989  1.00  0.00     0.116 C 
BRANCH   2   3
ATOM      3  N   UNL A   1      32.422  34.065  27.495  1.00  0.00    -0.352 N 
ATOM      4  O   UNL A   1      32.661  35.790  28.934  1.00  0.00    -0.269 OA
ATOM      5  C   UNL A   1      33.059  34.701  28.533  1.00  0.00     0.251 C 
ATOM      6  H   UNL A   1      31.732  34.593  27.030  1.00  0.00     0.163 HD
BRANCH   5   7
ATOM      7  C   UNL A   1      34.221  34.055  29.177  1.00  0.00     0.039 A 
ATOM      8  C   UNL A   1      34.031  33.085  30.165  1.00  0.00     0.014 A 
ATOM      9  C   UNL A   1      35.512  34.417  28.784  1.00  0.00     0.014 A 
ATOM     10  C   UNL A   1      35.125  32.570  30.847  1.00  0.00     0.010 A 
ATOM     11  C   UNL A   1      36.616  33.829  29.407  1.00  0.00     0.010 A 
ATOM     12  C   UNL A   1      36.429  32.909  30.450  1.00  0.00    -0.014 A 
BRANCH  12  13
ATOM     13  C   UNL A   1      37.574  32.179  31.048  1.00  0.00     0.031 A 
ATOM     14  C   UNL A   1      38.321  31.125  30.287  1.00  0.00     0.074 A 
ATOM     15  C   UNL A   1      37.925  32.493  32.311  1.00  0.00     0.049 A 
ATOM     16  N   UNL A   1      39.328  30.386  30.684  1.00  0.00    -0.248 NA
ATOM     17  C   UNL A   1      37.886  30.853  28.909  1.00  0.00     0.031 C 
ATOM     18  C   UNL A   1      37.250  33.490  33.148  1.00  0.00     0.029 A 
ATOM     19  N   UNL A   1      38.929  32.016  33.113  1.00  0.00    -0.354 N 
ATOM     20  C   UNL A   1      39.634  29.553  29.618  1.00  0.00     0.074 A 
ATOM     21  C   UNL A   1      38.700  29.865  28.556  1.00  0.00     0.031 C 
ATOM     22  C   UNL A   1      37.873  33.569  34.331  1.00  0.00     0.029 A 
ATOM     23  C   UNL A   1      38.942  32.580  34.366  1.00  0.00     0.049 A 
ATOM     24  H   UNL A   1      39.578  31.336  32.821  1.00  0.00     0.167 HD
ATOM     25  C   UNL A   1      40.610  28.616  29.541  1.00  0.00     0.037 A 
ATOM     26  C   UNL A   1      39.703  32.305  35.440  1.00  0.00     0.037 A 
ATOM     27  C   UNL A   1      41.547  28.334  30.599  1.00  0.00     0.049 A 
ATOM     28  C   UNL A   1      40.751  31.235  35.327  1.00  0.00     0.074 A 
ATOM     29  C   UNL A   1      42.623  27.462  30.586  1.00  0.00     0.029 A 
ATOM     30  N   UNL A   1      41.513  28.905  31.863  1.00  0.00    -0.354 N 
ATOM     31  N   UNL A   1      41.079  30.507  34.288  1.00  0.00    -0.248 NA
ATOM     32  C   UNL A   1      41.528  30.943  36.538  1.00  0.00     0.031 C 
ATOM     33  C   UNL A   1      43.199  27.457  31.860  1.00  0.00     0.029 A 
ATOM     34  C   UNL A   1      42.519  28.367  32.652  1.00  0.00     0.049 A 
ATOM     35  H   UNL A   1      40.870  29.591  32.156  1.00  0.00     0.167 HD
ATOM     36  C   UNL A   1      42.104  29.677  34.716  1.00  0.00     0.074 A 
ATOM     37  C   UNL A   1      42.368  30.017  36.099  1.00  0.00     0.031 C 
ATOM     38  C   UNL A   1      42.761  28.712  34.029  1.00  0.00     0.037 A 
BRANCH  25  39
ATOM     39  C   UNL A   1      40.723  27.802  28.285  1.00  0.00     0.064 A 
ATOM     40  C   UNL A   1      41.497  28.226  27.197  1.00  0.00     0.173 A 
ATOM     41  C   UNL A   1      40.143  26.525  28.221  1.00  0.00     0.173 A 
ATOM     42  F   UNL A   1      42.070  29.439  27.207  1.00  0.00    -0.203 F 
ATOM     43  C   UNL A   1      41.683  27.402  26.088  1.00  0.00     0.198 A 
ATOM     44  C   UNL A   1      40.350  25.696  27.122  1.00  0.00     0.198 A 
ATOM     45  F   UNL A   1      39.400  26.068  29.240  1.00  0.00    -0.203 F 
ATOM     46  F   UNL A   1      42.415  27.834  25.051  1.00  0.00    -0.200 F 
ATOM     47  C   UNL A   1      41.120  26.136  26.056  1.00  0.00     0.200 A 
ATOM     48  F   UNL A   1      39.818  24.467  27.101  1.00  0.00    -0.200 F 
ATOM     49  F   UNL A   1      41.322  25.336  24.999  1.00  0.00    -0.200 F 
ENDBRANCH  25  39
BRANCH  26  50
ATOM     50  C   UNL A   1      39.465  33.016  36.724  1.00  0.00     0.064 A 
ATOM     51  C   UNL A   1      38.502  32.566  37.635  1.00  0.00     0.173 A 
ATOM     52  C   UNL A   1      40.185  34.175  37.054  1.00  0.00     0.173 A 
ATOM     53  F   UNL A   1      37.777  31.472  37.357  1.00  0.00    -0.203 F 
ATOM     54  C   UNL A   1      38.246  33.263  38.813  1.00  0.00     0.198 A 
ATOM     55  C   UNL A   1      39.955  34.850  38.250  1.00  0.00     0.198 A 
ATOM     56  F   UNL A   1      41.123  34.645  36.219  1.00  0.00    -0.203 F 
ATOM     57  F   UNL A   1      37.278  32.844  39.639  1.00  0.00    -0.200 F 
ATOM     58  C   UNL A   1      38.977  34.401  39.122  1.00  0.00     0.200 A 
ATOM     59  F   UNL A   1      40.677  35.937  38.552  1.00  0.00    -0.200 F 
ATOM     60  F   UNL A   1      38.729  35.073  40.255  1.00  0.00    -0.200 F 
ENDBRANCH  26  50
BRANCH  38  61
ATOM     61  C   UNL A   1      43.829  27.961  34.766  1.00  0.00     0.064 A 
ATOM     62  C   UNL A   1      43.562  26.730  35.384  1.00  0.00     0.173 A 
ATOM     63  C   UNL A   1      45.138  28.460  34.832  1.00  0.00     0.173 A 
ATOM     64  F   UNL A   1      42.321  26.222  35.367  1.00  0.00    -0.203 F 
ATOM     65  C   UNL A   1      44.561  26.041  36.064  1.00  0.00     0.198 A 
ATOM     66  C   UNL A   1      46.143  27.751  35.484  1.00  0.00     0.198 A 
ATOM     67  F   UNL A   1      45.445  29.631  34.253  1.00  0.00    -0.203 F 
ATOM     68  F   UNL A   1      44.271  24.893  36.693  1.00  0.00    -0.200 F 
ATOM     69  C   UNL A   1      45.851  26.546  36.107  1.00  0.00     0.200 A 
ATOM     70  F   UNL A   1      47.391  28.236  35.514  1.00  0.00    -0.200 F 
ATOM     71  F   UNL A   1      46.814  25.877  36.755  1.00  0.00    -0.200 F 
ENDBRANCH  38  61
ENDBRANCH  12  13
ENDBRANCH   5   7
ENDBRANCH   2   3
ENDBRANCH   1   2
BRANCH   1  72
ATOM     72  C   UNL A   1      31.397  30.825  25.764  1.00  0.00     0.023 C 
BRANCH  72  73
ATOM     73  C   UNL A   1      32.610  29.911  25.899  1.00  0.00     0.116 C 
BRANCH  73  74
ATOM     74  N   UNL A   1      33.290  29.689  24.630  1.00  0.00    -0.352 N 
ATOM     75  C   UNL A   1      32.934  28.889  23.572  1.00  0.00     0.252 C 
ATOM     76  H   UNL A   1      34.131  30.188  24.513  1.00  0.00     0.163 HD
ATOM     77  O   UNL A   1      33.722  28.692  22.653  1.00  0.00    -0.269 OA
BRANCH  75  78
ATOM     78  C   UNL A   1      31.604  28.263  23.534  1.00  0.00     0.058 A 
ATOM     79  C   UNL A   1      31.445  26.967  23.995  1.00  0.00     0.124 A 
ATOM     80  C   UNL A   1      30.489  28.946  23.046  1.00  0.00     0.029 A 
ATOM     81  N   UNL A   1      30.240  26.351  24.058  1.00  0.00    -0.263 NA
ATOM     82  C   UNL A   1      29.227  28.357  23.128  1.00  0.00     0.042 A 
ATOM     83  C   UNL A   1      29.160  27.064  23.641  1.00  0.00     0.123 A 
BRANCH  82  84
ATOM     84  C   UNL A   1      27.963  29.077  22.821  1.00  0.00     0.195 C 
ATOM     85  O   UNL A   1      26.893  28.561  23.130  1.00  0.00    -0.289 OA
BRANCH  84  86
ATOM     86  C   UNL A   1      28.019  30.433  22.272  1.00  0.00     0.033 A 
ATOM     87  C   UNL A   1      28.107  31.673  22.993  1.00  0.00     0.024 A 
ATOM     88  C   UNL A   1      28.023  30.664  20.908  1.00  0.00     0.077 A 
ATOM     89  C   UNL A   1      28.098  32.771  22.162  1.00  0.00     0.065 A 
ATOM     90  S   UNL A   1      28.027  32.327  20.514  1.00  0.00    -0.152 S 
ENDBRANCH  84  86
ENDBRANCH  82  84
ENDBRANCH  75  78
ENDBRANCH  73  74
ENDBRANCH  72  73
ENDBRANCH   1  72
TORSDOF 13
ENDMDL
MODEL 3
REMARK VINA RESULT:     -12.5      0.698      7.466
REMARK SMILES O=C(NCCCCNC(=O)c1cncc(C(=O)c2ccsc2)c1)c1ccc(-c2c3nc(c(-c4c(F)c(F)c(F)c(F)c4F)c4ccc([nH]4)c(-c4c(F)c(F)c(F)c(F)c4F)c4nc(c(-c5c(F)c(F)c(F)c(F)c5F)c5ccc2[nH]5)C=C4)C=C3)cc1
REMARK SMILES IDX 5 1 4 2 3 3 1 4 2 5 24 7 25 8 86 9 26 10 85 11 27 12 28 13
REMARK SMILES IDX 29 14 79 15 30 16 84 17 78 18 80 19 31 20 83 21 77 22 76 23
REMARK SMILES IDX 32 25 64 26 44 27 63 28 45 29 48 30 62 31 81 32 46 33 47 34
REMARK SMILES IDX 61 36 82 37 49 38 33 39 34 40 42 41 35 42 36 43 40 44 43 45
REMARK SMILES IDX 37 46 38 47 41 48 39 49 65 50 66 51 74 52 67 53 68 54 72 55
REMARK SMILES IDX 75 56 69 57 70 58 73 59 71 60 50 61 51 62 59 63 52 64 53 65
REMARK SMILES IDX 57 66 60 67 54 68 55 69 58 70 56 71 6 72 7 73 8 74 9 75
REMARK SMILES IDX 10 77 11 78 12 79 23 80 13 81 15 82 14 83 16 84 17 85 18 86
REMARK SMILES IDX 19 87 22 88 20 89 21 90
REMARK H PARENT 3 6 80 24 48 35 8 76
REMARK Flexibility Score: inf
ROOT
ATOM      1  C   UNL A   1      31.372  31.812  26.805  1.00  0.00     0.023 C 
ENDROOT
BRANCH   1   2
ATOM      2  C   UNL A   1      32.675  32.551  27.066  1.00  0.00     0.116 C 
BRANCH   2   3
ATOM      3  N   UNL A   1      32.469  33.927  27.491  1.00  0.00    -0.352 N 
ATOM      4  O   UNL A   1      32.701  35.731  28.829  1.00  0.00    -0.269 OA
ATOM      5  C   UNL A   1      33.099  34.620  28.497  1.00  0.00     0.251 C 
ATOM      6  H   UNL A   1      31.786  34.429  26.989  1.00  0.00     0.163 HD
BRANCH   5   7
ATOM      7  C   UNL A   1      34.252  34.008  29.188  1.00  0.00     0.039 A 
ATOM      8  C   UNL A   1      34.051  33.042  30.177  1.00  0.00     0.014 A 
ATOM      9  C   UNL A   1      35.547  34.400  28.839  1.00  0.00     0.014 A 
ATOM     10  C   UNL A   1      35.131  32.560  30.903  1.00  0.00     0.010 A 
ATOM     11  C   UNL A   1      36.642  33.845  29.507  1.00  0.00     0.010 A 
ATOM     12  C   UNL A   1      36.440  32.929  30.551  1.00  0.00    -0.014 A 
BRANCH  12  13
ATOM     13  C   UNL A   1      37.580  32.233  31.197  1.00  0.00     0.031 A 
ATOM     14  C   UNL A   1      38.055  32.605  32.571  1.00  0.00     0.074 A 
ATOM     15  C   UNL A   1      38.186  31.248  30.505  1.00  0.00     0.049 A 
ATOM     16  N   UNL A   1      39.050  32.103  33.258  1.00  0.00    -0.248 NA
ATOM     17  C   UNL A   1      37.329  33.679  33.266  1.00  0.00     0.031 C 
ATOM     18  C   UNL A   1      37.816  30.821  29.152  1.00  0.00     0.029 A 
ATOM     19  N   UNL A   1      39.232  30.426  30.835  1.00  0.00    -0.354 N 
ATOM     20  C   UNL A   1      39.085  32.809  34.452  1.00  0.00     0.074 A 
ATOM     21  C   UNL A   1      38.018  33.785  34.397  1.00  0.00     0.031 C 
ATOM     22  C   UNL A   1      38.603  29.804  28.779  1.00  0.00     0.029 A 
ATOM     23  C   UNL A   1      39.577  29.554  29.831  1.00  0.00     0.049 A 
ATOM     24  H   UNL A   1      39.692  30.457  31.705  1.00  0.00     0.167 HD
ATOM     25  C   UNL A   1      39.935  32.647  35.495  1.00  0.00     0.037 A 
ATOM     26  C   UNL A   1      40.593  28.675  29.748  1.00  0.00     0.037 A 
ATOM     27  C   UNL A   1      40.978  31.654  35.543  1.00  0.00     0.049 A 
ATOM     28  C   UNL A   1      41.535  28.550  30.911  1.00  0.00     0.074 A 
ATOM     29  C   UNL A   1      41.836  31.358  36.589  1.00  0.00     0.029 A 
ATOM     30  N   UNL A   1      41.317  30.805  34.499  1.00  0.00    -0.354 N 
ATOM     31  N   UNL A   1      41.510  29.171  32.064  1.00  0.00    -0.248 NA
ATOM     32  C   UNL A   1      42.651  27.608  30.757  1.00  0.00     0.031 C 
ATOM     33  C   UNL A   1      42.735  30.378  36.156  1.00  0.00     0.029 A 
ATOM     34  C   UNL A   1      42.402  30.021  34.860  1.00  0.00     0.049 A 
ATOM     35  H   UNL A   1      40.855  30.767  33.630  1.00  0.00     0.167 HD
ATOM     36  C   UNL A   1      42.599  28.691  32.776  1.00  0.00     0.074 A 
ATOM     37  C   UNL A   1      43.243  27.701  31.939  1.00  0.00     0.031 C 
ATOM     38  C   UNL A   1      43.034  29.046  34.009  1.00  0.00     0.037 A 
BRANCH  25  39
ATOM     39  C   UNL A   1      39.803  33.565  36.675  1.00  0.00     0.064 A 
ATOM     40  C   UNL A   1      40.432  34.817  36.712  1.00  0.00     0.173 A 
ATOM     41  C   UNL A   1      38.939  33.233  37.730  1.00  0.00     0.173 A 
ATOM     42  F   UNL A   1      41.272  35.180  35.730  1.00  0.00    -0.203 F 
ATOM     43  C   UNL A   1      40.204  35.701  37.765  1.00  0.00     0.198 A 
ATOM     44  C   UNL A   1      38.694  34.128  38.768  1.00  0.00     0.198 A 
ATOM     45  F   UNL A   1      38.305  32.051  37.738  1.00  0.00    -0.203 F 
ATOM     46  F   UNL A   1      40.828  36.887  37.788  1.00  0.00    -0.200 F 
ATOM     47  C   UNL A   1      39.327  35.361  38.784  1.00  0.00     0.200 A 
ATOM     48  F   UNL A   1      37.835  33.804  39.743  1.00  0.00    -0.200 F 
ATOM     49  F   UNL A   1      39.089  36.225  39.782  1.00  0.00    -0.200 F 
ENDBRANCH  25  39
BRANCH  26  50
ATOM     50  C   UNL A   1      40.799  27.889  28.503  1.00  0.00     0.064 A 
ATOM     51  C   UNL A   1      41.573  28.389  27.449  1.00  0.00     0.173 A 
ATOM     52  C   UNL A   1      40.206  26.628  28.337  1.00  0.00     0.173 A 
ATOM     53  F   UNL A   1      42.147  29.597  27.554  1.00  0.00    -0.203 F 
ATOM     54  C   UNL A   1      41.721  27.673  26.264  1.00  0.00     0.198 A 
ATOM     55  C   UNL A   1      40.386  25.896  27.167  1.00  0.00     0.198 A 
ATOM     56  F   UNL A   1      39.459  26.100  29.319  1.00  0.00    -0.203 F 
ATOM     57  F   UNL A   1      42.418  28.200  25.249  1.00  0.00    -0.200 F 
ATOM     58  C   UNL A   1      41.133  26.424  26.126  1.00  0.00     0.200 A 
ATOM     59  F   UNL A   1      39.831  24.682  27.047  1.00  0.00    -0.200 F 
ATOM     60  F   UNL A   1      41.275  25.736  24.985  1.00  0.00    -0.200 F 
ENDBRANCH  26  50
BRANCH  38  61
ATOM     61  C   UNL A   1      44.262  28.355  34.522  1.00  0.00     0.064 A 
ATOM     62  C   UNL A   1      45.539  28.910  34.349  1.00  0.00     0.173 A 
ATOM     63  C   UNL A   1      44.161  27.140  35.217  1.00  0.00     0.173 A 
ATOM     64  F   UNL A   1      45.689  30.059  33.673  1.00  0.00    -0.203 F 
ATOM     65  C   UNL A   1      46.671  28.260  34.830  1.00  0.00     0.198 A 
ATOM     66  C   UNL A   1      45.293  26.510  35.726  1.00  0.00     0.198 A 
ATOM     67  F   UNL A   1      42.962  26.571  35.411  1.00  0.00    -0.203 F 
ATOM     68  F   UNL A   1      47.886  28.782  34.608  1.00  0.00    -0.200 F 
ATOM     69  C   UNL A   1      46.547  27.067  35.525  1.00  0.00     0.200 A 
ATOM     70  F   UNL A   1      45.170  25.364  36.407  1.00  0.00    -0.200 F 
ATOM     71  F   UNL A   1      47.638  26.447  35.995  1.00  0.00    -0.200 F 
ENDBRANCH  38  61
ENDBRANCH  12  13
ENDBRANCH   5   7
ENDBRANCH   2   3
ENDBRANCH   1   2
BRANCH   1  72
ATOM     72  C   UNL A   1      31.449  30.733  25.729  1.00  0.00     0.023 C 
BRANCH  72  73
ATOM     73  C   UNL A   1      32.668  29.821  25.818  1.00  0.00     0.116 C 
BRANCH  73  74
ATOM     74  N   UNL A   1      33.296  29.595  24.523  1.00  0.00    -0.352 N 
ATOM     75  C   UNL A   1      32.880  28.821  23.469  1.00  0.00     0.252 C 
ATOM     76  H   UNL A   1      34.148  30.069  24.384  1.00  0.00     0.163 HD
ATOM     77  O   UNL A   1      33.629  28.611  22.521  1.00  0.00    -0.269 OA
BRANCH  75  78
ATOM     78  C   UNL A   1      31.531  28.236  23.471  1.00  0.00     0.058 A 
ATOM     79  C   UNL A   1      31.345  26.943  23.929  1.00  0.00     0.124 A 
ATOM     80  C   UNL A   1      30.422  28.955  23.021  1.00  0.00     0.029 A 
ATOM     81  N   UNL A   1      30.124  26.364  24.028  1.00  0.00    -0.263 NA
ATOM     82  C   UNL A   1      29.146  28.405  23.140  1.00  0.00     0.042 A 
ATOM     83  C   UNL A   1      29.055  27.112  23.649  1.00  0.00     0.123 A 
BRANCH  82  84
ATOM     84  C   UNL A   1      27.895  29.166  22.877  1.00  0.00     0.195 C 
ATOM     85  O   UNL A   1      26.823  28.691  23.234  1.00  0.00    -0.289 OA
BRANCH  84  86
ATOM     86  C   UNL A   1      27.975  30.514  22.310  1.00  0.00     0.033 A 
ATOM     87  C   UNL A   1      28.090  31.761  23.015  1.00  0.00     0.024 A 
ATOM     88  C   UNL A   1      27.979  30.727  20.943  1.00  0.00     0.077 A 
ATOM     89  C   UNL A   1      28.099  32.848  22.170  1.00  0.00     0.065 A 
ATOM     90  S   UNL A   1      28.014  32.384  20.528  1.00  0.00    -0.152 S 
ENDBRANCH  84  86
ENDBRANCH  82  84
ENDBRANCH  75  78
ENDBRANCH  73  74
ENDBRANCH  72  73
ENDBRANCH   1  72
TORSDOF 13
ENDMDL
