MODEL 1
REMARK VINA RESULT:     -12.0      0.000      0.000
REMARK SMILES O=C(NCCCCNC(=O)[C@@H](CCO)NC(=O)c1c(F)ccc([N+](=O)[O-])c1F)c1ccc(-c2c3nc(c(-c4c(F)c(F)c(F)c(F)c4F)c4ccc([nH]4)c(-c4c(F)c(F)c(F)c(F)c4F)c4nc(c(-c5c(F)c(F)c(F)c(F)c5F)c5ccc2[nH]5)C=C4)C=C3)cc1
REMARK SMILES IDX 6 1 5 2 4 3 3 4 1 5 2 6 29 8 30 9 91 10 31 11 90 12 32 13
REMARK SMILES IDX 33 14 34 15 84 16 35 17 89 18 83 19 85 20 36 21 88 22 82 23
REMARK SMILES IDX 81 24 37 26 69 27 49 28 68 29 50 30 53 31 67 32 86 33 51 34
REMARK SMILES IDX 52 35 66 37 87 38 54 39 38 40 39 41 47 42 40 43 41 44 45 45
REMARK SMILES IDX 48 46 42 47 43 48 46 49 44 50 70 51 71 52 79 53 72 54 73 55
REMARK SMILES IDX 77 56 80 57 74 58 75 59 78 60 76 61 55 62 56 63 64 64 57 65
REMARK SMILES IDX 58 66 62 67 65 68 59 69 60 70 63 71 61 72 7 73 8 74 9 75
REMARK SMILES IDX 10 77 11 78 12 79 13 80 14 81 15 83 16 84 17 86 18 87 19 88
REMARK SMILES IDX 27 89 20 90 21 91 23 92 28 93 22 94 24 95 25 96 26 97
REMARK H PARENT 3 7 85 25 53 36 8 76 14 82 15 85
REMARK Flexibility Score: inf
ROOT
ATOM      1  C   UNL A   1      31.817  29.970  26.926  1.00  0.00     0.023 C 
ENDROOT
BRANCH   1   2
ATOM      2  C   UNL A   1      31.907  31.438  26.532  1.00  0.00     0.023 C 
BRANCH   2   3
ATOM      3  C   UNL A   1      32.917  32.256  27.316  1.00  0.00     0.116 C 
BRANCH   3   4
ATOM      4  N   UNL A   1      32.499  33.627  27.573  1.00  0.00    -0.352 N 
ATOM      5  O   UNL A   1      32.529  35.632  28.630  1.00  0.00    -0.269 OA
ATOM      6  C   UNL A   1      33.039  34.533  28.460  1.00  0.00     0.251 C 
ATOM      7  H   UNL A   1      31.732  33.947  27.046  1.00  0.00     0.163 HD
BRANCH   6   8
ATOM      8  C   UNL A   1      34.223  34.130  29.246  1.00  0.00     0.039 A 
ATOM      9  C   UNL A   1      35.502  34.460  28.797  1.00  0.00     0.014 A 
ATOM     10  C   UNL A   1      34.053  33.333  30.382  1.00  0.00     0.014 A 
ATOM     11  C   UNL A   1      36.602  33.830  29.358  1.00  0.00     0.010 A 
ATOM     12  C   UNL A   1      35.174  32.789  31.015  1.00  0.00     0.010 A 
ATOM     13  C   UNL A   1      36.453  32.991  30.476  1.00  0.00    -0.014 A 
BRANCH  13  14
ATOM     14  C   UNL A   1      37.664  32.365  31.065  1.00  0.00     0.031 A 
ATOM     15  C   UNL A   1      38.120  32.701  32.459  1.00  0.00     0.074 A 
ATOM     16  C   UNL A   1      38.310  31.425  30.348  1.00  0.00     0.049 A 
ATOM     17  N   UNL A   1      39.138  32.219  33.128  1.00  0.00    -0.248 NA
ATOM     18  C   UNL A   1      37.346  33.710  33.199  1.00  0.00     0.031 C 
ATOM     19  C   UNL A   1      37.955  31.020  28.986  1.00  0.00     0.029 A 
ATOM     20  N   UNL A   1      39.367  30.614  30.670  1.00  0.00    -0.354 N 
ATOM     21  C   UNL A   1      39.146  32.886  34.346  1.00  0.00     0.074 A 
ATOM     22  C   UNL A   1      38.037  33.814  34.327  1.00  0.00     0.031 C 
ATOM     23  C   UNL A   1      38.724  29.986  28.620  1.00  0.00     0.029 A 
ATOM     24  C   UNL A   1      39.678  29.707  29.687  1.00  0.00     0.049 A 
ATOM     25  H   UNL A   1      39.855  30.674  31.523  1.00  0.00     0.167 HD
ATOM     26  C   UNL A   1      40.000  32.727  35.385  1.00  0.00     0.037 A 
ATOM     27  C   UNL A   1      40.635  28.762  29.640  1.00  0.00     0.037 A 
ATOM     28  C   UNL A   1      41.073  31.767  35.415  1.00  0.00     0.049 A 
ATOM     29  C   UNL A   1      41.562  28.608  30.807  1.00  0.00     0.074 A 
ATOM     30  C   UNL A   1      41.970  31.509  36.437  1.00  0.00     0.029 A 
ATOM     31  N   UNL A   1      41.389  30.902  34.378  1.00  0.00    -0.354 N 
ATOM     32  N   UNL A   1      41.560  29.251  31.949  1.00  0.00    -0.248 NA
ATOM     33  C   UNL A   1      42.636  27.616  30.675  1.00  0.00     0.031 C 
ATOM     34  C   UNL A   1      42.849  30.511  36.008  1.00  0.00     0.029 A 
ATOM     35  C   UNL A   1      42.478  30.120  34.731  1.00  0.00     0.049 A 
ATOM     36  H   UNL A   1      40.910  30.848  33.519  1.00  0.00     0.167 HD
ATOM     37  C   UNL A   1      42.633  28.748  32.669  1.00  0.00     0.074 A 
ATOM     38  C   UNL A   1      43.246  27.725  31.848  1.00  0.00     0.031 C 
ATOM     39  C   UNL A   1      43.076  29.113  33.895  1.00  0.00     0.037 A 
BRANCH  26  40
ATOM     40  C   UNL A   1      39.830  33.611  36.585  1.00  0.00     0.064 A 
ATOM     41  C   UNL A   1      38.957  33.239  37.619  1.00  0.00     0.173 A 
ATOM     42  C   UNL A   1      40.446  34.867  36.666  1.00  0.00     0.173 A 
ATOM     43  F   UNL A   1      38.336  32.050  37.584  1.00  0.00    -0.203 F 
ATOM     44  C   UNL A   1      38.695  34.100  38.681  1.00  0.00     0.198 A 
ATOM     45  C   UNL A   1      40.198  35.719  37.740  1.00  0.00     0.198 A 
ATOM     46  F   UNL A   1      41.296  35.264  35.705  1.00  0.00    -0.203 F 
ATOM     47  F   UNL A   1      37.832  33.737  39.641  1.00  0.00    -0.200 F 
ATOM     48  C   UNL A   1      39.314  35.339  38.740  1.00  0.00     0.200 A 
ATOM     49  F   UNL A   1      40.810  36.909  37.805  1.00  0.00    -0.200 F 
ATOM     50  F   UNL A   1      39.061  36.168  39.762  1.00  0.00    -0.200 F 
ENDBRANCH  26  40
BRANCH  27  51
ATOM     51  C   UNL A   1      40.752  27.904  28.434  1.00  0.00     0.064 A 
ATOM     52  C   UNL A   1      40.150  26.639  28.383  1.00  0.00     0.173 A 
ATOM     53  C   UNL A   1      41.515  28.312  27.332  1.00  0.00     0.173 A 
ATOM     54  F   UNL A   1      39.416  26.202  29.417  1.00  0.00    -0.203 F 
ATOM     55  C   UNL A   1      40.331  25.801  27.286  1.00  0.00     0.198 A 
ATOM     56  C   UNL A   1      41.671  27.484  26.224  1.00  0.00     0.198 A 
ATOM     57  F   UNL A   1      42.095  29.522  27.330  1.00  0.00    -0.203 F 
ATOM     58  F   UNL A   1      39.782  24.578  27.282  1.00  0.00    -0.200 F 
ATOM     59  C   UNL A   1      41.088  26.225  26.206  1.00  0.00     0.200 A 
ATOM     60  F   UNL A   1      42.388  27.904  25.172  1.00  0.00    -0.200 F 
ATOM     61  F   UNL A   1      41.257  25.421  25.147  1.00  0.00    -0.200 F 
ENDBRANCH  27  51
BRANCH  39  62
ATOM     62  C   UNL A   1      44.288  28.409  34.422  1.00  0.00     0.064 A 
ATOM     63  C   UNL A   1      44.162  27.228  35.166  1.00  0.00     0.173 A 
ATOM     64  C   UNL A   1      45.571  28.945  34.242  1.00  0.00     0.173 A 
ATOM     65  F   UNL A   1      42.952  26.682  35.369  1.00  0.00    -0.203 F 
ATOM     66  C   UNL A   1      45.278  26.612  35.723  1.00  0.00     0.198 A 
ATOM     67  C   UNL A   1      46.688  28.315  34.782  1.00  0.00     0.198 A 
ATOM     68  F   UNL A   1      45.740  30.065  33.525  1.00  0.00    -0.203 F 
ATOM     69  F   UNL A   1      45.133  25.498  36.453  1.00  0.00    -0.200 F 
ATOM     70  C   UNL A   1      46.540  27.155  35.529  1.00  0.00     0.200 A 
ATOM     71  F   UNL A   1      47.909  28.828  34.577  1.00  0.00    -0.200 F 
ATOM     72  F   UNL A   1      47.616  26.557  36.059  1.00  0.00    -0.200 F 
ENDBRANCH  39  62
ENDBRANCH  13  14
ENDBRANCH   6   8
ENDBRANCH   3   4
ENDBRANCH   2   3
ENDBRANCH   1   2
BRANCH   1  73
ATOM     73  C   UNL A   1      32.984  29.096  26.468  1.00  0.00     0.116 C 
BRANCH  73  74
ATOM     74  N   UNL A   1      33.405  29.450  25.130  1.00  0.00    -0.354 N 
ATOM     75  C   UNL A   1      32.940  29.078  23.911  1.00  0.00     0.242 C 
ATOM     76  H   UNL A   1      34.165  30.074  25.099  1.00  0.00     0.163 HD
ATOM     77  O   UNL A   1      33.641  29.393  22.940  1.00  0.00    -0.273 OA
BRANCH  75  78
ATOM     78  C   UNL A   1      31.670  28.225  23.682  1.00  0.00     0.173 C 
BRANCH  78  79
ATOM     79  C   UNL A   1      30.353  29.021  23.650  1.00  0.00     0.063 C 
BRANCH  79  80
ATOM     80  C   UNL A   1      29.804  29.531  22.322  1.00  0.00     0.158 C 
BRANCH  80  81
ATOM     81  O   UNL A   1      30.808  29.923  21.403  1.00  0.00    -0.396 OA
ATOM     82  H   UNL A   1      30.795  29.327  20.637  1.00  0.00     0.210 HD
ENDBRANCH  80  81
ENDBRANCH  79  80
ENDBRANCH  78  79
BRANCH  78  83
ATOM     83  N   UNL A   1      31.775  27.215  22.628  1.00  0.00    -0.340 N 
ATOM     84  C   UNL A   1      32.122  25.892  22.696  1.00  0.00     0.258 C 
ATOM     85  H   UNL A   1      31.562  27.540  21.724  1.00  0.00     0.164 HD
ATOM     86  O   UNL A   1      32.227  25.230  21.668  1.00  0.00    -0.269 OA
BRANCH  84  87
ATOM     87  C   UNL A   1      32.326  25.224  23.985  1.00  0.00     0.118 A 
ATOM     88  C   UNL A   1      33.510  25.413  24.697  1.00  0.00     0.139 A 
ATOM     89  C   UNL A   1      31.288  24.485  24.553  1.00  0.00     0.216 A 
ATOM     90  F   UNL A   1      34.486  26.193  24.212  1.00  0.00    -0.206 F 
ATOM     91  C   UNL A   1      33.707  24.809  25.936  1.00  0.00     0.047 A 
ATOM     92  C   UNL A   1      31.464  23.912  25.814  1.00  0.00     0.305 A 
ATOM     93  F   UNL A   1      30.152  24.311  23.863  1.00  0.00    -0.198 F 
ATOM     94  C   UNL A   1      32.682  24.052  26.503  1.00  0.00     0.092 A 
BRANCH  92  95
ATOM     95  N   UNL A   1      30.377  23.171  26.447  1.00  0.00     0.065 N 
ATOM     96  O   UNL A   1      29.678  23.749  27.286  1.00  0.00    -0.258 OA
ATOM     97  O   UNL A   1      30.247  21.980  26.126  1.00  0.00    -0.258 OA
ENDBRANCH  92  95
ENDBRANCH  84  87
ENDBRANCH  78  83
ENDBRANCH  75  78
ENDBRANCH  73  74
ENDBRANCH   1  73
TORSDOF 17
ENDMDL
MODEL 2
REMARK VINA RESULT:     -12.0      1.310      2.297
REMARK SMILES O=C(NCCCCNC(=O)[C@@H](CCO)NC(=O)c1c(F)ccc([N+](=O)[O-])c1F)c1ccc(-c2c3nc(c(-c4c(F)c(F)c(F)c(F)c4F)c4ccc([nH]4)c(-c4c(F)c(F)c(F)c(F)c4F)c4nc(c(-c5c(F)c(F)c(F)c(F)c5F)c5ccc2[nH]5)C=C4)C=C3)cc1
REMARK SMILES IDX 6 1 5 2 4 3 3 4 1 5 2 6 29 8 30 9 91 10 31 11 90 12 32 13
REMARK SMILES IDX 33 14 34 15 84 16 35 17 89 18 83 19 85 20 36 21 88 22 82 23
REMARK SMILES IDX 81 24 37 26 69 27 49 28 68 29 50 30 53 31 67 32 86 33 51 34
REMARK SMILES IDX 52 35 66 37 87 38 54 39 38 40 39 41 47 42 40 43 41 44 45 45
REMARK SMILES IDX 48 46 42 47 43 48 46 49 44 50 70 51 71 52 79 53 72 54 73 55
REMARK SMILES IDX 77 56 80 57 74 58 75 59 78 60 76 61 55 62 56 63 64 64 57 65
REMARK SMILES IDX 58 66 62 67 65 68 59 69 60 70 63 71 61 72 7 73 8 74 9 75
REMARK SMILES IDX 10 77 11 78 12 79 13 80 14 81 15 83 16 84 17 86 18 87 19 88
REMARK SMILES IDX 27 89 20 90 21 91 23 92 28 93 22 94 24 95 25 96 26 97
REMARK H PARENT 3 7 85 25 53 36 8 76 14 82 15 85
REMARK Flexibility Score: inf
ROOT
ATOM      1  C   UNL A   1      31.971  30.422  26.810  1.00  0.00     0.023 C 
ENDROOT
BRANCH   1   2
ATOM      2  C   UNL A   1      31.779  31.933  26.772  1.00  0.00     0.023 C 
BRANCH   2   3
ATOM      3  C   UNL A   1      32.836  32.736  27.508  1.00  0.00     0.116 C 
BRANCH   3   4
ATOM      4  N   UNL A   1      32.463  34.122  27.754  1.00  0.00    -0.352 N 
ATOM      5  O   UNL A   1      32.563  36.135  28.791  1.00  0.00    -0.269 OA
ATOM      6  C   UNL A   1      33.038  35.019  28.628  1.00  0.00     0.251 C 
ATOM      7  H   UNL A   1      31.702  34.461  27.230  1.00  0.00     0.163 HD
BRANCH   6   8
ATOM      8  C   UNL A   1      34.215  34.587  29.409  1.00  0.00     0.039 A 
ATOM      9  C   UNL A   1      35.493  34.697  28.859  1.00  0.00     0.014 A 
ATOM     10  C   UNL A   1      34.027  33.978  30.653  1.00  0.00     0.014 A 
ATOM     11  C   UNL A   1      36.547  34.022  29.453  1.00  0.00     0.010 A 
ATOM     12  C   UNL A   1      35.116  33.393  31.305  1.00  0.00     0.010 A 
ATOM     13  C   UNL A   1      36.375  33.365  30.684  1.00  0.00    -0.014 A 
BRANCH  13  14
ATOM     14  C   UNL A   1      37.542  32.684  31.301  1.00  0.00     0.031 A 
ATOM     15  C   UNL A   1      37.981  33.000  32.705  1.00  0.00     0.074 A 
ATOM     16  C   UNL A   1      38.159  31.715  30.599  1.00  0.00     0.049 A 
ATOM     17  N   UNL A   1      38.960  32.471  33.396  1.00  0.00    -0.248 NA
ATOM     18  C   UNL A   1      37.238  34.044  33.427  1.00  0.00     0.031 C 
ATOM     19  C   UNL A   1      37.817  31.325  29.229  1.00  0.00     0.029 A 
ATOM     20  N   UNL A   1      39.169  30.855  30.944  1.00  0.00    -0.354 N 
ATOM     21  C   UNL A   1      38.972  33.138  34.614  1.00  0.00     0.074 A 
ATOM     22  C   UNL A   1      37.908  34.117  34.571  1.00  0.00     0.031 C 
ATOM     23  C   UNL A   1      38.545  30.257  28.880  1.00  0.00     0.029 A 
ATOM     24  C   UNL A   1      39.460  29.935  29.967  1.00  0.00     0.049 A 
ATOM     25  H   UNL A   1      39.640  30.894  31.807  1.00  0.00     0.167 HD
ATOM     26  C   UNL A   1      39.793  32.940  35.672  1.00  0.00     0.037 A 
ATOM     27  C   UNL A   1      40.373  28.946  29.942  1.00  0.00     0.037 A 
ATOM     28  C   UNL A   1      40.820  31.931  35.726  1.00  0.00     0.049 A 
ATOM     29  C   UNL A   1      41.265  28.750  31.130  1.00  0.00     0.074 A 
ATOM     30  C   UNL A   1      41.681  31.633  36.768  1.00  0.00     0.029 A 
ATOM     31  N   UNL A   1      41.118  31.051  34.697  1.00  0.00    -0.354 N 
ATOM     32  N   UNL A   1      41.268  29.392  32.271  1.00  0.00    -0.248 NA
ATOM     33  C   UNL A   1      42.295  27.709  31.021  1.00  0.00     0.031 C 
ATOM     34  C   UNL A   1      42.522  30.594  36.358  1.00  0.00     0.029 A 
ATOM     35  C   UNL A   1      42.161  30.221  35.074  1.00  0.00     0.049 A 
ATOM     36  H   UNL A   1      40.657  31.020  33.827  1.00  0.00     0.167 HD
ATOM     37  C   UNL A   1      42.299  28.842  33.015  1.00  0.00     0.074 A 
ATOM     38  C   UNL A   1      42.882  27.790  32.208  1.00  0.00     0.031 C 
ATOM     39  C   UNL A   1      42.731  29.186  34.251  1.00  0.00     0.037 A 
BRANCH  26  40
ATOM     40  C   UNL A   1      39.638  33.832  36.868  1.00  0.00     0.064 A 
ATOM     41  C   UNL A   1      38.821  33.441  37.941  1.00  0.00     0.173 A 
ATOM     42  C   UNL A   1      40.210  35.111  36.911  1.00  0.00     0.173 A 
ATOM     43  F   UNL A   1      38.244  32.229  37.943  1.00  0.00    -0.203 F 
ATOM     44  C   UNL A   1      38.569  34.305  39.003  1.00  0.00     0.198 A 
ATOM     45  C   UNL A   1      39.972  35.966  37.985  1.00  0.00     0.198 A 
ATOM     46  F   UNL A   1      41.006  35.527  35.914  1.00  0.00    -0.203 F 
ATOM     47  F   UNL A   1      37.759  33.923  39.999  1.00  0.00    -0.200 F 
ATOM     48  C   UNL A   1      39.143  35.566  39.023  1.00  0.00     0.200 A 
ATOM     49  F   UNL A   1      40.542  37.178  38.013  1.00  0.00    -0.200 F 
ATOM     50  F   UNL A   1      38.899  36.398  40.046  1.00  0.00    -0.200 F 
ENDBRANCH  26  40
BRANCH  27  51
ATOM     51  C   UNL A   1      40.477  28.083  28.739  1.00  0.00     0.064 A 
ATOM     52  C   UNL A   1      41.231  28.479  27.624  1.00  0.00     0.173 A 
ATOM     53  C   UNL A   1      39.778  26.871  28.660  1.00  0.00     0.173 A 
ATOM     54  F   UNL A   1      41.911  29.635  27.650  1.00  0.00    -0.203 F 
ATOM     55  C   UNL A   1      41.258  27.709  26.465  1.00  0.00     0.198 A 
ATOM     56  C   UNL A   1      39.830  26.088  27.509  1.00  0.00     0.198 A 
ATOM     57  F   UNL A   1      39.058  26.444  29.708  1.00  0.00    -0.203 F 
ATOM     58  F   UNL A   1      41.949  28.133  25.398  1.00  0.00    -0.200 F 
ATOM     59  C   UNL A   1      40.561  26.513  26.409  1.00  0.00     0.200 A 
ATOM     60  F   UNL A   1      39.171  24.921  27.466  1.00  0.00    -0.200 F 
ATOM     61  F   UNL A   1      40.593  25.768  25.295  1.00  0.00    -0.200 F 
ENDBRANCH  27  51
BRANCH  39  62
ATOM     62  C   UNL A   1      43.897  28.427  34.805  1.00  0.00     0.064 A 
ATOM     63  C   UNL A   1      45.209  28.864  34.576  1.00  0.00     0.173 A 
ATOM     64  C   UNL A   1      43.711  27.228  35.507  1.00  0.00     0.173 A 
ATOM     65  F   UNL A   1      45.435  30.003  33.903  1.00  0.00    -0.203 F 
ATOM     66  C   UNL A   1      46.297  28.121  35.022  1.00  0.00     0.198 A 
ATOM     67  C   UNL A   1      44.802  26.498  35.971  1.00  0.00     0.198 A 
ATOM     68  F   UNL A   1      42.473  26.780  35.761  1.00  0.00    -0.203 F 
ATOM     69  F   UNL A   1      47.544  28.543  34.771  1.00  0.00    -0.200 F 
ATOM     70  C   UNL A   1      46.092  26.940  35.721  1.00  0.00     0.200 A 
ATOM     71  F   UNL A   1      44.603  25.369  36.664  1.00  0.00    -0.200 F 
ATOM     72  F   UNL A   1      47.141  26.229  36.157  1.00  0.00    -0.200 F 
ENDBRANCH  39  62
ENDBRANCH  13  14
ENDBRANCH   6   8
ENDBRANCH   3   4
ENDBRANCH   2   3
ENDBRANCH   1   2
BRANCH   1  73
ATOM     73  C   UNL A   1      31.881  29.716  25.458  1.00  0.00     0.116 C 
BRANCH  73  74
ATOM     74  N   UNL A   1      31.501  28.330  25.620  1.00  0.00    -0.354 N 
ATOM     75  C   UNL A   1      30.997  27.425  24.743  1.00  0.00     0.242 C 
ATOM     76  H   UNL A   1      31.633  27.979  26.530  1.00  0.00     0.163 HD
ATOM     77  O   UNL A   1      30.580  26.366  25.231  1.00  0.00    -0.273 OA
BRANCH  75  78
ATOM     78  C   UNL A   1      30.832  27.675  23.226  1.00  0.00     0.173 C 
BRANCH  78  79
ATOM     79  C   UNL A   1      29.587  28.491  22.835  1.00  0.00     0.063 C 
BRANCH  79  80
ATOM     80  C   UNL A   1      29.735  29.946  22.406  1.00  0.00     0.158 C 
BRANCH  80  81
ATOM     81  O   UNL A   1      30.533  30.121  21.249  1.00  0.00    -0.396 OA
ATOM     82  H   UNL A   1      29.990  29.976  20.458  1.00  0.00     0.210 HD
ENDBRANCH  80  81
ENDBRANCH  79  80
ENDBRANCH  78  79
BRANCH  78  83
ATOM     83  N   UNL A   1      32.049  28.082  22.523  1.00  0.00    -0.340 N 
ATOM     84  C   UNL A   1      33.220  27.405  22.306  1.00  0.00     0.258 C 
ATOM     85  H   UNL A   1      32.021  28.990  22.144  1.00  0.00     0.164 HD
ATOM     86  O   UNL A   1      34.161  27.965  21.752  1.00  0.00    -0.269 OA
BRANCH  84  87
ATOM     87  C   UNL A   1      33.364  25.995  22.679  1.00  0.00     0.118 A 
ATOM     88  C   UNL A   1      33.046  24.988  21.768  1.00  0.00     0.139 A 
ATOM     89  C   UNL A   1      33.926  25.660  23.912  1.00  0.00     0.216 A 
ATOM     90  F   UNL A   1      32.590  25.289  20.544  1.00  0.00    -0.206 F 
ATOM     91  C   UNL A   1      33.204  23.645  22.098  1.00  0.00     0.047 A 
ATOM     92  C   UNL A   1      34.126  24.315  24.231  1.00  0.00     0.305 A 
ATOM     93  F   UNL A   1      34.231  26.634  24.781  1.00  0.00    -0.198 F 
ATOM     94  C   UNL A   1      33.747  23.300  23.335  1.00  0.00     0.092 A 
BRANCH  92  95
ATOM     95  N   UNL A   1      34.751  23.942  25.497  1.00  0.00     0.065 N 
ATOM     96  O   UNL A   1      35.976  23.774  25.524  1.00  0.00    -0.258 OA
ATOM     97  O   UNL A   1      33.999  23.777  26.468  1.00  0.00    -0.258 OA
ENDBRANCH  92  95
ENDBRANCH  84  87
ENDBRANCH  78  83
ENDBRANCH  75  78
ENDBRANCH  73  74
ENDBRANCH   1  73
TORSDOF 17
ENDMDL
MODEL 3
REMARK VINA RESULT:     -12.0      1.305      7.334
REMARK SMILES O=C(NCCCCNC(=O)[C@@H](CCO)NC(=O)c1c(F)ccc([N+](=O)[O-])c1F)c1ccc(-c2c3nc(c(-c4c(F)c(F)c(F)c(F)c4F)c4ccc([nH]4)c(-c4c(F)c(F)c(F)c(F)c4F)c4nc(c(-c5c(F)c(F)c(F)c(F)c5F)c5ccc2[nH]5)C=C4)C=C3)cc1
REMARK SMILES IDX 6 1 5 2 4 3 3 4 1 5 2 6 29 8 30 9 91 10 31 11 90 12 32 13
REMARK SMILES IDX 33 14 34 15 84 16 35 17 89 18 83 19 85 20 36 21 88 22 82 23
REMARK SMILES IDX 81 24 37 26 69 27 49 28 68 29 50 30 53 31 67 32 86 33 51 34
REMARK SMILES IDX 52 35 66 37 87 38 54 39 38 40 39 41 47 42 40 43 41 44 45 45
REMARK SMILES IDX 48 46 42 47 43 48 46 49 44 50 70 51 71 52 79 53 72 54 73 55
REMARK SMILES IDX 77 56 80 57 74 58 75 59 78 60 76 61 55 62 56 63 64 64 57 65
REMARK SMILES IDX 58 66 62 67 65 68 59 69 60 70 63 71 61 72 7 73 8 74 9 75
REMARK SMILES IDX 10 77 11 78 12 79 13 80 14 81 15 83 16 84 17 86 18 87 19 88
REMARK SMILES IDX 27 89 20 90 21 91 23 92 28 93 22 94 24 95 25 96 26 97
REMARK H PARENT 3 7 85 25 53 36 8 76 14 82 15 85
REMARK Flexibility Score: inf
ROOT
ATOM      1  C   UNL A   1      31.988  30.469  26.723  1.00  0.00     0.023 C 
ENDROOT
BRANCH   1   2
ATOM      2  C   UNL A   1      31.701  31.965  26.744  1.00  0.00     0.023 C 
BRANCH   2   3
ATOM      3  C   UNL A   1      32.846  32.834  27.233  1.00  0.00     0.116 C 
BRANCH   3   4
ATOM      4  N   UNL A   1      32.449  34.188  27.593  1.00  0.00    -0.352 N 
ATOM      5  O   UNL A   1      32.477  36.090  28.826  1.00  0.00    -0.269 OA
ATOM      6  C   UNL A   1      32.967  34.996  28.583  1.00  0.00     0.251 C 
ATOM      7  H   UNL A   1      31.718  34.577  27.061  1.00  0.00     0.163 HD
BRANCH   6   8
ATOM      8  C   UNL A   1      34.100  34.490  29.384  1.00  0.00     0.039 A 
ATOM      9  C   UNL A   1      35.402  34.593  28.892  1.00  0.00     0.014 A 
ATOM     10  C   UNL A   1      33.846  33.821  30.585  1.00  0.00     0.014 A 
ATOM     11  C   UNL A   1      36.413  33.858  29.489  1.00  0.00     0.010 A 
ATOM     12  C   UNL A   1      34.893  33.173  31.246  1.00  0.00     0.010 A 
ATOM     13  C   UNL A   1      36.174  33.142  30.675  1.00  0.00    -0.014 A 
BRANCH  13  14
ATOM     14  C   UNL A   1      37.297  32.398  31.299  1.00  0.00     0.031 A 
ATOM     15  C   UNL A   1      38.052  31.339  30.542  1.00  0.00     0.074 A 
ATOM     16  C   UNL A   1      37.680  32.746  32.543  1.00  0.00     0.049 A 
ATOM     17  N   UNL A   1      39.075  30.622  30.936  1.00  0.00    -0.248 NA
ATOM     18  C   UNL A   1      37.603  31.036  29.175  1.00  0.00     0.031 C 
ATOM     19  C   UNL A   1      37.020  33.759  33.370  1.00  0.00     0.029 A 
ATOM     20  N   UNL A   1      38.731  32.323  33.314  1.00  0.00    -0.354 N 
ATOM     21  C   UNL A   1      39.368  29.764  29.883  1.00  0.00     0.074 A 
ATOM     22  C   UNL A   1      38.413  30.041  28.833  1.00  0.00     0.031 C 
ATOM     23  C   UNL A   1      37.725  33.936  34.494  1.00  0.00     0.029 A 
ATOM     24  C   UNL A   1      38.839  32.996  34.506  1.00  0.00     0.049 A 
ATOM     25  H   UNL A   1      39.348  31.606  33.040  1.00  0.00     0.167 HD
ATOM     26  C   UNL A   1      40.352  28.838  29.804  1.00  0.00     0.037 A 
ATOM     27  C   UNL A   1      39.728  32.863  35.508  1.00  0.00     0.037 A 
ATOM     28  C   UNL A   1      41.329  28.600  30.835  1.00  0.00     0.049 A 
ATOM     29  C   UNL A   1      40.808  31.831  35.389  1.00  0.00     0.074 A 
ATOM     30  C   UNL A   1      42.386  27.705  30.832  1.00  0.00     0.029 A 
ATOM     31  N   UNL A   1      41.375  29.267  32.050  1.00  0.00    -0.354 N 
ATOM     32  N   UNL A   1      41.069  31.025  34.390  1.00  0.00    -0.248 NA
ATOM     33  C   UNL A   1      41.706  31.674  36.540  1.00  0.00     0.031 C 
ATOM     34  C   UNL A   1      43.051  27.808  32.057  1.00  0.00     0.029 A 
ATOM     35  C   UNL A   1      42.431  28.792  32.810  1.00  0.00     0.049 A 
ATOM     36  H   UNL A   1      40.750  29.975  32.331  1.00  0.00     0.167 HD
ATOM     37  C   UNL A   1      42.152  30.260  34.792  1.00  0.00     0.074 A 
ATOM     38  C   UNL A   1      42.522  30.719  36.114  1.00  0.00     0.031 C 
ATOM     39  C   UNL A   1      42.775  29.258  34.128  1.00  0.00     0.037 A 
BRANCH  26  40
ATOM     40  C   UNL A   1      40.433  27.992  28.568  1.00  0.00     0.064 A 
ATOM     41  C   UNL A   1      39.817  26.732  28.531  1.00  0.00     0.173 A 
ATOM     42  C   UNL A   1      41.201  28.379  27.461  1.00  0.00     0.173 A 
ATOM     43  F   UNL A   1      39.077  26.312  29.569  1.00  0.00    -0.203 F 
ATOM     44  C   UNL A   1      39.982  25.883  27.440  1.00  0.00     0.198 A 
ATOM     45  C   UNL A   1      41.348  27.537  26.362  1.00  0.00     0.198 A 
ATOM     46  F   UNL A   1      41.803  29.579  27.444  1.00  0.00    -0.203 F 
ATOM     47  F   UNL A   1      39.411  24.671  27.442  1.00  0.00    -0.200 F 
ATOM     48  C   UNL A   1      40.748  26.286  26.357  1.00  0.00     0.200 A 
ATOM     49  F   UNL A   1      42.074  27.933  25.308  1.00  0.00    -0.200 F 
ATOM     50  F   UNL A   1      40.907  25.468  25.307  1.00  0.00    -0.200 F 
ENDBRANCH  26  40
BRANCH  27  51
ATOM     51  C   UNL A   1      39.612  33.735  36.704  1.00  0.00     0.064 A 
ATOM     52  C   UNL A   1      38.844  33.347  37.812  1.00  0.00     0.173 A 
ATOM     53  C   UNL A   1      40.222  34.996  36.737  1.00  0.00     0.173 A 
ATOM     54  F   UNL A   1      38.236  32.152  37.823  1.00  0.00    -0.203 F 
ATOM     55  C   UNL A   1      38.667  34.201  38.897  1.00  0.00     0.198 A 
ATOM     56  C   UNL A   1      40.066  35.837  37.836  1.00  0.00     0.198 A 
ATOM     57  F   UNL A   1      40.979  35.401  35.707  1.00  0.00    -0.203 F 
ATOM     58  F   UNL A   1      37.890  33.826  39.922  1.00  0.00    -0.200 F 
ATOM     59  C   UNL A   1      39.280  35.444  38.910  1.00  0.00     0.200 A 
ATOM     60  F   UNL A   1      40.677  37.031  37.854  1.00  0.00    -0.200 F 
ATOM     61  F   UNL A   1      39.114  36.264  39.957  1.00  0.00    -0.200 F 
ENDBRANCH  27  51
BRANCH  39  62
ATOM     62  C   UNL A   1      43.916  28.582  34.823  1.00  0.00     0.064 A 
ATOM     63  C   UNL A   1      43.694  27.465  35.641  1.00  0.00     0.173 A 
ATOM     64  C   UNL A   1      45.221  29.085  34.728  1.00  0.00     0.173 A 
ATOM     65  F   UNL A   1      42.460  26.953  35.766  1.00  0.00    -0.203 F 
ATOM     66  C   UNL A   1      44.739  26.881  36.350  1.00  0.00     0.198 A 
ATOM     67  C   UNL A   1      46.268  28.485  35.423  1.00  0.00     0.198 A 
ATOM     68  F   UNL A   1      45.481  30.143  33.946  1.00  0.00    -0.203 F 
ATOM     69  F   UNL A   1      44.502  25.830  37.147  1.00  0.00    -0.200 F 
ATOM     70  C   UNL A   1      46.025  27.390  36.239  1.00  0.00     0.200 A 
ATOM     71  F   UNL A   1      47.513  28.965  35.298  1.00  0.00    -0.200 F 
ATOM     72  F   UNL A   1      47.032  26.823  36.916  1.00  0.00    -0.200 F 
ENDBRANCH  39  62
ENDBRANCH  13  14
ENDBRANCH   6   8
ENDBRANCH   3   4
ENDBRANCH   2   3
ENDBRANCH   1   2
BRANCH   1  73
ATOM     73  C   UNL A   1      31.788  29.782  25.372  1.00  0.00     0.116 C 
BRANCH  73  74
ATOM     74  N   UNL A   1      31.385  28.404  25.545  1.00  0.00    -0.354 N 
ATOM     75  C   UNL A   1      30.898  27.491  24.668  1.00  0.00     0.242 C 
ATOM     76  H   UNL A   1      31.484  28.068  26.465  1.00  0.00     0.163 HD
ATOM     77  O   UNL A   1      30.452  26.445  25.159  1.00  0.00    -0.273 OA
BRANCH  75  78
ATOM     78  C   UNL A   1      30.787  27.717  23.141  1.00  0.00     0.173 C 
BRANCH  78  79
ATOM     79  C   UNL A   1      29.538  28.496  22.692  1.00  0.00     0.063 C 
BRANCH  79  80
ATOM     80  C   UNL A   1      29.654  29.971  22.323  1.00  0.00     0.158 C 
BRANCH  80  81
ATOM     81  O   UNL A   1      30.452  30.211  21.178  1.00  0.00    -0.396 OA
ATOM     82  H   UNL A   1      31.128  30.875  21.389  1.00  0.00     0.210 HD
ENDBRANCH  80  81
ENDBRANCH  79  80
ENDBRANCH  78  79
BRANCH  78  83
ATOM     83  N   UNL A   1      32.020  28.144  22.480  1.00  0.00    -0.340 N 
ATOM     84  C   UNL A   1      33.201  27.479  22.283  1.00  0.00     0.258 C 
ATOM     85  H   UNL A   1      31.996  29.059  22.117  1.00  0.00     0.164 HD
ATOM     86  O   UNL A   1      34.153  28.055  21.766  1.00  0.00    -0.269 OA
BRANCH  84  87
ATOM     87  C   UNL A   1      33.344  26.063  22.635  1.00  0.00     0.118 A 
ATOM     88  C   UNL A   1      33.038  25.071  21.704  1.00  0.00     0.139 A 
ATOM     89  C   UNL A   1      33.893  25.709  23.868  1.00  0.00     0.216 A 
ATOM     90  F   UNL A   1      32.594  25.391  20.481  1.00  0.00    -0.206 F 
ATOM     91  C   UNL A   1      33.196  23.723  22.013  1.00  0.00     0.047 A 
ATOM     92  C   UNL A   1      34.094  24.360  24.167  1.00  0.00     0.305 A 
ATOM     93  F   UNL A   1      34.187  26.669  24.756  1.00  0.00    -0.198 F 
ATOM     94  C   UNL A   1      33.726  23.359  23.251  1.00  0.00     0.092 A 
BRANCH  92  95
ATOM     95  N   UNL A   1      34.706  23.967  25.433  1.00  0.00     0.065 N 
ATOM     96  O   UNL A   1      34.008  23.968  26.452  1.00  0.00    -0.258 OA
ATOM     97  O   UNL A   1      35.914  23.689  25.410  1.00  0.00    -0.258 OA
ENDBRANCH  92  95
ENDBRANCH  84  87
ENDBRANCH  78  83
ENDBRANCH  75  78
ENDBRANCH  73  74
ENDBRANCH   1  73
TORSDOF 17
ENDMDL
