MODEL 1
REMARK VINA RESULT:     -12.0      0.000      0.000
REMARK SMILES Cc1nn(C)c(OCC(C)(C)[NH+](C)C)c1C(=O)NCCCCNC(=O)c1ccc(-c2c3nc(c(-c4c(F)c(F)c(F)c(F)c4F)c4ccc([nH]4)c(-c4c(F)c(F)c(F)c(F)c4F)c4nc(c(-c5c(F)c(F)c(F)c(F)c5F)c5ccc2[nH]5)C=C4)C=C3)cc1
REMARK SMILES IDX 19 1 18 2 16 3 17 4 15 6 1 7 2 8 3 9 4 10 6 11 5 12 7 13
REMARK SMILES IDX 8 14 9 15 10 16 11 17 12 18 13 19 14 20 20 22 21 23 22 24
REMARK SMILES IDX 23 25 24 26 25 28 26 29 27 30 88 31 28 32 87 33 29 34 30 35
REMARK SMILES IDX 31 36 81 37 32 38 86 39 80 40 82 41 33 42 85 43 79 44 78 45
REMARK SMILES IDX 34 47 66 48 46 49 65 50 47 51 50 52 64 53 83 54 48 55 49 56
REMARK SMILES IDX 63 58 84 59 51 60 35 61 36 62 44 63 37 64 38 65 42 66 45 67
REMARK SMILES IDX 39 68 40 69 43 70 41 71 67 72 68 73 76 74 69 75 70 76 74 77
REMARK SMILES IDX 77 78 71 79 72 80 75 81 73 82 52 83 53 84 61 85 54 86 55 87
REMARK SMILES IDX 59 88 62 89 56 90 57 91 60 92 58 93
REMARK H PARENT 18 5 12 21 23 27 82 46 50 57
REMARK Flexibility Score: inf
ROOT
ATOM      1  C   UNL A   1      33.130  30.064  26.518  1.00  0.00     0.116 C 
ENDROOT
BRANCH   1   2
ATOM      2  N   UNL A   1      33.489  29.734  25.157  1.00  0.00    -0.352 N 
ATOM      3  C   UNL A   1      33.064  28.730  24.332  1.00  0.00     0.258 C 
ATOM      4  O   UNL A   1      33.692  28.578  23.285  1.00  0.00    -0.269 OA
ATOM      5  H   UNL A   1      34.155  30.339  24.754  1.00  0.00     0.163 HD
BRANCH   3   6
ATOM      6  C   UNL A   1      31.885  27.940  24.636  1.00  0.00     0.124 A 
ATOM      7  C   UNL A   1      32.609  26.157  26.474  1.00  0.00     0.070 C 
ATOM      8  C   UNL A   1      31.698  26.815  25.506  1.00  0.00     0.076 A 
ATOM      9  N   UNL A   1      30.488  26.267  25.360  1.00  0.00    -0.174 NA
ATOM     10  N   UNL A   1      29.949  26.954  24.345  1.00  0.00    -0.236 N 
ATOM     11  C   UNL A   1      30.654  28.078  23.995  1.00  0.00     0.225 A 
ATOM     12  C   UNL A   1      28.757  26.436  23.717  1.00  0.00     0.178 C 
BRANCH  11  13
ATOM     13  O   UNL A   1      30.074  28.927  23.140  1.00  0.00    -0.471 OA
BRANCH  13  14
ATOM     14  C   UNL A   1      29.677  30.239  23.528  1.00  0.00     0.299 C 
BRANCH  14  15
ATOM     15  C   UNL A   1      28.547  30.959  22.686  1.00  0.00     0.126 C 
ATOM     16  C   UNL A   1      27.939  29.992  21.650  1.00  0.00     0.082 C 
ATOM     17  C   UNL A   1      27.432  31.256  23.731  1.00  0.00     0.082 C 
BRANCH  15  18
ATOM     18  N   UNL A   1      28.962  32.266  22.079  1.00  0.00    -0.333 N 
ATOM     19  C   UNL A   1      28.132  32.701  20.954  1.00  0.00     0.333 C 
ATOM     20  C   UNL A   1      29.074  33.378  23.031  1.00  0.00     0.333 C 
ATOM     21  H   UNL A   1      29.896  32.044  21.734  1.00  0.00     0.348 HD
ENDBRANCH  15  18
ENDBRANCH  14  15
ENDBRANCH  13  14
ENDBRANCH  11  13
ENDBRANCH   3   6
ENDBRANCH   1   2
BRANCH   1  22
ATOM     22  C   UNL A   1      31.670  30.517  26.531  1.00  0.00     0.023 C 
BRANCH  22  23
ATOM     23  C   UNL A   1      31.510  32.028  26.702  1.00  0.00     0.023 C 
BRANCH  23  24
ATOM     24  C   UNL A   1      32.762  32.710  27.232  1.00  0.00     0.116 C 
BRANCH  24  25
ATOM     25  N   UNL A   1      32.514  34.090  27.623  1.00  0.00    -0.352 N 
ATOM     26  C   UNL A   1      33.125  34.827  28.608  1.00  0.00     0.251 C 
ATOM     27  H   UNL A   1      31.815  34.558  27.111  1.00  0.00     0.163 HD
ATOM     28  O   UNL A   1      32.711  35.933  28.912  1.00  0.00    -0.269 OA
BRANCH  26  29
ATOM     29  C   UNL A   1      34.275  34.236  29.319  1.00  0.00     0.039 A 
ATOM     30  C   UNL A   1      34.031  33.346  30.366  1.00  0.00     0.014 A 
ATOM     31  C   UNL A   1      35.579  34.527  28.913  1.00  0.00     0.014 A 
ATOM     32  C   UNL A   1      35.105  32.698  30.974  1.00  0.00     0.010 A 
ATOM     33  C   UNL A   1      36.640  33.824  29.468  1.00  0.00     0.010 A 
ATOM     34  C   UNL A   1      36.413  32.909  30.506  1.00  0.00    -0.014 A 
BRANCH  34  35
ATOM     35  C   UNL A   1      37.563  32.194  31.105  1.00  0.00     0.031 A 
ATOM     36  C   UNL A   1      38.040  32.571  32.477  1.00  0.00     0.074 A 
ATOM     37  C   UNL A   1      38.211  31.259  30.386  1.00  0.00     0.049 A 
ATOM     38  N   UNL A   1      39.065  32.114  33.151  1.00  0.00    -0.248 NA
ATOM     39  C   UNL A   1      37.284  33.625  33.172  1.00  0.00     0.031 C 
ATOM     40  C   UNL A   1      37.869  30.851  29.023  1.00  0.00     0.029 A 
ATOM     41  N   UNL A   1      39.301  30.488  30.702  1.00  0.00    -0.354 N 
ATOM     42  C   UNL A   1      39.085  32.837  34.337  1.00  0.00     0.074 A 
ATOM     43  C   UNL A   1      38.008  33.799  34.267  1.00  0.00     0.031 C 
ATOM     44  C   UNL A   1      38.718  29.888  28.627  1.00  0.00     0.029 A 
ATOM     45  C   UNL A   1      39.679  29.633  29.695  1.00  0.00     0.049 A 
ATOM     46  H   UNL A   1      39.767  30.542  31.567  1.00  0.00     0.167 HD
ATOM     47  C   UNL A   1      39.912  32.689  35.398  1.00  0.00     0.037 A 
ATOM     48  C   UNL A   1      40.690  28.747  29.645  1.00  0.00     0.037 A 
ATOM     49  C   UNL A   1      40.959  31.707  35.472  1.00  0.00     0.049 A 
ATOM     50  C   UNL A   1      41.587  28.593  30.843  1.00  0.00     0.074 A 
ATOM     51  C   UNL A   1      41.809  31.427  36.527  1.00  0.00     0.029 A 
ATOM     52  N   UNL A   1      41.297  30.839  34.443  1.00  0.00    -0.354 N 
ATOM     53  N   UNL A   1      41.552  29.230  31.989  1.00  0.00    -0.248 NA
ATOM     54  C   UNL A   1      42.658  27.593  30.743  1.00  0.00     0.031 C 
ATOM     55  C   UNL A   1      42.688  30.417  36.122  1.00  0.00     0.029 A 
ATOM     56  C   UNL A   1      42.358  30.036  34.831  1.00  0.00     0.049 A 
ATOM     57  H   UNL A   1      40.851  30.800  33.567  1.00  0.00     0.167 HD
ATOM     58  C   UNL A   1      42.577  28.692  32.755  1.00  0.00     0.074 A 
ATOM     59  C   UNL A   1      43.205  27.666  31.948  1.00  0.00     0.031 C 
ATOM     60  C   UNL A   1      42.963  29.017  34.013  1.00  0.00     0.037 A 
BRANCH  47  61
ATOM     61  C   UNL A   1      39.708  33.610  36.565  1.00  0.00     0.064 A 
ATOM     62  C   UNL A   1      38.857  33.271  37.629  1.00  0.00     0.173 A 
ATOM     63  C   UNL A   1      40.383  34.838  36.630  1.00  0.00     0.173 A 
ATOM     64  F   UNL A   1      38.176  32.116  37.607  1.00  0.00    -0.203 F 
ATOM     65  C   UNL A   1      38.665  34.142  38.698  1.00  0.00     0.198 A 
ATOM     66  C   UNL A   1      40.212  35.692  37.716  1.00  0.00     0.198 A 
ATOM     67  F   UNL A   1      41.209  35.209  35.641  1.00  0.00    -0.203 F 
ATOM     68  F   UNL A   1      37.805  33.821  39.675  1.00  0.00    -0.200 F 
ATOM     69  C   UNL A   1      39.347  35.348  38.744  1.00  0.00     0.200 A 
ATOM     70  F   UNL A   1      40.879  36.854  37.764  1.00  0.00    -0.200 F 
ATOM     71  F   UNL A   1      39.164  36.184  39.776  1.00  0.00    -0.200 F 
ENDBRANCH  47  61
BRANCH  48  72
ATOM     72  C   UNL A   1      40.884  27.912  28.432  1.00  0.00     0.064 A 
ATOM     73  C   UNL A   1      41.667  28.371  27.363  1.00  0.00     0.173 A 
ATOM     74  C   UNL A   1      40.301  26.642  28.317  1.00  0.00     0.173 A 
ATOM     75  F   UNL A   1      42.230  29.585  27.420  1.00  0.00    -0.203 F 
ATOM     76  C   UNL A   1      41.843  27.597  26.217  1.00  0.00     0.198 A 
ATOM     77  C   UNL A   1      40.499  25.860  27.182  1.00  0.00     0.198 A 
ATOM     78  F   UNL A   1      39.549  26.156  29.316  1.00  0.00    -0.203 F 
ATOM     79  F   UNL A   1      42.562  28.076  25.193  1.00  0.00    -0.200 F 
ATOM     80  C   UNL A   1      41.263  26.341  26.129  1.00  0.00     0.200 A 
ATOM     81  F   UNL A   1      39.948  24.640  27.106  1.00  0.00    -0.200 F 
ATOM     82  F   UNL A   1      41.437  25.596  25.028  1.00  0.00    -0.200 F 
ENDBRANCH  48  72
BRANCH  60  83
ATOM     83  C   UNL A   1      44.101  28.238  34.603  1.00  0.00     0.064 A 
ATOM     84  C   UNL A   1      43.887  27.030  35.283  1.00  0.00     0.173 A 
ATOM     85  C   UNL A   1      45.421  28.683  34.448  1.00  0.00     0.173 A 
ATOM     86  F   UNL A   1      42.641  26.571  35.469  1.00  0.00    -0.203 F 
ATOM     87  C   UNL A   1      44.955  26.307  35.807  1.00  0.00     0.198 A 
ATOM     88  C   UNL A   1      46.489  27.944  34.949  1.00  0.00     0.198 A 
ATOM     89  F   UNL A   1      45.677  29.830  33.800  1.00  0.00    -0.203 F 
ATOM     90  F   UNL A   1      44.726  25.178  36.491  1.00  0.00    -0.200 F 
ATOM     91  C   UNL A   1      46.255  26.760  35.633  1.00  0.00     0.200 A 
ATOM     92  F   UNL A   1      47.744  28.376  34.769  1.00  0.00    -0.200 F 
ATOM     93  F   UNL A   1      47.282  26.059  36.132  1.00  0.00    -0.200 F 
ENDBRANCH  60  83
ENDBRANCH  34  35
ENDBRANCH  26  29
ENDBRANCH  24  25
ENDBRANCH  23  24
ENDBRANCH  22  23
ENDBRANCH   1  22
TORSDOF 15
ENDMDL
MODEL 2
REMARK VINA RESULT:     -11.6      1.463      3.522
REMARK SMILES Cc1nn(C)c(OCC(C)(C)[NH+](C)C)c1C(=O)NCCCCNC(=O)c1ccc(-c2c3nc(c(-c4c(F)c(F)c(F)c(F)c4F)c4ccc([nH]4)c(-c4c(F)c(F)c(F)c(F)c4F)c4nc(c(-c5c(F)c(F)c(F)c(F)c5F)c5ccc2[nH]5)C=C4)C=C3)cc1
REMARK SMILES IDX 19 1 18 2 16 3 17 4 15 6 1 7 2 8 3 9 4 10 6 11 5 12 7 13
REMARK SMILES IDX 8 14 9 15 10 16 11 17 12 18 13 19 14 20 20 22 21 23 22 24
REMARK SMILES IDX 23 25 24 26 25 28 26 29 27 30 88 31 28 32 87 33 29 34 30 35
REMARK SMILES IDX 31 36 81 37 32 38 86 39 80 40 82 41 33 42 85 43 79 44 78 45
REMARK SMILES IDX 34 47 66 48 46 49 65 50 47 51 50 52 64 53 83 54 48 55 49 56
REMARK SMILES IDX 63 58 84 59 51 60 35 61 36 62 44 63 37 64 38 65 42 66 45 67
REMARK SMILES IDX 39 68 40 69 43 70 41 71 67 72 68 73 76 74 69 75 70 76 74 77
REMARK SMILES IDX 77 78 71 79 72 80 75 81 73 82 52 83 53 84 61 85 54 86 55 87
REMARK SMILES IDX 59 88 62 89 56 90 57 91 60 92 58 93
REMARK H PARENT 18 5 12 21 23 27 82 46 50 57
REMARK Flexibility Score: inf
ROOT
ATOM      1  C   UNL A   1      32.613  29.916  26.334  1.00  0.00     0.116 C 
ENDROOT
BRANCH   1   2
ATOM      2  N   UNL A   1      33.411  29.643  25.160  1.00  0.00    -0.352 N 
ATOM      3  C   UNL A   1      33.459  28.550  24.339  1.00  0.00     0.258 C 
ATOM      4  O   UNL A   1      34.381  28.517  23.525  1.00  0.00    -0.269 OA
ATOM      5  H   UNL A   1      34.025  30.370  24.907  1.00  0.00     0.163 HD
BRANCH   3   6
ATOM      6  C   UNL A   1      32.431  27.526  24.370  1.00  0.00     0.124 A 
ATOM      7  C   UNL A   1      30.175  28.677  23.554  1.00  0.00     0.070 C 
ATOM      8  C   UNL A   1      31.026  27.586  24.087  1.00  0.00     0.076 A 
ATOM      9  N   UNL A   1      30.403  26.449  24.411  1.00  0.00    -0.174 NA
ATOM     10  N   UNL A   1      31.362  25.714  24.988  1.00  0.00    -0.236 N 
ATOM     11  C   UNL A   1      32.626  26.223  24.830  1.00  0.00     0.225 A 
ATOM     12  C   UNL A   1      30.977  24.538  25.730  1.00  0.00     0.178 C 
BRANCH  11  13
ATOM     13  O   UNL A   1      33.652  25.445  25.190  1.00  0.00    -0.471 OA
BRANCH  13  14
ATOM     14  C   UNL A   1      34.494  24.811  24.233  1.00  0.00     0.299 C 
BRANCH  14  15
ATOM     15  C   UNL A   1      35.263  23.497  24.666  1.00  0.00     0.126 C 
ATOM     16  C   UNL A   1      36.070  22.923  23.484  1.00  0.00     0.082 C 
ATOM     17  C   UNL A   1      36.298  23.997  25.716  1.00  0.00     0.082 C 
BRANCH  15  18
ATOM     18  N   UNL A   1      34.402  22.465  25.331  1.00  0.00    -0.333 N 
ATOM     19  C   UNL A   1      33.398  21.858  24.452  1.00  0.00     0.333 C 
ATOM     20  C   UNL A   1      35.139  21.390  26.006  1.00  0.00     0.333 C 
ATOM     21  H   UNL A   1      33.926  23.022  26.040  1.00  0.00     0.348 HD
ENDBRANCH  15  18
ENDBRANCH  14  15
ENDBRANCH  13  14
ENDBRANCH  11  13
ENDBRANCH   3   6
ENDBRANCH   1   2
BRANCH   1  22
ATOM     22  C   UNL A   1      31.500  30.888  25.941  1.00  0.00     0.023 C 
BRANCH  22  23
ATOM     23  C   UNL A   1      31.336  32.046  26.926  1.00  0.00     0.023 C 
BRANCH  23  24
ATOM     24  C   UNL A   1      32.628  32.807  27.182  1.00  0.00     0.116 C 
BRANCH  24  25
ATOM     25  N   UNL A   1      32.386  34.184  27.586  1.00  0.00    -0.352 N 
ATOM     26  C   UNL A   1      33.002  34.911  28.574  1.00  0.00     0.251 C 
ATOM     27  H   UNL A   1      31.686  34.659  27.081  1.00  0.00     0.163 HD
ATOM     28  O   UNL A   1      32.593  36.016  28.889  1.00  0.00    -0.269 OA
BRANCH  26  29
ATOM     29  C   UNL A   1      34.153  34.311  29.275  1.00  0.00     0.039 A 
ATOM     30  C   UNL A   1      33.912  33.459  30.354  1.00  0.00     0.014 A 
ATOM     31  C   UNL A   1      35.455  34.556  28.830  1.00  0.00     0.014 A 
ATOM     32  C   UNL A   1      34.983  32.801  30.955  1.00  0.00     0.010 A 
ATOM     33  C   UNL A   1      36.511  33.841  29.381  1.00  0.00     0.010 A 
ATOM     34  C   UNL A   1      36.285  32.964  30.451  1.00  0.00    -0.014 A 
BRANCH  34  35
ATOM     35  C   UNL A   1      37.430  32.236  31.044  1.00  0.00     0.031 A 
ATOM     36  C   UNL A   1      37.917  32.606  32.415  1.00  0.00     0.074 A 
ATOM     37  C   UNL A   1      38.066  31.295  30.321  1.00  0.00     0.049 A 
ATOM     38  N   UNL A   1      38.940  32.139  33.083  1.00  0.00    -0.248 NA
ATOM     39  C   UNL A   1      37.175  33.666  33.114  1.00  0.00     0.031 C 
ATOM     40  C   UNL A   1      37.714  30.893  28.959  1.00  0.00     0.029 A 
ATOM     41  N   UNL A   1      39.150  30.513  30.631  1.00  0.00    -0.354 N 
ATOM     42  C   UNL A   1      38.973  32.859  34.270  1.00  0.00     0.074 A 
ATOM     43  C   UNL A   1      37.906  33.832  34.206  1.00  0.00     0.031 C 
ATOM     44  C   UNL A   1      38.551  29.922  28.558  1.00  0.00     0.029 A 
ATOM     45  C   UNL A   1      39.515  29.656  29.621  1.00  0.00     0.049 A 
ATOM     46  H   UNL A   1      39.620  30.561  31.494  1.00  0.00     0.167 HD
ATOM     47  C   UNL A   1      39.803  32.702  35.327  1.00  0.00     0.037 A 
ATOM     48  C   UNL A   1      40.517  28.760  29.565  1.00  0.00     0.037 A 
ATOM     49  C   UNL A   1      40.841  31.709  35.395  1.00  0.00     0.049 A 
ATOM     50  C   UNL A   1      41.417  28.595  30.759  1.00  0.00     0.074 A 
ATOM     51  C   UNL A   1      41.692  31.419  36.446  1.00  0.00     0.029 A 
ATOM     52  N   UNL A   1      41.166  30.840  34.364  1.00  0.00    -0.354 N 
ATOM     53  N   UNL A   1      41.393  29.231  31.906  1.00  0.00    -0.248 NA
ATOM     54  C   UNL A   1      42.478  27.584  30.653  1.00  0.00     0.031 C 
ATOM     55  C   UNL A   1      42.559  30.401  36.036  1.00  0.00     0.029 A 
ATOM     56  C   UNL A   1      42.220  30.025  34.746  1.00  0.00     0.049 A 
ATOM     57  H   UNL A   1      40.715  30.806  33.489  1.00  0.00     0.167 HD
ATOM     58  C   UNL A   1      42.416  28.681  32.667  1.00  0.00     0.074 A 
ATOM     59  C   UNL A   1      43.031  27.651  31.856  1.00  0.00     0.031 C 
ATOM     60  C   UNL A   1      42.811  29.001  33.923  1.00  0.00     0.037 A 
BRANCH  47  61
ATOM     61  C   UNL A   1      39.613  33.623  36.496  1.00  0.00     0.064 A 
ATOM     62  C   UNL A   1      38.811  33.265  37.591  1.00  0.00     0.173 A 
ATOM     63  C   UNL A   1      40.253  34.870  36.532  1.00  0.00     0.173 A 
ATOM     64  F   UNL A   1      38.165  32.090  37.600  1.00  0.00    -0.203 F 
ATOM     65  C   UNL A   1      38.631  34.136  38.663  1.00  0.00     0.198 A 
ATOM     66  C   UNL A   1      40.096  35.726  37.619  1.00  0.00     0.198 A 
ATOM     67  F   UNL A   1      41.032  35.260  35.512  1.00  0.00    -0.203 F 
ATOM     68  F   UNL A   1      37.817  33.795  39.671  1.00  0.00    -0.200 F 
ATOM     69  C   UNL A   1      39.279  35.362  38.679  1.00  0.00     0.200 A 
ATOM     70  F   UNL A   1      40.730  36.907  37.638  1.00  0.00    -0.200 F 
ATOM     71  F   UNL A   1      39.108  36.198  39.712  1.00  0.00    -0.200 F 
ENDBRANCH  47  61
BRANCH  48  72
ATOM     72  C   UNL A   1      40.697  27.925  28.350  1.00  0.00     0.064 A 
ATOM     73  C   UNL A   1      41.483  28.375  27.280  1.00  0.00     0.173 A 
ATOM     74  C   UNL A   1      40.097  26.663  28.235  1.00  0.00     0.173 A 
ATOM     75  F   UNL A   1      42.061  29.583  27.338  1.00  0.00    -0.203 F 
ATOM     76  C   UNL A   1      41.646  27.602  26.133  1.00  0.00     0.198 A 
ATOM     77  C   UNL A   1      40.282  25.880  27.097  1.00  0.00     0.198 A 
ATOM     78  F   UNL A   1      39.342  26.185  29.234  1.00  0.00    -0.203 F 
ATOM     79  F   UNL A   1      42.369  28.074  25.107  1.00  0.00    -0.200 F 
ATOM     80  C   UNL A   1      41.050  26.353  26.044  1.00  0.00     0.200 A 
ATOM     81  F   UNL A   1      39.716  24.668  27.021  1.00  0.00    -0.200 F 
ATOM     82  F   UNL A   1      41.212  25.609  24.941  1.00  0.00    -0.200 F 
ENDBRANCH  48  72
BRANCH  60  83
ATOM     83  C   UNL A   1      43.944  28.210  34.508  1.00  0.00     0.064 A 
ATOM     84  C   UNL A   1      45.271  28.653  34.419  1.00  0.00     0.173 A 
ATOM     85  C   UNL A   1      43.691  27.017  35.201  1.00  0.00     0.173 A 
ATOM     86  F   UNL A   1      45.564  29.780  33.754  1.00  0.00    -0.203 F 
ATOM     87  C   UNL A   1      46.309  27.917  34.985  1.00  0.00     0.198 A 
ATOM     88  C   UNL A   1      44.728  26.298  35.789  1.00  0.00     0.198 A 
ATOM     89  F   UNL A   1      42.437  26.554  35.318  1.00  0.00    -0.203 F 
ATOM     90  F   UNL A   1      47.574  28.336  34.851  1.00  0.00    -0.200 F 
ATOM     91  C   UNL A   1      46.036  26.746  35.676  1.00  0.00     0.200 A 
ATOM     92  F   UNL A   1      44.462  25.174  36.466  1.00  0.00    -0.200 F 
ATOM     93  F   UNL A   1      47.036  26.043  36.226  1.00  0.00    -0.200 F 
ENDBRANCH  60  83
ENDBRANCH  34  35
ENDBRANCH  26  29
ENDBRANCH  24  25
ENDBRANCH  23  24
ENDBRANCH  22  23
ENDBRANCH   1  22
TORSDOF 15
ENDMDL
MODEL 3
REMARK VINA RESULT:     -11.6      1.508      8.155
REMARK SMILES Cc1nn(C)c(OCC(C)(C)[NH+](C)C)c1C(=O)NCCCCNC(=O)c1ccc(-c2c3nc(c(-c4c(F)c(F)c(F)c(F)c4F)c4ccc([nH]4)c(-c4c(F)c(F)c(F)c(F)c4F)c4nc(c(-c5c(F)c(F)c(F)c(F)c5F)c5ccc2[nH]5)C=C4)C=C3)cc1
REMARK SMILES IDX 19 1 18 2 16 3 17 4 15 6 1 7 2 8 3 9 4 10 6 11 5 12 7 13
REMARK SMILES IDX 8 14 9 15 10 16 11 17 12 18 13 19 14 20 20 22 21 23 22 24
REMARK SMILES IDX 23 25 24 26 25 28 26 29 27 30 88 31 28 32 87 33 29 34 30 35
REMARK SMILES IDX 31 36 81 37 32 38 86 39 80 40 82 41 33 42 85 43 79 44 78 45
REMARK SMILES IDX 34 47 66 48 46 49 65 50 47 51 50 52 64 53 83 54 48 55 49 56
REMARK SMILES IDX 63 58 84 59 51 60 35 61 36 62 44 63 37 64 38 65 42 66 45 67
REMARK SMILES IDX 39 68 40 69 43 70 41 71 67 72 68 73 76 74 69 75 70 76 74 77
REMARK SMILES IDX 77 78 71 79 72 80 75 81 73 82 52 83 53 84 61 85 54 86 55 87
REMARK SMILES IDX 59 88 62 89 56 90 57 91 60 92 58 93
REMARK H PARENT 18 5 12 21 23 27 82 46 50 57
REMARK Flexibility Score: inf
ROOT
ATOM      1  C   UNL A   1      32.874  29.974  26.115  1.00  0.00     0.116 C 
ENDROOT
BRANCH   1   2
ATOM      2  N   UNL A   1      33.427  29.742  24.800  1.00  0.00    -0.352 N 
ATOM      3  C   UNL A   1      33.294  28.686  23.941  1.00  0.00     0.258 C 
ATOM      4  O   UNL A   1      34.042  28.677  22.964  1.00  0.00    -0.269 OA
ATOM      5  H   UNL A   1      33.997  30.472  24.464  1.00  0.00     0.163 HD
BRANCH   3   6
ATOM      6  C   UNL A   1      32.271  27.675  24.127  1.00  0.00     0.124 A 
ATOM      7  C   UNL A   1      29.956  28.788  23.430  1.00  0.00     0.070 C 
ATOM      8  C   UNL A   1      30.846  27.727  23.960  1.00  0.00     0.076 A 
ATOM      9  N   UNL A   1      30.250  26.619  24.411  1.00  0.00    -0.174 NA
ATOM     10  N   UNL A   1      31.253  25.916  24.952  1.00  0.00    -0.236 N 
ATOM     11  C   UNL A   1      32.501  26.403  24.654  1.00  0.00     0.225 A 
ATOM     12  C   UNL A   1      30.929  24.795  25.801  1.00  0.00     0.178 C 
BRANCH  11  13
ATOM     13  O   UNL A   1      33.551  25.643  24.978  1.00  0.00    -0.471 OA
BRANCH  13  14
ATOM     14  C   UNL A   1      34.211  24.817  24.022  1.00  0.00     0.299 C 
BRANCH  14  15
ATOM     15  C   UNL A   1      35.025  23.566  24.549  1.00  0.00     0.126 C 
ATOM     16  C   UNL A   1      35.947  23.011  23.445  1.00  0.00     0.082 C 
ATOM     17  C   UNL A   1      35.952  24.159  25.652  1.00  0.00     0.082 C 
BRANCH  15  18
ATOM     18  N   UNL A   1      34.183  22.501  25.187  1.00  0.00    -0.333 N 
ATOM     19  C   UNL A   1      34.455  21.146  24.702  1.00  0.00     0.333 C 
ATOM     20  C   UNL A   1      34.217  22.486  26.654  1.00  0.00     0.333 C 
ATOM     21  H   UNL A   1      33.247  22.776  24.890  1.00  0.00     0.348 HD
ENDBRANCH  15  18
ENDBRANCH  14  15
ENDBRANCH  13  14
ENDBRANCH  11  13
ENDBRANCH   3   6
ENDBRANCH   1   2
BRANCH   1  22
ATOM     22  C   UNL A   1      31.638  30.861  25.966  1.00  0.00     0.023 C 
BRANCH  22  23
ATOM     23  C   UNL A   1      31.504  31.900  27.079  1.00  0.00     0.023 C 
BRANCH  23  24
ATOM     24  C   UNL A   1      32.760  32.734  27.279  1.00  0.00     0.116 C 
BRANCH  24  25
ATOM     25  N   UNL A   1      32.456  34.125  27.580  1.00  0.00    -0.352 N 
ATOM     26  C   UNL A   1      33.018  34.942  28.530  1.00  0.00     0.251 C 
ATOM     27  H   UNL A   1      31.753  34.536  27.026  1.00  0.00     0.163 HD
ATOM     28  O   UNL A   1      32.560  36.049  28.757  1.00  0.00    -0.269 OA
BRANCH  26  29
ATOM     29  C   UNL A   1      34.172  34.437  29.299  1.00  0.00     0.039 A 
ATOM     30  C   UNL A   1      33.935  33.761  30.497  1.00  0.00     0.014 A 
ATOM     31  C   UNL A   1      35.470  34.592  28.806  1.00  0.00     0.014 A 
ATOM     32  C   UNL A   1      35.007  33.185  31.178  1.00  0.00     0.010 A 
ATOM     33  C   UNL A   1      36.524  33.952  29.445  1.00  0.00     0.010 A 
ATOM     34  C   UNL A   1      36.302  33.250  30.638  1.00  0.00    -0.014 A 
BRANCH  34  35
ATOM     35  C   UNL A   1      37.447  32.602  31.320  1.00  0.00     0.031 A 
ATOM     36  C   UNL A   1      38.165  31.467  30.651  1.00  0.00     0.074 A 
ATOM     37  C   UNL A   1      37.789  32.995  32.561  1.00  0.00     0.049 A 
ATOM     38  N   UNL A   1      39.144  30.727  31.104  1.00  0.00    -0.248 NA
ATOM     39  C   UNL A   1      37.699  31.092  29.307  1.00  0.00     0.031 C 
ATOM     40  C   UNL A   1      37.126  34.049  33.329  1.00  0.00     0.029 A 
ATOM     41  N   UNL A   1      38.776  32.542  33.399  1.00  0.00    -0.354 N 
ATOM     42  C   UNL A   1      39.397  29.791  30.109  1.00  0.00     0.074 A 
ATOM     43  C   UNL A   1      38.433  30.019  29.056  1.00  0.00     0.031 C 
ATOM     44  C   UNL A   1      37.740  34.179  34.517  1.00  0.00     0.029 A 
ATOM     45  C   UNL A   1      38.817  33.199  34.605  1.00  0.00     0.049 A 
ATOM     46  H   UNL A   1      39.396  31.816  33.159  1.00  0.00     0.167 HD
ATOM     47  C   UNL A   1      40.365  28.846  30.069  1.00  0.00     0.037 A 
ATOM     48  C   UNL A   1      39.634  33.024  35.660  1.00  0.00     0.037 A 
ATOM     49  C   UNL A   1      41.340  28.648  31.107  1.00  0.00     0.049 A 
ATOM     50  C   UNL A   1      40.710  31.976  35.585  1.00  0.00     0.074 A 
ATOM     51  C   UNL A   1      42.405  27.766  31.136  1.00  0.00     0.029 A 
ATOM     52  N   UNL A   1      41.368  29.350  32.304  1.00  0.00    -0.354 N 
ATOM     53  N   UNL A   1      40.988  31.145  34.609  1.00  0.00    -0.248 NA
ATOM     54  C   UNL A   1      41.589  31.845  36.754  1.00  0.00     0.031 C 
ATOM     55  C   UNL A   1      43.054  27.905  32.367  1.00  0.00     0.029 A 
ATOM     56  C   UNL A   1      42.420  28.906  33.088  1.00  0.00     0.049 A 
ATOM     57  H   UNL A   1      40.733  30.058  32.559  1.00  0.00     0.167 HD
ATOM     58  C   UNL A   1      42.087  30.412  35.034  1.00  0.00     0.074 A 
ATOM     59  C   UNL A   1      42.434  30.907  36.350  1.00  0.00     0.031 C 
ATOM     60  C   UNL A   1      42.750  29.418  34.393  1.00  0.00     0.037 A 
BRANCH  47  61
ATOM     61  C   UNL A   1      40.415  27.961  28.859  1.00  0.00     0.064 A 
ATOM     62  C   UNL A   1      39.715  26.746  28.806  1.00  0.00     0.173 A 
ATOM     63  C   UNL A   1      41.158  28.339  27.730  1.00  0.00     0.173 A 
ATOM     64  F   UNL A   1      39.002  26.331  29.865  1.00  0.00    -0.203 F 
ATOM     65  C   UNL A   1      39.783  25.927  27.682  1.00  0.00     0.198 A 
ATOM     66  C   UNL A   1      41.199  27.532  26.597  1.00  0.00     0.198 A 
ATOM     67  F   UNL A   1      41.845  29.491  27.727  1.00  0.00    -0.203 F 
ATOM     68  F   UNL A   1      39.150  24.746  27.677  1.00  0.00    -0.200 F 
ATOM     69  C   UNL A   1      40.519  26.324  26.576  1.00  0.00     0.200 A 
ATOM     70  F   UNL A   1      41.903  27.921  25.524  1.00  0.00    -0.200 F 
ATOM     71  F   UNL A   1      40.580  25.536  25.494  1.00  0.00    -0.200 F 
ENDBRANCH  47  61
BRANCH  48  72
ATOM     72  C   UNL A   1      39.488  33.887  36.860  1.00  0.00     0.064 A 
ATOM     73  C   UNL A   1      38.742  33.456  37.966  1.00  0.00     0.173 A 
ATOM     74  C   UNL A   1      40.094  35.149  36.932  1.00  0.00     0.173 A 
ATOM     75  F   UNL A   1      38.129  32.265  37.937  1.00  0.00    -0.203 F 
ATOM     76  C   UNL A   1      38.591  34.265  39.091  1.00  0.00     0.198 A 
ATOM     77  C   UNL A   1      39.964  35.946  38.067  1.00  0.00     0.198 A 
ATOM     78  F   UNL A   1      40.824  35.602  35.902  1.00  0.00    -0.203 F 
ATOM     79  F   UNL A   1      37.838  33.847  40.118  1.00  0.00    -0.200 F 
ATOM     80  C   UNL A   1      39.206  35.507  39.143  1.00  0.00     0.200 A 
ATOM     81  F   UNL A   1      40.571  37.139  38.119  1.00  0.00    -0.200 F 
ATOM     82  F   UNL A   1      39.064  36.282  40.227  1.00  0.00    -0.200 F 
ENDBRANCH  48  72
BRANCH  60  83
ATOM     83  C   UNL A   1      43.933  28.821  35.095  1.00  0.00     0.064 A 
ATOM     84  C   UNL A   1      45.224  29.341  34.929  1.00  0.00     0.173 A 
ATOM     85  C   UNL A   1      43.764  27.743  35.977  1.00  0.00     0.173 A 
ATOM     86  F   UNL A   1      45.438  30.362  34.086  1.00  0.00    -0.203 F 
ATOM     87  C   UNL A   1      46.309  28.789  35.605  1.00  0.00     0.198 A 
ATOM     88  C   UNL A   1      44.847  27.211  36.672  1.00  0.00     0.198 A 
ATOM     89  F   UNL A   1      42.547  27.214  36.174  1.00  0.00    -0.203 F 
ATOM     90  F   UNL A   1      47.541  29.274  35.398  1.00  0.00    -0.200 F 
ATOM     91  C   UNL A   1      46.119  27.730  36.480  1.00  0.00     0.200 A 
ATOM     92  F   UNL A   1      44.660  26.197  37.527  1.00  0.00    -0.200 F 
ATOM     93  F   UNL A   1      47.164  27.204  37.134  1.00  0.00    -0.200 F 
ENDBRANCH  60  83
ENDBRANCH  34  35
ENDBRANCH  26  29
ENDBRANCH  24  25
ENDBRANCH  23  24
ENDBRANCH  22  23
ENDBRANCH   1  22
TORSDOF 15
ENDMDL
