MODEL 1
REMARK VINA RESULT:     -12.6      0.000      0.000
REMARK SMILES Nc1oc(-c2ccccc2)cc1C(=O)NCCCCNC(=O)c1ccc(-c2c3nc(c(-c4c(F)c(F)c(F)c(F)c4F)c4ccc([nH]4)c(-c4c(F)c(F)c(F)c(F)c4F)c4nc(c(-c5c(F)c(F)c(F)c(F)c5F)c5ccc2[nH]5)C=C4)C=C3)cc1
REMARK SMILES IDX 18 1 17 2 16 3 15 4 13 5 14 6 12 8 2 9 3 10 4 11 11 12 1 13
REMARK SMILES IDX 5 16 6 17 10 18 7 19 9 20 8 21 19 22 20 23 21 24 22 26 23 27
REMARK SMILES IDX 24 28 85 29 25 30 84 31 26 32 27 33 28 34 78 35 29 36 83 37
REMARK SMILES IDX 77 38 79 39 30 40 82 41 76 42 75 43 31 45 63 46 43 47 62 48
REMARK SMILES IDX 44 49 47 50 61 51 80 52 45 53 46 54 60 56 81 57 48 58 32 59
REMARK SMILES IDX 33 60 41 61 34 62 35 63 39 64 42 65 36 66 37 67 40 68 38 69
REMARK SMILES IDX 64 70 65 71 73 72 66 73 67 74 71 75 74 76 68 77 69 78 72 79
REMARK SMILES IDX 70 80 49 81 50 82 58 83 51 84 52 85 56 86 59 87 53 88 54 89
REMARK SMILES IDX 57 90 55 91
REMARK H PARENT 15 7 1 14 1 15 20 25 79 44 47 55
REMARK Flexibility Score: inf
ROOT
ATOM      1  C   UNL A   1      41.331  19.597  26.134  1.00  0.00     0.023 C 
ENDROOT
BRANCH   1   2
ATOM      2  C   UNL A   1      40.548  20.866  26.508  1.00  0.00     0.023 C 
BRANCH   2   3
ATOM      3  C   UNL A   1      39.216  21.046  25.771  1.00  0.00     0.116 C 
BRANCH   3   4
ATOM      4  N   UNL A   1      38.691  22.390  25.925  1.00  0.00    -0.352 N 
ATOM      5  C   UNL A   1      37.411  22.893  25.913  1.00  0.00     0.256 C 
ATOM      6  O   UNL A   1      37.302  24.103  26.124  1.00  0.00    -0.269 OA
ATOM      7  H   UNL A   1      39.385  23.073  26.066  1.00  0.00     0.163 HD
BRANCH   5   8
ATOM      8  C   UNL A   1      36.250  22.040  25.701  1.00  0.00     0.103 A 
ATOM      9  C   UNL A   1      35.133  22.034  26.526  1.00  0.00     0.203 A 
ATOM     10  O   UNL A   1      34.237  21.082  26.149  1.00  0.00    -0.440 OA
ATOM     11  C   UNL A   1      34.760  20.478  25.052  1.00  0.00     0.137 A 
ATOM     12  C   UNL A   1      35.941  21.084  24.696  1.00  0.00     0.067 A 
BRANCH   9  13
ATOM     13  N   UNL A   1      34.794  22.757  27.597  1.00  0.00    -0.369 N 
ATOM     14  H   UNL A   1      35.186  23.650  27.733  1.00  0.00     0.159 HD
ATOM     15  H   UNL A   1      34.151  22.397  28.251  1.00  0.00     0.159 HD
ENDBRANCH   9  13
BRANCH  11  16
ATOM     16  C   UNL A   1      34.058  19.346  24.487  1.00  0.00     0.017 A 
ATOM     17  C   UNL A   1      32.772  19.484  23.959  1.00  0.00     0.012 A 
ATOM     18  C   UNL A   1      34.739  18.129  24.336  1.00  0.00     0.012 A 
ATOM     19  C   UNL A   1      32.193  18.429  23.249  1.00  0.00     0.001 A 
ATOM     20  C   UNL A   1      34.156  17.074  23.633  1.00  0.00     0.001 A 
ATOM     21  C   UNL A   1      32.889  17.230  23.078  1.00  0.00     0.000 A 
ENDBRANCH  11  16
ENDBRANCH   5   8
ENDBRANCH   3   4
ENDBRANCH   2   3
ENDBRANCH   1   2
BRANCH   1  22
ATOM     22  C   UNL A   1      42.757  19.541  26.669  1.00  0.00     0.116 C 
BRANCH  22  23
ATOM     23  N   UNL A   1      43.771  19.453  25.616  1.00  0.00    -0.352 N 
ATOM     24  C   UNL A   1      44.247  20.469  24.798  1.00  0.00     0.251 C 
ATOM     25  H   UNL A   1      44.165  18.562  25.469  1.00  0.00     0.163 HD
ATOM     26  O   UNL A   1      44.777  20.236  23.728  1.00  0.00    -0.269 OA
BRANCH  24  27
ATOM     27  C   UNL A   1      44.124  21.852  25.286  1.00  0.00     0.039 A 
ATOM     28  C   UNL A   1      43.174  22.750  24.790  1.00  0.00     0.014 A 
ATOM     29  C   UNL A   1      44.983  22.214  26.315  1.00  0.00     0.014 A 
ATOM     30  C   UNL A   1      43.052  23.998  25.400  1.00  0.00     0.010 A 
ATOM     31  C   UNL A   1      44.723  23.339  27.040  1.00  0.00     0.010 A 
ATOM     32  C   UNL A   1      43.829  24.275  26.533  1.00  0.00    -0.014 A 
BRANCH  32  33
ATOM     33  C   UNL A   1      43.703  25.512  27.288  1.00  0.00     0.031 A 
ATOM     34  C   UNL A   1      44.682  26.571  26.922  1.00  0.00     0.074 A 
ATOM     35  C   UNL A   1      42.600  25.752  28.033  1.00  0.00     0.049 A 
ATOM     36  N   UNL A   1      45.580  27.117  27.672  1.00  0.00    -0.248 NA
ATOM     37  C   UNL A   1      44.761  26.988  25.511  1.00  0.00     0.031 C 
ATOM     38  C   UNL A   1      41.405  24.909  28.195  1.00  0.00     0.029 A 
ATOM     39  N   UNL A   1      42.257  26.873  28.719  1.00  0.00    -0.354 N 
ATOM     40  C   UNL A   1      46.213  28.081  26.888  1.00  0.00     0.074 A 
ATOM     41  C   UNL A   1      45.802  27.823  25.534  1.00  0.00     0.031 C 
ATOM     42  C   UNL A   1      40.397  25.639  28.723  1.00  0.00     0.029 A 
ATOM     43  C   UNL A   1      40.920  26.936  29.098  1.00  0.00     0.049 A 
ATOM     44  H   UNL A   1      42.904  27.584  28.932  1.00  0.00     0.167 HD
ATOM     45  C   UNL A   1      46.832  29.153  27.461  1.00  0.00     0.037 A 
ATOM     46  C   UNL A   1      40.293  28.005  29.653  1.00  0.00     0.037 A 
ATOM     47  C   UNL A   1      47.051  28.912  28.868  1.00  0.00     0.049 A 
ATOM     48  C   UNL A   1      41.355  28.893  30.194  1.00  0.00     0.074 A 
ATOM     49  C   UNL A   1      47.777  27.989  29.594  1.00  0.00     0.029 A 
ATOM     50  N   UNL A   1      46.155  29.458  29.755  1.00  0.00    -0.354 N 
ATOM     51  N   UNL A   1      42.130  28.562  31.191  1.00  0.00    -0.248 NA
ATOM     52  C   UNL A   1      41.879  29.921  29.307  1.00  0.00     0.031 C 
ATOM     53  C   UNL A   1      46.957  27.678  30.719  1.00  0.00     0.029 A 
ATOM     54  C   UNL A   1      45.819  28.484  30.659  1.00  0.00     0.049 A 
ATOM     55  H   UNL A   1      45.817  30.382  29.745  1.00  0.00     0.167 HD
ATOM     56  C   UNL A   1      43.390  29.010  30.824  1.00  0.00     0.074 A 
ATOM     57  C   UNL A   1      43.161  29.898  29.684  1.00  0.00     0.031 C 
ATOM     58  C   UNL A   1      44.519  28.389  31.280  1.00  0.00     0.037 A 
BRANCH  45  59
ATOM     59  C   UNL A   1      46.884  30.554  26.881  1.00  0.00     0.064 A 
ATOM     60  C   UNL A   1      48.115  31.247  26.906  1.00  0.00     0.173 A 
ATOM     61  C   UNL A   1      45.755  31.353  26.598  1.00  0.00     0.173 A 
ATOM     62  F   UNL A   1      49.265  30.595  27.137  1.00  0.00    -0.203 F 
ATOM     63  C   UNL A   1      48.188  32.638  26.799  1.00  0.00     0.198 A 
ATOM     64  C   UNL A   1      45.839  32.738  26.443  1.00  0.00     0.198 A 
ATOM     65  F   UNL A   1      44.514  30.862  26.560  1.00  0.00    -0.203 F 
ATOM     66  F   UNL A   1      49.363  33.257  26.980  1.00  0.00    -0.200 F 
ATOM     67  C   UNL A   1      47.047  33.385  26.586  1.00  0.00     0.200 A 
ATOM     68  F   UNL A   1      44.719  33.444  26.238  1.00  0.00    -0.200 F 
ATOM     69  F   UNL A   1      47.101  34.722  26.560  1.00  0.00    -0.200 F 
ENDBRANCH  45  59
BRANCH  46  70
ATOM     70  C   UNL A   1      38.899  28.462  29.440  1.00  0.00     0.064 A 
ATOM     71  C   UNL A   1      38.034  28.691  30.522  1.00  0.00     0.173 A 
ATOM     72  C   UNL A   1      38.477  28.954  28.188  1.00  0.00     0.173 A 
ATOM     73  F   UNL A   1      38.381  28.296  31.756  1.00  0.00    -0.203 F 
ATOM     74  C   UNL A   1      36.831  29.390  30.367  1.00  0.00     0.198 A 
ATOM     75  C   UNL A   1      37.277  29.650  28.034  1.00  0.00     0.198 A 
ATOM     76  F   UNL A   1      39.270  28.856  27.110  1.00  0.00    -0.203 F 
ATOM     77  F   UNL A   1      36.059  29.641  31.434  1.00  0.00    -0.200 F 
ATOM     78  C   UNL A   1      36.459  29.878  29.125  1.00  0.00     0.200 A 
ATOM     79  F   UNL A   1      36.949  30.151  26.834  1.00  0.00    -0.200 F 
ATOM     80  F   UNL A   1      35.339  30.603  28.986  1.00  0.00    -0.200 F 
ENDBRANCH  46  70
BRANCH  58  81
ATOM     81  C   UNL A   1      44.364  27.358  32.366  1.00  0.00     0.064 A 
ATOM     82  C   UNL A   1      44.231  25.977  32.132  1.00  0.00     0.173 A 
ATOM     83  C   UNL A   1      44.517  27.768  33.696  1.00  0.00     0.173 A 
ATOM     84  F   UNL A   1      44.180  25.490  30.889  1.00  0.00    -0.203 F 
ATOM     85  C   UNL A   1      44.212  25.060  33.182  1.00  0.00     0.198 A 
ATOM     86  C   UNL A   1      44.534  26.848  34.741  1.00  0.00     0.198 A 
ATOM     87  F   UNL A   1      44.706  29.066  33.978  1.00  0.00    -0.203 F 
ATOM     88  F   UNL A   1      44.076  23.749  32.928  1.00  0.00    -0.200 F 
ATOM     89  C   UNL A   1      44.372  25.496  34.485  1.00  0.00     0.200 A 
ATOM     90  F   UNL A   1      44.741  27.271  35.995  1.00  0.00    -0.200 F 
ATOM     91  F   UNL A   1      44.398  24.612  35.493  1.00  0.00    -0.200 F 
ENDBRANCH  58  81
ENDBRANCH  32  33
ENDBRANCH  24  27
ENDBRANCH  22  23
ENDBRANCH   1  22
TORSDOF 13
ENDMDL
MODEL 2
REMARK VINA RESULT:     -12.5      3.572      6.587
REMARK SMILES Nc1oc(-c2ccccc2)cc1C(=O)NCCCCNC(=O)c1ccc(-c2c3nc(c(-c4c(F)c(F)c(F)c(F)c4F)c4ccc([nH]4)c(-c4c(F)c(F)c(F)c(F)c4F)c4nc(c(-c5c(F)c(F)c(F)c(F)c5F)c5ccc2[nH]5)C=C4)C=C3)cc1
REMARK SMILES IDX 18 1 17 2 16 3 15 4 13 5 14 6 12 8 2 9 3 10 4 11 11 12 1 13
REMARK SMILES IDX 5 16 6 17 10 18 7 19 9 20 8 21 19 22 20 23 21 24 22 26 23 27
REMARK SMILES IDX 24 28 85 29 25 30 84 31 26 32 27 33 28 34 78 35 29 36 83 37
REMARK SMILES IDX 77 38 79 39 30 40 82 41 76 42 75 43 31 45 63 46 43 47 62 48
REMARK SMILES IDX 44 49 47 50 61 51 80 52 45 53 46 54 60 56 81 57 48 58 32 59
REMARK SMILES IDX 33 60 41 61 34 62 35 63 39 64 42 65 36 66 37 67 40 68 38 69
REMARK SMILES IDX 64 70 65 71 73 72 66 73 67 74 71 75 74 76 68 77 69 78 72 79
REMARK SMILES IDX 70 80 49 81 50 82 58 83 51 84 52 85 56 86 59 87 53 88 54 89
REMARK SMILES IDX 57 90 55 91
REMARK H PARENT 15 7 1 14 1 15 20 25 79 44 47 55
REMARK Flexibility Score: inf
ROOT
ATOM      1  C   UNL A   1      43.518  23.231  24.663  1.00  0.00     0.023 C 
ENDROOT
BRANCH   1   2
ATOM      2  C   UNL A   1      44.013  24.645  25.008  1.00  0.00     0.023 C 
BRANCH   2   3
ATOM      3  C   UNL A   1      45.537  24.798  25.081  1.00  0.00     0.116 C 
BRANCH   3   4
ATOM      4  N   UNL A   1      45.944  26.189  25.021  1.00  0.00    -0.352 N 
ATOM      5  C   UNL A   1      46.179  27.131  25.996  1.00  0.00     0.256 C 
ATOM      6  O   UNL A   1      46.566  28.234  25.604  1.00  0.00    -0.269 OA
ATOM      7  H   UNL A   1      46.078  26.525  24.105  1.00  0.00     0.163 HD
BRANCH   5   8
ATOM      8  C   UNL A   1      46.016  26.830  27.411  1.00  0.00     0.103 A 
ATOM      9  C   UNL A   1      46.955  27.150  28.384  1.00  0.00     0.203 A 
ATOM     10  O   UNL A   1      46.592  26.678  29.606  1.00  0.00    -0.440 OA
ATOM     11  C   UNL A   1      45.392  26.065  29.439  1.00  0.00     0.137 A 
ATOM     12  C   UNL A   1      44.967  26.207  28.139  1.00  0.00     0.067 A 
BRANCH   9  13
ATOM     13  N   UNL A   1      48.121  27.803  28.337  1.00  0.00    -0.369 N 
ATOM     14  H   UNL A   1      48.963  27.317  28.490  1.00  0.00     0.159 HD
ATOM     15  H   UNL A   1      48.136  28.769  28.150  1.00  0.00     0.159 HD
ENDBRANCH   9  13
BRANCH  11  16
ATOM     16  C   UNL A   1      44.804  25.378  30.568  1.00  0.00     0.017 A 
ATOM     17  C   UNL A   1      44.453  24.029  30.489  1.00  0.00     0.012 A 
ATOM     18  C   UNL A   1      44.724  26.041  31.802  1.00  0.00     0.012 A 
ATOM     19  C   UNL A   1      44.068  23.340  31.642  1.00  0.00     0.001 A 
ATOM     20  C   UNL A   1      44.332  25.354  32.950  1.00  0.00     0.001 A 
ATOM     21  C   UNL A   1      44.018  24.000  32.872  1.00  0.00     0.000 A 
ENDBRANCH  11  16
ENDBRANCH   5   8
ENDBRANCH   3   4
ENDBRANCH   2   3
ENDBRANCH   1   2
BRANCH   1  22
ATOM     22  C   UNL A   1      43.078  22.397  25.860  1.00  0.00     0.116 C 
BRANCH  22  23
ATOM     23  N   UNL A   1      41.646  22.083  25.856  1.00  0.00    -0.352 N 
ATOM     24  C   UNL A   1      40.630  22.715  26.559  1.00  0.00     0.251 C 
ATOM     25  H   UNL A   1      41.371  21.331  25.283  1.00  0.00     0.163 HD
ATOM     26  O   UNL A   1      39.572  22.161  26.795  1.00  0.00    -0.269 OA
BRANCH  24  27
ATOM     27  C   UNL A   1      40.856  24.106  26.985  1.00  0.00     0.039 A 
ATOM     28  C   UNL A   1      40.382  25.206  26.263  1.00  0.00     0.014 A 
ATOM     29  C   UNL A   1      41.532  24.274  28.186  1.00  0.00     0.014 A 
ATOM     30  C   UNL A   1      40.537  26.479  26.809  1.00  0.00     0.010 A 
ATOM     31  C   UNL A   1      41.494  25.485  28.812  1.00  0.00     0.010 A 
ATOM     32  C   UNL A   1      41.088  26.602  28.092  1.00  0.00    -0.014 A 
BRANCH  32  33
ATOM     33  C   UNL A   1      41.203  27.880  28.778  1.00  0.00     0.031 A 
ATOM     34  C   UNL A   1      42.347  28.725  28.340  1.00  0.00     0.074 A 
ATOM     35  C   UNL A   1      40.178  28.354  29.523  1.00  0.00     0.049 A 
ATOM     36  N   UNL A   1      43.345  29.139  29.047  1.00  0.00    -0.248 NA
ATOM     37  C   UNL A   1      42.466  29.046  26.907  1.00  0.00     0.031 C 
ATOM     38  C   UNL A   1      38.855  27.750  29.748  1.00  0.00     0.029 A 
ATOM     39  N   UNL A   1      40.057  29.552  30.150  1.00  0.00    -0.354 N 
ATOM     40  C   UNL A   1      44.122  29.930  28.202  1.00  0.00     0.074 A 
ATOM     41  C   UNL A   1      43.640  29.679  26.870  1.00  0.00     0.031 C 
ATOM     42  C   UNL A   1      38.006  28.676  30.247  1.00  0.00     0.029 A 
ATOM     43  C   UNL A   1      38.762  29.876  30.542  1.00  0.00     0.049 A 
ATOM     44  H   UNL A   1      40.826  30.146  30.313  1.00  0.00     0.167 HD
ATOM     45  C   UNL A   1      44.936  30.902  28.706  1.00  0.00     0.037 A 
ATOM     46  C   UNL A   1      38.350  31.067  31.044  1.00  0.00     0.037 A 
ATOM     47  C   UNL A   1      45.140  30.700  30.121  1.00  0.00     0.049 A 
ATOM     48  C   UNL A   1      39.565  31.777  31.521  1.00  0.00     0.074 A 
ATOM     49  C   UNL A   1      45.707  29.701  30.888  1.00  0.00     0.029 A 
ATOM     50  N   UNL A   1      44.378  31.444  30.988  1.00  0.00    -0.354 N 
ATOM     51  N   UNL A   1      40.291  31.365  32.525  1.00  0.00    -0.248 NA
ATOM     52  C   UNL A   1      40.244  32.646  30.571  1.00  0.00     0.031 C 
ATOM     53  C   UNL A   1      44.870  29.602  32.040  1.00  0.00     0.029 A 
ATOM     54  C   UNL A   1      43.894  30.596  31.950  1.00  0.00     0.049 A 
ATOM     55  H   UNL A   1      44.211  32.413  30.931  1.00  0.00     0.167 HD
ATOM     56  C   UNL A   1      41.603  31.559  32.116  1.00  0.00     0.074 A 
ATOM     57  C   UNL A   1      41.510  32.412  30.932  1.00  0.00     0.031 C 
ATOM     58  C   UNL A   1      42.612  30.770  32.592  1.00  0.00     0.037 A 
BRANCH  45  59
ATOM     59  C   UNL A   1      45.225  32.238  28.047  1.00  0.00     0.064 A 
ATOM     60  C   UNL A   1      44.141  33.104  27.781  1.00  0.00     0.173 A 
ATOM     61  C   UNL A   1      46.430  32.572  27.393  1.00  0.00     0.173 A 
ATOM     62  F   UNL A   1      42.948  32.909  28.363  1.00  0.00    -0.203 F 
ATOM     63  C   UNL A   1      44.222  34.127  26.833  1.00  0.00     0.198 A 
ATOM     64  C   UNL A   1      46.519  33.626  26.482  1.00  0.00     0.198 A 
ATOM     65  F   UNL A   1      47.544  31.845  27.516  1.00  0.00    -0.203 F 
ATOM     66  F   UNL A   1      43.122  34.821  26.510  1.00  0.00    -0.200 F 
ATOM     67  C   UNL A   1      45.407  34.376  26.170  1.00  0.00     0.200 A 
ATOM     68  F   UNL A   1      47.679  33.850  25.849  1.00  0.00    -0.200 F 
ATOM     69  F   UNL A   1      45.469  35.302  25.206  1.00  0.00    -0.200 F 
ENDBRANCH  45  59
BRANCH  46  70
ATOM     70  C   UNL A   1      37.055  31.756  30.824  1.00  0.00     0.064 A 
ATOM     71  C   UNL A   1      36.128  31.915  31.867  1.00  0.00     0.173 A 
ATOM     72  C   UNL A   1      36.825  32.520  29.662  1.00  0.00     0.173 A 
ATOM     73  F   UNL A   1      36.300  31.261  33.025  1.00  0.00    -0.203 F 
ATOM     74  C   UNL A   1      35.049  32.801  31.762  1.00  0.00     0.198 A 
ATOM     75  C   UNL A   1      35.747  33.401  29.558  1.00  0.00     0.198 A 
ATOM     76  F   UNL A   1      37.697  32.498  28.643  1.00  0.00    -0.203 F 
ATOM     77  F   UNL A   1      34.218  32.971  32.801  1.00  0.00    -0.200 F 
ATOM     78  C   UNL A   1      34.867  33.551  30.612  1.00  0.00     0.200 A 
ATOM     79  F   UNL A   1      35.606  34.150  28.455  1.00  0.00    -0.200 F 
ATOM     80  F   UNL A   1      33.871  34.447  30.535  1.00  0.00    -0.200 F 
ENDBRANCH  46  70
BRANCH  58  81
ATOM     81  C   UNL A   1      42.300  29.842  33.736  1.00  0.00     0.064 A 
ATOM     82  C   UNL A   1      41.916  28.498  33.582  1.00  0.00     0.173 A 
ATOM     83  C   UNL A   1      42.555  30.287  35.038  1.00  0.00     0.173 A 
ATOM     84  F   UNL A   1      41.750  27.962  32.368  1.00  0.00    -0.203 F 
ATOM     85  C   UNL A   1      41.757  27.655  34.681  1.00  0.00     0.198 A 
ATOM     86  C   UNL A   1      42.431  29.436  36.133  1.00  0.00     0.198 A 
ATOM     87  F   UNL A   1      42.980  31.543  35.245  1.00  0.00    -0.203 F 
ATOM     88  F   UNL A   1      41.383  26.379  34.503  1.00  0.00    -0.200 F 
ATOM     89  C   UNL A   1      42.023  28.124  35.955  1.00  0.00     0.200 A 
ATOM     90  F   UNL A   1      42.740  29.880  37.359  1.00  0.00    -0.200 F 
ATOM     91  F   UNL A   1      41.913  27.304  37.011  1.00  0.00    -0.200 F 
ENDBRANCH  58  81
ENDBRANCH  32  33
ENDBRANCH  24  27
ENDBRANCH  22  23
ENDBRANCH   1  22
TORSDOF 13
ENDMDL
MODEL 3
REMARK VINA RESULT:     -12.5      3.548      6.526
REMARK SMILES Nc1oc(-c2ccccc2)cc1C(=O)NCCCCNC(=O)c1ccc(-c2c3nc(c(-c4c(F)c(F)c(F)c(F)c4F)c4ccc([nH]4)c(-c4c(F)c(F)c(F)c(F)c4F)c4nc(c(-c5c(F)c(F)c(F)c(F)c5F)c5ccc2[nH]5)C=C4)C=C3)cc1
REMARK SMILES IDX 18 1 17 2 16 3 15 4 13 5 14 6 12 8 2 9 3 10 4 11 11 12 1 13
REMARK SMILES IDX 5 16 6 17 10 18 7 19 9 20 8 21 19 22 20 23 21 24 22 26 23 27
REMARK SMILES IDX 24 28 85 29 25 30 84 31 26 32 27 33 28 34 78 35 29 36 83 37
REMARK SMILES IDX 77 38 79 39 30 40 82 41 76 42 75 43 31 45 63 46 43 47 62 48
REMARK SMILES IDX 44 49 47 50 61 51 80 52 45 53 46 54 60 56 81 57 48 58 32 59
REMARK SMILES IDX 33 60 41 61 34 62 35 63 39 64 42 65 36 66 37 67 40 68 38 69
REMARK SMILES IDX 64 70 65 71 73 72 66 73 67 74 71 75 74 76 68 77 69 78 72 79
REMARK SMILES IDX 70 80 49 81 50 82 58 83 51 84 52 85 56 86 59 87 53 88 54 89
REMARK SMILES IDX 57 90 55 91
REMARK H PARENT 15 7 1 14 1 15 20 25 79 44 47 55
REMARK Flexibility Score: inf
ROOT
ATOM      1  C   UNL A   1      43.393  23.295  24.643  1.00  0.00     0.023 C 
ENDROOT
BRANCH   1   2
ATOM      2  C   UNL A   1      43.891  24.696  25.036  1.00  0.00     0.023 C 
BRANCH   2   3
ATOM      3  C   UNL A   1      45.415  24.847  25.098  1.00  0.00     0.116 C 
BRANCH   3   4
ATOM      4  N   UNL A   1      45.825  26.236  25.010  1.00  0.00    -0.352 N 
ATOM      5  C   UNL A   1      46.086  27.189  25.967  1.00  0.00     0.256 C 
ATOM      6  O   UNL A   1      46.467  28.286  25.550  1.00  0.00    -0.269 OA
ATOM      7  H   UNL A   1      45.937  26.558  24.087  1.00  0.00     0.163 HD
BRANCH   5   8
ATOM      8  C   UNL A   1      45.957  26.908  27.389  1.00  0.00     0.103 A 
ATOM      9  C   UNL A   1      46.917  27.244  28.335  1.00  0.00     0.203 A 
ATOM     10  O   UNL A   1      46.583  26.788  29.572  1.00  0.00    -0.440 OA
ATOM     11  C   UNL A   1      45.381  26.171  29.441  1.00  0.00     0.137 A 
ATOM     12  C   UNL A   1      44.925  26.293  28.149  1.00  0.00     0.067 A 
BRANCH   9  13
ATOM     13  N   UNL A   1      48.080  27.898  28.253  1.00  0.00    -0.369 N 
ATOM     14  H   UNL A   1      48.161  28.685  27.668  1.00  0.00     0.159 HD
ATOM     15  H   UNL A   1      48.854  27.592  28.778  1.00  0.00     0.159 HD
ENDBRANCH   9  13
BRANCH  11  16
ATOM     16  C   UNL A   1      44.821  25.498  30.592  1.00  0.00     0.017 A 
ATOM     17  C   UNL A   1      44.469  24.148  30.540  1.00  0.00     0.012 A 
ATOM     18  C   UNL A   1      44.770  26.178  31.819  1.00  0.00     0.012 A 
ATOM     19  C   UNL A   1      44.112  23.474  31.711  1.00  0.00     0.001 A 
ATOM     20  C   UNL A   1      44.405  25.505  32.986  1.00  0.00     0.001 A 
ATOM     21  C   UNL A   1      44.091  24.150  32.933  1.00  0.00     0.000 A 
ENDBRANCH  11  16
ENDBRANCH   5   8
ENDBRANCH   3   4
ENDBRANCH   2   3
ENDBRANCH   1   2
BRANCH   1  22
ATOM     22  C   UNL A   1      43.038  22.389  25.816  1.00  0.00     0.116 C 
BRANCH  22  23
ATOM     23  N   UNL A   1      41.619  22.028  25.865  1.00  0.00    -0.352 N 
ATOM     24  C   UNL A   1      40.604  22.643  26.586  1.00  0.00     0.251 C 
ATOM     25  H   UNL A   1      41.352  21.253  25.319  1.00  0.00     0.163 HD
ATOM     26  O   UNL A   1      39.574  22.060  26.868  1.00  0.00    -0.269 OA
BRANCH  24  27
ATOM     27  C   UNL A   1      40.795  24.051  26.971  1.00  0.00     0.039 A 
ATOM     28  C   UNL A   1      40.250  25.116  26.246  1.00  0.00     0.014 A 
ATOM     29  C   UNL A   1      41.515  24.271  28.138  1.00  0.00     0.014 A 
ATOM     30  C   UNL A   1      40.380  26.406  26.758  1.00  0.00     0.010 A 
ATOM     31  C   UNL A   1      41.458  25.494  28.738  1.00  0.00     0.010 A 
ATOM     32  C   UNL A   1      40.980  26.579  28.013  1.00  0.00    -0.014 A 
BRANCH  32  33
ATOM     33  C   UNL A   1      41.076  27.876  28.665  1.00  0.00     0.031 A 
ATOM     34  C   UNL A   1      42.173  28.748  28.166  1.00  0.00     0.074 A 
ATOM     35  C   UNL A   1      40.063  28.332  29.438  1.00  0.00     0.049 A 
ATOM     36  N   UNL A   1      43.182  29.212  28.825  1.00  0.00    -0.248 NA
ATOM     37  C   UNL A   1      42.229  29.039  26.723  1.00  0.00     0.031 C 
ATOM     38  C   UNL A   1      38.771  27.689  29.725  1.00  0.00     0.029 A 
ATOM     39  N   UNL A   1      39.925  29.540  30.042  1.00  0.00    -0.354 N 
ATOM     40  C   UNL A   1      43.900  30.009  27.934  1.00  0.00     0.074 A 
ATOM     41  C   UNL A   1      43.378  29.710  26.628  1.00  0.00     0.031 C 
ATOM     42  C   UNL A   1      37.910  28.597  30.235  1.00  0.00     0.029 A 
ATOM     43  C   UNL A   1      38.634  29.829  30.475  1.00  0.00     0.049 A 
ATOM     44  H   UNL A   1      40.678  30.163  30.163  1.00  0.00     0.167 HD
ATOM     45  C   UNL A   1      44.698  31.019  28.385  1.00  0.00     0.037 A 
ATOM     46  C   UNL A   1      38.200  31.017  30.966  1.00  0.00     0.037 A 
ATOM     47  C   UNL A   1      44.961  30.857  29.796  1.00  0.00     0.049 A 
ATOM     48  C   UNL A   1      39.407  31.779  31.380  1.00  0.00     0.074 A 
ATOM     49  C   UNL A   1      45.589  29.896  30.563  1.00  0.00     0.029 A 
ATOM     50  N   UNL A   1      44.205  31.596  30.674  1.00  0.00    -0.354 N 
ATOM     51  N   UNL A   1      40.183  31.415  32.365  1.00  0.00    -0.248 NA
ATOM     52  C   UNL A   1      40.020  32.647  30.386  1.00  0.00     0.031 C 
ATOM     53  C   UNL A   1      44.799  29.797  31.748  1.00  0.00     0.029 A 
ATOM     54  C   UNL A   1      43.786  30.755  31.672  1.00  0.00     0.049 A 
ATOM     55  H   UNL A   1      44.003  32.556  30.601  1.00  0.00     0.167 HD
ATOM     56  C   UNL A   1      41.471  31.644  31.903  1.00  0.00     0.074 A 
ATOM     57  C   UNL A   1      41.306  32.464  30.704  1.00  0.00     0.031 C 
ATOM     58  C   UNL A   1      42.524  30.900  32.358  1.00  0.00     0.037 A 
BRANCH  45  59
ATOM     59  C   UNL A   1      44.915  32.348  27.687  1.00  0.00     0.064 A 
ATOM     60  C   UNL A   1      46.113  32.538  26.961  1.00  0.00     0.173 A 
ATOM     61  C   UNL A   1      44.182  33.526  27.946  1.00  0.00     0.173 A 
ATOM     62  F   UNL A   1      46.887  31.493  26.628  1.00  0.00    -0.203 F 
ATOM     63  C   UNL A   1      46.600  33.809  26.648  1.00  0.00     0.198 A 
ATOM     64  C   UNL A   1      44.649  34.791  27.587  1.00  0.00     0.198 A 
ATOM     65  F   UNL A   1      43.041  33.528  28.639  1.00  0.00    -0.203 F 
ATOM     66  F   UNL A   1      47.812  33.938  26.092  1.00  0.00    -0.200 F 
ATOM     67  C   UNL A   1      45.876  34.937  26.978  1.00  0.00     0.200 A 
ATOM     68  F   UNL A   1      43.931  35.873  27.918  1.00  0.00    -0.200 F 
ATOM     69  F   UNL A   1      46.373  36.159  26.751  1.00  0.00    -0.200 F 
ENDBRANCH  45  59
BRANCH  46  70
ATOM     70  C   UNL A   1      36.875  31.657  30.779  1.00  0.00     0.064 A 
ATOM     71  C   UNL A   1      36.007  31.864  31.863  1.00  0.00     0.173 A 
ATOM     72  C   UNL A   1      36.554  32.332  29.584  1.00  0.00     0.173 A 
ATOM     73  F   UNL A   1      36.266  31.296  33.051  1.00  0.00    -0.203 F 
ATOM     74  C   UNL A   1      34.898  32.713  31.766  1.00  0.00     0.198 A 
ATOM     75  C   UNL A   1      35.447  33.177  29.487  1.00  0.00     0.198 A 
ATOM     76  F   UNL A   1      37.365  32.262  28.518  1.00  0.00    -0.203 F 
ATOM     77  F   UNL A   1      34.126  32.933  32.839  1.00  0.00    -0.200 F 
ATOM     78  C   UNL A   1      34.627  33.378  30.581  1.00  0.00     0.200 A 
ATOM     79  F   UNL A   1      35.219  33.845  28.347  1.00  0.00    -0.200 F 
ATOM     80  F   UNL A   1      33.603  34.240  30.505  1.00  0.00    -0.200 F 
ENDBRANCH  46  70
BRANCH  58  81
ATOM     81  C   UNL A   1      42.287  29.989  33.533  1.00  0.00     0.064 A 
ATOM     82  C   UNL A   1      41.970  28.624  33.424  1.00  0.00     0.173 A 
ATOM     83  C   UNL A   1      42.547  30.483  34.817  1.00  0.00     0.173 A 
ATOM     84  F   UNL A   1      41.805  28.047  32.229  1.00  0.00    -0.203 F 
ATOM     85  C   UNL A   1      41.880  27.805  34.549  1.00  0.00     0.198 A 
ATOM     86  C   UNL A   1      42.492  29.657  35.936  1.00  0.00     0.198 A 
ATOM     87  F   UNL A   1      42.911  31.765  34.980  1.00  0.00    -0.203 F 
ATOM     88  F   UNL A   1      41.569  26.506  34.413  1.00  0.00    -0.200 F 
ATOM     89  C   UNL A   1      42.150  28.321  35.803  1.00  0.00     0.200 A 
ATOM     90  F   UNL A   1      42.805  30.151  37.142  1.00  0.00    -0.200 F 
ATOM     91  F   UNL A   1      42.107  27.527  36.882  1.00  0.00    -0.200 F 
ENDBRANCH  58  81
ENDBRANCH  32  33
ENDBRANCH  24  27
ENDBRANCH  22  23
ENDBRANCH   1  22
TORSDOF 13
ENDMDL
