MODEL 1
REMARK VINA RESULT:     -13.0      0.000      0.000
REMARK SMILES Cc1ccc(C)c(/C=C2\SC(=S)N(CC(=O)NCCCCNC(=O)c3ccc(-c4c5nc(c(-c6c(F)c(F)c(F)c(F)c6F)c6ccc([nH]6)c(-c6c(F)c(F)c(F)c(F)c6F)c6nc(c(-c7c(F)c(F)c(F)c(F)c7F)c7ccc4[nH]7)C=C6)C=C5)cc3)C2=O)c1
REMARK SMILES IDX 19 1 18 2 17 3 15 4 16 5 14 7 13 8 8 9 9 10 10 11 88 12
REMARK SMILES IDX 11 13 89 14 12 15 7 16 1 17 2 18 3 19 90 20 4 21 5 22 6 23
REMARK SMILES IDX 20 24 21 25 22 26 23 27 24 29 25 30 26 31 87 32 27 33 86 34
REMARK SMILES IDX 28 35 29 36 30 37 80 38 31 39 85 40 79 41 81 42 32 43 84 44
REMARK SMILES IDX 78 45 77 46 33 48 65 49 45 50 64 51 46 52 49 53 63 54 82 55
REMARK SMILES IDX 47 56 48 57 62 59 83 60 50 61 34 62 35 63 43 64 36 65 37 66
REMARK SMILES IDX 41 67 44 68 38 69 39 70 42 71 40 72 66 73 67 74 75 75 68 76
REMARK SMILES IDX 69 77 73 78 76 79 70 80 71 81 74 82 72 83 51 84 52 85 60 86
REMARK SMILES IDX 53 87 54 88 58 89 61 90 55 91 56 92 59 93 57 94
REMARK H PARENT 17 6 22 28 81 47 49 58
REMARK Flexibility Score: inf
ROOT
ATOM      1  C   UNL A   1      38.227  22.248  25.759  1.00  0.00     0.023 C 
ENDROOT
BRANCH   1   2
ATOM      2  C   UNL A   1      36.808  21.817  25.387  1.00  0.00     0.116 C 
BRANCH   2   3
ATOM      3  N   UNL A   1      35.897  21.711  26.502  1.00  0.00    -0.355 N 
ATOM      4  C   UNL A   1      34.541  21.853  26.537  1.00  0.00     0.240 C 
ATOM      5  O   UNL A   1      33.954  21.345  27.499  1.00  0.00    -0.273 OA
ATOM      6  H   UNL A   1      36.319  21.507  27.368  1.00  0.00     0.163 HD
BRANCH   4   7
ATOM      7  C   UNL A   1      33.743  22.440  25.365  1.00  0.00     0.227 C 
BRANCH   7   8
ATOM      8  N   UNL A   1      33.153  23.747  25.634  1.00  0.00    -0.283 N 
ATOM      9  C   UNL A   1      33.796  27.301  25.739  1.00  0.00     0.029 C 
ATOM     10  C   UNL A   1      33.222  26.093  25.820  1.00  0.00     0.081 C 
ATOM     11  S   UNL A   1      31.583  25.709  26.167  1.00  0.00    -0.054 SA
ATOM     12  C   UNL A   1      33.987  24.849  25.556  1.00  0.00     0.266 C 
ATOM     13  C   UNL A   1      31.869  23.979  26.079  1.00  0.00     0.148 C 
ATOM     14  O   UNL A   1      35.181  24.827  25.296  1.00  0.00    -0.268 OA
ATOM     15  S   UNL A   1      30.697  22.870  26.501  1.00  0.00    -0.052 S 
BRANCH   9  16
ATOM     16  C   UNL A   1      33.108  28.588  25.915  1.00  0.00    -0.021 A 
ATOM     17  C   UNL A   1      30.201  30.427  24.257  1.00  0.00     0.044 C 
ATOM     18  C   UNL A   1      31.341  30.110  25.178  1.00  0.00    -0.051 A 
ATOM     19  C   UNL A   1      31.780  31.052  26.109  1.00  0.00     0.004 A 
ATOM     20  C   UNL A   1      31.994  28.876  25.107  1.00  0.00     0.011 A 
ATOM     21  C   UNL A   1      32.856  30.763  26.950  1.00  0.00     0.004 A 
ATOM     22  C   UNL A   1      33.535  29.535  26.866  1.00  0.00    -0.044 A 
ATOM     23  C   UNL A   1      34.696  29.320  27.799  1.00  0.00     0.045 C 
ENDBRANCH   9  16
ENDBRANCH   7   8
ENDBRANCH   4   7
ENDBRANCH   2   3
ENDBRANCH   1   2
BRANCH   1  24
ATOM     24  C   UNL A   1      39.279  21.147  25.963  1.00  0.00     0.023 C 
BRANCH  24  25
ATOM     25  C   UNL A   1      40.316  21.380  27.060  1.00  0.00     0.116 C 
BRANCH  25  26
ATOM     26  N   UNL A   1      41.648  21.765  26.564  1.00  0.00    -0.352 N 
ATOM     27  C   UNL A   1      42.205  23.012  26.276  1.00  0.00     0.251 C 
ATOM     28  H   UNL A   1      42.255  21.006  26.408  1.00  0.00     0.163 HD
ATOM     29  O   UNL A   1      43.182  23.101  25.554  1.00  0.00    -0.269 OA
BRANCH  27  30
ATOM     30  C   UNL A   1      41.640  24.233  26.889  1.00  0.00     0.039 A 
ATOM     31  C   UNL A   1      40.469  24.879  26.499  1.00  0.00     0.014 A 
ATOM     32  C   UNL A   1      42.459  24.891  27.772  1.00  0.00     0.014 A 
ATOM     33  C   UNL A   1      40.245  26.182  26.973  1.00  0.00     0.010 A 
ATOM     34  C   UNL A   1      41.992  25.871  28.573  1.00  0.00     0.010 A 
ATOM     35  C   UNL A   1      41.090  26.697  27.964  1.00  0.00    -0.014 A 
BRANCH  35  36
ATOM     36  C   UNL A   1      41.000  28.006  28.568  1.00  0.00     0.031 A 
ATOM     37  C   UNL A   1      42.020  28.940  28.066  1.00  0.00     0.074 A 
ATOM     38  C   UNL A   1      39.922  28.425  29.266  1.00  0.00     0.049 A 
ATOM     39  N   UNL A   1      43.091  29.305  28.681  1.00  0.00    -0.248 NA
ATOM     40  C   UNL A   1      41.957  29.358  26.657  1.00  0.00     0.031 C 
ATOM     41  C   UNL A   1      38.639  27.754  29.510  1.00  0.00     0.029 A 
ATOM     42  N   UNL A   1      39.740  29.631  29.865  1.00  0.00    -0.354 N 
ATOM     43  C   UNL A   1      43.732  30.173  27.812  1.00  0.00     0.074 A 
ATOM     44  C   UNL A   1      43.137  29.964  26.519  1.00  0.00     0.031 C 
ATOM     45  C   UNL A   1      37.757  28.636  30.041  1.00  0.00     0.029 A 
ATOM     46  C   UNL A   1      38.447  29.887  30.303  1.00  0.00     0.049 A 
ATOM     47  H   UNL A   1      40.473  30.279  29.981  1.00  0.00     0.167 HD
ATOM     48  C   UNL A   1      44.491  31.194  28.291  1.00  0.00     0.037 A 
ATOM     49  C   UNL A   1      37.998  31.067  30.804  1.00  0.00     0.037 A 
ATOM     50  C   UNL A   1      44.765  31.013  29.699  1.00  0.00     0.049 A 
ATOM     51  C   UNL A   1      39.195  31.843  31.232  1.00  0.00     0.074 A 
ATOM     52  C   UNL A   1      45.369  30.016  30.443  1.00  0.00     0.029 A 
ATOM     53  N   UNL A   1      44.016  31.740  30.595  1.00  0.00    -0.354 N 
ATOM     54  N   UNL A   1      39.962  31.499  32.230  1.00  0.00    -0.248 NA
ATOM     55  C   UNL A   1      39.813  32.722  30.247  1.00  0.00     0.031 C 
ATOM     56  C   UNL A   1      44.570  29.897  31.621  1.00  0.00     0.029 A 
ATOM     57  C   UNL A   1      43.576  30.875  31.566  1.00  0.00     0.049 A 
ATOM     58  H   UNL A   1      43.831  32.705  30.550  1.00  0.00     0.167 HD
ATOM     59  C   UNL A   1      41.254  31.746  31.787  1.00  0.00     0.074 A 
ATOM     60  C   UNL A   1      41.096  32.572  30.592  1.00  0.00     0.031 C 
ATOM     61  C   UNL A   1      42.310  31.014  32.251  1.00  0.00     0.037 A 
BRANCH  48  62
ATOM     62  C   UNL A   1      44.653  32.525  27.605  1.00  0.00     0.064 A 
ATOM     63  C   UNL A   1      45.811  32.748  26.839  1.00  0.00     0.173 A 
ATOM     64  C   UNL A   1      43.877  33.672  27.885  1.00  0.00     0.173 A 
ATOM     65  F   UNL A   1      46.629  31.731  26.526  1.00  0.00    -0.203 F 
ATOM     66  C   UNL A   1      46.206  34.031  26.457  1.00  0.00     0.198 A 
ATOM     67  C   UNL A   1      44.242  34.943  27.450  1.00  0.00     0.198 A 
ATOM     68  F   UNL A   1      42.804  33.639  28.682  1.00  0.00    -0.203 F 
ATOM     69  F   UNL A   1      47.384  34.209  25.845  1.00  0.00    -0.200 F 
ATOM     70  C   UNL A   1      45.425  35.129  26.768  1.00  0.00     0.200 A 
ATOM     71  F   UNL A   1      43.477  35.994  27.777  1.00  0.00    -0.200 F 
ATOM     72  F   UNL A   1      45.831  36.366  26.458  1.00  0.00    -0.200 F 
ENDBRANCH  48  62
BRANCH  49  73
ATOM     73  C   UNL A   1      36.663  31.698  30.650  1.00  0.00     0.064 A 
ATOM     74  C   UNL A   1      35.878  32.026  31.770  1.00  0.00     0.173 A 
ATOM     75  C   UNL A   1      36.260  32.257  29.422  1.00  0.00     0.173 A 
ATOM     76  F   UNL A   1      36.217  31.573  32.986  1.00  0.00    -0.203 F 
ATOM     77  C   UNL A   1      34.777  32.884  31.671  1.00  0.00     0.198 A 
ATOM     78  C   UNL A   1      35.158  33.110  29.324  1.00  0.00     0.198 A 
ATOM     79  F   UNL A   1      36.987  32.067  28.312  1.00  0.00    -0.203 F 
ATOM     80  F   UNL A   1      34.092  33.224  32.771  1.00  0.00    -0.200 F 
ATOM     81  C   UNL A   1      34.425  33.435  30.450  1.00  0.00     0.200 A 
ATOM     82  F   UNL A   1      34.854  33.669  28.144  1.00  0.00    -0.200 F 
ATOM     83  F   UNL A   1      33.411  34.308  30.366  1.00  0.00    -0.200 F 
ENDBRANCH  49  73
BRANCH  61  84
ATOM     84  C   UNL A   1      42.072  30.113  33.433  1.00  0.00     0.064 A 
ATOM     85  C   UNL A   1      41.669  28.768  33.334  1.00  0.00     0.173 A 
ATOM     86  C   UNL A   1      42.403  30.588  34.708  1.00  0.00     0.173 A 
ATOM     87  F   UNL A   1      41.433  28.204  32.146  1.00  0.00    -0.203 F 
ATOM     88  C   UNL A   1      41.558  27.957  34.464  1.00  0.00     0.198 A 
ATOM     89  C   UNL A   1      42.328  29.768  35.831  1.00  0.00     0.198 A 
ATOM     90  F   UNL A   1      42.848  31.846  34.860  1.00  0.00    -0.203 F 
ATOM     91  F   UNL A   1      41.159  26.683  34.341  1.00  0.00    -0.200 F 
ATOM     92  C   UNL A   1      41.895  28.457  35.710  1.00  0.00     0.200 A 
ATOM     93  F   UNL A   1      42.702  30.241  37.026  1.00  0.00    -0.200 F 
ATOM     94  F   UNL A   1      41.827  27.668  36.792  1.00  0.00    -0.200 F 
ENDBRANCH  61  84
ENDBRANCH  35  36
ENDBRANCH  27  30
ENDBRANCH  25  26
ENDBRANCH  24  25
ENDBRANCH   1  24
TORSDOF 13
ENDMDL
MODEL 2
REMARK VINA RESULT:     -13.0      1.662      2.311
REMARK SMILES Cc1ccc(C)c(/C=C2\SC(=S)N(CC(=O)NCCCCNC(=O)c3ccc(-c4c5nc(c(-c6c(F)c(F)c(F)c(F)c6F)c6ccc([nH]6)c(-c6c(F)c(F)c(F)c(F)c6F)c6nc(c(-c7c(F)c(F)c(F)c(F)c7F)c7ccc4[nH]7)C=C6)C=C5)cc3)C2=O)c1
REMARK SMILES IDX 19 1 18 2 17 3 15 4 16 5 14 7 13 8 8 9 9 10 10 11 88 12
REMARK SMILES IDX 11 13 89 14 12 15 7 16 1 17 2 18 3 19 90 20 4 21 5 22 6 23
REMARK SMILES IDX 20 24 21 25 22 26 23 27 24 29 25 30 26 31 87 32 27 33 86 34
REMARK SMILES IDX 28 35 29 36 30 37 80 38 31 39 85 40 79 41 81 42 32 43 84 44
REMARK SMILES IDX 78 45 77 46 33 48 65 49 45 50 64 51 46 52 49 53 63 54 82 55
REMARK SMILES IDX 47 56 48 57 62 59 83 60 50 61 34 62 35 63 43 64 36 65 37 66
REMARK SMILES IDX 41 67 44 68 38 69 39 70 42 71 40 72 66 73 67 74 75 75 68 76
REMARK SMILES IDX 69 77 73 78 76 79 70 80 71 81 74 82 72 83 51 84 52 85 60 86
REMARK SMILES IDX 53 87 54 88 58 89 61 90 55 91 56 92 59 93 57 94
REMARK H PARENT 17 6 22 28 81 47 49 58
REMARK Flexibility Score: inf
ROOT
ATOM      1  C   UNL A   1      35.663  23.130  23.769  1.00  0.00     0.023 C 
ENDROOT
BRANCH   1   2
ATOM      2  C   UNL A   1      34.217  22.804  23.396  1.00  0.00     0.116 C 
BRANCH   2   3
ATOM      3  N   UNL A   1      33.364  22.474  24.514  1.00  0.00    -0.355 N 
ATOM      4  C   UNL A   1      32.120  22.938  24.830  1.00  0.00     0.240 C 
ATOM      5  O   UNL A   1      31.446  22.240  25.595  1.00  0.00    -0.273 OA
ATOM      6  H   UNL A   1      33.738  21.815  25.143  1.00  0.00     0.163 HD
BRANCH   4   7
ATOM      7  C   UNL A   1      31.496  24.157  24.138  1.00  0.00     0.227 C 
BRANCH   7   8
ATOM      8  N   UNL A   1      32.187  25.416  24.398  1.00  0.00    -0.283 N 
ATOM      9  C   UNL A   1      32.994  27.861  26.933  1.00  0.00     0.029 C 
ATOM     10  C   UNL A   1      32.878  27.195  25.776  1.00  0.00     0.081 C 
ATOM     11  S   UNL A   1      33.592  27.562  24.256  1.00  0.00    -0.054 SA
ATOM     12  C   UNL A   1      32.091  25.941  25.676  1.00  0.00     0.266 C 
ATOM     13  C   UNL A   1      32.827  26.196  23.460  1.00  0.00     0.148 C 
ATOM     14  O   UNL A   1      31.465  25.455  26.606  1.00  0.00    -0.268 OA
ATOM     15  S   UNL A   1      32.919  25.975  21.809  1.00  0.00    -0.052 S 
BRANCH   9  16
ATOM     16  C   UNL A   1      33.804  29.069  27.147  1.00  0.00    -0.021 A 
ATOM     17  C   UNL A   1      37.476  29.859  27.837  1.00  0.00     0.044 C 
ATOM     18  C   UNL A   1      36.007  30.034  27.591  1.00  0.00    -0.051 A 
ATOM     19  C   UNL A   1      35.426  31.301  27.652  1.00  0.00     0.004 A 
ATOM     20  C   UNL A   1      35.193  28.932  27.314  1.00  0.00     0.011 A 
ATOM     21  C   UNL A   1      34.056  31.459  27.444  1.00  0.00     0.004 A 
ATOM     22  C   UNL A   1      33.226  30.352  27.192  1.00  0.00    -0.044 A 
ATOM     23  C   UNL A   1      31.757  30.616  27.000  1.00  0.00     0.045 C 
ENDBRANCH   9  16
ENDBRANCH   7   8
ENDBRANCH   4   7
ENDBRANCH   2   3
ENDBRANCH   1   2
BRANCH   1  24
ATOM     24  C   UNL A   1      35.998  23.285  25.261  1.00  0.00     0.023 C 
BRANCH  24  25
ATOM     25  C   UNL A   1      37.437  23.663  25.607  1.00  0.00     0.116 C 
BRANCH  25  26
ATOM     26  N   UNL A   1      38.172  22.633  26.360  1.00  0.00    -0.352 N 
ATOM     27  C   UNL A   1      39.415  22.660  26.995  1.00  0.00     0.251 C 
ATOM     28  H   UNL A   1      37.703  21.771  26.427  1.00  0.00     0.163 HD
ATOM     29  O   UNL A   1      39.997  21.622  27.257  1.00  0.00    -0.269 OA
BRANCH  27  30
ATOM     30  C   UNL A   1      40.008  23.951  27.403  1.00  0.00     0.039 A 
ATOM     31  C   UNL A   1      41.345  24.172  27.726  1.00  0.00     0.014 A 
ATOM     32  C   UNL A   1      39.116  24.954  27.690  1.00  0.00     0.014 A 
ATOM     33  C   UNL A   1      41.675  25.367  28.387  1.00  0.00     0.010 A 
ATOM     34  C   UNL A   1      39.517  26.233  27.842  1.00  0.00     0.010 A 
ATOM     35  C   UNL A   1      40.700  26.364  28.512  1.00  0.00    -0.014 A 
BRANCH  35  36
ATOM     36  C   UNL A   1      40.869  27.648  29.149  1.00  0.00     0.031 A 
ATOM     37  C   UNL A   1      41.912  28.470  28.515  1.00  0.00     0.074 A 
ATOM     38  C   UNL A   1      39.972  28.168  30.015  1.00  0.00     0.049 A 
ATOM     39  N   UNL A   1      43.102  28.676  28.963  1.00  0.00    -0.248 NA
ATOM     40  C   UNL A   1      41.690  28.949  27.142  1.00  0.00     0.031 C 
ATOM     41  C   UNL A   1      38.666  27.650  30.442  1.00  0.00     0.029 A 
ATOM     42  N   UNL A   1      40.037  29.363  30.660  1.00  0.00    -0.354 N 
ATOM     43  C   UNL A   1      43.708  29.494  28.023  1.00  0.00     0.074 A 
ATOM     44  C   UNL A   1      42.902  29.411  26.834  1.00  0.00     0.031 C 
ATOM     45  C   UNL A   1      37.994  28.611  31.122  1.00  0.00     0.029 A 
ATOM     46  C   UNL A   1      38.870  29.757  31.300  1.00  0.00     0.049 A 
ATOM     47  H   UNL A   1      40.856  29.910  30.675  1.00  0.00     0.167 HD
ATOM     48  C   UNL A   1      44.655  30.394  28.400  1.00  0.00     0.037 A 
ATOM     49  C   UNL A   1      38.655  30.962  31.889  1.00  0.00     0.037 A 
ATOM     50  C   UNL A   1      45.114  30.124  29.744  1.00  0.00     0.049 A 
ATOM     51  C   UNL A   1      39.992  31.567  32.142  1.00  0.00     0.074 A 
ATOM     52  C   UNL A   1      45.692  29.031  30.364  1.00  0.00     0.029 A 
ATOM     53  N   UNL A   1      44.608  30.900  30.761  1.00  0.00    -0.354 N 
ATOM     54  N   UNL A   1      40.852  31.092  33.001  1.00  0.00    -0.248 NA
ATOM     55  C   UNL A   1      40.560  32.403  31.092  1.00  0.00     0.031 C 
ATOM     56  C   UNL A   1      45.072  28.964  31.649  1.00  0.00     0.029 A 
ATOM     57  C   UNL A   1      44.214  30.057  31.770  1.00  0.00     0.049 A 
ATOM     58  H   UNL A   1      44.542  31.882  30.765  1.00  0.00     0.167 HD
ATOM     59  C   UNL A   1      42.083  31.197  32.368  1.00  0.00     0.074 A 
ATOM     60  C   UNL A   1      41.851  32.084  31.229  1.00  0.00     0.031 C 
ATOM     61  C   UNL A   1      43.094  30.323  32.646  1.00  0.00     0.037 A 
BRANCH  48  62
ATOM     62  C   UNL A   1      44.878  31.722  27.725  1.00  0.00     0.064 A 
ATOM     63  C   UNL A   1      46.074  31.917  27.010  1.00  0.00     0.173 A 
ATOM     64  C   UNL A   1      44.120  32.887  27.975  1.00  0.00     0.173 A 
ATOM     65  F   UNL A   1      46.880  30.881  26.730  1.00  0.00    -0.203 F 
ATOM     66  C   UNL A   1      46.516  33.191  26.649  1.00  0.00     0.198 A 
ATOM     67  C   UNL A   1      44.534  34.149  27.560  1.00  0.00     0.198 A 
ATOM     68  F   UNL A   1      43.013  32.879  28.725  1.00  0.00    -0.203 F 
ATOM     69  F   UNL A   1      47.724  33.341  26.090  1.00  0.00    -0.200 F 
ATOM     70  C   UNL A   1      45.749  34.307  26.929  1.00  0.00     0.200 A 
ATOM     71  F   UNL A   1      43.782  35.218  27.857  1.00  0.00    -0.200 F 
ATOM     72  F   UNL A   1      46.199  35.534  26.641  1.00  0.00    -0.200 F 
ENDBRANCH  48  62
BRANCH  49  73
ATOM     73  C   UNL A   1      37.404  31.757  31.958  1.00  0.00     0.064 A 
ATOM     74  C   UNL A   1      36.778  32.027  33.188  1.00  0.00     0.173 A 
ATOM     75  C   UNL A   1      36.960  32.512  30.854  1.00  0.00     0.173 A 
ATOM     76  F   UNL A   1      37.171  31.386  34.298  1.00  0.00    -0.203 F 
ATOM     77  C   UNL A   1      35.791  33.012  33.311  1.00  0.00     0.198 A 
ATOM     78  C   UNL A   1      35.972  33.492  30.978  1.00  0.00     0.198 A 
ATOM     79  F   UNL A   1      37.547  32.383  29.657  1.00  0.00    -0.203 F 
ATOM     80  F   UNL A   1      35.264  33.285  34.513  1.00  0.00    -0.200 F 
ATOM     81  C   UNL A   1      35.397  33.752  32.208  1.00  0.00     0.200 A 
ATOM     82  F   UNL A   1      35.630  34.229  29.912  1.00  0.00    -0.200 F 
ATOM     83  F   UNL A   1      34.501  34.739  32.339  1.00  0.00    -0.200 F 
ENDBRANCH  49  73
BRANCH  61  84
ATOM     84  C   UNL A   1      42.926  29.410  33.832  1.00  0.00     0.064 A 
ATOM     85  C   UNL A   1      42.287  28.158  33.782  1.00  0.00     0.173 A 
ATOM     86  C   UNL A   1      43.562  29.756  35.031  1.00  0.00     0.173 A 
ATOM     87  F   UNL A   1      41.744  27.705  32.647  1.00  0.00    -0.203 F 
ATOM     88  C   UNL A   1      42.247  27.317  34.894  1.00  0.00     0.198 A 
ATOM     89  C   UNL A   1      43.554  28.900  36.129  1.00  0.00     0.198 A 
ATOM     90  F   UNL A   1      44.236  30.912  35.124  1.00  0.00    -0.203 F 
ATOM     91  F   UNL A   1      41.619  26.134  34.820  1.00  0.00    -0.200 F 
ATOM     92  C   UNL A   1      42.887  27.686  36.064  1.00  0.00     0.200 A 
ATOM     93  F   UNL A   1      44.216  29.239  37.242  1.00  0.00    -0.200 F 
ATOM     94  F   UNL A   1      42.885  26.862  37.121  1.00  0.00    -0.200 F 
ENDBRANCH  61  84
ENDBRANCH  35  36
ENDBRANCH  27  30
ENDBRANCH  25  26
ENDBRANCH  24  25
ENDBRANCH   1  24
TORSDOF 13
ENDMDL
MODEL 3
REMARK VINA RESULT:     -12.8      3.287      9.097
REMARK SMILES Cc1ccc(C)c(/C=C2\SC(=S)N(CC(=O)NCCCCNC(=O)c3ccc(-c4c5nc(c(-c6c(F)c(F)c(F)c(F)c6F)c6ccc([nH]6)c(-c6c(F)c(F)c(F)c(F)c6F)c6nc(c(-c7c(F)c(F)c(F)c(F)c7F)c7ccc4[nH]7)C=C6)C=C5)cc3)C2=O)c1
REMARK SMILES IDX 19 1 18 2 17 3 15 4 16 5 14 7 13 8 8 9 9 10 10 11 88 12
REMARK SMILES IDX 11 13 89 14 12 15 7 16 1 17 2 18 3 19 90 20 4 21 5 22 6 23
REMARK SMILES IDX 20 24 21 25 22 26 23 27 24 29 25 30 26 31 87 32 27 33 86 34
REMARK SMILES IDX 28 35 29 36 30 37 80 38 31 39 85 40 79 41 81 42 32 43 84 44
REMARK SMILES IDX 78 45 77 46 33 48 65 49 45 50 64 51 46 52 49 53 63 54 82 55
REMARK SMILES IDX 47 56 48 57 62 59 83 60 50 61 34 62 35 63 43 64 36 65 37 66
REMARK SMILES IDX 41 67 44 68 38 69 39 70 42 71 40 72 66 73 67 74 75 75 68 76
REMARK SMILES IDX 69 77 73 78 76 79 70 80 71 81 74 82 72 83 51 84 52 85 60 86
REMARK SMILES IDX 53 87 54 88 58 89 61 90 55 91 56 92 59 93 57 94
REMARK H PARENT 17 6 22 28 81 47 49 58
REMARK Flexibility Score: inf
ROOT
ATOM      1  C   UNL A   1      31.725  30.325  26.379  1.00  0.00     0.023 C 
ENDROOT
BRANCH   1   2
ATOM      2  C   UNL A   1      31.511  29.879  24.933  1.00  0.00     0.116 C 
BRANCH   2   3
ATOM      3  N   UNL A   1      32.726  29.617  24.196  1.00  0.00    -0.355 N 
ATOM      4  C   UNL A   1      32.957  28.740  23.178  1.00  0.00     0.240 C 
ATOM      5  O   UNL A   1      33.940  28.965  22.464  1.00  0.00    -0.273 OA
ATOM      6  H   UNL A   1      33.504  30.154  24.472  1.00  0.00     0.163 HD
BRANCH   4   7
ATOM      7  C   UNL A   1      31.962  27.635  22.801  1.00  0.00     0.227 C 
BRANCH   7   8
ATOM      8  N   UNL A   1      32.256  26.333  23.393  1.00  0.00    -0.283 N 
ATOM      9  C   UNL A   1      34.204  23.312  23.037  1.00  0.00     0.029 C 
ATOM     10  C   UNL A   1      33.346  24.248  23.463  1.00  0.00     0.081 C 
ATOM     11  S   UNL A   1      32.396  24.255  24.896  1.00  0.00    -0.054 SA
ATOM     12  C   UNL A   1      33.132  25.507  22.708  1.00  0.00     0.266 C 
ATOM     13  C   UNL A   1      31.649  25.796  24.507  1.00  0.00     0.148 C 
ATOM     14  O   UNL A   1      33.672  25.762  21.643  1.00  0.00    -0.268 OA
ATOM     15  S   UNL A   1      30.396  26.421  25.414  1.00  0.00    -0.052 S 
BRANCH   9  16
ATOM     16  C   UNL A   1      34.534  22.067  23.747  1.00  0.00    -0.021 A 
ATOM     17  C   UNL A   1      32.676  18.902  24.800  1.00  0.00     0.044 C 
ATOM     18  C   UNL A   1      33.770  19.908  24.606  1.00  0.00    -0.051 A 
ATOM     19  C   UNL A   1      35.032  19.696  25.161  1.00  0.00     0.004 A 
ATOM     20  C   UNL A   1      33.540  21.082  23.882  1.00  0.00     0.011 A 
ATOM     21  C   UNL A   1      36.043  20.644  24.996  1.00  0.00     0.004 A 
ATOM     22  C   UNL A   1      35.811  21.839  24.293  1.00  0.00    -0.044 A 
ATOM     23  C   UNL A   1      36.954  22.812  24.184  1.00  0.00     0.045 C 
ENDBRANCH   9  16
ENDBRANCH   7   8
ENDBRANCH   4   7
ENDBRANCH   2   3
ENDBRANCH   1   2
BRANCH   1  24
ATOM     24  C   UNL A   1      32.503  29.383  27.311  1.00  0.00     0.023 C 
BRANCH  24  25
ATOM     25  C   UNL A   1      33.985  29.688  27.518  1.00  0.00     0.116 C 
BRANCH  25  26
ATOM     26  N   UNL A   1      34.367  31.078  27.214  1.00  0.00    -0.352 N 
ATOM     27  C   UNL A   1      35.387  31.889  27.715  1.00  0.00     0.251 C 
ATOM     28  H   UNL A   1      33.802  31.513  26.536  1.00  0.00     0.163 HD
ATOM     29  O   UNL A   1      35.325  33.101  27.601  1.00  0.00    -0.269 OA
BRANCH  27  30
ATOM     30  C   UNL A   1      36.577  31.276  28.342  1.00  0.00     0.039 A 
ATOM     31  C   UNL A   1      37.375  31.857  29.325  1.00  0.00     0.014 A 
ATOM     32  C   UNL A   1      37.046  30.134  27.744  1.00  0.00     0.014 A 
ATOM     33  C   UNL A   1      38.630  31.280  29.582  1.00  0.00     0.010 A 
ATOM     34  C   UNL A   1      37.967  29.350  28.341  1.00  0.00     0.010 A 
ATOM     35  C   UNL A   1      38.942  30.047  28.996  1.00  0.00    -0.014 A 
BRANCH  35  36
ATOM     36  C   UNL A   1      40.174  29.312  29.159  1.00  0.00     0.031 A 
ATOM     37  C   UNL A   1      40.481  29.013  30.566  1.00  0.00     0.074 A 
ATOM     38  C   UNL A   1      40.807  28.695  28.137  1.00  0.00     0.049 A 
ATOM     39  N   UNL A   1      41.351  29.611  31.303  1.00  0.00    -0.248 NA
ATOM     40  C   UNL A   1      39.596  28.093  31.298  1.00  0.00     0.031 C 
ATOM     41  C   UNL A   1      40.407  28.552  26.731  1.00  0.00     0.029 A 
ATOM     42  N   UNL A   1      41.961  27.979  28.188  1.00  0.00    -0.354 N 
ATOM     43  C   UNL A   1      41.269  28.992  32.540  1.00  0.00     0.074 A 
ATOM     44  C   UNL A   1      40.025  28.269  32.548  1.00  0.00     0.031 C 
ATOM     45  C   UNL A   1      41.208  27.644  26.120  1.00  0.00     0.029 A 
ATOM     46  C   UNL A   1      42.258  27.249  27.044  1.00  0.00     0.049 A 
ATOM     47  H   UNL A   1      42.547  27.978  28.979  1.00  0.00     0.167 HD
ATOM     48  C   UNL A   1      42.367  28.890  33.336  1.00  0.00     0.037 A 
ATOM     49  C   UNL A   1      43.277  26.362  26.912  1.00  0.00     0.037 A 
ATOM     50  C   UNL A   1      43.423  29.758  32.866  1.00  0.00     0.049 A 
ATOM     51  C   UNL A   1      44.259  26.660  27.991  1.00  0.00     0.074 A 
ATOM     52  C   UNL A   1      43.525  31.119  32.645  1.00  0.00     0.029 A 
ATOM     53  N   UNL A   1      44.444  29.189  32.142  1.00  0.00    -0.354 N 
ATOM     54  N   UNL A   1      44.971  27.753  28.040  1.00  0.00    -0.248 NA
ATOM     55  C   UNL A   1      44.087  25.973  29.264  1.00  0.00     0.031 C 
ATOM     56  C   UNL A   1      44.267  31.242  31.431  1.00  0.00     0.029 A 
ATOM     57  C   UNL A   1      44.642  29.961  31.024  1.00  0.00     0.049 A 
ATOM     58  H   UNL A   1      44.945  28.376  32.382  1.00  0.00     0.167 HD
ATOM     59  C   UNL A   1      44.965  28.121  29.379  1.00  0.00     0.074 A 
ATOM     60  C   UNL A   1      44.473  26.946  30.095  1.00  0.00     0.031 C 
ATOM     61  C   UNL A   1      45.070  29.431  29.748  1.00  0.00     0.037 A 
BRANCH  48  62
ATOM     62  C   UNL A   1      42.625  27.746  34.280  1.00  0.00     0.064 A 
ATOM     63  C   UNL A   1      43.116  26.538  33.751  1.00  0.00     0.173 A 
ATOM     64  C   UNL A   1      42.159  27.683  35.612  1.00  0.00     0.173 A 
ATOM     65  F   UNL A   1      43.572  26.480  32.490  1.00  0.00    -0.203 F 
ATOM     66  C   UNL A   1      43.065  25.344  34.472  1.00  0.00     0.198 A 
ATOM     67  C   UNL A   1      42.165  26.502  36.349  1.00  0.00     0.198 A 
ATOM     68  F   UNL A   1      41.573  28.720  36.220  1.00  0.00    -0.203 F 
ATOM     69  F   UNL A   1      43.418  24.196  33.879  1.00  0.00    -0.200 F 
ATOM     70  C   UNL A   1      42.583  25.325  35.768  1.00  0.00     0.200 A 
ATOM     71  F   UNL A   1      41.679  26.505  37.598  1.00  0.00    -0.200 F 
ATOM     72  F   UNL A   1      42.474  24.172  36.439  1.00  0.00    -0.200 F 
ENDBRANCH  48  62
BRANCH  49  73
ATOM     73  C   UNL A   1      43.316  25.095  26.139  1.00  0.00     0.064 A 
ATOM     74  C   UNL A   1      44.332  24.844  25.201  1.00  0.00     0.173 A 
ATOM     75  C   UNL A   1      42.529  23.989  26.516  1.00  0.00     0.173 A 
ATOM     76  F   UNL A   1      45.157  25.831  24.821  1.00  0.00    -0.203 F 
ATOM     77  C   UNL A   1      44.566  23.560  24.694  1.00  0.00     0.198 A 
ATOM     78  C   UNL A   1      42.761  22.709  26.007  1.00  0.00     0.198 A 
ATOM     79  F   UNL A   1      41.587  24.109  27.461  1.00  0.00    -0.203 F 
ATOM     80  F   UNL A   1      45.586  23.348  23.851  1.00  0.00    -0.200 F 
ATOM     81  C   UNL A   1      43.788  22.491  25.107  1.00  0.00     0.200 A 
ATOM     82  F   UNL A   1      42.028  21.676  26.446  1.00  0.00    -0.200 F 
ATOM     83  F   UNL A   1      44.053  21.251  24.673  1.00  0.00    -0.200 F 
ENDBRANCH  49  73
BRANCH  61  84
ATOM     84  C   UNL A   1      45.445  30.432  28.688  1.00  0.00     0.064 A 
ATOM     85  C   UNL A   1      44.518  31.095  27.863  1.00  0.00     0.173 A 
ATOM     86  C   UNL A   1      46.783  30.838  28.601  1.00  0.00     0.173 A 
ATOM     87  F   UNL A   1      43.209  30.842  27.953  1.00  0.00    -0.203 F 
ATOM     88  C   UNL A   1      44.921  32.083  26.964  1.00  0.00     0.198 A 
ATOM     89  C   UNL A   1      47.179  31.849  27.730  1.00  0.00     0.198 A 
ATOM     90  F   UNL A   1      47.705  30.282  29.402  1.00  0.00    -0.203 F 
ATOM     91  F   UNL A   1      44.017  32.689  26.180  1.00  0.00    -0.200 F 
ATOM     92  C   UNL A   1      46.251  32.464  26.903  1.00  0.00     0.200 A 
ATOM     93  F   UNL A   1      48.457  32.249  27.711  1.00  0.00    -0.200 F 
ATOM     94  F   UNL A   1      46.634  33.439  26.069  1.00  0.00    -0.200 F 
ENDBRANCH  61  84
ENDBRANCH  35  36
ENDBRANCH  27  30
ENDBRANCH  25  26
ENDBRANCH  24  25
ENDBRANCH   1  24
TORSDOF 13
ENDMDL
