MODEL 1
REMARK VINA RESULT:     -15.0      0.000      0.000
REMARK SMILES O=C(NCCCCNC(=O)c1ccc(-c2c3nc(c(-c4c(F)c(F)c(F)c(F)c4F)c4ccc([nH]4)c(-c4c(F)c(F)c(F)c(F)c4F)c4nc(c(-c5c(F)c(F)c(F)c(F)c5F)c5ccc2[nH]5)C=C4)C=C3)cc1)c1ccc(NC(=O)[C@@H]2CC=CC[C@H]2C(=O)Nc2cccc([N+](=O)[O-])c2)cc1
REMARK SMILES IDX 4 1 3 2 1 3 2 4 74 6 75 7 100 8 76 9 99 10 77 11 78 12 79 13
REMARK SMILES IDX 80 15 81 16 82 17 86 18 83 19 85 20 84 21 87 22 88 23 89 24
REMARK SMILES IDX 90 26 91 27 98 28 92 29 94 30 93 31 95 32 96 33 97 34 5 35
REMARK SMILES IDX 6 36 7 37 8 38 9 39 10 41 11 42 12 43 73 44 13 45 72 46
REMARK SMILES IDX 14 47 15 48 16 49 66 50 17 51 71 52 65 53 67 54 18 55 70 56
REMARK SMILES IDX 64 57 63 58 19 60 51 61 31 62 50 63 32 64 35 65 49 66 68 67
REMARK SMILES IDX 33 68 34 69 48 71 69 72 36 73 20 74 21 75 29 76 22 77 23 78
REMARK SMILES IDX 27 79 30 80 24 81 25 82 28 83 26 84 52 85 53 86 61 87 54 88
REMARK SMILES IDX 55 89 59 90 62 91 56 92 57 93 60 94 58 95 37 96 38 97 46 98
REMARK SMILES IDX 39 99 40 100 44 101 47 102 41 103 42 104 45 105 43 106
REMARK H PARENT 3 5 78 14 89 25 8 40 67 59 35 70
REMARK Flexibility Score: inf
ROOT
ATOM      1  C   UNL A   1      32.023  29.703  25.494  1.00  0.00     0.116 C 
ENDROOT
BRANCH   1   2
ATOM      2  N   UNL A   1      30.994  30.037  24.519  1.00  0.00    -0.352 N 
ATOM      3  O   UNL A   1      29.740  29.706  22.657  1.00  0.00    -0.269 OA
ATOM      4  C   UNL A   1      30.517  29.263  23.487  1.00  0.00     0.251 C 
ATOM      5  H   UNL A   1      30.590  30.930  24.610  1.00  0.00     0.163 HD
BRANCH   4   6
ATOM      6  C   UNL A   1      30.995  27.873  23.401  1.00  0.00     0.039 A 
ATOM      7  C   UNL A   1      32.168  27.587  22.702  1.00  0.00     0.016 A 
ATOM      8  C   UNL A   1      30.221  26.853  23.946  1.00  0.00     0.016 A 
ATOM      9  C   UNL A   1      32.504  26.258  22.447  1.00  0.00     0.027 A 
ATOM     10  C   UNL A   1      30.553  25.529  23.657  1.00  0.00     0.027 A 
ATOM     11  C   UNL A   1      31.644  25.234  22.827  1.00  0.00     0.041 A 
BRANCH  11  12
ATOM     12  N   UNL A   1      31.861  23.892  22.516  1.00  0.00    -0.326 N 
ATOM     13  C   UNL A   1      32.532  22.874  23.101  1.00  0.00     0.228 C 
ATOM     14  H   UNL A   1      31.425  23.623  21.675  1.00  0.00     0.169 HD
ATOM     15  O   UNL A   1      32.057  21.751  22.864  1.00  0.00    -0.274 OA
BRANCH  13  16
ATOM     16  C   UNL A   1      33.890  22.947  23.835  1.00  0.00     0.095 C 
ATOM     17  C   UNL A   1      35.200  23.235  23.098  1.00  0.00     0.041 C 
ATOM     18  C   UNL A   1      34.051  21.694  24.738  1.00  0.00     0.095 C 
ATOM     19  C   UNL A   1      36.404  23.208  23.998  1.00  0.00    -0.030 C 
ATOM     20  C   UNL A   1      35.291  21.722  25.659  1.00  0.00     0.041 C 
ATOM     21  C   UNL A   1      36.434  22.544  25.159  1.00  0.00    -0.030 C 
BRANCH  18  22
ATOM     22  C   UNL A   1      32.831  21.196  25.541  1.00  0.00     0.228 C 
ATOM     23  O   UNL A   1      32.255  21.994  26.294  1.00  0.00    -0.274 OA
ATOM     24  N   UNL A   1      32.224  19.983  25.344  1.00  0.00    -0.326 N 
ATOM     25  H   UNL A   1      31.338  19.904  25.765  1.00  0.00     0.169 HD
BRANCH  24  26
ATOM     26  C   UNL A   1      32.633  18.835  24.654  1.00  0.00     0.048 A 
ATOM     27  C   UNL A   1      32.498  18.806  23.264  1.00  0.00     0.026 A 
ATOM     28  C   UNL A   1      33.132  17.711  25.298  1.00  0.00     0.111 A 
ATOM     29  C   UNL A   1      33.005  17.730  22.525  1.00  0.00     0.009 A 
ATOM     30  C   UNL A   1      33.696  16.663  24.565  1.00  0.00     0.271 A 
ATOM     31  C   UNL A   1      33.642  16.669  23.170  1.00  0.00     0.086 A 
BRANCH  30  32
ATOM     32  N   UNL A   1      34.394  15.584  25.275  1.00  0.00     0.062 N 
ATOM     33  O   UNL A   1      35.571  15.779  25.604  1.00  0.00    -0.258 OA
ATOM     34  O   UNL A   1      33.752  14.554  25.533  1.00  0.00    -0.258 OA
ENDBRANCH  30  32
ENDBRANCH  24  26
ENDBRANCH  18  22
ENDBRANCH  13  16
ENDBRANCH  11  12
ENDBRANCH   4   6
ENDBRANCH   1   2
BRANCH   1  35
ATOM     35  C   UNL A   1      31.777  30.367  26.847  1.00  0.00     0.023 C 
BRANCH  35  36
ATOM     36  C   UNL A   1      31.575  31.879  26.794  1.00  0.00     0.023 C 
BRANCH  36  37
ATOM     37  C   UNL A   1      32.777  32.712  27.221  1.00  0.00     0.116 C 
BRANCH  37  38
ATOM     38  N   UNL A   1      32.424  34.075  27.590  1.00  0.00    -0.352 N 
ATOM     39  C   UNL A   1      32.963  34.880  28.565  1.00  0.00     0.251 C 
ATOM     40  H   UNL A   1      31.696  34.479  27.065  1.00  0.00     0.163 HD
ATOM     41  O   UNL A   1      32.450  35.963  28.824  1.00  0.00    -0.269 OA
BRANCH  39  42
ATOM     42  C   UNL A   1      34.146  34.424  29.330  1.00  0.00     0.039 A 
ATOM     43  C   UNL A   1      33.951  33.830  30.579  1.00  0.00     0.014 A 
ATOM     44  C   UNL A   1      35.436  34.562  28.814  1.00  0.00     0.014 A 
ATOM     45  C   UNL A   1      35.042  33.306  31.276  1.00  0.00     0.010 A 
ATOM     46  C   UNL A   1      36.512  33.971  29.471  1.00  0.00     0.010 A 
ATOM     47  C   UNL A   1      36.327  33.333  30.707  1.00  0.00    -0.014 A 
BRANCH  47  48
ATOM     48  C   UNL A   1      37.485  32.691  31.383  1.00  0.00     0.031 A 
ATOM     49  C   UNL A   1      38.193  31.532  30.737  1.00  0.00     0.074 A 
ATOM     50  C   UNL A   1      37.849  33.102  32.614  1.00  0.00     0.049 A 
ATOM     51  N   UNL A   1      39.167  30.793  31.204  1.00  0.00    -0.248 NA
ATOM     52  C   UNL A   1      37.726  31.134  29.400  1.00  0.00     0.031 C 
ATOM     53  C   UNL A   1      37.211  34.180  33.371  1.00  0.00     0.029 A 
ATOM     54  N   UNL A   1      38.839  32.651  33.453  1.00  0.00    -0.354 N 
ATOM     55  C   UNL A   1      39.414  29.834  30.231  1.00  0.00     0.074 A 
ATOM     56  C   UNL A   1      38.458  30.053  29.168  1.00  0.00     0.031 C 
ATOM     57  C   UNL A   1      37.834  34.319  34.551  1.00  0.00     0.029 A 
ATOM     58  C   UNL A   1      38.889  33.317  34.655  1.00  0.00     0.049 A 
ATOM     59  H   UNL A   1      39.454  31.920  33.215  1.00  0.00     0.167 HD
ATOM     60  C   UNL A   1      40.366  28.871  30.216  1.00  0.00     0.037 A 
ATOM     61  C   UNL A   1      39.688  33.132  35.723  1.00  0.00     0.037 A 
ATOM     62  C   UNL A   1      41.339  28.675  31.259  1.00  0.00     0.049 A 
ATOM     63  C   UNL A   1      40.738  32.053  35.679  1.00  0.00     0.074 A 
ATOM     64  C   UNL A   1      42.392  27.779  31.298  1.00  0.00     0.029 A 
ATOM     65  N   UNL A   1      41.373  29.384  32.451  1.00  0.00    -0.354 N 
ATOM     66  N   UNL A   1      41.016  31.207  34.716  1.00  0.00    -0.248 NA
ATOM     67  C   UNL A   1      41.590  31.907  36.868  1.00  0.00     0.031 C 
ATOM     68  C   UNL A   1      43.032  27.909  32.535  1.00  0.00     0.029 A 
ATOM     69  C   UNL A   1      42.413  28.926  33.244  1.00  0.00     0.049 A 
ATOM     70  H   UNL A   1      40.750  30.107  32.697  1.00  0.00     0.167 HD
ATOM     71  C   UNL A   1      42.090  30.454  35.169  1.00  0.00     0.074 A 
ATOM     72  C   UNL A   1      42.424  30.952  36.487  1.00  0.00     0.031 C 
ATOM     73  C   UNL A   1      42.741  29.439  34.549  1.00  0.00     0.037 A 
BRANCH  60  74
ATOM     74  C   UNL A   1      40.408  27.949  29.031  1.00  0.00     0.064 A 
ATOM     75  C   UNL A   1      39.654  26.767  28.988  1.00  0.00     0.173 A 
ATOM     76  C   UNL A   1      41.174  28.279  27.903  1.00  0.00     0.173 A 
ATOM     77  F   UNL A   1      38.912  26.399  30.044  1.00  0.00    -0.203 F 
ATOM     78  C   UNL A   1      39.687  25.934  27.872  1.00  0.00     0.198 A 
ATOM     79  C   UNL A   1      41.180  27.461  26.775  1.00  0.00     0.198 A 
ATOM     80  F   UNL A   1      41.908  29.402  27.887  1.00  0.00    -0.203 F 
ATOM     81  F   UNL A   1      38.996  24.787  27.872  1.00  0.00    -0.200 F 
ATOM     82  C   UNL A   1      40.443  26.286  26.763  1.00  0.00     0.200 A 
ATOM     83  F   UNL A   1      41.900  27.810  25.700  1.00  0.00    -0.200 F 
ATOM     84  F   UNL A   1      40.465  25.491  25.685  1.00  0.00    -0.200 F 
ENDBRANCH  60  74
BRANCH  61  85
ATOM     85  C   UNL A   1      39.541  33.995  36.924  1.00  0.00     0.064 A 
ATOM     86  C   UNL A   1      40.178  35.242  36.998  1.00  0.00     0.173 A 
ATOM     87  C   UNL A   1      38.780  33.587  38.030  1.00  0.00     0.173 A 
ATOM     88  F   UNL A   1      40.934  35.667  35.975  1.00  0.00    -0.203 F 
ATOM     89  C   UNL A   1      40.083  36.034  38.140  1.00  0.00     0.198 A 
ATOM     90  C   UNL A   1      38.660  34.393  39.159  1.00  0.00     0.198 A 
ATOM     91  F   UNL A   1      38.147  32.404  38.010  1.00  0.00    -0.203 F 
ATOM     92  F   UNL A   1      40.747  37.196  38.204  1.00  0.00    -0.200 F 
ATOM     93  C   UNL A   1      39.319  35.611  39.218  1.00  0.00     0.200 A 
ATOM     94  F   UNL A   1      37.909  33.988  40.193  1.00  0.00    -0.200 F 
ATOM     95  F   UNL A   1      39.228  36.373  40.316  1.00  0.00    -0.200 F 
ENDBRANCH  61  85
BRANCH  73  96
ATOM     96  C   UNL A   1      43.909  28.826  35.268  1.00  0.00     0.064 A 
ATOM     97  C   UNL A   1      45.218  29.297  35.082  1.00  0.00     0.173 A 
ATOM     98  C   UNL A   1      43.709  27.783  36.183  1.00  0.00     0.173 A 
ATOM     99  F   UNL A   1      45.464  30.282  34.207  1.00  0.00    -0.203 F 
ATOM    100  C   UNL A   1      46.287  28.726  35.770  1.00  0.00     0.198 A 
ATOM    101  C   UNL A   1      44.775  27.237  36.893  1.00  0.00     0.198 A 
ATOM    102  F   UNL A   1      42.476  27.302  36.402  1.00  0.00    -0.203 F 
ATOM    103  F   UNL A   1      47.534  29.158  35.541  1.00  0.00    -0.200 F 
ATOM    104  C   UNL A   1      46.064  27.703  36.680  1.00  0.00     0.200 A 
ATOM    105  F   UNL A   1      44.555  26.259  37.783  1.00  0.00    -0.200 F 
ATOM    106  F   UNL A   1      47.092  27.161  37.347  1.00  0.00    -0.200 F 
ENDBRANCH  73  96
ENDBRANCH  47  48
ENDBRANCH  39  42
ENDBRANCH  37  38
ENDBRANCH  36  37
ENDBRANCH  35  36
ENDBRANCH   1  35
TORSDOF 16
ENDMDL
MODEL 2
REMARK VINA RESULT:     -14.8      5.307     11.799
REMARK SMILES O=C(NCCCCNC(=O)c1ccc(-c2c3nc(c(-c4c(F)c(F)c(F)c(F)c4F)c4ccc([nH]4)c(-c4c(F)c(F)c(F)c(F)c4F)c4nc(c(-c5c(F)c(F)c(F)c(F)c5F)c5ccc2[nH]5)C=C4)C=C3)cc1)c1ccc(NC(=O)[C@@H]2CC=CC[C@H]2C(=O)Nc2cccc([N+](=O)[O-])c2)cc1
REMARK SMILES IDX 4 1 3 2 1 3 2 4 74 6 75 7 100 8 76 9 99 10 77 11 78 12 79 13
REMARK SMILES IDX 80 15 81 16 82 17 86 18 83 19 85 20 84 21 87 22 88 23 89 24
REMARK SMILES IDX 90 26 91 27 98 28 92 29 94 30 93 31 95 32 96 33 97 34 5 35
REMARK SMILES IDX 6 36 7 37 8 38 9 39 10 41 11 42 12 43 73 44 13 45 72 46
REMARK SMILES IDX 14 47 15 48 16 49 66 50 17 51 71 52 65 53 67 54 18 55 70 56
REMARK SMILES IDX 64 57 63 58 19 60 51 61 31 62 50 63 32 64 35 65 49 66 68 67
REMARK SMILES IDX 33 68 34 69 48 71 69 72 36 73 20 74 21 75 29 76 22 77 23 78
REMARK SMILES IDX 27 79 30 80 24 81 25 82 28 83 26 84 52 85 53 86 61 87 54 88
REMARK SMILES IDX 55 89 59 90 62 91 56 92 57 93 60 94 58 95 37 96 38 97 46 98
REMARK SMILES IDX 39 99 40 100 44 101 47 102 41 103 42 104 45 105 43 106
REMARK H PARENT 3 5 78 14 89 25 8 40 67 59 35 70
REMARK Flexibility Score: inf
ROOT
ATOM      1  C   UNL A   1      35.859  21.156  25.341  1.00  0.00     0.116 C 
ENDROOT
BRANCH   1   2
ATOM      2  N   UNL A   1      35.007  20.026  24.997  1.00  0.00    -0.352 N 
ATOM      3  O   UNL A   1      33.024  18.974  24.662  1.00  0.00    -0.269 OA
ATOM      4  C   UNL A   1      33.642  20.014  24.823  1.00  0.00     0.251 C 
ATOM      5  H   UNL A   1      35.464  19.163  24.875  1.00  0.00     0.163 HD
BRANCH   4   6
ATOM      6  C   UNL A   1      32.939  21.307  24.861  1.00  0.00     0.039 A 
ATOM      7  C   UNL A   1      32.495  21.817  26.081  1.00  0.00     0.016 A 
ATOM      8  C   UNL A   1      32.650  21.958  23.666  1.00  0.00     0.016 A 
ATOM      9  C   UNL A   1      31.654  22.930  26.090  1.00  0.00     0.027 A 
ATOM     10  C   UNL A   1      31.783  23.051  23.688  1.00  0.00     0.027 A 
ATOM     11  C   UNL A   1      31.209  23.480  24.893  1.00  0.00     0.041 A 
BRANCH  11  12
ATOM     12  N   UNL A   1      30.287  24.524  24.822  1.00  0.00    -0.326 N 
ATOM     13  C   UNL A   1      30.377  25.867  24.687  1.00  0.00     0.228 C 
ATOM     14  H   UNL A   1      29.356  24.212  24.885  1.00  0.00     0.169 HD
ATOM     15  O   UNL A   1      29.404  26.384  24.114  1.00  0.00    -0.274 OA
BRANCH  13  16
ATOM     16  C   UNL A   1      31.424  26.805  25.328  1.00  0.00     0.095 C 
ATOM     17  C   UNL A   1      31.420  27.130  26.823  1.00  0.00     0.041 C 
ATOM     18  C   UNL A   1      31.514  28.114  24.498  1.00  0.00     0.095 C 
ATOM     19  C   UNL A   1      32.495  28.103  27.221  1.00  0.00    -0.030 C 
ATOM     20  C   UNL A   1      32.646  29.072  24.930  1.00  0.00     0.041 C 
ATOM     21  C   UNL A   1      33.059  28.960  26.363  1.00  0.00    -0.030 C 
BRANCH  18  22
ATOM     22  C   UNL A   1      31.486  28.020  22.958  1.00  0.00     0.228 C 
ATOM     23  O   UNL A   1      32.358  27.345  22.393  1.00  0.00    -0.274 OA
ATOM     24  N   UNL A   1      30.457  28.480  22.178  1.00  0.00    -0.326 N 
ATOM     25  H   UNL A   1      30.478  28.152  21.251  1.00  0.00     0.169 HD
BRANCH  24  26
ATOM     26  C   UNL A   1      29.382  29.333  22.458  1.00  0.00     0.048 A 
ATOM     27  C   UNL A   1      28.256  28.804  23.093  1.00  0.00     0.026 A 
ATOM     28  C   UNL A   1      29.373  30.673  22.096  1.00  0.00     0.111 A 
ATOM     29  C   UNL A   1      27.211  29.643  23.500  1.00  0.00     0.009 A 
ATOM     30  C   UNL A   1      28.366  31.527  22.553  1.00  0.00     0.271 A 
ATOM     31  C   UNL A   1      27.279  31.018  23.266  1.00  0.00     0.086 A 
BRANCH  30  32
ATOM     32  N   UNL A   1      28.490  32.972  22.323  1.00  0.00     0.062 N 
ATOM     33  O   UNL A   1      27.880  33.456  21.361  1.00  0.00    -0.258 OA
ATOM     34  O   UNL A   1      29.170  33.628  23.127  1.00  0.00    -0.258 OA
ENDBRANCH  30  32
ENDBRANCH  24  26
ENDBRANCH  18  22
ENDBRANCH  13  16
ENDBRANCH  11  12
ENDBRANCH   4   6
ENDBRANCH   1   2
BRANCH   1  35
ATOM     35  C   UNL A   1      37.206  21.104  24.623  1.00  0.00     0.023 C 
BRANCH  35  36
ATOM     36  C   UNL A   1      38.085  19.910  24.990  1.00  0.00     0.023 C 
BRANCH  36  37
ATOM     37  C   UNL A   1      39.268  20.228  25.898  1.00  0.00     0.116 C 
BRANCH  37  38
ATOM     38  N   UNL A   1      40.253  19.158  25.945  1.00  0.00    -0.352 N 
ATOM     39  C   UNL A   1      41.615  19.236  26.121  1.00  0.00     0.251 C 
ATOM     40  H   UNL A   1      39.893  18.249  25.837  1.00  0.00     0.163 HD
ATOM     41  O   UNL A   1      42.310  18.232  26.002  1.00  0.00    -0.269 OA
BRANCH  39  42
ATOM     42  C   UNL A   1      42.248  20.540  26.419  1.00  0.00     0.039 A 
ATOM     43  C   UNL A   1      42.777  21.288  25.365  1.00  0.00     0.014 A 
ATOM     44  C   UNL A   1      42.304  21.033  27.725  1.00  0.00     0.014 A 
ATOM     45  C   UNL A   1      43.293  22.562  25.609  1.00  0.00     0.010 A 
ATOM     46  C   UNL A   1      42.746  22.333  27.956  1.00  0.00     0.010 A 
ATOM     47  C   UNL A   1      43.242  23.114  26.900  1.00  0.00    -0.014 A 
BRANCH  47  48
ATOM     48  C   UNL A   1      43.691  24.506  27.164  1.00  0.00     0.031 A 
ATOM     49  C   UNL A   1      42.712  25.539  27.650  1.00  0.00     0.074 A 
ATOM     50  C   UNL A   1      44.963  24.858  26.893  1.00  0.00     0.049 A 
ATOM     51  N   UNL A   1      42.894  26.819  27.859  1.00  0.00    -0.248 NA
ATOM     52  C   UNL A   1      41.339  25.079  27.908  1.00  0.00     0.031 C 
ATOM     53  C   UNL A   1      45.997  23.964  26.369  1.00  0.00     0.029 A 
ATOM     54  N   UNL A   1      45.602  26.069  27.006  1.00  0.00    -0.354 N 
ATOM     55  C   UNL A   1      41.659  27.318  28.251  1.00  0.00     0.074 A 
ATOM     56  C   UNL A   1      40.724  26.215  28.207  1.00  0.00     0.031 C 
ATOM     57  C   UNL A   1      47.141  24.650  26.224  1.00  0.00     0.029 A 
ATOM     58  C   UNL A   1      46.916  26.040  26.605  1.00  0.00     0.049 A 
ATOM     59  H   UNL A   1      45.159  26.881  27.344  1.00  0.00     0.167 HD
ATOM     60  C   UNL A   1      41.339  28.576  28.635  1.00  0.00     0.037 A 
ATOM     61  C   UNL A   1      47.832  27.025  26.541  1.00  0.00     0.037 A 
ATOM     62  C   UNL A   1      42.279  29.664  28.712  1.00  0.00     0.049 A 
ATOM     63  C   UNL A   1      47.448  28.416  26.974  1.00  0.00     0.074 A 
ATOM     64  C   UNL A   1      42.068  30.955  29.165  1.00  0.00     0.029 A 
ATOM     65  N   UNL A   1      43.607  29.590  28.319  1.00  0.00    -0.354 N 
ATOM     66  N   UNL A   1      46.298  28.855  27.424  1.00  0.00    -0.248 NA
ATOM     67  C   UNL A   1      48.493  29.447  26.896  1.00  0.00     0.031 C 
ATOM     68  C   UNL A   1      43.254  31.677  28.998  1.00  0.00     0.029 A 
ATOM     69  C   UNL A   1      44.221  30.821  28.494  1.00  0.00     0.049 A 
ATOM     70  H   UNL A   1      44.050  28.782  27.969  1.00  0.00     0.167 HD
ATOM     71  C   UNL A   1      46.489  30.200  27.711  1.00  0.00     0.074 A 
ATOM     72  C   UNL A   1      47.870  30.502  27.399  1.00  0.00     0.031 C 
ATOM     73  C   UNL A   1      45.600  31.104  28.190  1.00  0.00     0.037 A 
BRANCH  60  74
ATOM     74  C   UNL A   1      39.910  28.851  29.006  1.00  0.00     0.064 A 
ATOM     75  C   UNL A   1      38.965  29.257  28.053  1.00  0.00     0.173 A 
ATOM     76  C   UNL A   1      39.470  28.658  30.325  1.00  0.00     0.173 A 
ATOM     77  F   UNL A   1      39.336  29.466  26.780  1.00  0.00    -0.203 F 
ATOM     78  C   UNL A   1      37.638  29.486  28.410  1.00  0.00     0.198 A 
ATOM     79  C   UNL A   1      38.135  28.856  30.672  1.00  0.00     0.198 A 
ATOM     80  F   UNL A   1      40.331  28.263  31.275  1.00  0.00    -0.203 F 
ATOM     81  F   UNL A   1      36.764  29.918  27.492  1.00  0.00    -0.200 F 
ATOM     82  C   UNL A   1      37.223  29.277  29.717  1.00  0.00     0.200 A 
ATOM     83  F   UNL A   1      37.734  28.640  31.932  1.00  0.00    -0.200 F 
ATOM     84  F   UNL A   1      35.944  29.486  30.056  1.00  0.00    -0.200 F 
ENDBRANCH  60  74
BRANCH  61  85
ATOM     85  C   UNL A   1      49.209  26.735  26.062  1.00  0.00     0.064 A 
ATOM     86  C   UNL A   1      50.189  26.247  26.938  1.00  0.00     0.173 A 
ATOM     87  C   UNL A   1      49.581  26.958  24.727  1.00  0.00     0.173 A 
ATOM     88  F   UNL A   1      49.888  26.039  28.228  1.00  0.00    -0.203 F 
ATOM     89  C   UNL A   1      51.493  26.018  26.505  1.00  0.00     0.198 A 
ATOM     90  C   UNL A   1      50.877  26.699  24.288  1.00  0.00     0.198 A 
ATOM     91  F   UNL A   1      48.680  27.421  23.847  1.00  0.00    -0.203 F 
ATOM     92  F   UNL A   1      52.423  25.604  27.376  1.00  0.00    -0.200 F 
ATOM     93  C   UNL A   1      51.835  26.240  25.179  1.00  0.00     0.200 A 
ATOM     94  F   UNL A   1      51.200  26.901  23.003  1.00  0.00    -0.200 F 
ATOM     95  F   UNL A   1      53.090  26.020  24.763  1.00  0.00    -0.200 F 
ENDBRANCH  61  85
BRANCH  73  96
ATOM     96  C   UNL A   1      46.101  32.496  28.448  1.00  0.00     0.064 A 
ATOM     97  C   UNL A   1      46.586  32.883  29.706  1.00  0.00     0.173 A 
ATOM     98  C   UNL A   1      46.134  33.441  27.411  1.00  0.00     0.173 A 
ATOM     99  F   UNL A   1      46.562  32.023  30.734  1.00  0.00    -0.203 F 
ATOM    100  C   UNL A   1      47.062  34.175  29.922  1.00  0.00     0.198 A 
ATOM    101  C   UNL A   1      46.640  34.720  27.622  1.00  0.00     0.198 A 
ATOM    102  F   UNL A   1      45.689  33.118  26.188  1.00  0.00    -0.203 F 
ATOM    103  F   UNL A   1      47.474  34.539  31.144  1.00  0.00    -0.200 F 
ATOM    104  C   UNL A   1      47.096  35.089  28.879  1.00  0.00     0.200 A 
ATOM    105  F   UNL A   1      46.686  35.597  26.609  1.00  0.00    -0.200 F 
ATOM    106  F   UNL A   1      47.562  36.328  29.087  1.00  0.00    -0.200 F 
ENDBRANCH  73  96
ENDBRANCH  47  48
ENDBRANCH  39  42
ENDBRANCH  37  38
ENDBRANCH  36  37
ENDBRANCH  35  36
ENDBRANCH   1  35
TORSDOF 16
ENDMDL
MODEL 3
REMARK VINA RESULT:     -14.7      3.512      8.179
REMARK SMILES O=C(NCCCCNC(=O)c1ccc(-c2c3nc(c(-c4c(F)c(F)c(F)c(F)c4F)c4ccc([nH]4)c(-c4c(F)c(F)c(F)c(F)c4F)c4nc(c(-c5c(F)c(F)c(F)c(F)c5F)c5ccc2[nH]5)C=C4)C=C3)cc1)c1ccc(NC(=O)[C@@H]2CC=CC[C@H]2C(=O)Nc2cccc([N+](=O)[O-])c2)cc1
REMARK SMILES IDX 4 1 3 2 1 3 2 4 74 6 75 7 100 8 76 9 99 10 77 11 78 12 79 13
REMARK SMILES IDX 80 15 81 16 82 17 86 18 83 19 85 20 84 21 87 22 88 23 89 24
REMARK SMILES IDX 90 26 91 27 98 28 92 29 94 30 93 31 95 32 96 33 97 34 5 35
REMARK SMILES IDX 6 36 7 37 8 38 9 39 10 41 11 42 12 43 73 44 13 45 72 46
REMARK SMILES IDX 14 47 15 48 16 49 66 50 17 51 71 52 65 53 67 54 18 55 70 56
REMARK SMILES IDX 64 57 63 58 19 60 51 61 31 62 50 63 32 64 35 65 49 66 68 67
REMARK SMILES IDX 33 68 34 69 48 71 69 72 36 73 20 74 21 75 29 76 22 77 23 78
REMARK SMILES IDX 27 79 30 80 24 81 25 82 28 83 26 84 52 85 53 86 61 87 54 88
REMARK SMILES IDX 55 89 59 90 62 91 56 92 57 93 60 94 58 95 37 96 38 97 46 98
REMARK SMILES IDX 39 99 40 100 44 101 47 102 41 103 42 104 45 105 43 106
REMARK H PARENT 3 5 78 14 89 25 8 40 67 59 35 70
REMARK Flexibility Score: inf
ROOT
ATOM      1  C   UNL A   1      31.892  29.627  24.583  1.00  0.00     0.116 C 
ENDROOT
BRANCH   1   2
ATOM      2  N   UNL A   1      30.735  29.698  23.700  1.00  0.00    -0.352 N 
ATOM      3  O   UNL A   1      29.348  28.955  22.065  1.00  0.00    -0.269 OA
ATOM      4  C   UNL A   1      30.253  28.729  22.851  1.00  0.00     0.251 C 
ATOM      5  H   UNL A   1      30.236  30.546  23.712  1.00  0.00     0.163 HD
BRANCH   4   6
ATOM      6  C   UNL A   1      30.887  27.401  22.904  1.00  0.00     0.039 A 
ATOM      7  C   UNL A   1      32.094  27.183  22.240  1.00  0.00     0.016 A 
ATOM      8  C   UNL A   1      30.225  26.358  23.545  1.00  0.00     0.016 A 
ATOM      9  C   UNL A   1      32.582  25.883  22.119  1.00  0.00     0.027 A 
ATOM     10  C   UNL A   1      30.708  25.058  23.389  1.00  0.00     0.027 A 
ATOM     11  C   UNL A   1      31.837  24.809  22.596  1.00  0.00     0.041 A 
BRANCH  11  12
ATOM     12  N   UNL A   1      32.209  23.476  22.419  1.00  0.00    -0.326 N 
ATOM     13  C   UNL A   1      32.902  22.574  23.151  1.00  0.00     0.228 C 
ATOM     14  H   UNL A   1      31.894  23.106  21.563  1.00  0.00     0.169 HD
ATOM     15  O   UNL A   1      32.560  21.396  22.959  1.00  0.00    -0.274 OA
BRANCH  13  16
ATOM     16  C   UNL A   1      34.158  22.835  24.011  1.00  0.00     0.095 C 
ATOM     17  C   UNL A   1      35.527  23.119  23.389  1.00  0.00     0.041 C 
ATOM     18  C   UNL A   1      34.282  21.720  25.086  1.00  0.00     0.095 C 
ATOM     19  C   UNL A   1      36.618  23.291  24.410  1.00  0.00    -0.030 C 
ATOM     20  C   UNL A   1      35.403  21.951  26.124  1.00  0.00     0.041 C 
ATOM     21  C   UNL A   1      36.550  22.782  25.645  1.00  0.00    -0.030 C 
BRANCH  18  22
ATOM     22  C   UNL A   1      33.006  21.243  25.810  1.00  0.00     0.228 C 
ATOM     23  O   UNL A   1      32.276  22.093  26.338  1.00  0.00    -0.274 OA
ATOM     24  N   UNL A   1      32.526  19.960  25.756  1.00  0.00    -0.326 N 
ATOM     25  H   UNL A   1      31.600  19.864  26.075  1.00  0.00     0.169 HD
BRANCH  24  26
ATOM     26  C   UNL A   1      33.110  18.760  25.331  1.00  0.00     0.048 A 
ATOM     27  C   UNL A   1      34.294  18.818  24.591  1.00  0.00     0.026 A 
ATOM     28  C   UNL A   1      32.542  17.519  25.582  1.00  0.00     0.111 A 
ATOM     29  C   UNL A   1      34.975  17.642  24.252  1.00  0.00     0.009 A 
ATOM     30  C   UNL A   1      33.246  16.345  25.301  1.00  0.00     0.271 A 
ATOM     31  C   UNL A   1      34.473  16.399  24.639  1.00  0.00     0.086 A 
BRANCH  30  32
ATOM     32  N   UNL A   1      32.707  15.058  25.759  1.00  0.00     0.062 N 
ATOM     33  O   UNL A   1      31.695  15.078  26.471  1.00  0.00    -0.258 OA
ATOM     34  O   UNL A   1      33.278  14.025  25.377  1.00  0.00    -0.258 OA
ENDBRANCH  30  32
ENDBRANCH  24  26
ENDBRANCH  18  22
ENDBRANCH  13  16
ENDBRANCH  11  12
ENDBRANCH   4   6
ENDBRANCH   1   2
BRANCH   1  35
ATOM     35  C   UNL A   1      31.517  29.177  25.993  1.00  0.00     0.023 C 
BRANCH  35  36
ATOM     36  C   UNL A   1      32.386  28.058  26.564  1.00  0.00     0.023 C 
BRANCH  36  37
ATOM     37  C   UNL A   1      33.667  28.516  27.251  1.00  0.00     0.116 C 
BRANCH  37  38
ATOM     38  N   UNL A   1      33.654  29.929  27.598  1.00  0.00    -0.352 N 
ATOM     39  C   UNL A   1      34.637  30.691  28.184  1.00  0.00     0.251 C 
ATOM     40  H   UNL A   1      32.822  30.409  27.382  1.00  0.00     0.163 HD
ATOM     41  O   UNL A   1      34.402  31.846  28.524  1.00  0.00    -0.269 OA
BRANCH  39  42
ATOM     42  C   UNL A   1      35.973  30.106  28.436  1.00  0.00     0.039 A 
ATOM     43  C   UNL A   1      36.942  30.181  27.433  1.00  0.00     0.014 A 
ATOM     44  C   UNL A   1      36.277  29.504  29.660  1.00  0.00     0.014 A 
ATOM     45  C   UNL A   1      38.236  29.721  27.682  1.00  0.00     0.010 A 
ATOM     46  C   UNL A   1      37.587  29.118  29.935  1.00  0.00     0.010 A 
ATOM     47  C   UNL A   1      38.582  29.226  28.951  1.00  0.00    -0.014 A 
BRANCH  47  48
ATOM     48  C   UNL A   1      39.977  28.827  29.271  1.00  0.00     0.031 A 
ATOM     49  C   UNL A   1      40.878  29.762  30.031  1.00  0.00     0.074 A 
ATOM     50  C   UNL A   1      40.458  27.655  28.810  1.00  0.00     0.049 A 
ATOM     51  N   UNL A   1      42.144  29.627  30.334  1.00  0.00    -0.248 NA
ATOM     52  C   UNL A   1      40.284  31.028  30.486  1.00  0.00     0.031 C 
ATOM     53  C   UNL A   1      39.703  26.683  28.018  1.00  0.00     0.029 A 
ATOM     54  N   UNL A   1      41.703  27.086  28.930  1.00  0.00    -0.354 N 
ATOM     55  C   UNL A   1      42.502  30.795  30.994  1.00  0.00     0.074 A 
ATOM     56  C   UNL A   1      41.333  31.648  31.007  1.00  0.00     0.031 C 
ATOM     57  C   UNL A   1      40.492  25.634  27.738  1.00  0.00     0.029 A 
ATOM     58  C   UNL A   1      41.819  25.873  28.295  1.00  0.00     0.049 A 
ATOM     59  H   UNL A   1      42.442  27.509  29.424  1.00  0.00     0.167 HD
ATOM     60  C   UNL A   1      43.690  31.118  31.558  1.00  0.00     0.037 A 
ATOM     61  C   UNL A   1      42.879  25.053  28.167  1.00  0.00     0.037 A 
ATOM     62  C   UNL A   1      44.842  30.254  31.573  1.00  0.00     0.049 A 
ATOM     63  C   UNL A   1      44.188  25.437  28.803  1.00  0.00     0.074 A 
ATOM     64  C   UNL A   1      46.064  30.459  32.188  1.00  0.00     0.029 A 
ATOM     65  N   UNL A   1      44.913  29.022  30.940  1.00  0.00    -0.354 N 
ATOM     66  N   UNL A   1      44.488  26.507  29.498  1.00  0.00    -0.248 NA
ATOM     67  C   UNL A   1      45.306  24.496  28.643  1.00  0.00     0.031 C 
ATOM     68  C   UNL A   1      46.894  29.376  31.883  1.00  0.00     0.029 A 
ATOM     69  C   UNL A   1      46.171  28.469  31.126  1.00  0.00     0.049 A 
ATOM     70  H   UNL A   1      44.180  28.602  30.434  1.00  0.00     0.167 HD
ATOM     71  C   UNL A   1      45.813  26.353  29.883  1.00  0.00     0.074 A 
ATOM     72  C   UNL A   1      46.256  25.080  29.357  1.00  0.00     0.031 C 
ATOM     73  C   UNL A   1      46.594  27.194  30.607  1.00  0.00     0.037 A 
BRANCH  60  74
ATOM     74  C   UNL A   1      43.811  32.466  32.209  1.00  0.00     0.064 A 
ATOM     75  C   UNL A   1      43.545  32.654  33.573  1.00  0.00     0.173 A 
ATOM     76  C   UNL A   1      44.248  33.575  31.468  1.00  0.00     0.173 A 
ATOM     77  F   UNL A   1      43.114  31.628  34.325  1.00  0.00    -0.203 F 
ATOM     78  C   UNL A   1      43.684  33.906  34.166  1.00  0.00     0.198 A 
ATOM     79  C   UNL A   1      44.418  34.819  32.071  1.00  0.00     0.198 A 
ATOM     80  F   UNL A   1      44.524  33.450  30.161  1.00  0.00    -0.203 F 
ATOM     81  F   UNL A   1      43.379  34.071  35.460  1.00  0.00    -0.200 F 
ATOM     82  C   UNL A   1      44.129  34.985  33.417  1.00  0.00     0.200 A 
ATOM     83  F   UNL A   1      44.861  35.857  31.348  1.00  0.00    -0.200 F 
ATOM     84  F   UNL A   1      44.274  36.187  33.991  1.00  0.00    -0.200 F 
ENDBRANCH  60  74
BRANCH  61  85
ATOM     85  C   UNL A   1      42.748  23.775  27.417  1.00  0.00     0.064 A 
ATOM     86  C   UNL A   1      42.269  22.617  28.045  1.00  0.00     0.173 A 
ATOM     87  C   UNL A   1      43.118  23.679  26.067  1.00  0.00     0.173 A 
ATOM     88  F   UNL A   1      41.924  22.654  29.340  1.00  0.00    -0.203 F 
ATOM     89  C   UNL A   1      42.189  21.406  27.361  1.00  0.00     0.198 A 
ATOM     90  C   UNL A   1      43.008  22.475  25.375  1.00  0.00     0.198 A 
ATOM     91  F   UNL A   1      43.579  24.758  25.418  1.00  0.00    -0.203 F 
ATOM     92  F   UNL A   1      41.780  20.303  28.001  1.00  0.00    -0.200 F 
ATOM     93  C   UNL A   1      42.554  21.337  26.024  1.00  0.00     0.200 A 
ATOM     94  F   UNL A   1      43.348  22.416  24.080  1.00  0.00    -0.200 F 
ATOM     95  F   UNL A   1      42.478  20.172  25.367  1.00  0.00    -0.200 F 
ENDBRANCH  61  85
BRANCH  73  96
ATOM     96  C   UNL A   1      47.995  26.745  30.911  1.00  0.00     0.064 A 
ATOM     97  C   UNL A   1      49.081  27.129  30.112  1.00  0.00     0.173 A 
ATOM     98  C   UNL A   1      48.256  25.954  32.039  1.00  0.00     0.173 A 
ATOM     99  F   UNL A   1      48.884  27.872  29.013  1.00  0.00    -0.203 F 
ATOM    100  C   UNL A   1      50.376  26.716  30.418  1.00  0.00     0.198 A 
ATOM    101  C   UNL A   1      49.554  25.569  32.361  1.00  0.00     0.198 A 
ATOM    102  F   UNL A   1      47.252  25.565  32.840  1.00  0.00    -0.203 F 
ATOM    103  F   UNL A   1      51.393  27.053  29.614  1.00  0.00    -0.200 F 
ATOM    104  C   UNL A   1      50.612  25.944  31.546  1.00  0.00     0.200 A 
ATOM    105  F   UNL A   1      49.782  24.836  33.460  1.00  0.00    -0.200 F 
ATOM    106  F   UNL A   1      51.859  25.554  31.845  1.00  0.00    -0.200 F 
ENDBRANCH  73  96
ENDBRANCH  47  48
ENDBRANCH  39  42
ENDBRANCH  37  38
ENDBRANCH  36  37
ENDBRANCH  35  36
ENDBRANCH   1  35
TORSDOF 16
ENDMDL
