MODEL 1
REMARK VINA RESULT:     -13.3      0.000      0.000
REMARK SMILES C[C@H](C(=O)NCCCCNC(=O)c1ccc(-c2c3nc(c(-c4c(F)c(F)c(F)c(F)c4F)c4ccc([nH]4)c(-c4c(F)c(F)c(F)c(F)c4F)c4nc(c(-c5c(F)c(F)c(F)c(F)c5F)c5ccc2[nH]5)C=C4)C=C3)cc1)c1cccc(C(=O)c2ccccc2)c1
REMARK SMILES IDX 7 1 6 2 5 3 3 4 4 5 2 7 1 8 76 9 77 10 89 11 78 12 80 13
REMARK SMILES IDX 79 14 81 15 82 16 83 17 84 18 88 19 85 20 87 21 86 22 8 23
REMARK SMILES IDX 9 24 10 25 11 26 12 28 13 29 14 30 75 31 15 32 74 33 16 34
REMARK SMILES IDX 17 35 18 36 68 37 19 38 73 39 67 40 69 41 20 42 72 43 66 44
REMARK SMILES IDX 65 45 21 47 53 48 33 49 52 50 34 51 37 52 51 53 70 54 35 55
REMARK SMILES IDX 36 56 50 58 71 59 38 60 22 61 23 62 31 63 24 64 25 65 29 66
REMARK SMILES IDX 32 67 26 68 27 69 30 70 28 71 54 72 55 73 63 74 56 75 57 76
REMARK SMILES IDX 61 77 64 78 58 79 59 80 62 81 60 82 39 83 40 84 48 85 41 86
REMARK SMILES IDX 42 87 46 88 49 89 43 90 44 91 47 92 45 93
REMARK H PARENT 5 6 10 27 69 46 37 57
REMARK Flexibility Score: inf
ROOT
ATOM      1  C   UNL A   1      32.145  30.252  26.708  1.00  0.00     0.023 C 
ENDROOT
BRANCH   1   2
ATOM      2  C   UNL A   1      32.538  29.852  25.290  1.00  0.00     0.116 C 
BRANCH   2   3
ATOM      3  N   UNL A   1      33.364  28.665  25.303  1.00  0.00    -0.356 N 
ATOM      4  C   UNL A   1      33.386  27.607  24.441  1.00  0.00     0.227 C 
ATOM      5  O   UNL A   1      34.085  26.640  24.755  1.00  0.00    -0.274 OA
ATOM      6  H   UNL A   1      34.008  28.611  26.047  1.00  0.00     0.163 HD
BRANCH   4   7
ATOM      7  C   UNL A   1      32.586  27.646  23.127  1.00  0.00     0.105 C 
ATOM      8  C   UNL A   1      33.345  26.798  22.093  1.00  0.00     0.023 C 
BRANCH   7   9
ATOM      9  C   UNL A   1      31.129  27.233  23.332  1.00  0.00    -0.035 A 
ATOM     10  C   UNL A   1      30.773  26.009  23.913  1.00  0.00     0.004 A 
ATOM     11  C   UNL A   1      30.091  28.121  22.977  1.00  0.00     0.016 A 
ATOM     12  C   UNL A   1      29.433  25.686  24.135  1.00  0.00     0.001 A 
ATOM     13  C   UNL A   1      28.747  27.842  23.265  1.00  0.00     0.023 A 
ATOM     14  C   UNL A   1      28.428  26.603  23.829  1.00  0.00     0.012 A 
BRANCH  13  15
ATOM     15  C   UNL A   1      27.639  28.833  23.098  1.00  0.00     0.193 C 
ATOM     16  O   UNL A   1      26.493  28.532  23.428  1.00  0.00    -0.289 OA
BRANCH  15  17
ATOM     17  C   UNL A   1      27.860  30.220  22.638  1.00  0.00     0.022 A 
ATOM     18  C   UNL A   1      27.938  30.457  21.258  1.00  0.00     0.012 A 
ATOM     19  C   UNL A   1      28.068  31.266  23.542  1.00  0.00     0.012 A 
ATOM     20  C   UNL A   1      28.190  31.744  20.783  1.00  0.00     0.001 A 
ATOM     21  C   UNL A   1      28.320  32.554  23.060  1.00  0.00     0.001 A 
ATOM     22  C   UNL A   1      28.379  32.792  21.685  1.00  0.00     0.000 A 
ENDBRANCH  15  17
ENDBRANCH  13  15
ENDBRANCH   7   9
ENDBRANCH   4   7
ENDBRANCH   2   3
ENDBRANCH   1   2
BRANCH   1  23
ATOM     23  C   UNL A   1      31.764  31.712  26.894  1.00  0.00     0.023 C 
BRANCH  23  24
ATOM     24  C   UNL A   1      32.904  32.608  27.346  1.00  0.00     0.116 C 
BRANCH  24  25
ATOM     25  N   UNL A   1      32.493  33.977  27.637  1.00  0.00    -0.352 N 
ATOM     26  C   UNL A   1      33.006  34.857  28.562  1.00  0.00     0.251 C 
ATOM     27  H   UNL A   1      31.745  34.319  27.096  1.00  0.00     0.163 HD
ATOM     28  O   UNL A   1      32.485  35.947  28.749  1.00  0.00    -0.269 OA
BRANCH  26  29
ATOM     29  C   UNL A   1      34.174  34.443  29.361  1.00  0.00     0.039 A 
ATOM     30  C   UNL A   1      33.967  33.816  30.591  1.00  0.00     0.014 A 
ATOM     31  C   UNL A   1      35.464  34.611  28.854  1.00  0.00     0.014 A 
ATOM     32  C   UNL A   1      35.057  33.282  31.279  1.00  0.00     0.010 A 
ATOM     33  C   UNL A   1      36.531  33.994  29.487  1.00  0.00     0.010 A 
ATOM     34  C   UNL A   1      36.339  33.331  30.710  1.00  0.00    -0.014 A 
BRANCH  34  35
ATOM     35  C   UNL A   1      37.520  32.739  31.381  1.00  0.00     0.031 A 
ATOM     36  C   UNL A   1      38.255  31.616  30.707  1.00  0.00     0.074 A 
ATOM     37  C   UNL A   1      37.862  33.133  32.622  1.00  0.00     0.049 A 
ATOM     38  N   UNL A   1      39.197  30.838  31.175  1.00  0.00    -0.248 NA
ATOM     39  C   UNL A   1      37.837  31.292  29.333  1.00  0.00     0.031 C 
ATOM     40  C   UNL A   1      37.190  34.179  33.396  1.00  0.00     0.029 A 
ATOM     41  N   UNL A   1      38.849  32.681  33.461  1.00  0.00    -0.354 N 
ATOM     42  C   UNL A   1      39.452  29.915  30.171  1.00  0.00     0.074 A 
ATOM     43  C   UNL A   1      38.531  30.191  29.092  1.00  0.00     0.031 C 
ATOM     44  C   UNL A   1      37.797  34.301  34.588  1.00  0.00     0.029 A 
ATOM     45  C   UNL A   1      38.872  33.318  34.677  1.00  0.00     0.049 A 
ATOM     46  H   UNL A   1      39.481  31.969  33.213  1.00  0.00     0.167 HD
ATOM     47  C   UNL A   1      40.390  28.938  30.143  1.00  0.00     0.037 A 
ATOM     48  C   UNL A   1      39.666  33.118  35.746  1.00  0.00     0.037 A 
ATOM     49  C   UNL A   1      41.337  28.708  31.199  1.00  0.00     0.049 A 
ATOM     50  C   UNL A   1      40.723  32.050  35.677  1.00  0.00     0.074 A 
ATOM     51  C   UNL A   1      42.377  27.798  31.245  1.00  0.00     0.029 A 
ATOM     52  N   UNL A   1      41.361  29.407  32.398  1.00  0.00    -0.354 N 
ATOM     53  N   UNL A   1      40.994  31.214  34.703  1.00  0.00    -0.248 NA
ATOM     54  C   UNL A   1      41.588  31.897  36.856  1.00  0.00     0.031 C 
ATOM     55  C   UNL A   1      43.012  27.924  32.484  1.00  0.00     0.029 A 
ATOM     56  C   UNL A   1      42.393  28.941  33.195  1.00  0.00     0.049 A 
ATOM     57  H   UNL A   1      40.738  30.128  32.645  1.00  0.00     0.167 HD
ATOM     58  C   UNL A   1      42.073  30.456  35.138  1.00  0.00     0.074 A 
ATOM     59  C   UNL A   1      42.416  30.941  36.460  1.00  0.00     0.031 C 
ATOM     60  C   UNL A   1      42.720  29.448  34.503  1.00  0.00     0.037 A 
BRANCH  47  61
ATOM     61  C   UNL A   1      40.434  28.057  28.928  1.00  0.00     0.064 A 
ATOM     62  C   UNL A   1      41.190  28.400  27.797  1.00  0.00     0.173 A 
ATOM     63  C   UNL A   1      39.716  26.854  28.896  1.00  0.00     0.173 A 
ATOM     64  F   UNL A   1      41.882  29.550  27.769  1.00  0.00    -0.203 F 
ATOM     65  C   UNL A   1      41.196  27.589  26.665  1.00  0.00     0.198 A 
ATOM     66  C   UNL A   1      39.750  26.027  27.775  1.00  0.00     0.198 A 
ATOM     67  F   UNL A   1      38.978  26.477  29.952  1.00  0.00    -0.203 F 
ATOM     68  F   UNL A   1      41.875  27.969  25.574  1.00  0.00    -0.200 F 
ATOM     69  C   UNL A   1      40.481  26.401  26.657  1.00  0.00     0.200 A 
ATOM     70  F   UNL A   1      39.067  24.875  27.773  1.00  0.00    -0.200 F 
ATOM     71  F   UNL A   1      40.488  25.621  25.568  1.00  0.00    -0.200 F 
ENDBRANCH  47  61
BRANCH  48  72
ATOM     72  C   UNL A   1      39.514  33.968  36.955  1.00  0.00     0.064 A 
ATOM     73  C   UNL A   1      40.126  35.227  37.025  1.00  0.00     0.173 A 
ATOM     74  C   UNL A   1      38.753  33.550  38.056  1.00  0.00     0.173 A 
ATOM     75  F   UNL A   1      40.879  35.662  36.005  1.00  0.00    -0.203 F 
ATOM     76  C   UNL A   1      39.998  36.028  38.157  1.00  0.00     0.198 A 
ATOM     77  C   UNL A   1      38.605  34.363  39.178  1.00  0.00     0.198 A 
ATOM     78  F   UNL A   1      38.141  32.357  38.037  1.00  0.00    -0.203 F 
ATOM     79  F   UNL A   1      40.627  37.211  38.213  1.00  0.00    -0.200 F 
ATOM     80  C   UNL A   1      39.232  35.599  39.231  1.00  0.00     0.200 A 
ATOM     81  F   UNL A   1      37.853  33.950  40.208  1.00  0.00    -0.200 F 
ATOM     82  F   UNL A   1      39.106  36.372  40.317  1.00  0.00    -0.200 F 
ENDBRANCH  48  72
BRANCH  60  83
ATOM     83  C   UNL A   1      43.884  28.827  35.215  1.00  0.00     0.064 A 
ATOM     84  C   UNL A   1      45.188  29.318  35.056  1.00  0.00     0.173 A 
ATOM     85  C   UNL A   1      43.683  27.761  36.104  1.00  0.00     0.173 A 
ATOM     86  F   UNL A   1      45.430  30.327  34.206  1.00  0.00    -0.203 F 
ATOM     87  C   UNL A   1      46.253  28.748  35.746  1.00  0.00     0.198 A 
ATOM     88  C   UNL A   1      44.747  27.212  36.813  1.00  0.00     0.198 A 
ATOM     89  F   UNL A   1      42.453  27.263  36.296  1.00  0.00    -0.203 F 
ATOM     90  F   UNL A   1      47.498  29.205  35.549  1.00  0.00    -0.200 F 
ATOM     91  C   UNL A   1      46.031  27.702  36.630  1.00  0.00     0.200 A 
ATOM     92  F   UNL A   1      44.529  26.210  37.675  1.00  0.00    -0.200 F 
ATOM     93  F   UNL A   1      47.058  27.161  37.299  1.00  0.00    -0.200 F 
ENDBRANCH  60  83
ENDBRANCH  34  35
ENDBRANCH  26  29
ENDBRANCH  24  25
ENDBRANCH  23  24
ENDBRANCH   1  23
TORSDOF 14
ENDMDL
MODEL 2
REMARK VINA RESULT:     -13.0      3.926     10.324
REMARK SMILES C[C@H](C(=O)NCCCCNC(=O)c1ccc(-c2c3nc(c(-c4c(F)c(F)c(F)c(F)c4F)c4ccc([nH]4)c(-c4c(F)c(F)c(F)c(F)c4F)c4nc(c(-c5c(F)c(F)c(F)c(F)c5F)c5ccc2[nH]5)C=C4)C=C3)cc1)c1cccc(C(=O)c2ccccc2)c1
REMARK SMILES IDX 7 1 6 2 5 3 3 4 4 5 2 7 1 8 76 9 77 10 89 11 78 12 80 13
REMARK SMILES IDX 79 14 81 15 82 16 83 17 84 18 88 19 85 20 87 21 86 22 8 23
REMARK SMILES IDX 9 24 10 25 11 26 12 28 13 29 14 30 75 31 15 32 74 33 16 34
REMARK SMILES IDX 17 35 18 36 68 37 19 38 73 39 67 40 69 41 20 42 72 43 66 44
REMARK SMILES IDX 65 45 21 47 53 48 33 49 52 50 34 51 37 52 51 53 70 54 35 55
REMARK SMILES IDX 36 56 50 58 71 59 38 60 22 61 23 62 31 63 24 64 25 65 29 66
REMARK SMILES IDX 32 67 26 68 27 69 30 70 28 71 54 72 55 73 63 74 56 75 57 76
REMARK SMILES IDX 61 77 64 78 58 79 59 80 62 81 60 82 39 83 40 84 48 85 41 86
REMARK SMILES IDX 42 87 46 88 49 89 43 90 44 91 47 92 45 93
REMARK H PARENT 5 6 10 27 69 46 37 57
REMARK Flexibility Score: inf
ROOT
ATOM      1  C   UNL A   1      33.862  36.070  28.619  1.00  0.00     0.023 C 
ENDROOT
BRANCH   1   2
ATOM      2  C   UNL A   1      33.007  36.233  29.871  1.00  0.00     0.116 C 
BRANCH   2   3
ATOM      3  N   UNL A   1      33.479  37.341  30.672  1.00  0.00    -0.356 N 
ATOM      4  C   UNL A   1      33.388  37.546  32.019  1.00  0.00     0.227 C 
ATOM      5  O   UNL A   1      33.740  38.650  32.445  1.00  0.00    -0.274 OA
ATOM      6  H   UNL A   1      33.934  38.057  30.170  1.00  0.00     0.163 HD
BRANCH   4   7
ATOM      7  C   UNL A   1      32.889  36.429  32.952  1.00  0.00     0.105 C 
ATOM      8  C   UNL A   1      31.470  36.045  32.503  1.00  0.00     0.023 C 
BRANCH   7   9
ATOM      9  C   UNL A   1      33.869  35.257  33.015  1.00  0.00    -0.035 A 
ATOM     10  C   UNL A   1      33.472  33.936  32.767  1.00  0.00     0.004 A 
ATOM     11  C   UNL A   1      35.233  35.496  33.283  1.00  0.00     0.016 A 
ATOM     12  C   UNL A   1      34.403  32.896  32.779  1.00  0.00     0.001 A 
ATOM     13  C   UNL A   1      36.190  34.472  33.224  1.00  0.00     0.023 A 
ATOM     14  C   UNL A   1      35.755  33.164  32.990  1.00  0.00     0.012 A 
BRANCH  13  15
ATOM     15  C   UNL A   1      37.666  34.710  33.294  1.00  0.00     0.193 C 
ATOM     16  O   UNL A   1      38.195  34.953  34.378  1.00  0.00    -0.289 OA
BRANCH  15  17
ATOM     17  C   UNL A   1      38.562  34.573  32.127  1.00  0.00     0.022 A 
ATOM     18  C   UNL A   1      37.988  34.566  30.848  1.00  0.00     0.012 A 
ATOM     19  C   UNL A   1      39.937  34.374  32.280  1.00  0.00     0.012 A 
ATOM     20  C   UNL A   1      38.794  34.395  29.722  1.00  0.00     0.001 A 
ATOM     21  C   UNL A   1      40.739  34.202  31.148  1.00  0.00     0.001 A 
ATOM     22  C   UNL A   1      40.168  34.215  29.873  1.00  0.00     0.000 A 
ENDBRANCH  15  17
ENDBRANCH  13  15
ENDBRANCH   7   9
ENDBRANCH   4   7
ENDBRANCH   2   3
ENDBRANCH   1   2
BRANCH   1  23
ATOM     23  C   UNL A   1      34.845  34.910  28.645  1.00  0.00     0.023 C 
BRANCH  23  24
ATOM     24  C   UNL A   1      34.263  33.603  29.154  1.00  0.00     0.116 C 
BRANCH  24  25
ATOM     25  N   UNL A   1      33.596  32.817  28.124  1.00  0.00    -0.352 N 
ATOM     26  C   UNL A   1      33.994  31.637  27.540  1.00  0.00     0.251 C 
ATOM     27  H   UNL A   1      32.739  33.182  27.800  1.00  0.00     0.163 HD
ATOM     28  O   UNL A   1      33.362  31.148  26.614  1.00  0.00    -0.269 OA
BRANCH  26  29
ATOM     29  C   UNL A   1      35.230  30.991  28.020  1.00  0.00     0.039 A 
ATOM     30  C   UNL A   1      36.444  31.667  27.889  1.00  0.00     0.014 A 
ATOM     31  C   UNL A   1      35.167  29.755  28.665  1.00  0.00     0.014 A 
ATOM     32  C   UNL A   1      37.591  31.134  28.479  1.00  0.00     0.010 A 
ATOM     33  C   UNL A   1      36.283  29.279  29.336  1.00  0.00     0.010 A 
ATOM     34  C   UNL A   1      37.507  29.960  29.242  1.00  0.00    -0.014 A 
BRANCH  34  35
ATOM     35  C   UNL A   1      38.687  29.380  29.925  1.00  0.00     0.031 A 
ATOM     36  C   UNL A   1      39.075  29.901  31.280  1.00  0.00     0.074 A 
ATOM     37  C   UNL A   1      39.459  28.476  29.293  1.00  0.00     0.049 A 
ATOM     38  N   UNL A   1      40.154  29.671  31.982  1.00  0.00    -0.248 NA
ATOM     39  C   UNL A   1      38.141  30.851  31.907  1.00  0.00     0.031 C 
ATOM     40  C   UNL A   1      39.211  27.934  27.956  1.00  0.00     0.029 A 
ATOM     41  N   UNL A   1      40.625  27.869  29.686  1.00  0.00    -0.354 N 
ATOM     42  C   UNL A   1      40.045  30.475  33.109  1.00  0.00     0.074 A 
ATOM     43  C   UNL A   1      38.825  31.239  32.972  1.00  0.00     0.031 C 
ATOM     44  C   UNL A   1      40.184  27.061  27.648  1.00  0.00     0.029 A 
ATOM     45  C   UNL A   1      41.143  27.013  28.746  1.00  0.00     0.049 A 
ATOM     46  H   UNL A   1      41.049  28.032  30.559  1.00  0.00     0.167 HD
ATOM     47  C   UNL A   1      40.876  30.550  34.175  1.00  0.00     0.037 A 
ATOM     48  C   UNL A   1      42.274  26.282  28.770  1.00  0.00     0.037 A 
ATOM     49  C   UNL A   1      42.057  29.744  34.326  1.00  0.00     0.049 A 
ATOM     50  C   UNL A   1      43.164  26.355  29.980  1.00  0.00     0.074 A 
ATOM     51  C   UNL A   1      42.930  29.682  35.397  1.00  0.00     0.029 A 
ATOM     52  N   UNL A   1      42.524  28.850  33.373  1.00  0.00    -0.354 N 
ATOM     53  N   UNL A   1      43.027  27.079  31.065  1.00  0.00    -0.248 NA
ATOM     54  C   UNL A   1      44.366  25.510  29.971  1.00  0.00     0.031 C 
ATOM     55  C   UNL A   1      43.944  28.773  35.079  1.00  0.00     0.029 A 
ATOM     56  C   UNL A   1      43.680  28.238  33.828  1.00  0.00     0.049 A 
ATOM     57  H   UNL A   1      42.097  28.675  32.504  1.00  0.00     0.167 HD
ATOM     58  C   UNL A   1      44.106  26.758  31.878  1.00  0.00     0.074 A 
ATOM     59  C   UNL A   1      44.882  25.763  31.165  1.00  0.00     0.031 C 
ATOM     60  C   UNL A   1      44.428  27.243  33.102  1.00  0.00     0.037 A 
BRANCH  47  61
ATOM     61  C   UNL A   1      40.526  31.530  35.256  1.00  0.00     0.064 A 
ATOM     62  C   UNL A   1      39.507  31.271  36.185  1.00  0.00     0.173 A 
ATOM     63  C   UNL A   1      41.223  32.742  35.370  1.00  0.00     0.173 A 
ATOM     64  F   UNL A   1      38.798  30.134  36.109  1.00  0.00    -0.203 F 
ATOM     65  C   UNL A   1      39.173  32.204  37.162  1.00  0.00     0.198 A 
ATOM     66  C   UNL A   1      40.909  33.659  36.370  1.00  0.00     0.198 A 
ATOM     67  F   UNL A   1      42.209  33.039  34.510  1.00  0.00    -0.203 F 
ATOM     68  F   UNL A   1      38.153  31.960  37.997  1.00  0.00    -0.200 F 
ATOM     69  C   UNL A   1      39.877  33.394  37.258  1.00  0.00     0.200 A 
ATOM     70  F   UNL A   1      41.598  34.804  36.467  1.00  0.00    -0.200 F 
ATOM     71  F   UNL A   1      39.555  34.291  38.200  1.00  0.00    -0.200 F 
ENDBRANCH  47  61
BRANCH  48  72
ATOM     72  C   UNL A   1      42.609  25.394  27.627  1.00  0.00     0.064 A 
ATOM     73  C   UNL A   1      43.527  25.803  26.649  1.00  0.00     0.173 A 
ATOM     74  C   UNL A   1      42.031  24.124  27.488  1.00  0.00     0.173 A 
ATOM     75  F   UNL A   1      44.090  27.017  26.728  1.00  0.00    -0.203 F 
ATOM     76  C   UNL A   1      43.840  24.984  25.567  1.00  0.00     0.198 A 
ATOM     77  C   UNL A   1      42.365  23.294  26.418  1.00  0.00     0.198 A 
ATOM     78  F   UNL A   1      41.152  23.682  28.399  1.00  0.00    -0.203 F 
ATOM     79  F   UNL A   1      44.691  25.416  24.626  1.00  0.00    -0.200 F 
ATOM     80  C   UNL A   1      43.265  23.727  25.456  1.00  0.00     0.200 A 
ATOM     81  F   UNL A   1      41.816  22.076  26.322  1.00  0.00    -0.200 F 
ATOM     82  F   UNL A   1      43.570  22.937  24.418  1.00  0.00    -0.200 F 
ENDBRANCH  48  72
BRANCH  60  83
ATOM     83  C   UNL A   1      45.652  26.681  33.761  1.00  0.00     0.064 A 
ATOM     84  C   UNL A   1      45.591  25.534  34.565  1.00  0.00     0.173 A 
ATOM     85  C   UNL A   1      46.906  27.269  33.543  1.00  0.00     0.173 A 
ATOM     86  F   UNL A   1      44.411  24.946  34.813  1.00  0.00    -0.203 F 
ATOM     87  C   UNL A   1      46.741  25.008  35.146  1.00  0.00     0.198 A 
ATOM     88  C   UNL A   1      48.058  26.724  34.104  1.00  0.00     0.198 A 
ATOM     89  F   UNL A   1      47.017  28.362  32.775  1.00  0.00    -0.203 F 
ATOM     90  F   UNL A   1      46.655  23.936  35.946  1.00  0.00    -0.200 F 
ATOM     91  C   UNL A   1      47.974  25.599  34.909  1.00  0.00     0.200 A 
ATOM     92  F   UNL A   1      49.249  27.288  33.863  1.00  0.00    -0.200 F 
ATOM     93  F   UNL A   1      49.080  25.085  35.462  1.00  0.00    -0.200 F 
ENDBRANCH  60  83
ENDBRANCH  34  35
ENDBRANCH  26  29
ENDBRANCH  24  25
ENDBRANCH  23  24
ENDBRANCH   1  23
TORSDOF 14
ENDMDL
MODEL 3
REMARK VINA RESULT:     -12.9      1.699      4.128
REMARK SMILES C[C@H](C(=O)NCCCCNC(=O)c1ccc(-c2c3nc(c(-c4c(F)c(F)c(F)c(F)c4F)c4ccc([nH]4)c(-c4c(F)c(F)c(F)c(F)c4F)c4nc(c(-c5c(F)c(F)c(F)c(F)c5F)c5ccc2[nH]5)C=C4)C=C3)cc1)c1cccc(C(=O)c2ccccc2)c1
REMARK SMILES IDX 7 1 6 2 5 3 3 4 4 5 2 7 1 8 76 9 77 10 89 11 78 12 80 13
REMARK SMILES IDX 79 14 81 15 82 16 83 17 84 18 88 19 85 20 87 21 86 22 8 23
REMARK SMILES IDX 9 24 10 25 11 26 12 28 13 29 14 30 75 31 15 32 74 33 16 34
REMARK SMILES IDX 17 35 18 36 68 37 19 38 73 39 67 40 69 41 20 42 72 43 66 44
REMARK SMILES IDX 65 45 21 47 53 48 33 49 52 50 34 51 37 52 51 53 70 54 35 55
REMARK SMILES IDX 36 56 50 58 71 59 38 60 22 61 23 62 31 63 24 64 25 65 29 66
REMARK SMILES IDX 32 67 26 68 27 69 30 70 28 71 54 72 55 73 63 74 56 75 57 76
REMARK SMILES IDX 61 77 64 78 58 79 59 80 62 81 60 82 39 83 40 84 48 85 41 86
REMARK SMILES IDX 42 87 46 88 49 89 43 90 44 91 47 92 45 93
REMARK H PARENT 5 6 10 27 69 46 37 57
REMARK Flexibility Score: inf
ROOT
ATOM      1  C   UNL A   1      32.013  30.267  26.897  1.00  0.00     0.023 C 
ENDROOT
BRANCH   1   2
ATOM      2  C   UNL A   1      33.287  29.777  26.217  1.00  0.00     0.116 C 
BRANCH   2   3
ATOM      3  N   UNL A   1      33.120  29.744  24.781  1.00  0.00    -0.356 N 
ATOM      4  C   UNL A   1      32.343  28.929  24.009  1.00  0.00     0.227 C 
ATOM      5  O   UNL A   1      32.489  29.003  22.787  1.00  0.00    -0.274 OA
ATOM      6  H   UNL A   1      33.648  30.411  24.283  1.00  0.00     0.163 HD
BRANCH   4   7
ATOM      7  C   UNL A   1      31.316  27.981  24.655  1.00  0.00     0.105 C 
ATOM      8  C   UNL A   1      30.168  27.784  23.652  1.00  0.00     0.023 C 
BRANCH   7   9
ATOM      9  C   UNL A   1      31.962  26.681  25.135  1.00  0.00    -0.035 A 
ATOM     10  C   UNL A   1      31.499  25.987  26.261  1.00  0.00     0.004 A 
ATOM     11  C   UNL A   1      33.030  26.117  24.407  1.00  0.00     0.016 A 
ATOM     12  C   UNL A   1      32.077  24.774  26.641  1.00  0.00     0.001 A 
ATOM     13  C   UNL A   1      33.569  24.863  24.733  1.00  0.00     0.023 A 
ATOM     14  C   UNL A   1      33.093  24.208  25.873  1.00  0.00     0.012 A 
BRANCH  13  15
ATOM     15  C   UNL A   1      34.554  24.134  23.875  1.00  0.00     0.193 C 
ATOM     16  O   UNL A   1      34.544  24.301  22.656  1.00  0.00    -0.289 OA
BRANCH  15  17
ATOM     17  C   UNL A   1      35.625  23.278  24.425  1.00  0.00     0.022 A 
ATOM     18  C   UNL A   1      35.465  21.886  24.352  1.00  0.00     0.012 A 
ATOM     19  C   UNL A   1      36.736  23.822  25.075  1.00  0.00     0.012 A 
ATOM     20  C   UNL A   1      36.432  21.042  24.898  1.00  0.00     0.001 A 
ATOM     21  C   UNL A   1      37.702  22.971  25.621  1.00  0.00     0.001 A 
ATOM     22  C   UNL A   1      37.550  21.586  25.531  1.00  0.00     0.000 A 
ENDBRANCH  15  17
ENDBRANCH  13  15
ENDBRANCH   7   9
ENDBRANCH   4   7
ENDBRANCH   2   3
ENDBRANCH   1   2
BRANCH   1  23
ATOM     23  C   UNL A   1      31.764  31.764  26.818  1.00  0.00     0.023 C 
BRANCH  23  24
ATOM     24  C   UNL A   1      32.889  32.621  27.373  1.00  0.00     0.116 C 
BRANCH  24  25
ATOM     25  N   UNL A   1      32.496  33.996  27.652  1.00  0.00    -0.352 N 
ATOM     26  C   UNL A   1      33.017  34.876  28.573  1.00  0.00     0.251 C 
ATOM     27  H   UNL A   1      31.754  34.345  27.106  1.00  0.00     0.163 HD
ATOM     28  O   UNL A   1      32.509  35.975  28.750  1.00  0.00    -0.269 OA
BRANCH  26  29
ATOM     29  C   UNL A   1      34.176  34.453  29.380  1.00  0.00     0.039 A 
ATOM     30  C   UNL A   1      33.956  33.831  30.610  1.00  0.00     0.014 A 
ATOM     31  C   UNL A   1      35.470  34.606  28.878  1.00  0.00     0.014 A 
ATOM     32  C   UNL A   1      35.037  33.288  31.305  1.00  0.00     0.010 A 
ATOM     33  C   UNL A   1      36.527  33.979  29.520  1.00  0.00     0.010 A 
ATOM     34  C   UNL A   1      36.322  33.322  30.743  1.00  0.00    -0.014 A 
BRANCH  34  35
ATOM     35  C   UNL A   1      37.493  32.720  31.422  1.00  0.00     0.031 A 
ATOM     36  C   UNL A   1      38.196  31.561  30.774  1.00  0.00     0.074 A 
ATOM     37  C   UNL A   1      37.853  33.139  32.650  1.00  0.00     0.049 A 
ATOM     38  N   UNL A   1      39.121  30.773  31.258  1.00  0.00    -0.248 NA
ATOM     39  C   UNL A   1      37.760  31.209  29.413  1.00  0.00     0.031 C 
ATOM     40  C   UNL A   1      37.213  34.222  33.399  1.00  0.00     0.029 A 
ATOM     41  N   UNL A   1      38.836  32.686  33.494  1.00  0.00    -0.354 N 
ATOM     42  C   UNL A   1      39.347  29.817  30.278  1.00  0.00     0.074 A 
ATOM     43  C   UNL A   1      38.425  30.086  29.198  1.00  0.00     0.031 C 
ATOM     44  C   UNL A   1      37.832  34.362  34.584  1.00  0.00     0.029 A 
ATOM     45  C   UNL A   1      38.882  33.355  34.693  1.00  0.00     0.049 A 
ATOM     46  H   UNL A   1      39.448  31.952  33.262  1.00  0.00     0.167 HD
ATOM     47  C   UNL A   1      40.260  28.817  30.271  1.00  0.00     0.037 A 
ATOM     48  C   UNL A   1      39.680  33.165  35.761  1.00  0.00     0.037 A 
ATOM     49  C   UNL A   1      41.209  28.592  31.326  1.00  0.00     0.049 A 
ATOM     50  C   UNL A   1      40.710  32.069  35.715  1.00  0.00     0.074 A 
ATOM     51  C   UNL A   1      42.227  27.659  31.390  1.00  0.00     0.029 A 
ATOM     52  N   UNL A   1      41.259  29.323  32.505  1.00  0.00    -0.354 N 
ATOM     53  N   UNL A   1      40.953  31.201  34.763  1.00  0.00    -0.248 NA
ATOM     54  C   UNL A   1      41.579  31.928  36.891  1.00  0.00     0.031 C 
ATOM     55  C   UNL A   1      42.874  27.803  32.621  1.00  0.00     0.029 A 
ATOM     56  C   UNL A   1      42.285  28.854  33.308  1.00  0.00     0.049 A 
ATOM     57  H   UNL A   1      40.656  30.066  32.736  1.00  0.00     0.167 HD
ATOM     58  C   UNL A   1      42.016  30.429  35.211  1.00  0.00     0.074 A 
ATOM     59  C   UNL A   1      42.381  30.941  36.516  1.00  0.00     0.031 C 
ATOM     60  C   UNL A   1      42.634  29.389  34.599  1.00  0.00     0.037 A 
BRANCH  47  61
ATOM     61  C   UNL A   1      40.274  27.903  29.080  1.00  0.00     0.064 A 
ATOM     62  C   UNL A   1      41.026  28.198  27.933  1.00  0.00     0.173 A 
ATOM     63  C   UNL A   1      39.530  26.714  29.088  1.00  0.00     0.173 A 
ATOM     64  F   UNL A   1      41.742  29.331  27.867  1.00  0.00    -0.203 F 
ATOM     65  C   UNL A   1      41.004  27.356  26.824  1.00  0.00     0.198 A 
ATOM     66  C   UNL A   1      39.537  25.857  27.989  1.00  0.00     0.198 A 
ATOM     67  F   UNL A   1      38.795  26.382  30.160  1.00  0.00    -0.203 F 
ATOM     68  F   UNL A   1      41.681  27.692  25.717  1.00  0.00    -0.200 F 
ATOM     69  C   UNL A   1      40.264  26.184  26.856  1.00  0.00     0.200 A 
ATOM     70  F   UNL A   1      38.829  24.720  28.026  1.00  0.00    -0.200 F 
ATOM     71  F   UNL A   1      40.244  25.374  25.788  1.00  0.00    -0.200 F 
ENDBRANCH  47  61
BRANCH  48  72
ATOM     72  C   UNL A   1      39.557  34.051  36.947  1.00  0.00     0.064 A 
ATOM     73  C   UNL A   1      38.780  33.666  38.049  1.00  0.00     0.173 A 
ATOM     74  C   UNL A   1      40.212  35.288  37.011  1.00  0.00     0.173 A 
ATOM     75  F   UNL A   1      38.118  32.501  38.026  1.00  0.00    -0.203 F 
ATOM     76  C   UNL A   1      38.649  34.493  39.162  1.00  0.00     0.198 A 
ATOM     77  C   UNL A   1      40.102  36.104  38.136  1.00  0.00     0.198 A 
ATOM     78  F   UNL A   1      40.974  35.700  35.987  1.00  0.00    -0.203 F 
ATOM     79  F   UNL A   1      37.868  34.118  40.185  1.00  0.00    -0.200 F 
ATOM     80  C   UNL A   1      39.316  35.709  39.209  1.00  0.00     0.200 A 
ATOM     81  F   UNL A   1      40.758  37.271  38.182  1.00  0.00    -0.200 F 
ATOM     82  F   UNL A   1      39.193  36.501  40.281  1.00  0.00    -0.200 F 
ENDBRANCH  48  72
BRANCH  60  83
ATOM     83  C   UNL A   1      43.788  28.759  35.321  1.00  0.00     0.064 A 
ATOM     84  C   UNL A   1      43.602  27.692  36.210  1.00  0.00     0.173 A 
ATOM     85  C   UNL A   1      45.097  29.198  35.080  1.00  0.00     0.173 A 
ATOM     86  F   UNL A   1      42.366  27.247  36.483  1.00  0.00    -0.203 F 
ATOM     87  C   UNL A   1      44.687  27.100  36.850  1.00  0.00     0.198 A 
ATOM     88  C   UNL A   1      46.182  28.586  35.701  1.00  0.00     0.198 A 
ATOM     89  F   UNL A   1      45.326  30.211  34.231  1.00  0.00    -0.203 F 
ATOM     90  F   UNL A   1      44.485  26.108  37.729  1.00  0.00    -0.200 F 
ATOM     91  C   UNL A   1      45.976  27.542  36.589  1.00  0.00     0.200 A 
ATOM     92  F   UNL A   1      47.427  29.006  35.438  1.00  0.00    -0.200 F 
ATOM     93  F   UNL A   1      47.019  26.964  37.200  1.00  0.00    -0.200 F 
ENDBRANCH  60  83
ENDBRANCH  34  35
ENDBRANCH  26  29
ENDBRANCH  24  25
ENDBRANCH  23  24
ENDBRANCH   1  23
TORSDOF 14
ENDMDL
