MODEL 1
REMARK VINA RESULT:     -12.9      0.000      0.000
REMARK SMILES CC1=CC2=[NH+]C(=O)C[C@@](C)(C(=O)NCCCCNC(=O)c3ccc(-c4c5nc(c(-c6c(F)c(F)c(F)c(F)c6F)c6ccc([nH]6)c(-c6c(F)c(F)c(F)c(F)c6F)c6nc(c(-c7c(F)c(F)c(F)c(F)c7F)c7ccc4[nH]7)C=C6)C=C5)cc3)N2C=C1
REMARK SMILES IDX 16 1 15 2 14 3 13 4 11 5 12 6 9 8 1 9 2 10 3 11 86 12 4 13
REMARK SMILES IDX 85 14 5 15 84 16 6 17 7 19 8 20 10 21 17 22 18 23 19 24
REMARK SMILES IDX 20 26 21 27 22 28 83 29 23 30 82 31 24 32 25 33 26 34 76 35
REMARK SMILES IDX 27 36 81 37 75 38 77 39 28 40 80 41 74 42 73 43 29 45 61 46
REMARK SMILES IDX 41 47 60 48 42 49 45 50 59 51 78 52 43 53 44 54 58 56 79 57
REMARK SMILES IDX 46 58 30 59 31 60 39 61 32 62 33 63 37 64 40 65 34 66 35 67
REMARK SMILES IDX 38 68 36 69 62 70 63 71 71 72 64 73 65 74 69 75 72 76 66 77
REMARK SMILES IDX 67 78 70 79 68 80 47 81 48 82 56 83 49 84 50 85 54 86 57 87
REMARK SMILES IDX 51 88 52 89 55 90 53 91
REMARK H PARENT 13 7 5 18 18 25 77 44 45 55
REMARK Flexibility Score: inf
ROOT
ATOM      1  C   UNL A   1      31.627  31.572  26.874  1.00  0.00     0.023 C 
ENDROOT
BRANCH   1   2
ATOM      2  C   UNL A   1      31.936  30.444  25.901  1.00  0.00     0.023 C 
BRANCH   2   3
ATOM      3  C   UNL A   1      32.790  29.281  26.407  1.00  0.00     0.116 C 
BRANCH   3   4
ATOM      4  N   UNL A   1      32.185  27.963  26.461  1.00  0.00    -0.352 N 
ATOM      5  C   UNL A   1      32.343  26.877  25.635  1.00  0.00     0.268 C 
ATOM      6  O   UNL A   1      32.295  25.780  26.206  1.00  0.00    -0.270 OA
ATOM      7  H   UNL A   1      31.562  27.825  27.210  1.00  0.00     0.163 HD
BRANCH   5   8
ATOM      8  C   UNL A   1      32.345  27.003  24.079  1.00  0.00     0.197 C 
ATOM      9  C   UNL A   1      27.773  29.877  21.911  1.00  0.00     0.045 C 
ATOM     10  C   UNL A   1      28.988  29.210  22.482  1.00  0.00    -0.039 C 
ATOM     11  C   UNL A   1      30.227  29.670  22.231  1.00  0.00     0.102 C 
ATOM     12  C   UNL A   1      28.797  28.034  23.313  1.00  0.00     0.047 C 
ATOM     13  C   UNL A   1      31.394  28.864  22.717  1.00  0.00     0.282 C 
ATOM     14  C   UNL A   1      29.858  27.418  23.855  1.00  0.00     0.202 C 
ATOM     15  N   UNL A   1      32.534  29.193  22.188  1.00  0.00    -0.210 N 
ATOM     16  N   UNL A   1      31.178  27.808  23.611  1.00  0.00    -0.219 N 
ATOM     17  C   UNL A   1      33.604  28.394  22.467  1.00  0.00     0.312 C 
ATOM     18  H   UNL A   1      32.622  29.986  21.610  1.00  0.00     0.315 HD
ATOM     19  O   UNL A   1      34.533  28.221  21.688  1.00  0.00    -0.247 OA
ATOM     20  C   UNL A   1      33.637  27.777  23.823  1.00  0.00     0.191 C 
ATOM     21  C   UNL A   1      32.268  25.678  23.311  1.00  0.00     0.074 C 
ENDBRANCH   5   8
ENDBRANCH   3   4
ENDBRANCH   2   3
ENDBRANCH   1   2
BRANCH   1  22
ATOM     22  C   UNL A   1      32.788  32.473  27.254  1.00  0.00     0.116 C 
BRANCH  22  23
ATOM     23  N   UNL A   1      32.402  33.840  27.565  1.00  0.00    -0.352 N 
ATOM     24  C   UNL A   1      32.976  34.732  28.442  1.00  0.00     0.251 C 
ATOM     25  H   UNL A   1      31.616  34.177  27.076  1.00  0.00     0.163 HD
ATOM     26  O   UNL A   1      32.474  35.839  28.611  1.00  0.00    -0.269 OA
BRANCH  24  27
ATOM     27  C   UNL A   1      34.171  34.336  29.219  1.00  0.00     0.039 A 
ATOM     28  C   UNL A   1      33.994  33.687  30.445  1.00  0.00     0.014 A 
ATOM     29  C   UNL A   1      35.457  34.563  28.727  1.00  0.00     0.014 A 
ATOM     30  C   UNL A   1      35.104  33.183  31.130  1.00  0.00     0.010 A 
ATOM     31  C   UNL A   1      36.550  33.984  29.360  1.00  0.00     0.010 A 
ATOM     32  C   UNL A   1      36.386  33.287  30.568  1.00  0.00    -0.014 A 
BRANCH  32  33
ATOM     33  C   UNL A   1      37.582  32.698  31.219  1.00  0.00     0.031 A 
ATOM     34  C   UNL A   1      38.311  31.571  30.544  1.00  0.00     0.074 A 
ATOM     35  C   UNL A   1      37.947  33.097  32.453  1.00  0.00     0.049 A 
ATOM     36  N   UNL A   1      39.261  30.799  31.007  1.00  0.00    -0.248 NA
ATOM     37  C   UNL A   1      37.885  31.243  29.173  1.00  0.00     0.031 C 
ATOM     38  C   UNL A   1      37.298  34.153  33.231  1.00  0.00     0.029 A 
ATOM     39  N   UNL A   1      38.942  32.641  33.282  1.00  0.00    -0.354 N 
ATOM     40  C   UNL A   1      39.519  29.877  30.001  1.00  0.00     0.074 A 
ATOM     41  C   UNL A   1      38.596  30.154  28.922  1.00  0.00     0.031 C 
ATOM     42  C   UNL A   1      37.918  34.273  34.416  1.00  0.00     0.029 A 
ATOM     43  C   UNL A   1      38.978  33.273  34.501  1.00  0.00     0.049 A 
ATOM     44  H   UNL A   1      39.572  31.928  33.025  1.00  0.00     0.167 HD
ATOM     45  C   UNL A   1      40.456  28.900  29.972  1.00  0.00     0.037 A 
ATOM     46  C   UNL A   1      39.766  33.056  35.572  1.00  0.00     0.037 A 
ATOM     47  C   UNL A   1      41.400  28.656  31.030  1.00  0.00     0.049 A 
ATOM     48  C   UNL A   1      40.807  31.970  35.510  1.00  0.00     0.074 A 
ATOM     49  C   UNL A   1      42.427  27.730  31.073  1.00  0.00     0.029 A 
ATOM     50  N   UNL A   1      41.433  29.349  32.230  1.00  0.00    -0.354 N 
ATOM     51  N   UNL A   1      41.076  31.136  34.536  1.00  0.00    -0.248 NA
ATOM     52  C   UNL A   1      41.657  31.799  36.697  1.00  0.00     0.031 C 
ATOM     53  C   UNL A   1      43.060  27.838  32.315  1.00  0.00     0.029 A 
ATOM     54  C   UNL A   1      42.458  28.864  33.026  1.00  0.00     0.049 A 
ATOM     55  H   UNL A   1      40.821  30.078  32.480  1.00  0.00     0.167 HD
ATOM     56  C   UNL A   1      42.145  30.367  34.975  1.00  0.00     0.074 A 
ATOM     57  C   UNL A   1      42.480  30.838  36.303  1.00  0.00     0.031 C 
ATOM     58  C   UNL A   1      42.792  29.362  34.335  1.00  0.00     0.037 A 
BRANCH  45  59
ATOM     59  C   UNL A   1      40.508  28.026  28.753  1.00  0.00     0.064 A 
ATOM     60  C   UNL A   1      41.274  28.373  27.630  1.00  0.00     0.173 A 
ATOM     61  C   UNL A   1      39.803  26.814  28.717  1.00  0.00     0.173 A 
ATOM     62  F   UNL A   1      41.954  29.529  27.608  1.00  0.00    -0.203 F 
ATOM     63  C   UNL A   1      41.305  27.556  26.503  1.00  0.00     0.198 A 
ATOM     64  C   UNL A   1      39.863  25.983  27.602  1.00  0.00     0.198 A 
ATOM     65  F   UNL A   1      39.059  26.431  29.765  1.00  0.00    -0.203 F 
ATOM     66  F   UNL A   1      42.000  27.935  25.422  1.00  0.00    -0.200 F 
ATOM     67  C   UNL A   1      40.606  26.358  26.493  1.00  0.00     0.200 A 
ATOM     68  F   UNL A   1      39.197  24.820  27.598  1.00  0.00    -0.200 F 
ATOM     69  F   UNL A   1      40.643  25.568  25.410  1.00  0.00    -0.200 F 
ENDBRANCH  45  59
BRANCH  46  70
ATOM     70  C   UNL A   1      39.618  33.898  36.788  1.00  0.00     0.064 A 
ATOM     71  C   UNL A   1      38.813  33.479  37.856  1.00  0.00     0.173 A 
ATOM     72  C   UNL A   1      40.266  35.136  36.906  1.00  0.00     0.173 A 
ATOM     73  F   UNL A   1      38.155  32.312  37.780  1.00  0.00    -0.203 F 
ATOM     74  C   UNL A   1      38.645  34.274  38.988  1.00  0.00     0.198 A 
ATOM     75  C   UNL A   1      40.119  35.918  38.049  1.00  0.00     0.198 A 
ATOM     76  F   UNL A   1      41.051  35.581  35.914  1.00  0.00    -0.203 F 
ATOM     77  F   UNL A   1      37.832  33.870  39.973  1.00  0.00    -0.200 F 
ATOM     78  C   UNL A   1      39.302  35.491  39.086  1.00  0.00     0.200 A 
ATOM     79  F   UNL A   1      40.766  37.088  38.146  1.00  0.00    -0.200 F 
ATOM     80  F   UNL A   1      39.142  36.255  40.174  1.00  0.00    -0.200 F 
ENDBRANCH  46  70
BRANCH  58  81
ATOM     81  C   UNL A   1      43.965  28.741  35.034  1.00  0.00     0.064 A 
ATOM     82  C   UNL A   1      45.265  29.243  34.885  1.00  0.00     0.173 A 
ATOM     83  C   UNL A   1      43.772  27.662  35.911  1.00  0.00     0.173 A 
ATOM     84  F   UNL A   1      45.502  30.264  34.047  1.00  0.00    -0.203 F 
ATOM     85  C   UNL A   1      46.334  28.676  35.573  1.00  0.00     0.198 A 
ATOM     86  C   UNL A   1      44.837  27.116  36.620  1.00  0.00     0.198 A 
ATOM     87  F   UNL A   1      42.546  27.151  36.094  1.00  0.00    -0.203 F 
ATOM     88  F   UNL A   1      47.575  29.146  35.387  1.00  0.00    -0.200 F 
ATOM     89  C   UNL A   1      46.118  27.619  36.446  1.00  0.00     0.200 A 
ATOM     90  F   UNL A   1      44.625  26.105  37.473  1.00  0.00    -0.200 F 
ATOM     91  F   UNL A   1      47.146  27.082  37.118  1.00  0.00    -0.200 F 
ENDBRANCH  58  81
ENDBRANCH  32  33
ENDBRANCH  24  27
ENDBRANCH  22  23
ENDBRANCH   1  22
TORSDOF 11
ENDMDL
MODEL 2
REMARK VINA RESULT:     -12.9      5.932     11.288
REMARK SMILES CC1=CC2=[NH+]C(=O)C[C@@](C)(C(=O)NCCCCNC(=O)c3ccc(-c4c5nc(c(-c6c(F)c(F)c(F)c(F)c6F)c6ccc([nH]6)c(-c6c(F)c(F)c(F)c(F)c6F)c6nc(c(-c7c(F)c(F)c(F)c(F)c7F)c7ccc4[nH]7)C=C6)C=C5)cc3)N2C=C1
REMARK SMILES IDX 16 1 15 2 14 3 13 4 11 5 12 6 9 8 1 9 2 10 3 11 86 12 4 13
REMARK SMILES IDX 85 14 5 15 84 16 6 17 7 19 8 20 10 21 17 22 18 23 19 24
REMARK SMILES IDX 20 26 21 27 22 28 83 29 23 30 82 31 24 32 25 33 26 34 76 35
REMARK SMILES IDX 27 36 81 37 75 38 77 39 28 40 80 41 74 42 73 43 29 45 61 46
REMARK SMILES IDX 41 47 60 48 42 49 45 50 59 51 78 52 43 53 44 54 58 56 79 57
REMARK SMILES IDX 46 58 30 59 31 60 39 61 32 62 33 63 37 64 40 65 34 66 35 67
REMARK SMILES IDX 38 68 36 69 62 70 63 71 71 72 64 73 65 74 69 75 72 76 66 77
REMARK SMILES IDX 67 78 70 79 68 80 47 81 48 82 56 83 49 84 50 85 54 86 57 87
REMARK SMILES IDX 51 88 52 89 55 90 53 91
REMARK H PARENT 13 7 5 18 18 25 77 44 45 55
REMARK Flexibility Score: inf
ROOT
ATOM      1  C   UNL A   1      37.841  20.102  25.004  1.00  0.00     0.023 C 
ENDROOT
BRANCH   1   2
ATOM      2  C   UNL A   1      36.930  21.295  24.751  1.00  0.00     0.023 C 
BRANCH   2   3
ATOM      3  C   UNL A   1      35.678  21.431  25.619  1.00  0.00     0.116 C 
BRANCH   3   4
ATOM      4  N   UNL A   1      34.400  21.066  25.035  1.00  0.00    -0.352 N 
ATOM      5  C   UNL A   1      33.231  21.780  24.935  1.00  0.00     0.268 C 
ATOM      6  O   UNL A   1      32.584  21.573  23.900  1.00  0.00    -0.270 OA
ATOM      7  H   UNL A   1      34.366  20.161  24.650  1.00  0.00     0.163 HD
BRANCH   5   8
ATOM      8  C   UNL A   1      32.649  22.603  26.127  1.00  0.00     0.197 C 
ATOM      9  C   UNL A   1      33.524  28.341  25.717  1.00  0.00     0.045 C 
ATOM     10  C   UNL A   1      33.231  26.873  25.775  1.00  0.00    -0.039 C 
ATOM     11  C   UNL A   1      31.971  26.408  25.860  1.00  0.00     0.102 C 
ATOM     12  C   UNL A   1      34.353  25.949  25.750  1.00  0.00     0.047 C 
ATOM     13  C   UNL A   1      31.770  24.936  26.060  1.00  0.00     0.282 C 
ATOM     14  C   UNL A   1      34.131  24.627  25.785  1.00  0.00     0.202 C 
ATOM     15  N   UNL A   1      30.572  24.602  26.433  1.00  0.00    -0.210 N 
ATOM     16  N   UNL A   1      32.857  24.066  25.912  1.00  0.00    -0.219 N 
ATOM     17  C   UNL A   1      30.370  23.300  26.787  1.00  0.00     0.312 C 
ATOM     18  H   UNL A   1      29.840  25.261  26.460  1.00  0.00     0.315 HD
ATOM     19  O   UNL A   1      29.549  22.953  27.626  1.00  0.00    -0.247 OA
ATOM     20  C   UNL A   1      31.159  22.279  26.042  1.00  0.00     0.191 C 
ATOM     21  C   UNL A   1      33.261  22.295  27.499  1.00  0.00     0.074 C 
ENDBRANCH   5   8
ENDBRANCH   3   4
ENDBRANCH   2   3
ENDBRANCH   1   2
BRANCH   1  22
ATOM     22  C   UNL A   1      39.104  20.374  25.799  1.00  0.00     0.116 C 
BRANCH  22  23
ATOM     23  N   UNL A   1      40.027  19.252  25.850  1.00  0.00    -0.352 N 
ATOM     24  C   UNL A   1      41.378  19.242  26.117  1.00  0.00     0.251 C 
ATOM     25  H   UNL A   1      39.628  18.370  25.668  1.00  0.00     0.163 HD
ATOM     26  O   UNL A   1      42.008  18.191  26.065  1.00  0.00    -0.269 OA
BRANCH  24  27
ATOM     27  C   UNL A   1      42.078  20.510  26.418  1.00  0.00     0.039 A 
ATOM     28  C   UNL A   1      42.520  21.306  25.357  1.00  0.00     0.014 A 
ATOM     29  C   UNL A   1      42.263  20.934  27.735  1.00  0.00     0.014 A 
ATOM     30  C   UNL A   1      43.061  22.568  25.614  1.00  0.00     0.010 A 
ATOM     31  C   UNL A   1      42.715  22.224  27.986  1.00  0.00     0.010 A 
ATOM     32  C   UNL A   1      43.119  23.055  26.929  1.00  0.00    -0.014 A 
BRANCH  32  33
ATOM     33  C   UNL A   1      43.610  24.420  27.244  1.00  0.00     0.031 A 
ATOM     34  C   UNL A   1      42.647  25.453  27.755  1.00  0.00     0.074 A 
ATOM     35  C   UNL A   1      44.885  24.759  26.971  1.00  0.00     0.049 A 
ATOM     36  N   UNL A   1      42.818  26.739  27.925  1.00  0.00    -0.248 NA
ATOM     37  C   UNL A   1      41.292  24.979  28.085  1.00  0.00     0.031 C 
ATOM     38  C   UNL A   1      45.908  23.860  26.436  1.00  0.00     0.029 A 
ATOM     39  N   UNL A   1      45.532  25.965  27.085  1.00  0.00    -0.354 N 
ATOM     40  C   UNL A   1      41.589  27.230  28.345  1.00  0.00     0.074 A 
ATOM     41  C   UNL A   1      40.668  26.115  28.360  1.00  0.00     0.031 C 
ATOM     42  C   UNL A   1      47.056  24.541  26.279  1.00  0.00     0.029 A 
ATOM     43  C   UNL A   1      46.839  25.933  26.660  1.00  0.00     0.049 A 
ATOM     44  H   UNL A   1      45.101  26.777  27.439  1.00  0.00     0.167 HD
ATOM     45  C   UNL A   1      41.264  28.494  28.705  1.00  0.00     0.037 A 
ATOM     46  C   UNL A   1      47.750  26.920  26.569  1.00  0.00     0.037 A 
ATOM     47  C   UNL A   1      42.194  29.590  28.729  1.00  0.00     0.049 A 
ATOM     48  C   UNL A   1      47.366  28.315  26.987  1.00  0.00     0.074 A 
ATOM     49  C   UNL A   1      41.980  30.896  29.135  1.00  0.00     0.029 A 
ATOM     50  N   UNL A   1      43.522  29.506  28.335  1.00  0.00    -0.354 N 
ATOM     51  N   UNL A   1      46.215  28.759  27.428  1.00  0.00    -0.248 NA
ATOM     52  C   UNL A   1      48.410  29.345  26.895  1.00  0.00     0.031 C 
ATOM     53  C   UNL A   1      43.167  31.611  28.953  1.00  0.00     0.029 A 
ATOM     54  C   UNL A   1      44.135  30.740  28.478  1.00  0.00     0.049 A 
ATOM     55  H   UNL A   1      43.962  28.690  28.003  1.00  0.00     0.167 HD
ATOM     56  C   UNL A   1      46.405  30.107  27.701  1.00  0.00     0.074 A 
ATOM     57  C   UNL A   1      47.784  30.408  27.380  1.00  0.00     0.031 C 
ATOM     58  C   UNL A   1      45.516  31.014  28.177  1.00  0.00     0.037 A 
BRANCH  45  59
ATOM     59  C   UNL A   1      39.842  28.755  29.108  1.00  0.00     0.064 A 
ATOM     60  C   UNL A   1      39.415  28.615  30.437  1.00  0.00     0.173 A 
ATOM     61  C   UNL A   1      38.900  29.175  28.157  1.00  0.00     0.173 A 
ATOM     62  F   UNL A   1      40.274  28.201  31.381  1.00  0.00    -0.203 F 
ATOM     63  C   UNL A   1      38.091  28.853  30.793  1.00  0.00     0.198 A 
ATOM     64  C   UNL A   1      37.584  29.444  28.523  1.00  0.00     0.198 A 
ATOM     65  F   UNL A   1      39.256  29.329  26.873  1.00  0.00    -0.203 F 
ATOM     66  F   UNL A   1      37.694  28.660  32.058  1.00  0.00    -0.200 F 
ATOM     67  C   UNL A   1      37.178  29.275  29.838  1.00  0.00     0.200 A 
ATOM     68  F   UNL A   1      36.706  29.863  27.601  1.00  0.00    -0.200 F 
ATOM     69  F   UNL A   1      35.904  29.510  30.183  1.00  0.00    -0.200 F 
ENDBRANCH  45  59
BRANCH  46  70
ATOM     70  C   UNL A   1      49.124  26.623  26.085  1.00  0.00     0.064 A 
ATOM     71  C   UNL A   1      50.095  26.112  26.956  1.00  0.00     0.173 A 
ATOM     72  C   UNL A   1      49.496  26.850  24.752  1.00  0.00     0.173 A 
ATOM     73  F   UNL A   1      49.793  25.900  28.245  1.00  0.00    -0.203 F 
ATOM     74  C   UNL A   1      51.394  25.858  26.519  1.00  0.00     0.198 A 
ATOM     75  C   UNL A   1      50.787  26.569  24.309  1.00  0.00     0.198 A 
ATOM     76  F   UNL A   1      48.602  27.334  23.877  1.00  0.00    -0.203 F 
ATOM     77  F   UNL A   1      52.315  25.414  27.384  1.00  0.00    -0.200 F 
ATOM     78  C   UNL A   1      51.738  26.082  25.194  1.00  0.00     0.200 A 
ATOM     79  F   UNL A   1      51.112  26.775  23.025  1.00  0.00    -0.200 F 
ATOM     80  F   UNL A   1      52.985  25.836  24.773  1.00  0.00    -0.200 F 
ENDBRANCH  46  70
BRANCH  58  81
ATOM     81  C   UNL A   1      46.019  32.403  28.435  1.00  0.00     0.064 A 
ATOM     82  C   UNL A   1      46.595  32.764  29.661  1.00  0.00     0.173 A 
ATOM     83  C   UNL A   1      45.974  33.369  27.418  1.00  0.00     0.173 A 
ATOM     84  F   UNL A   1      46.648  31.879  30.669  1.00  0.00    -0.203 F 
ATOM     85  C   UNL A   1      47.091  34.049  29.866  1.00  0.00     0.198 A 
ATOM     86  C   UNL A   1      46.496  34.643  27.617  1.00  0.00     0.198 A 
ATOM     87  F   UNL A   1      45.439  33.071  26.225  1.00  0.00    -0.203 F 
ATOM     88  F   UNL A   1      47.603  34.385  31.058  1.00  0.00    -0.200 F 
ATOM     89  C   UNL A   1      47.049  34.984  28.842  1.00  0.00     0.200 A 
ATOM     90  F   UNL A   1      46.467  35.541  26.622  1.00  0.00    -0.200 F 
ATOM     91  F   UNL A   1      47.538  36.217  29.037  1.00  0.00    -0.200 F 
ENDBRANCH  58  81
ENDBRANCH  32  33
ENDBRANCH  24  27
ENDBRANCH  22  23
ENDBRANCH   1  22
TORSDOF 11
ENDMDL
MODEL 3
REMARK VINA RESULT:     -12.9      1.160      2.726
REMARK SMILES CC1=CC2=[NH+]C(=O)C[C@@](C)(C(=O)NCCCCNC(=O)c3ccc(-c4c5nc(c(-c6c(F)c(F)c(F)c(F)c6F)c6ccc([nH]6)c(-c6c(F)c(F)c(F)c(F)c6F)c6nc(c(-c7c(F)c(F)c(F)c(F)c7F)c7ccc4[nH]7)C=C6)C=C5)cc3)N2C=C1
REMARK SMILES IDX 16 1 15 2 14 3 13 4 11 5 12 6 9 8 1 9 2 10 3 11 86 12 4 13
REMARK SMILES IDX 85 14 5 15 84 16 6 17 7 19 8 20 10 21 17 22 18 23 19 24
REMARK SMILES IDX 20 26 21 27 22 28 83 29 23 30 82 31 24 32 25 33 26 34 76 35
REMARK SMILES IDX 27 36 81 37 75 38 77 39 28 40 80 41 74 42 73 43 29 45 61 46
REMARK SMILES IDX 41 47 60 48 42 49 45 50 59 51 78 52 43 53 44 54 58 56 79 57
REMARK SMILES IDX 46 58 30 59 31 60 39 61 32 62 33 63 37 64 40 65 34 66 35 67
REMARK SMILES IDX 38 68 36 69 62 70 63 71 71 72 64 73 65 74 69 75 72 76 66 77
REMARK SMILES IDX 67 78 70 79 68 80 47 81 48 82 56 83 49 84 50 85 54 86 57 87
REMARK SMILES IDX 51 88 52 89 55 90 53 91
REMARK H PARENT 13 7 5 18 18 25 77 44 45 55
REMARK Flexibility Score: inf
ROOT
ATOM      1  C   UNL A   1      31.680  31.727  26.728  1.00  0.00     0.023 C 
ENDROOT
BRANCH   1   2
ATOM      2  C   UNL A   1      31.952  30.235  26.612  1.00  0.00     0.023 C 
BRANCH   2   3
ATOM      3  C   UNL A   1      32.364  29.690  25.244  1.00  0.00     0.116 C 
BRANCH   3   4
ATOM      4  N   UNL A   1      31.335  29.106  24.404  1.00  0.00    -0.352 N 
ATOM      5  C   UNL A   1      31.271  27.873  23.802  1.00  0.00     0.268 C 
ATOM      6  O   UNL A   1      30.136  27.384  23.740  1.00  0.00    -0.270 OA
ATOM      7  H   UNL A   1      30.557  29.686  24.239  1.00  0.00     0.163 HD
BRANCH   5   8
ATOM      8  C   UNL A   1      32.486  27.247  23.048  1.00  0.00     0.197 C 
ATOM      9  C   UNL A   1      35.381  23.233  26.110  1.00  0.00     0.045 C 
ATOM     10  C   UNL A   1      34.583  24.207  25.298  1.00  0.00    -0.039 C 
ATOM     11  C   UNL A   1      34.044  23.863  24.115  1.00  0.00     0.102 C 
ATOM     12  C   UNL A   1      34.411  25.554  25.818  1.00  0.00     0.047 C 
ATOM     13  C   UNL A   1      33.384  24.933  23.297  1.00  0.00     0.282 C 
ATOM     14  C   UNL A   1      33.690  26.450  25.128  1.00  0.00     0.202 C 
ATOM     15  N   UNL A   1      33.163  24.606  22.060  1.00  0.00    -0.210 N 
ATOM     16  N   UNL A   1      33.132  26.183  23.874  1.00  0.00    -0.219 N 
ATOM     17  C   UNL A   1      32.715  25.590  21.227  1.00  0.00     0.312 C 
ATOM     18  H   UNL A   1      33.313  23.688  21.737  1.00  0.00     0.315 HD
ATOM     19  O   UNL A   1      32.971  25.623  20.030  1.00  0.00    -0.247 OA
ATOM     20  C   UNL A   1      31.817  26.613  21.830  1.00  0.00     0.191 C 
ATOM     21  C   UNL A   1      33.610  28.226  22.684  1.00  0.00     0.074 C 
ENDBRANCH   5   8
ENDBRANCH   3   4
ENDBRANCH   2   3
ENDBRANCH   1   2
BRANCH   1  22
ATOM     22  C   UNL A   1      32.802  32.575  27.297  1.00  0.00     0.116 C 
BRANCH  22  23
ATOM     23  N   UNL A   1      32.412  33.938  27.621  1.00  0.00    -0.352 N 
ATOM     24  C   UNL A   1      32.980  34.823  28.510  1.00  0.00     0.251 C 
ATOM     25  H   UNL A   1      31.627  34.278  27.133  1.00  0.00     0.163 HD
ATOM     26  O   UNL A   1      32.475  35.926  28.688  1.00  0.00    -0.269 OA
BRANCH  24  27
ATOM     27  C   UNL A   1      34.173  34.421  29.287  1.00  0.00     0.039 A 
ATOM     28  C   UNL A   1      33.994  33.797  30.525  1.00  0.00     0.014 A 
ATOM     29  C   UNL A   1      35.460  34.620  28.783  1.00  0.00     0.014 A 
ATOM     30  C   UNL A   1      35.099  33.288  31.213  1.00  0.00     0.010 A 
ATOM     31  C   UNL A   1      36.547  34.034  29.421  1.00  0.00     0.010 A 
ATOM     32  C   UNL A   1      36.379  33.362  30.641  1.00  0.00    -0.014 A 
BRANCH  32  33
ATOM     33  C   UNL A   1      37.570  32.766  31.297  1.00  0.00     0.031 A 
ATOM     34  C   UNL A   1      38.295  31.635  30.623  1.00  0.00     0.074 A 
ATOM     35  C   UNL A   1      37.932  33.161  32.532  1.00  0.00     0.049 A 
ATOM     36  N   UNL A   1      39.239  30.858  31.088  1.00  0.00    -0.248 NA
ATOM     37  C   UNL A   1      37.873  31.312  29.250  1.00  0.00     0.031 C 
ATOM     38  C   UNL A   1      37.286  34.220  33.309  1.00  0.00     0.029 A 
ATOM     39  N   UNL A   1      38.922  32.698  33.364  1.00  0.00    -0.354 N 
ATOM     40  C   UNL A   1      39.497  29.936  30.082  1.00  0.00     0.074 A 
ATOM     41  C   UNL A   1      38.580  30.220  29.000  1.00  0.00     0.031 C 
ATOM     42  C   UNL A   1      37.903  34.334  34.497  1.00  0.00     0.029 A 
ATOM     43  C   UNL A   1      38.957  33.329  34.584  1.00  0.00     0.049 A 
ATOM     44  H   UNL A   1      39.550  31.983  33.109  1.00  0.00     0.167 HD
ATOM     45  C   UNL A   1      40.429  28.955  30.055  1.00  0.00     0.037 A 
ATOM     46  C   UNL A   1      39.739  33.106  35.658  1.00  0.00     0.037 A 
ATOM     47  C   UNL A   1      41.367  28.704  31.116  1.00  0.00     0.049 A 
ATOM     48  C   UNL A   1      40.775  32.015  35.598  1.00  0.00     0.074 A 
ATOM     49  C   UNL A   1      42.390  27.773  31.162  1.00  0.00     0.029 A 
ATOM     50  N   UNL A   1      41.400  29.396  32.318  1.00  0.00    -0.354 N 
ATOM     51  N   UNL A   1      41.043  31.181  34.624  1.00  0.00    -0.248 NA
ATOM     52  C   UNL A   1      41.619  31.838  36.788  1.00  0.00     0.031 C 
ATOM     53  C   UNL A   1      43.019  27.876  32.406  1.00  0.00     0.029 A 
ATOM     54  C   UNL A   1      42.419  28.904  33.116  1.00  0.00     0.049 A 
ATOM     55  H   UNL A   1      40.790  30.128  32.566  1.00  0.00     0.167 HD
ATOM     56  C   UNL A   1      42.107  30.406  35.067  1.00  0.00     0.074 A 
ATOM     57  C   UNL A   1      42.440  30.873  36.396  1.00  0.00     0.031 C 
ATOM     58  C   UNL A   1      42.751  29.399  34.427  1.00  0.00     0.037 A 
BRANCH  45  59
ATOM     59  C   UNL A   1      40.481  28.082  28.835  1.00  0.00     0.064 A 
ATOM     60  C   UNL A   1      39.768  26.876  28.761  1.00  0.00     0.173 A 
ATOM     61  C   UNL A   1      41.231  28.470  27.715  1.00  0.00     0.173 A 
ATOM     62  F   UNL A   1      39.048  26.453  29.811  1.00  0.00    -0.203 F 
ATOM     63  C   UNL A   1      39.832  26.074  27.625  1.00  0.00     0.198 A 
ATOM     64  C   UNL A   1      41.267  27.682  26.568  1.00  0.00     0.198 A 
ATOM     65  F   UNL A   1      41.927  29.616  27.730  1.00  0.00    -0.203 F 
ATOM     66  F   UNL A   1      39.188  24.900  27.599  1.00  0.00    -0.200 F 
ATOM     67  C   UNL A   1      40.575  26.481  26.527  1.00  0.00     0.200 A 
ATOM     68  F   UNL A   1      41.975  28.082  25.503  1.00  0.00    -0.200 F 
ATOM     69  F   UNL A   1      40.630  25.711  25.431  1.00  0.00    -0.200 F 
ENDBRANCH  45  59
BRANCH  46  70
ATOM     70  C   UNL A   1      39.591  33.948  36.875  1.00  0.00     0.064 A 
ATOM     71  C   UNL A   1      38.791  33.525  37.945  1.00  0.00     0.173 A 
ATOM     72  C   UNL A   1      40.234  35.188  36.991  1.00  0.00     0.173 A 
ATOM     73  F   UNL A   1      38.138  32.355  37.870  1.00  0.00    -0.203 F 
ATOM     74  C   UNL A   1      38.623  34.319  39.077  1.00  0.00     0.198 A 
ATOM     75  C   UNL A   1      40.087  35.970  38.135  1.00  0.00     0.198 A 
ATOM     76  F   UNL A   1      41.015  35.637  35.996  1.00  0.00    -0.203 F 
ATOM     77  F   UNL A   1      37.815  33.911  40.065  1.00  0.00    -0.200 F 
ATOM     78  C   UNL A   1      39.275  35.539  39.174  1.00  0.00     0.200 A 
ATOM     79  F   UNL A   1      40.729  37.142  38.230  1.00  0.00    -0.200 F 
ATOM     80  F   UNL A   1      39.115  36.302  40.263  1.00  0.00    -0.200 F 
ENDBRANCH  46  70
BRANCH  58  81
ATOM     81  C   UNL A   1      43.918  28.770  35.130  1.00  0.00     0.064 A 
ATOM     82  C   UNL A   1      43.761  27.670  35.984  1.00  0.00     0.173 A 
ATOM     83  C   UNL A   1      45.219  29.243  34.897  1.00  0.00     0.173 A 
ATOM     84  F   UNL A   1      42.536  27.191  36.249  1.00  0.00    -0.203 F 
ATOM     85  C   UNL A   1      44.862  27.077  36.595  1.00  0.00     0.198 A 
ATOM     86  C   UNL A   1      46.320  28.631  35.486  1.00  0.00     0.198 A 
ATOM     87  F   UNL A   1      45.423  30.289  34.081  1.00  0.00    -0.203 F 
ATOM     88  F   UNL A   1      44.687  26.051  37.439  1.00  0.00    -0.200 F 
ATOM     89  C   UNL A   1      46.141  27.552  36.339  1.00  0.00     0.200 A 
ATOM     90  F   UNL A   1      47.555  29.081  35.227  1.00  0.00    -0.200 F 
ATOM     91  F   UNL A   1      47.201  26.972  36.919  1.00  0.00    -0.200 F 
ENDBRANCH  58  81
ENDBRANCH  32  33
ENDBRANCH  24  27
ENDBRANCH  22  23
ENDBRANCH   1  22
TORSDOF 11
ENDMDL
