MODEL 1
REMARK VINA RESULT:     -12.8      0.000      0.000
REMARK SMILES CC[C@@H]1SC[C@@H](C(=O)NCCCCNC(=O)c2ccc(-c3c4nc(c(-c5c(F)c(F)c(F)c(F)c5F)c5ccc([nH]5)c(-c5c(F)c(F)c(F)c(F)c5F)c5nc(c(-c6c(F)c(F)c(F)c(F)c6F)c6ccc3[nH]6)C=C5)C=C4)cc2)N1C(=O)NC1C(C)(C)C1(C)C
REMARK SMILES IDX 11 1 10 2 9 3 7 4 8 5 6 7 3 8 4 9 80 10 5 11 2 12 1 13 81 14
REMARK SMILES IDX 82 15 83 16 84 18 85 19 88 20 86 21 87 22 89 23 90 24 12 25
REMARK SMILES IDX 13 26 14 27 15 28 16 30 17 31 18 32 79 33 19 34 78 35 20 36
REMARK SMILES IDX 21 37 22 38 72 39 23 40 77 41 71 42 73 43 24 44 76 45 70 46
REMARK SMILES IDX 69 47 25 49 57 50 37 51 56 52 38 53 41 54 55 55 74 56 39 57
REMARK SMILES IDX 40 58 54 60 75 61 42 62 26 63 27 64 35 65 28 66 29 67 33 68
REMARK SMILES IDX 36 69 30 70 31 71 34 72 32 73 58 74 59 75 67 76 60 77 61 78
REMARK SMILES IDX 65 79 68 80 62 81 63 82 66 83 64 84 43 85 44 86 52 87 45 88
REMARK SMILES IDX 46 89 50 90 53 91 47 92 48 93 51 94 49 95
REMARK H PARENT 9 6 83 17 14 29 73 48 41 59
REMARK Flexibility Score: inf
ROOT
ATOM      1  C   UNL A   1      32.447  30.323  26.774  1.00  0.00     0.023 C 
ENDROOT
BRANCH   1   2
ATOM      2  C   UNL A   1      32.059  29.734  25.417  1.00  0.00     0.116 C 
BRANCH   2   3
ATOM      3  N   UNL A   1      33.193  29.541  24.540  1.00  0.00    -0.354 N 
ATOM      4  C   UNL A   1      33.341  28.866  23.363  1.00  0.00     0.243 C 
ATOM      5  O   UNL A   1      34.327  29.200  22.692  1.00  0.00    -0.273 OA
ATOM      6  H   UNL A   1      34.017  29.980  24.853  1.00  0.00     0.163 HD
BRANCH   4   7
ATOM      7  C   UNL A   1      32.283  27.904  22.753  1.00  0.00     0.187 C 
ATOM      8  C   UNL A   1      31.206  26.137  24.013  1.00  0.00     0.145 C 
ATOM      9  S   UNL A   1      29.815  27.061  23.307  1.00  0.00    -0.134 SA
ATOM     10  N   UNL A   1      32.340  26.463  23.150  1.00  0.00    -0.300 N 
ATOM     11  C   UNL A   1      30.873  28.480  22.948  1.00  0.00     0.107 C 
BRANCH   8  12
ATOM     12  C   UNL A   1      30.868  24.757  24.521  1.00  0.00     0.033 C 
ATOM     13  C   UNL A   1      30.585  23.709  23.450  1.00  0.00     0.007 C 
ENDBRANCH   8  12
BRANCH  10  14
ATOM     14  C   UNL A   1      33.338  25.776  22.518  1.00  0.00     0.319 C 
ATOM     15  O   UNL A   1      33.439  25.843  21.283  1.00  0.00    -0.249 OA
ATOM     16  N   UNL A   1      34.267  24.970  23.063  1.00  0.00    -0.334 N 
ATOM     17  H   UNL A   1      34.853  24.588  22.370  1.00  0.00     0.165 HD
BRANCH  16  18
ATOM     18  C   UNL A   1      34.639  24.516  24.353  1.00  0.00     0.096 C 
ATOM     19  C   UNL A   1      34.352  23.099  24.840  1.00  0.00    -0.007 C 
ATOM     20  C   UNL A   1      35.798  23.554  24.614  1.00  0.00    -0.007 C 
ATOM     21  C   UNL A   1      33.895  22.867  26.263  1.00  0.00     0.014 C 
ATOM     22  C   UNL A   1      33.705  22.120  23.880  1.00  0.00     0.014 C 
ATOM     23  C   UNL A   1      36.609  22.928  23.506  1.00  0.00     0.014 C 
ATOM     24  C   UNL A   1      36.663  23.880  25.825  1.00  0.00     0.014 C 
ENDBRANCH  16  18
ENDBRANCH  10  14
ENDBRANCH   4   7
ENDBRANCH   2   3
ENDBRANCH   1   2
BRANCH   1  25
ATOM     25  C   UNL A   1      31.947  31.746  27.015  1.00  0.00     0.023 C 
BRANCH  25  26
ATOM     26  C   UNL A   1      33.045  32.751  27.349  1.00  0.00     0.116 C 
BRANCH  26  27
ATOM     27  N   UNL A   1      32.554  34.087  27.658  1.00  0.00    -0.352 N 
ATOM     28  C   UNL A   1      33.032  34.964  28.608  1.00  0.00     0.251 C 
ATOM     29  H   UNL A   1      31.789  34.402  27.123  1.00  0.00     0.163 HD
ATOM     30  O   UNL A   1      32.474  36.031  28.816  1.00  0.00    -0.269 OA
BRANCH  28  31
ATOM     31  C   UNL A   1      34.202  34.562  29.416  1.00  0.00     0.039 A 
ATOM     32  C   UNL A   1      33.988  33.991  30.672  1.00  0.00     0.014 A 
ATOM     33  C   UNL A   1      35.495  34.674  28.896  1.00  0.00     0.014 A 
ATOM     34  C   UNL A   1      35.068  33.453  31.374  1.00  0.00     0.010 A 
ATOM     35  C   UNL A   1      36.555  34.071  29.561  1.00  0.00     0.010 A 
ATOM     36  C   UNL A   1      36.352  33.448  30.803  1.00  0.00    -0.014 A 
BRANCH  36  37
ATOM     37  C   UNL A   1      37.491  32.781  31.478  1.00  0.00     0.031 A 
ATOM     38  C   UNL A   1      38.171  31.612  30.827  1.00  0.00     0.074 A 
ATOM     39  C   UNL A   1      37.849  33.169  32.717  1.00  0.00     0.049 A 
ATOM     40  N   UNL A   1      39.133  30.852  31.287  1.00  0.00    -0.248 NA
ATOM     41  C   UNL A   1      37.682  31.222  29.496  1.00  0.00     0.031 C 
ATOM     42  C   UNL A   1      37.211  34.238  33.485  1.00  0.00     0.029 A 
ATOM     43  N   UNL A   1      38.825  32.693  33.557  1.00  0.00    -0.354 N 
ATOM     44  C   UNL A   1      39.344  29.883  30.317  1.00  0.00     0.074 A 
ATOM     45  C   UNL A   1      38.378  30.118  29.266  1.00  0.00     0.031 C 
ATOM     46  C   UNL A   1      37.819  34.347  34.677  1.00  0.00     0.029 A 
ATOM     47  C   UNL A   1      38.871  33.339  34.768  1.00  0.00     0.049 A 
ATOM     48  H   UNL A   1      39.433  31.958  33.314  1.00  0.00     0.167 HD
ATOM     49  C   UNL A   1      40.275  28.899  30.295  1.00  0.00     0.037 A 
ATOM     50  C   UNL A   1      39.670  33.138  35.832  1.00  0.00     0.037 A 
ATOM     51  C   UNL A   1      41.258  28.696  31.324  1.00  0.00     0.049 A 
ATOM     52  C   UNL A   1      40.726  32.070  35.766  1.00  0.00     0.074 A 
ATOM     53  C   UNL A   1      42.309  27.795  31.349  1.00  0.00     0.029 A 
ATOM     54  N   UNL A   1      41.310  29.403  32.517  1.00  0.00    -0.354 N 
ATOM     55  N   UNL A   1      40.983  31.222  34.800  1.00  0.00    -0.248 NA
ATOM     56  C   UNL A   1      41.612  31.939  36.932  1.00  0.00     0.031 C 
ATOM     57  C   UNL A   1      42.969  27.929  32.576  1.00  0.00     0.029 A 
ATOM     58  C   UNL A   1      42.358  28.943  33.296  1.00  0.00     0.049 A 
ATOM     59  H   UNL A   1      40.691  30.127  32.771  1.00  0.00     0.167 HD
ATOM     60  C   UNL A   1      42.068  30.470  35.230  1.00  0.00     0.074 A 
ATOM     61  C   UNL A   1      42.432  30.975  36.539  1.00  0.00     0.031 C 
ATOM     62  C   UNL A   1      42.705  29.454  34.598  1.00  0.00     0.037 A 
BRANCH  49  63
ATOM     63  C   UNL A   1      40.269  27.970  29.116  1.00  0.00     0.064 A 
ATOM     64  C   UNL A   1      40.991  28.257  27.947  1.00  0.00     0.173 A 
ATOM     65  C   UNL A   1      39.544  26.770  29.162  1.00  0.00     0.173 A 
ATOM     66  F   UNL A   1      41.689  29.397  27.849  1.00  0.00    -0.203 F 
ATOM     67  C   UNL A   1      40.956  27.395  26.854  1.00  0.00     0.198 A 
ATOM     68  C   UNL A   1      39.537  25.896  28.078  1.00  0.00     0.198 A 
ATOM     69  F   UNL A   1      38.841  26.445  30.257  1.00  0.00    -0.203 F 
ATOM     70  F   UNL A   1      41.605  27.719  25.728  1.00  0.00    -0.200 F 
ATOM     71  C   UNL A   1      40.234  26.214  26.922  1.00  0.00     0.200 A 
ATOM     72  F   UNL A   1      38.847  24.749  28.150  1.00  0.00    -0.200 F 
ATOM     73  F   UNL A   1      40.202  25.385  25.869  1.00  0.00    -0.200 F 
ENDBRANCH  49  63
BRANCH  50  74
ATOM     74  C   UNL A   1      39.516  33.992  37.038  1.00  0.00     0.064 A 
ATOM     75  C   UNL A   1      38.769  33.553  38.140  1.00  0.00     0.173 A 
ATOM     76  C   UNL A   1      40.130  35.250  37.123  1.00  0.00     0.173 A 
ATOM     77  F   UNL A   1      38.147  32.366  38.095  1.00  0.00    -0.203 F 
ATOM     78  C   UNL A   1      38.632  34.345  39.278  1.00  0.00     0.198 A 
ATOM     79  C   UNL A   1      40.014  36.029  38.271  1.00  0.00     0.198 A 
ATOM     80  F   UNL A   1      40.863  35.709  36.098  1.00  0.00    -0.203 F 
ATOM     81  F   UNL A   1      37.886  33.915  40.304  1.00  0.00    -0.200 F 
ATOM     82  C   UNL A   1      39.260  35.579  39.346  1.00  0.00     0.200 A 
ATOM     83  F   UNL A   1      40.634  37.215  38.339  1.00  0.00    -0.200 F 
ATOM     84  F   UNL A   1      39.137  36.336  40.445  1.00  0.00    -0.200 F 
ENDBRANCH  50  74
BRANCH  62  85
ATOM     85  C   UNL A   1      43.870  28.829  35.304  1.00  0.00     0.064 A 
ATOM     86  C   UNL A   1      45.180  29.293  35.110  1.00  0.00     0.173 A 
ATOM     87  C   UNL A   1      43.671  27.783  36.218  1.00  0.00     0.173 A 
ATOM     88  F   UNL A   1      45.423  30.280  34.234  1.00  0.00    -0.203 F 
ATOM     89  C   UNL A   1      46.249  28.719  35.791  1.00  0.00     0.198 A 
ATOM     90  C   UNL A   1      44.740  27.230  36.917  1.00  0.00     0.198 A 
ATOM     91  F   UNL A   1      42.437  27.308  36.442  1.00  0.00    -0.203 F 
ATOM     92  F   UNL A   1      47.497  29.150  35.560  1.00  0.00    -0.200 F 
ATOM     93  C   UNL A   1      46.028  27.694  36.700  1.00  0.00     0.200 A 
ATOM     94  F   UNL A   1      44.522  26.249  37.804  1.00  0.00    -0.200 F 
ATOM     95  F   UNL A   1      47.058  27.149  37.360  1.00  0.00    -0.200 F 
ENDBRANCH  62  85
ENDBRANCH  36  37
ENDBRANCH  28  31
ENDBRANCH  26  27
ENDBRANCH  25  26
ENDBRANCH   1  25
TORSDOF 14
ENDMDL
MODEL 2
REMARK VINA RESULT:     -12.8      0.179      1.611
REMARK SMILES CC[C@@H]1SC[C@@H](C(=O)NCCCCNC(=O)c2ccc(-c3c4nc(c(-c5c(F)c(F)c(F)c(F)c5F)c5ccc([nH]5)c(-c5c(F)c(F)c(F)c(F)c5F)c5nc(c(-c6c(F)c(F)c(F)c(F)c6F)c6ccc3[nH]6)C=C5)C=C4)cc2)N1C(=O)NC1C(C)(C)C1(C)C
REMARK SMILES IDX 11 1 10 2 9 3 7 4 8 5 6 7 3 8 4 9 80 10 5 11 2 12 1 13 81 14
REMARK SMILES IDX 82 15 83 16 84 18 85 19 88 20 86 21 87 22 89 23 90 24 12 25
REMARK SMILES IDX 13 26 14 27 15 28 16 30 17 31 18 32 79 33 19 34 78 35 20 36
REMARK SMILES IDX 21 37 22 38 72 39 23 40 77 41 71 42 73 43 24 44 76 45 70 46
REMARK SMILES IDX 69 47 25 49 57 50 37 51 56 52 38 53 41 54 55 55 74 56 39 57
REMARK SMILES IDX 40 58 54 60 75 61 42 62 26 63 27 64 35 65 28 66 29 67 33 68
REMARK SMILES IDX 36 69 30 70 31 71 34 72 32 73 58 74 59 75 67 76 60 77 61 78
REMARK SMILES IDX 65 79 68 80 62 81 63 82 66 83 64 84 43 85 44 86 52 87 45 88
REMARK SMILES IDX 46 89 50 90 53 91 47 92 48 93 51 94 49 95
REMARK H PARENT 9 6 83 17 14 29 73 48 41 59
REMARK Flexibility Score: inf
ROOT
ATOM      1  C   UNL A   1      32.383  30.358  26.773  1.00  0.00     0.023 C 
ENDROOT
BRANCH   1   2
ATOM      2  C   UNL A   1      31.994  29.705  25.445  1.00  0.00     0.116 C 
BRANCH   2   3
ATOM      3  N   UNL A   1      33.124  29.497  24.566  1.00  0.00    -0.354 N 
ATOM      4  C   UNL A   1      33.261  28.821  23.389  1.00  0.00     0.243 C 
ATOM      5  O   UNL A   1      34.249  29.142  22.716  1.00  0.00    -0.273 OA
ATOM      6  H   UNL A   1      33.954  29.925  24.877  1.00  0.00     0.163 HD
BRANCH   4   7
ATOM      7  C   UNL A   1      32.189  27.873  22.781  1.00  0.00     0.187 C 
ATOM      8  C   UNL A   1      31.114  26.099  24.033  1.00  0.00     0.145 C 
ATOM      9  S   UNL A   1      29.721  27.040  23.354  1.00  0.00    -0.134 SA
ATOM     10  N   UNL A   1      32.240  26.427  23.160  1.00  0.00    -0.300 N 
ATOM     11  C   UNL A   1      30.786  28.456  22.999  1.00  0.00     0.107 C 
BRANCH   8  12
ATOM     12  C   UNL A   1      30.773  24.716  24.529  1.00  0.00     0.033 C 
ATOM     13  C   UNL A   1      30.603  24.577  26.038  1.00  0.00     0.007 C 
ENDBRANCH   8  12
BRANCH  10  14
ATOM     14  C   UNL A   1      33.226  25.740  22.509  1.00  0.00     0.319 C 
ATOM     15  O   UNL A   1      33.282  25.779  21.270  1.00  0.00    -0.249 OA
ATOM     16  N   UNL A   1      34.187  24.962  23.038  1.00  0.00    -0.334 N 
ATOM     17  H   UNL A   1      34.753  24.572  22.334  1.00  0.00     0.165 HD
BRANCH  16  18
ATOM     18  C   UNL A   1      34.613  24.545  24.324  1.00  0.00     0.096 C 
ATOM     19  C   UNL A   1      34.296  23.163  24.887  1.00  0.00    -0.007 C 
ATOM     20  C   UNL A   1      35.744  23.545  24.563  1.00  0.00    -0.007 C 
ATOM     21  C   UNL A   1      33.911  23.009  26.342  1.00  0.00     0.014 C 
ATOM     22  C   UNL A   1      33.556  22.175  24.007  1.00  0.00     0.014 C 
ATOM     23  C   UNL A   1      36.464  22.840  23.440  1.00  0.00     0.014 C 
ATOM     24  C   UNL A   1      36.689  23.882  25.709  1.00  0.00     0.014 C 
ENDBRANCH  16  18
ENDBRANCH  10  14
ENDBRANCH   4   7
ENDBRANCH   2   3
ENDBRANCH   1   2
BRANCH   1  25
ATOM     25  C   UNL A   1      31.924  31.807  26.925  1.00  0.00     0.023 C 
BRANCH  25  26
ATOM     26  C   UNL A   1      33.014  32.766  27.393  1.00  0.00     0.116 C 
BRANCH  26  27
ATOM     27  N   UNL A   1      32.533  34.107  27.700  1.00  0.00    -0.352 N 
ATOM     28  C   UNL A   1      33.023  34.984  28.645  1.00  0.00     0.251 C 
ATOM     29  H   UNL A   1      31.767  34.425  27.169  1.00  0.00     0.163 HD
ATOM     30  O   UNL A   1      32.473  36.055  28.853  1.00  0.00    -0.269 OA
BRANCH  28  31
ATOM     31  C   UNL A   1      34.195  34.576  29.447  1.00  0.00     0.039 A 
ATOM     32  C   UNL A   1      33.983  33.988  30.696  1.00  0.00     0.014 A 
ATOM     33  C   UNL A   1      35.487  34.701  28.930  1.00  0.00     0.014 A 
ATOM     34  C   UNL A   1      35.065  33.445  31.391  1.00  0.00     0.010 A 
ATOM     35  C   UNL A   1      36.550  34.095  29.587  1.00  0.00     0.010 A 
ATOM     36  C   UNL A   1      36.349  33.455  30.821  1.00  0.00    -0.014 A 
BRANCH  36  37
ATOM     37  C   UNL A   1      37.492  32.784  31.487  1.00  0.00     0.031 A 
ATOM     38  C   UNL A   1      38.166  31.616  30.829  1.00  0.00     0.074 A 
ATOM     39  C   UNL A   1      37.857  33.167  32.724  1.00  0.00     0.049 A 
ATOM     40  N   UNL A   1      39.129  30.853  31.281  1.00  0.00    -0.248 NA
ATOM     41  C   UNL A   1      37.668  31.229  29.500  1.00  0.00     0.031 C 
ATOM     42  C   UNL A   1      37.225  34.236  33.499  1.00  0.00     0.029 A 
ATOM     43  N   UNL A   1      38.837  32.688  33.557  1.00  0.00    -0.354 N 
ATOM     44  C   UNL A   1      39.332  29.886  30.307  1.00  0.00     0.074 A 
ATOM     45  C   UNL A   1      38.360  30.126  29.263  1.00  0.00     0.031 C 
ATOM     46  C   UNL A   1      37.841  34.341  34.688  1.00  0.00     0.029 A 
ATOM     47  C   UNL A   1      38.892  33.330  34.769  1.00  0.00     0.049 A 
ATOM     48  H   UNL A   1      39.443  31.953  33.309  1.00  0.00     0.167 HD
ATOM     49  C   UNL A   1      40.262  28.900  30.277  1.00  0.00     0.037 A 
ATOM     50  C   UNL A   1      39.697  33.125  35.829  1.00  0.00     0.037 A 
ATOM     51  C   UNL A   1      41.251  28.693  31.299  1.00  0.00     0.049 A 
ATOM     52  C   UNL A   1      40.751  32.056  35.753  1.00  0.00     0.074 A 
ATOM     53  C   UNL A   1      42.301  27.791  31.315  1.00  0.00     0.029 A 
ATOM     54  N   UNL A   1      41.311  29.397  32.493  1.00  0.00    -0.354 N 
ATOM     55  N   UNL A   1      41.001  31.210  34.783  1.00  0.00    -0.248 NA
ATOM     56  C   UNL A   1      41.643  31.921  36.913  1.00  0.00     0.031 C 
ATOM     57  C   UNL A   1      42.969  27.920  32.538  1.00  0.00     0.029 A 
ATOM     58  C   UNL A   1      42.364  28.933  33.265  1.00  0.00     0.049 A 
ATOM     59  H   UNL A   1      40.695  30.121  32.754  1.00  0.00     0.167 HD
ATOM     60  C   UNL A   1      42.087  30.455  35.205  1.00  0.00     0.074 A 
ATOM     61  C   UNL A   1      42.460  30.956  36.513  1.00  0.00     0.031 C 
ATOM     62  C   UNL A   1      42.718  29.440  34.566  1.00  0.00     0.037 A 
BRANCH  49  63
ATOM     63  C   UNL A   1      40.247  27.975  29.095  1.00  0.00     0.064 A 
ATOM     64  C   UNL A   1      39.527  26.770  29.110  1.00  0.00     0.173 A 
ATOM     65  C   UNL A   1      40.950  28.305  27.927  1.00  0.00     0.173 A 
ATOM     66  F   UNL A   1      38.849  26.404  30.207  1.00  0.00    -0.203 F 
ATOM     67  C   UNL A   1      39.543  25.913  28.013  1.00  0.00     0.198 A 
ATOM     68  C   UNL A   1      40.938  27.460  26.821  1.00  0.00     0.198 A 
ATOM     69  F   UNL A   1      41.651  29.447  27.857  1.00  0.00    -0.203 F 
ATOM     70  F   UNL A   1      38.896  24.741  28.072  1.00  0.00    -0.200 F 
ATOM     71  C   UNL A   1      40.244  26.260  26.868  1.00  0.00     0.200 A 
ATOM     72  F   UNL A   1      41.608  27.802  25.711  1.00  0.00    -0.200 F 
ATOM     73  F   UNL A   1      40.257  25.434  25.813  1.00  0.00    -0.200 F 
ENDBRANCH  49  63
BRANCH  50  74
ATOM     74  C   UNL A   1      39.551  33.976  37.037  1.00  0.00     0.064 A 
ATOM     75  C   UNL A   1      40.145  35.245  37.099  1.00  0.00     0.173 A 
ATOM     76  C   UNL A   1      38.799  33.551  38.142  1.00  0.00     0.173 A 
ATOM     77  F   UNL A   1      40.889  35.685  36.075  1.00  0.00    -0.203 F 
ATOM     78  C   UNL A   1      40.001  36.052  38.226  1.00  0.00     0.198 A 
ATOM     79  C   UNL A   1      38.636  34.369  39.257  1.00  0.00     0.198 A 
ATOM     80  F   UNL A   1      38.205  32.349  38.127  1.00  0.00    -0.203 F 
ATOM     81  F   UNL A   1      40.606  37.247  38.272  1.00  0.00    -0.200 F 
ATOM     82  C   UNL A   1      39.241  35.617  39.301  1.00  0.00     0.200 A 
ATOM     83  F   UNL A   1      37.889  33.952  40.288  1.00  0.00    -0.200 F 
ATOM     84  F   UNL A   1      39.095  36.398  40.380  1.00  0.00    -0.200 F 
ENDBRANCH  50  74
BRANCH  62  85
ATOM     85  C   UNL A   1      43.887  28.811  35.264  1.00  0.00     0.064 A 
ATOM     86  C   UNL A   1      45.199  29.255  35.041  1.00  0.00     0.173 A 
ATOM     87  C   UNL A   1      43.689  27.783  36.198  1.00  0.00     0.173 A 
ATOM     88  F   UNL A   1      45.441  30.224  34.145  1.00  0.00    -0.203 F 
ATOM     89  C   UNL A   1      46.272  28.678  35.714  1.00  0.00     0.198 A 
ATOM     90  C   UNL A   1      44.763  27.227  36.888  1.00  0.00     0.198 A 
ATOM     91  F   UNL A   1      42.453  27.328  36.450  1.00  0.00    -0.203 F 
ATOM     92  F   UNL A   1      47.522  29.089  35.455  1.00  0.00    -0.200 F 
ATOM     93  C   UNL A   1      46.053  27.671  36.643  1.00  0.00     0.200 A 
ATOM     94  F   UNL A   1      44.547  26.263  37.794  1.00  0.00    -0.200 F 
ATOM     95  F   UNL A   1      47.087  27.123  37.295  1.00  0.00    -0.200 F 
ENDBRANCH  62  85
ENDBRANCH  36  37
ENDBRANCH  28  31
ENDBRANCH  26  27
ENDBRANCH  25  26
ENDBRANCH   1  25
TORSDOF 14
ENDMDL
MODEL 3
REMARK VINA RESULT:     -12.7      0.544      7.195
REMARK SMILES CC[C@@H]1SC[C@@H](C(=O)NCCCCNC(=O)c2ccc(-c3c4nc(c(-c5c(F)c(F)c(F)c(F)c5F)c5ccc([nH]5)c(-c5c(F)c(F)c(F)c(F)c5F)c5nc(c(-c6c(F)c(F)c(F)c(F)c6F)c6ccc3[nH]6)C=C5)C=C4)cc2)N1C(=O)NC1C(C)(C)C1(C)C
REMARK SMILES IDX 11 1 10 2 9 3 7 4 8 5 6 7 3 8 4 9 80 10 5 11 2 12 1 13 81 14
REMARK SMILES IDX 82 15 83 16 84 18 85 19 88 20 86 21 87 22 89 23 90 24 12 25
REMARK SMILES IDX 13 26 14 27 15 28 16 30 17 31 18 32 79 33 19 34 78 35 20 36
REMARK SMILES IDX 21 37 22 38 72 39 23 40 77 41 71 42 73 43 24 44 76 45 70 46
REMARK SMILES IDX 69 47 25 49 57 50 37 51 56 52 38 53 41 54 55 55 74 56 39 57
REMARK SMILES IDX 40 58 54 60 75 61 42 62 26 63 27 64 35 65 28 66 29 67 33 68
REMARK SMILES IDX 36 69 30 70 31 71 34 72 32 73 58 74 59 75 67 76 60 77 61 78
REMARK SMILES IDX 65 79 68 80 62 81 63 82 66 83 64 84 43 85 44 86 52 87 45 88
REMARK SMILES IDX 46 89 50 90 53 91 47 92 48 93 51 94 49 95
REMARK H PARENT 9 6 83 17 14 29 73 48 41 59
REMARK Flexibility Score: inf
ROOT
ATOM      1  C   UNL A   1      32.147  30.476  26.763  1.00  0.00     0.023 C 
ENDROOT
BRANCH   1   2
ATOM      2  C   UNL A   1      31.839  29.865  25.395  1.00  0.00     0.116 C 
BRANCH   2   3
ATOM      3  N   UNL A   1      33.024  29.640  24.597  1.00  0.00    -0.354 N 
ATOM      4  C   UNL A   1      33.240  28.927  23.453  1.00  0.00     0.243 C 
ATOM      5  O   UNL A   1      34.267  29.236  22.834  1.00  0.00    -0.273 OA
ATOM      6  H   UNL A   1      33.829  30.086  24.946  1.00  0.00     0.163 HD
BRANCH   4   7
ATOM      7  C   UNL A   1      32.217  27.949  22.810  1.00  0.00     0.187 C 
ATOM      8  C   UNL A   1      31.173  26.128  24.020  1.00  0.00     0.145 C 
ATOM      9  S   UNL A   1      29.766  27.028  23.314  1.00  0.00    -0.134 SA
ATOM     10  N   UNL A   1      32.308  26.502  23.179  1.00  0.00    -0.300 N 
ATOM     11  C   UNL A   1      30.790  28.482  22.998  1.00  0.00     0.107 C 
BRANCH   8  12
ATOM     12  C   UNL A   1      30.867  24.730  24.495  1.00  0.00     0.033 C 
ATOM     13  C   UNL A   1      30.549  23.714  23.403  1.00  0.00     0.007 C 
ENDBRANCH   8  12
BRANCH  10  14
ATOM     14  C   UNL A   1      33.333  25.856  22.547  1.00  0.00     0.319 C 
ATOM     15  O   UNL A   1      33.461  25.968  21.317  1.00  0.00    -0.249 OA
ATOM     16  N   UNL A   1      34.264  25.048  23.084  1.00  0.00    -0.334 N 
ATOM     17  H   UNL A   1      34.872  24.700  22.392  1.00  0.00     0.165 HD
BRANCH  16  18
ATOM     18  C   UNL A   1      34.616  24.555  24.366  1.00  0.00     0.096 C 
ATOM     19  C   UNL A   1      34.330  23.122  24.802  1.00  0.00    -0.007 C 
ATOM     20  C   UNL A   1      35.776  23.592  24.618  1.00  0.00    -0.007 C 
ATOM     21  C   UNL A   1      33.848  22.841  26.209  1.00  0.00     0.014 C 
ATOM     22  C   UNL A   1      33.707  22.169  23.800  1.00  0.00     0.014 C 
ATOM     23  C   UNL A   1      36.612  23.008  23.506  1.00  0.00     0.014 C 
ATOM     24  C   UNL A   1      36.617  23.886  25.855  1.00  0.00     0.014 C 
ENDBRANCH  16  18
ENDBRANCH  10  14
ENDBRANCH   4   7
ENDBRANCH   2   3
ENDBRANCH   1   2
BRANCH   1  25
ATOM     25  C   UNL A   1      31.761  31.947  26.902  1.00  0.00     0.023 C 
BRANCH  25  26
ATOM     26  C   UNL A   1      32.913  32.865  27.300  1.00  0.00     0.116 C 
BRANCH  26  27
ATOM     27  N   UNL A   1      32.496  34.204  27.694  1.00  0.00    -0.352 N 
ATOM     28  C   UNL A   1      33.035  35.000  28.682  1.00  0.00     0.251 C 
ATOM     29  H   UNL A   1      31.740  34.588  27.193  1.00  0.00     0.163 HD
ATOM     30  O   UNL A   1      32.536  36.080  28.962  1.00  0.00    -0.269 OA
BRANCH  28  31
ATOM     31  C   UNL A   1      34.196  34.493  29.443  1.00  0.00     0.039 A 
ATOM     32  C   UNL A   1      33.972  33.844  30.659  1.00  0.00     0.014 A 
ATOM     33  C   UNL A   1      35.486  34.589  28.916  1.00  0.00     0.014 A 
ATOM     34  C   UNL A   1      35.035  33.213  31.306  1.00  0.00     0.010 A 
ATOM     35  C   UNL A   1      36.527  33.897  29.521  1.00  0.00     0.010 A 
ATOM     36  C   UNL A   1      36.311  33.196  30.719  1.00  0.00    -0.014 A 
BRANCH  36  37
ATOM     37  C   UNL A   1      37.429  32.437  31.329  1.00  0.00     0.031 A 
ATOM     38  C   UNL A   1      37.943  32.815  32.687  1.00  0.00     0.074 A 
ATOM     39  C   UNL A   1      38.042  31.471  30.618  1.00  0.00     0.049 A 
ATOM     40  N   UNL A   1      38.955  32.323  33.356  1.00  0.00    -0.248 NA
ATOM     41  C   UNL A   1      37.250  33.917  33.371  1.00  0.00     0.031 C 
ATOM     42  C   UNL A   1      37.686  31.069  29.257  1.00  0.00     0.029 A 
ATOM     43  N   UNL A   1      39.107  30.665  30.935  1.00  0.00    -0.354 N 
ATOM     44  C   UNL A   1      39.035  33.070  34.523  1.00  0.00     0.074 A 
ATOM     45  C   UNL A   1      38.002  34.081  34.449  1.00  0.00     0.031 C 
ATOM     46  C   UNL A   1      38.508  30.084  28.860  1.00  0.00     0.029 A 
ATOM     47  C   UNL A   1      39.464  29.804  29.927  1.00  0.00     0.049 A 
ATOM     48  H   UNL A   1      39.571  30.702  31.802  1.00  0.00     0.167 HD
ATOM     49  C   UNL A   1      39.879  32.912  35.571  1.00  0.00     0.037 A 
ATOM     50  C   UNL A   1      40.454  28.894  29.868  1.00  0.00     0.037 A 
ATOM     51  C   UNL A   1      40.876  31.879  35.655  1.00  0.00     0.049 A 
ATOM     52  C   UNL A   1      41.349  28.705  31.062  1.00  0.00     0.074 A 
ATOM     53  C   UNL A   1      41.710  31.569  36.715  1.00  0.00     0.029 A 
ATOM     54  N   UNL A   1      41.177  30.989  34.635  1.00  0.00    -0.354 N 
ATOM     55  N   UNL A   1      41.351  29.351  32.202  1.00  0.00    -0.248 NA
ATOM     56  C   UNL A   1      42.370  27.653  30.966  1.00  0.00     0.031 C 
ATOM     57  C   UNL A   1      42.546  30.519  36.319  1.00  0.00     0.029 A 
ATOM     58  C   UNL A   1      42.202  30.145  35.030  1.00  0.00     0.049 A 
ATOM     59  H   UNL A   1      40.728  30.961  33.758  1.00  0.00     0.167 HD
ATOM     60  C   UNL A   1      42.357  28.776  32.966  1.00  0.00     0.074 A 
ATOM     61  C   UNL A   1      42.933  27.714  32.165  1.00  0.00     0.031 C 
ATOM     62  C   UNL A   1      42.766  29.096  34.218  1.00  0.00     0.037 A 
BRANCH  49  63
ATOM     63  C   UNL A   1      39.753  33.882  36.709  1.00  0.00     0.064 A 
ATOM     64  C   UNL A   1      40.415  35.120  36.700  1.00  0.00     0.173 A 
ATOM     65  C   UNL A   1      38.948  33.577  37.816  1.00  0.00     0.173 A 
ATOM     66  F   UNL A   1      41.206  35.454  35.671  1.00  0.00    -0.203 F 
ATOM     67  C   UNL A   1      40.305  35.998  37.775  1.00  0.00     0.198 A 
ATOM     68  C   UNL A   1      38.816  34.471  38.875  1.00  0.00     0.198 A 
ATOM     69  F   UNL A   1      38.290  32.409  37.873  1.00  0.00    -0.203 F 
ATOM     70  F   UNL A   1      40.993  37.148  37.771  1.00  0.00    -0.200 F 
ATOM     71  C   UNL A   1      39.503  35.676  38.859  1.00  0.00     0.200 A 
ATOM     72  F   UNL A   1      38.032  34.162  39.917  1.00  0.00    -0.200 F 
ATOM     73  F   UNL A   1      39.398  36.523  39.892  1.00  0.00    -0.200 F 
ENDBRANCH  49  63
BRANCH  50  74
ATOM     74  C   UNL A   1      40.626  28.073  28.643  1.00  0.00     0.064 A 
ATOM     75  C   UNL A   1      39.976  26.838  28.508  1.00  0.00     0.173 A 
ATOM     76  C   UNL A   1      41.420  28.514  27.574  1.00  0.00     0.173 A 
ATOM     77  F   UNL A   1      39.222  26.367  29.511  1.00  0.00    -0.203 F 
ATOM     78  C   UNL A   1      40.123  26.069  27.355  1.00  0.00     0.198 A 
ATOM     79  C   UNL A   1      41.547  27.757  26.413  1.00  0.00     0.198 A 
ATOM     80  F   UNL A   1      42.055  29.693  27.652  1.00  0.00    -0.203 F 
ATOM     81  F   UNL A   1      39.517  24.878  27.265  1.00  0.00    -0.200 F 
ATOM     82  C   UNL A   1      40.903  26.532  26.306  1.00  0.00     0.200 A 
ATOM     83  F   UNL A   1      42.289  28.214  25.395  1.00  0.00    -0.200 F 
ATOM     84  F   UNL A   1      41.036  25.797  25.193  1.00  0.00    -0.200 F 
ENDBRANCH  50  74
BRANCH  62  85
ATOM     85  C   UNL A   1      43.879  28.282  34.807  1.00  0.00     0.064 A 
ATOM     86  C   UNL A   1      45.219  28.676  34.684  1.00  0.00     0.173 A 
ATOM     87  C   UNL A   1      43.599  27.118  35.539  1.00  0.00     0.173 A 
ATOM     88  F   UNL A   1      45.539  29.772  33.980  1.00  0.00    -0.203 F 
ATOM     89  C   UNL A   1      46.241  27.923  35.257  1.00  0.00     0.198 A 
ATOM     90  C   UNL A   1      44.621  26.383  36.133  1.00  0.00     0.198 A 
ATOM     91  F   UNL A   1      42.333  26.703  35.689  1.00  0.00    -0.203 F 
ATOM     92  F   UNL A   1      47.518  28.296  35.093  1.00  0.00    -0.200 F 
ATOM     93  C   UNL A   1      45.940  26.783  35.988  1.00  0.00     0.200 A 
ATOM     94  F   UNL A   1      44.327  25.289  36.849  1.00  0.00    -0.200 F 
ATOM     95  F   UNL A   1      46.924  26.064  36.545  1.00  0.00    -0.200 F 
ENDBRANCH  62  85
ENDBRANCH  36  37
ENDBRANCH  28  31
ENDBRANCH  26  27
ENDBRANCH  25  26
ENDBRANCH   1  25
TORSDOF 14
ENDMDL
