MODEL 1
REMARK VINA RESULT:     -12.4      0.000      0.000
REMARK SMILES CCc1cc(Nc2ccc(C(=O)NCCCCNC(=O)c3ccc(-c4c5nc(c(-c6c(F)c(F)c(F)c(F)c6F)c6ccc([nH]6)c(-c6c(F)c(F)c(F)c(F)c6F)c6nc(c(-c7c(F)c(F)c(F)c(F)c7F)c7ccc4[nH]7)C=C6)C=C5)cc3)cc2)nc(C(C)C)n1
REMARK SMILES IDX 15 1 14 2 13 3 11 4 12 5 10 7 7 8 8 9 85 10 9 11 84 12 6 13
REMARK SMILES IDX 5 15 3 16 4 17 91 18 87 19 86 20 2 21 1 22 88 23 89 24 90 25
REMARK SMILES IDX 16 26 17 27 18 28 19 29 20 31 21 32 22 33 83 34 23 35 82 36
REMARK SMILES IDX 24 37 25 38 26 39 76 40 27 41 81 42 75 43 77 44 28 45 80 46
REMARK SMILES IDX 74 47 73 48 29 50 61 51 41 52 60 53 42 54 45 55 59 56 78 57
REMARK SMILES IDX 43 58 44 59 58 61 79 62 46 63 30 64 31 65 39 66 32 67 33 68
REMARK SMILES IDX 37 69 40 70 34 71 35 72 38 73 36 74 62 75 63 76 71 77 64 78
REMARK SMILES IDX 65 79 69 80 72 81 66 82 67 83 70 84 68 85 47 86 48 87 56 88
REMARK SMILES IDX 49 89 50 90 54 91 57 92 51 93 52 94 55 95 53 96
REMARK H PARENT 13 6 6 14 18 30 77 49 45 60
REMARK Flexibility Score: inf
ROOT
ATOM      1  C   UNL A   1      35.012  22.148  26.071  1.00  0.00     0.023 C 
ENDROOT
BRANCH   1   2
ATOM      2  C   UNL A   1      33.493  21.957  26.081  1.00  0.00     0.116 C 
BRANCH   2   3
ATOM      3  N   UNL A   1      33.084  21.162  24.941  1.00  0.00    -0.352 N 
ATOM      4  C   UNL A   1      32.545  21.510  23.728  1.00  0.00     0.251 C 
ATOM      5  O   UNL A   1      32.270  20.597  22.948  1.00  0.00    -0.269 OA
ATOM      6  H   UNL A   1      33.218  20.193  25.058  1.00  0.00     0.163 HD
BRANCH   4   7
ATOM      7  C   UNL A   1      32.344  22.922  23.297  1.00  0.00     0.039 A 
ATOM      8  C   UNL A   1      31.734  25.528  22.392  1.00  0.00     0.040 A 
ATOM      9  C   UNL A   1      30.790  24.791  23.110  1.00  0.00     0.027 A 
ATOM     10  C   UNL A   1      32.994  24.971  22.176  1.00  0.00     0.027 A 
ATOM     11  C   UNL A   1      31.088  23.494  23.547  1.00  0.00     0.016 A 
ATOM     12  C   UNL A   1      33.313  23.706  22.669  1.00  0.00     0.016 A 
BRANCH   8  13
ATOM     13  N   UNL A   1      31.424  26.795  21.889  1.00  0.00    -0.340 N 
ATOM     14  H   UNL A   1      31.582  26.932  20.926  1.00  0.00     0.168 HD
BRANCH  13  15
ATOM     15  C   UNL A   1      30.914  27.897  22.597  1.00  0.00     0.134 A 
ATOM     16  C   UNL A   1      31.083  29.422  24.392  1.00  0.00     0.046 A 
ATOM     17  C   UNL A   1      31.577  28.313  23.734  1.00  0.00     0.071 A 
ATOM     18  N   UNL A   1      29.969  30.057  23.980  1.00  0.00    -0.238 NA
ATOM     19  C   UNL A   1      29.363  29.578  22.877  1.00  0.00     0.133 A 
ATOM     20  N   UNL A   1      29.812  28.533  22.158  1.00  0.00    -0.216 NA
BRANCH  16  21
ATOM     21  C   UNL A   1      31.743  29.944  25.643  1.00  0.00     0.053 C 
ATOM     22  C   UNL A   1      32.213  28.845  26.587  1.00  0.00     0.011 C 
ENDBRANCH  16  21
BRANCH  19  23
ATOM     23  C   UNL A   1      28.054  30.204  22.446  1.00  0.00     0.051 C 
ATOM     24  C   UNL A   1      27.568  31.212  23.490  1.00  0.00     0.016 C 
ATOM     25  C   UNL A   1      28.169  30.856  21.070  1.00  0.00     0.016 C 
ENDBRANCH  19  23
ENDBRANCH  13  15
ENDBRANCH   8  13
ENDBRANCH   4   7
ENDBRANCH   2   3
ENDBRANCH   1   2
BRANCH   1  26
ATOM     26  C   UNL A   1      35.448  23.601  25.863  1.00  0.00     0.023 C 
BRANCH  26  27
ATOM     27  C   UNL A   1      36.797  23.762  25.173  1.00  0.00     0.116 C 
BRANCH  27  28
ATOM     28  N   UNL A   1      37.742  22.716  25.523  1.00  0.00    -0.352 N 
ATOM     29  C   UNL A   1      38.934  22.825  26.196  1.00  0.00     0.251 C 
ATOM     30  H   UNL A   1      37.495  21.806  25.240  1.00  0.00     0.163 HD
ATOM     31  O   UNL A   1      39.680  21.861  26.296  1.00  0.00    -0.269 OA
BRANCH  29  32
ATOM     32  C   UNL A   1      39.324  24.130  26.771  1.00  0.00     0.039 A 
ATOM     33  C   UNL A   1      38.947  24.420  28.083  1.00  0.00     0.014 A 
ATOM     34  C   UNL A   1      40.056  25.056  26.024  1.00  0.00     0.014 A 
ATOM     35  C   UNL A   1      39.340  25.627  28.659  1.00  0.00     0.010 A 
ATOM     36  C   UNL A   1      40.522  26.218  26.627  1.00  0.00     0.010 A 
ATOM     37  C   UNL A   1      40.149  26.525  27.944  1.00  0.00    -0.014 A 
BRANCH  37  38
ATOM     38  C   UNL A   1      40.586  27.804  28.556  1.00  0.00     0.031 A 
ATOM     39  C   UNL A   1      42.017  27.992  28.975  1.00  0.00     0.074 A 
ATOM     40  C   UNL A   1      39.684  28.779  28.774  1.00  0.00     0.049 A 
ATOM     41  N   UNL A   1      42.590  29.033  29.526  1.00  0.00    -0.248 NA
ATOM     42  C   UNL A   1      42.918  26.845  28.780  1.00  0.00     0.031 C 
ATOM     43  C   UNL A   1      38.253  28.686  28.478  1.00  0.00     0.029 A 
ATOM     44  N   UNL A   1      39.834  30.037  29.300  1.00  0.00    -0.354 N 
ATOM     45  C   UNL A   1      43.908  28.661  29.753  1.00  0.00     0.074 A 
ATOM     46  C   UNL A   1      44.033  27.278  29.347  1.00  0.00     0.031 C 
ATOM     47  C   UNL A   1      37.662  29.846  28.804  1.00  0.00     0.029 A 
ATOM     48  C   UNL A   1      38.664  30.750  29.360  1.00  0.00     0.049 A 
ATOM     49  H   UNL A   1      40.700  30.392  29.605  1.00  0.00     0.167 HD
ATOM     50  C   UNL A   1      44.930  29.413  30.229  1.00  0.00     0.037 A 
ATOM     51  C   UNL A   1      38.426  31.994  29.816  1.00  0.00     0.037 A 
ATOM     52  C   UNL A   1      44.798  30.793  30.615  1.00  0.00     0.049 A 
ATOM     53  C   UNL A   1      39.576  32.821  30.321  1.00  0.00     0.074 A 
ATOM     54  C   UNL A   1      45.781  31.668  31.041  1.00  0.00     0.029 A 
ATOM     55  N   UNL A   1      43.601  31.497  30.633  1.00  0.00    -0.354 N 
ATOM     56  N   UNL A   1      40.841  32.494  30.441  1.00  0.00    -0.248 NA
ATOM     57  C   UNL A   1      39.271  34.196  30.735  1.00  0.00     0.031 C 
ATOM     58  C   UNL A   1      45.171  32.882  31.377  1.00  0.00     0.029 A 
ATOM     59  C   UNL A   1      43.816  32.786  31.094  1.00  0.00     0.049 A 
ATOM     60  H   UNL A   1      42.728  31.133  30.361  1.00  0.00     0.167 HD
ATOM     61  C   UNL A   1      41.485  33.626  30.922  1.00  0.00     0.074 A 
ATOM     62  C   UNL A   1      40.473  34.655  31.051  1.00  0.00     0.031 C 
ATOM     63  C   UNL A   1      42.796  33.798  31.226  1.00  0.00     0.037 A 
BRANCH  50  64
ATOM     64  C   UNL A   1      46.271  28.747  30.366  1.00  0.00     0.064 A 
ATOM     65  C   UNL A   1      47.203  28.731  29.317  1.00  0.00     0.173 A 
ATOM     66  C   UNL A   1      46.630  28.113  31.567  1.00  0.00     0.173 A 
ATOM     67  F   UNL A   1      46.911  29.312  28.144  1.00  0.00    -0.203 F 
ATOM     68  C   UNL A   1      48.420  28.064  29.446  1.00  0.00     0.198 A 
ATOM     69  C   UNL A   1      47.863  27.481  31.705  1.00  0.00     0.198 A 
ATOM     70  F   UNL A   1      45.783  28.102  32.606  1.00  0.00    -0.203 F 
ATOM     71  F   UNL A   1      49.260  28.000  28.403  1.00  0.00    -0.200 F 
ATOM     72  C   UNL A   1      48.751  27.444  30.639  1.00  0.00     0.200 A 
ATOM     73  F   UNL A   1      48.188  26.896  32.866  1.00  0.00    -0.200 F 
ATOM     74  F   UNL A   1      49.920  26.802  30.762  1.00  0.00    -0.200 F 
ENDBRANCH  50  64
BRANCH  51  75
ATOM     75  C   UNL A   1      37.041  32.532  29.785  1.00  0.00     0.064 A 
ATOM     76  C   UNL A   1      36.167  32.353  30.866  1.00  0.00     0.173 A 
ATOM     77  C   UNL A   1      36.572  33.262  28.683  1.00  0.00     0.173 A 
ATOM     78  F   UNL A   1      36.561  31.648  31.937  1.00  0.00    -0.203 F 
ATOM     79  C   UNL A   1      34.873  32.869  30.839  1.00  0.00     0.198 A 
ATOM     80  C   UNL A   1      35.290  33.804  28.670  1.00  0.00     0.198 A 
ATOM     81  F   UNL A   1      37.372  33.470  27.627  1.00  0.00    -0.203 F 
ATOM     82  F   UNL A   1      34.045  32.651  31.870  1.00  0.00    -0.200 F 
ATOM     83  C   UNL A   1      34.439  33.603  29.744  1.00  0.00     0.200 A 
ATOM     84  F   UNL A   1      34.881  34.528  27.618  1.00  0.00    -0.200 F 
ATOM     85  F   UNL A   1      33.199  34.111  29.725  1.00  0.00    -0.200 F 
ENDBRANCH  51  75
BRANCH  63  86
ATOM     86  C   UNL A   1      43.217  35.159  31.703  1.00  0.00     0.064 A 
ATOM     87  C   UNL A   1      43.721  36.130  30.823  1.00  0.00     0.173 A 
ATOM     88  C   UNL A   1      43.091  35.507  33.057  1.00  0.00     0.173 A 
ATOM     89  F   UNL A   1      43.875  35.847  29.521  1.00  0.00    -0.203 F 
ATOM     90  C   UNL A   1      44.115  37.383  31.287  1.00  0.00     0.198 A 
ATOM     91  C   UNL A   1      43.451  36.773  33.511  1.00  0.00     0.198 A 
ATOM     92  F   UNL A   1      42.607  34.620  33.940  1.00  0.00    -0.203 F 
ATOM     93  F   UNL A   1      44.650  38.271  30.438  1.00  0.00    -0.200 F 
ATOM     94  C   UNL A   1      43.973  37.705  32.629  1.00  0.00     0.200 A 
ATOM     95  F   UNL A   1      43.297  37.087  34.804  1.00  0.00    -0.200 F 
ATOM     96  F   UNL A   1      44.349  38.912  33.073  1.00  0.00    -0.200 F 
ENDBRANCH  63  86
ENDBRANCH  37  38
ENDBRANCH  29  32
ENDBRANCH  27  28
ENDBRANCH  26  27
ENDBRANCH   1  26
TORSDOF 15
ENDMDL
MODEL 2
REMARK VINA RESULT:     -12.3      3.087      8.442
REMARK SMILES CCc1cc(Nc2ccc(C(=O)NCCCCNC(=O)c3ccc(-c4c5nc(c(-c6c(F)c(F)c(F)c(F)c6F)c6ccc([nH]6)c(-c6c(F)c(F)c(F)c(F)c6F)c6nc(c(-c7c(F)c(F)c(F)c(F)c7F)c7ccc4[nH]7)C=C6)C=C5)cc3)cc2)nc(C(C)C)n1
REMARK SMILES IDX 15 1 14 2 13 3 11 4 12 5 10 7 7 8 8 9 85 10 9 11 84 12 6 13
REMARK SMILES IDX 5 15 3 16 4 17 91 18 87 19 86 20 2 21 1 22 88 23 89 24 90 25
REMARK SMILES IDX 16 26 17 27 18 28 19 29 20 31 21 32 22 33 83 34 23 35 82 36
REMARK SMILES IDX 24 37 25 38 26 39 76 40 27 41 81 42 75 43 77 44 28 45 80 46
REMARK SMILES IDX 74 47 73 48 29 50 61 51 41 52 60 53 42 54 45 55 59 56 78 57
REMARK SMILES IDX 43 58 44 59 58 61 79 62 46 63 30 64 31 65 39 66 32 67 33 68
REMARK SMILES IDX 37 69 40 70 34 71 35 72 38 73 36 74 62 75 63 76 71 77 64 78
REMARK SMILES IDX 65 79 69 80 72 81 66 82 67 83 70 84 68 85 47 86 48 87 56 88
REMARK SMILES IDX 49 89 50 90 54 91 57 92 51 93 52 94 55 95 53 96
REMARK H PARENT 13 6 6 14 18 30 77 49 45 60
REMARK Flexibility Score: inf
ROOT
ATOM      1  C   UNL A   1      37.253  20.993  24.621  1.00  0.00     0.023 C 
ENDROOT
BRANCH   1   2
ATOM      2  C   UNL A   1      35.936  21.065  25.398  1.00  0.00     0.116 C 
BRANCH   2   3
ATOM      3  N   UNL A   1      35.064  19.977  25.003  1.00  0.00    -0.352 N 
ATOM      4  C   UNL A   1      33.751  19.954  24.607  1.00  0.00     0.251 C 
ATOM      5  O   UNL A   1      33.257  18.855  24.349  1.00  0.00    -0.269 OA
ATOM      6  H   UNL A   1      35.494  19.092  25.023  1.00  0.00     0.163 HD
BRANCH   4   7
ATOM      7  C   UNL A   1      32.932  21.184  24.414  1.00  0.00     0.039 A 
ATOM      8  C   UNL A   1      31.180  23.383  24.136  1.00  0.00     0.040 A 
ATOM      9  C   UNL A   1      31.176  22.620  25.306  1.00  0.00     0.027 A 
ATOM     10  C   UNL A   1      32.098  23.067  23.135  1.00  0.00     0.027 A 
ATOM     11  C   UNL A   1      32.035  21.522  25.438  1.00  0.00     0.016 A 
ATOM     12  C   UNL A   1      32.999  22.014  23.294  1.00  0.00     0.016 A 
BRANCH   8  13
ATOM     13  N   UNL A   1      30.279  24.437  23.963  1.00  0.00    -0.340 N 
ATOM     14  H   UNL A   1      29.360  24.188  23.711  1.00  0.00     0.168 HD
BRANCH  13  15
ATOM     15  C   UNL A   1      30.532  25.813  24.107  1.00  0.00     0.134 A 
ATOM     16  C   UNL A   1      30.197  28.034  23.379  1.00  0.00     0.046 A 
ATOM     17  C   UNL A   1      29.970  26.684  23.197  1.00  0.00     0.071 A 
ATOM     18  N   UNL A   1      30.975  28.497  24.377  1.00  0.00    -0.238 NA
ATOM     19  C   UNL A   1      31.509  27.584  25.210  1.00  0.00     0.133 A 
ATOM     20  N   UNL A   1      31.294  26.259  25.123  1.00  0.00    -0.216 NA
BRANCH  16  21
ATOM     21  C   UNL A   1      29.623  29.057  22.431  1.00  0.00     0.053 C 
ATOM     22  C   UNL A   1      29.129  30.320  23.125  1.00  0.00     0.011 C 
ENDBRANCH  16  21
BRANCH  19  23
ATOM     23  C   UNL A   1      32.469  28.061  26.280  1.00  0.00     0.051 C 
ATOM     24  C   UNL A   1      33.157  29.358  25.848  1.00  0.00     0.016 C 
ATOM     25  C   UNL A   1      31.770  28.235  27.626  1.00  0.00     0.016 C 
ENDBRANCH  19  23
ENDBRANCH  13  15
ENDBRANCH   8  13
ENDBRANCH   4   7
ENDBRANCH   2   3
ENDBRANCH   1   2
BRANCH   1  26
ATOM     26  C   UNL A   1      38.119  19.785  24.988  1.00  0.00     0.023 C 
BRANCH  26  27
ATOM     27  C   UNL A   1      39.211  20.080  26.009  1.00  0.00     0.116 C 
BRANCH  27  28
ATOM     28  N   UNL A   1      40.272  19.088  26.007  1.00  0.00    -0.352 N 
ATOM     29  C   UNL A   1      41.627  19.279  26.122  1.00  0.00     0.251 C 
ATOM     30  H   UNL A   1      39.981  18.152  25.911  1.00  0.00     0.163 HD
ATOM     31  O   UNL A   1      42.400  18.344  25.969  1.00  0.00    -0.269 OA
BRANCH  29  32
ATOM     32  C   UNL A   1      42.146  20.635  26.399  1.00  0.00     0.039 A 
ATOM     33  C   UNL A   1      42.355  21.502  25.325  1.00  0.00     0.014 A 
ATOM     34  C   UNL A   1      42.419  21.048  27.705  1.00  0.00     0.014 A 
ATOM     35  C   UNL A   1      42.804  22.799  25.567  1.00  0.00     0.010 A 
ATOM     36  C   UNL A   1      42.781  22.367  27.952  1.00  0.00     0.010 A 
ATOM     37  C   UNL A   1      42.998  23.249  26.884  1.00  0.00    -0.014 A 
BRANCH  37  38
ATOM     38  C   UNL A   1      43.459  24.634  27.150  1.00  0.00     0.031 A 
ATOM     39  C   UNL A   1      42.491  25.668  27.655  1.00  0.00     0.074 A 
ATOM     40  C   UNL A   1      44.737  24.970  26.898  1.00  0.00     0.049 A 
ATOM     41  N   UNL A   1      42.702  26.928  27.946  1.00  0.00    -0.248 NA
ATOM     42  C   UNL A   1      41.094  25.240  27.822  1.00  0.00     0.031 C 
ATOM     43  C   UNL A   1      45.750  24.073  26.339  1.00  0.00     0.029 A 
ATOM     44  N   UNL A   1      45.402  26.156  27.073  1.00  0.00    -0.354 N 
ATOM     45  C   UNL A   1      41.465  27.440  28.316  1.00  0.00     0.074 A 
ATOM     46  C   UNL A   1      40.499  26.377  28.144  1.00  0.00     0.031 C 
ATOM     47  C   UNL A   1      46.914  24.734  26.240  1.00  0.00     0.029 A 
ATOM     48  C   UNL A   1      46.721  26.107  26.697  1.00  0.00     0.049 A 
ATOM     49  H   UNL A   1      44.973  26.966  27.433  1.00  0.00     0.167 HD
ATOM     50  C   UNL A   1      41.167  28.676  28.784  1.00  0.00     0.037 A 
ATOM     51  C   UNL A   1      47.668  27.064  26.716  1.00  0.00     0.037 A 
ATOM     52  C   UNL A   1      42.139  29.721  28.965  1.00  0.00     0.049 A 
ATOM     53  C   UNL A   1      47.323  28.423  27.260  1.00  0.00     0.074 A 
ATOM     54  C   UNL A   1      41.959  30.985  29.500  1.00  0.00     0.029 A 
ATOM     55  N   UNL A   1      43.476  29.627  28.604  1.00  0.00    -0.354 N 
ATOM     56  N   UNL A   1      46.171  28.871  27.700  1.00  0.00    -0.248 NA
ATOM     57  C   UNL A   1      48.413  29.404  27.327  1.00  0.00     0.031 C 
ATOM     58  C   UNL A   1      43.172  31.677  29.404  1.00  0.00     0.029 A 
ATOM     59  C   UNL A   1      44.127  30.821  28.873  1.00  0.00     0.049 A 
ATOM     60  H   UNL A   1      43.900  28.830  28.211  1.00  0.00     0.167 HD
ATOM     61  C   UNL A   1      46.402  30.175  28.118  1.00  0.00     0.074 A 
ATOM     62  C   UNL A   1      47.810  30.438  27.896  1.00  0.00     0.031 C 
ATOM     63  C   UNL A   1      45.528  31.072  28.639  1.00  0.00     0.037 A 
BRANCH  50  64
ATOM     64  C   UNL A   1      39.728  28.959  29.118  1.00  0.00     0.064 A 
ATOM     65  C   UNL A   1      39.220  28.788  30.416  1.00  0.00     0.173 A 
ATOM     66  C   UNL A   1      38.842  29.405  28.124  1.00  0.00     0.173 A 
ATOM     67  F   UNL A   1      40.018  28.355  31.403  1.00  0.00    -0.203 F 
ATOM     68  C   UNL A   1      37.873  29.006  30.694  1.00  0.00     0.198 A 
ATOM     69  C   UNL A   1      37.505  29.659  28.416  1.00  0.00     0.198 A 
ATOM     70  F   UNL A   1      39.273  29.593  26.868  1.00  0.00    -0.203 F 
ATOM     71  F   UNL A   1      37.397  28.764  31.924  1.00  0.00    -0.200 F 
ATOM     72  C   UNL A   1      37.017  29.445  29.697  1.00  0.00     0.200 A 
ATOM     73  F   UNL A   1      36.683  30.099  27.453  1.00  0.00    -0.200 F 
ATOM     74  F   UNL A   1      35.721  29.652  29.965  1.00  0.00    -0.200 F 
ENDBRANCH  50  64
BRANCH  51  75
ATOM     75  C   UNL A   1      49.036  26.749  26.228  1.00  0.00     0.064 A 
ATOM     76  C   UNL A   1      49.393  26.949  24.888  1.00  0.00     0.173 A 
ATOM     77  C   UNL A   1      50.023  26.268  27.101  1.00  0.00     0.173 A 
ATOM     78  F   UNL A   1      48.481  27.391  24.010  1.00  0.00    -0.203 F 
ATOM     79  C   UNL A   1      50.681  26.665  24.436  1.00  0.00     0.198 A 
ATOM     80  C   UNL A   1      51.317  26.014  26.655  1.00  0.00     0.198 A 
ATOM     81  F   UNL A   1      49.734  26.069  28.395  1.00  0.00    -0.203 F 
ATOM     82  F   UNL A   1      50.986  26.829  23.142  1.00  0.00    -0.200 F 
ATOM     83  C   UNL A   1      51.644  26.207  25.323  1.00  0.00     0.200 A 
ATOM     84  F   UNL A   1      52.250  25.589  27.520  1.00  0.00    -0.200 F 
ATOM     85  F   UNL A   1      52.886  25.947  24.891  1.00  0.00    -0.200 F 
ENDBRANCH  51  75
BRANCH  63  86
ATOM     86  C   UNL A   1      46.075  32.415  29.033  1.00  0.00     0.064 A 
ATOM     87  C   UNL A   1      46.125  33.488  28.131  1.00  0.00     0.173 A 
ATOM     88  C   UNL A   1      46.533  32.638  30.341  1.00  0.00     0.173 A 
ATOM     89  F   UNL A   1      45.712  33.327  26.865  1.00  0.00    -0.203 F 
ATOM     90  C   UNL A   1      46.645  34.723  28.513  1.00  0.00     0.198 A 
ATOM     91  C   UNL A   1      47.018  33.883  30.730  1.00  0.00     0.198 A 
ATOM     92  F   UNL A   1      46.500  31.649  31.247  1.00  0.00    -0.203 F 
ATOM     93  F   UNL A   1      46.739  35.714  27.617  1.00  0.00    -0.200 F 
ATOM     94  C   UNL A   1      47.085  34.921  29.814  1.00  0.00     0.200 A 
ATOM     95  F   UNL A   1      47.425  34.077  31.992  1.00  0.00    -0.200 F 
ATOM     96  F   UNL A   1      47.581  36.110  30.182  1.00  0.00    -0.200 F 
ENDBRANCH  63  86
ENDBRANCH  37  38
ENDBRANCH  29  32
ENDBRANCH  27  28
ENDBRANCH  26  27
ENDBRANCH   1  26
TORSDOF 15
ENDMDL
MODEL 3
REMARK VINA RESULT:     -12.3      0.890      2.151
REMARK SMILES CCc1cc(Nc2ccc(C(=O)NCCCCNC(=O)c3ccc(-c4c5nc(c(-c6c(F)c(F)c(F)c(F)c6F)c6ccc([nH]6)c(-c6c(F)c(F)c(F)c(F)c6F)c6nc(c(-c7c(F)c(F)c(F)c(F)c7F)c7ccc4[nH]7)C=C6)C=C5)cc3)cc2)nc(C(C)C)n1
REMARK SMILES IDX 15 1 14 2 13 3 11 4 12 5 10 7 7 8 8 9 85 10 9 11 84 12 6 13
REMARK SMILES IDX 5 15 3 16 4 17 91 18 87 19 86 20 2 21 1 22 88 23 89 24 90 25
REMARK SMILES IDX 16 26 17 27 18 28 19 29 20 31 21 32 22 33 83 34 23 35 82 36
REMARK SMILES IDX 24 37 25 38 26 39 76 40 27 41 81 42 75 43 77 44 28 45 80 46
REMARK SMILES IDX 74 47 73 48 29 50 61 51 41 52 60 53 42 54 45 55 59 56 78 57
REMARK SMILES IDX 43 58 44 59 58 61 79 62 46 63 30 64 31 65 39 66 32 67 33 68
REMARK SMILES IDX 37 69 40 70 34 71 35 72 38 73 36 74 62 75 63 76 71 77 64 78
REMARK SMILES IDX 65 79 69 80 72 81 66 82 67 83 70 84 68 85 47 86 48 87 56 88
REMARK SMILES IDX 49 89 50 90 54 91 57 92 51 93 52 94 55 95 53 96
REMARK H PARENT 13 6 6 14 18 30 77 49 45 60
REMARK Flexibility Score: inf
ROOT
ATOM      1  C   UNL A   1      35.401  21.827  26.201  1.00  0.00     0.023 C 
ENDROOT
BRANCH   1   2
ATOM      2  C   UNL A   1      35.325  20.915  24.973  1.00  0.00     0.116 C 
BRANCH   2   3
ATOM      3  N   UNL A   1      34.236  19.970  25.123  1.00  0.00    -0.352 N 
ATOM      4  C   UNL A   1      32.875  20.123  25.049  1.00  0.00     0.251 C 
ATOM      5  O   UNL A   1      32.181  19.124  25.246  1.00  0.00    -0.269 OA
ATOM      6  H   UNL A   1      34.527  19.049  25.312  1.00  0.00     0.163 HD
BRANCH   4   7
ATOM      7  C   UNL A   1      32.214  21.407  24.681  1.00  0.00     0.039 A 
ATOM      8  C   UNL A   1      30.757  23.761  24.114  1.00  0.00     0.040 A 
ATOM      9  C   UNL A   1      30.786  23.243  25.411  1.00  0.00     0.027 A 
ATOM     10  C   UNL A   1      31.500  23.121  23.122  1.00  0.00     0.027 A 
ATOM     11  C   UNL A   1      31.498  22.069  25.689  1.00  0.00     0.016 A 
ATOM     12  C   UNL A   1      32.262  21.990  23.414  1.00  0.00     0.016 A 
BRANCH   8  13
ATOM     13  N   UNL A   1      29.994  24.891  23.809  1.00  0.00    -0.340 N 
ATOM     14  H   UNL A   1      29.103  24.724  23.424  1.00  0.00     0.168 HD
BRANCH  13  15
ATOM     15  C   UNL A   1      30.350  26.239  23.989  1.00  0.00     0.134 A 
ATOM     16  C   UNL A   1      30.238  28.489  23.281  1.00  0.00     0.046 A 
ATOM     17  C   UNL A   1      29.911  27.165  23.064  1.00  0.00     0.071 A 
ATOM     18  N   UNL A   1      30.995  28.874  24.326  1.00  0.00    -0.238 NA
ATOM     19  C   UNL A   1      31.407  27.911  25.171  1.00  0.00     0.133 A 
ATOM     20  N   UNL A   1      31.089  26.609  25.051  1.00  0.00    -0.216 NA
BRANCH  16  21
ATOM     21  C   UNL A   1      29.801  29.567  22.320  1.00  0.00     0.053 C 
ATOM     22  C   UNL A   1      28.291  29.755  22.262  1.00  0.00     0.011 C 
ENDBRANCH  16  21
BRANCH  19  23
ATOM     23  C   UNL A   1      32.343  28.295  26.298  1.00  0.00     0.051 C 
ATOM     24  C   UNL A   1      31.635  28.184  27.650  1.00  0.00     0.016 C 
ATOM     25  C   UNL A   1      33.619  27.455  26.279  1.00  0.00     0.016 C 
ENDBRANCH  19  23
ENDBRANCH  13  15
ENDBRANCH   8  13
ENDBRANCH   4   7
ENDBRANCH   2   3
ENDBRANCH   1   2
BRANCH   1  26
ATOM     26  C   UNL A   1      35.521  23.314  25.857  1.00  0.00     0.023 C 
BRANCH  26  27
ATOM     27  C   UNL A   1      36.908  23.744  25.395  1.00  0.00     0.116 C 
BRANCH  27  28
ATOM     28  N   UNL A   1      37.928  22.744  25.655  1.00  0.00    -0.352 N 
ATOM     29  C   UNL A   1      39.154  22.903  26.254  1.00  0.00     0.251 C 
ATOM     30  H   UNL A   1      37.713  21.829  25.363  1.00  0.00     0.163 HD
ATOM     31  O   UNL A   1      39.955  21.979  26.280  1.00  0.00    -0.269 OA
BRANCH  29  32
ATOM     32  C   UNL A   1      39.509  24.212  26.839  1.00  0.00     0.039 A 
ATOM     33  C   UNL A   1      39.185  24.456  28.175  1.00  0.00     0.014 A 
ATOM     34  C   UNL A   1      40.158  25.189  26.080  1.00  0.00     0.014 A 
ATOM     35  C   UNL A   1      39.548  25.669  28.759  1.00  0.00     0.010 A 
ATOM     36  C   UNL A   1      40.597  26.359  26.686  1.00  0.00     0.010 A 
ATOM     37  C   UNL A   1      40.276  26.620  28.026  1.00  0.00    -0.014 A 
BRANCH  37  38
ATOM     38  C   UNL A   1      40.681  27.906  28.646  1.00  0.00     0.031 A 
ATOM     39  C   UNL A   1      42.102  28.117  29.088  1.00  0.00     0.074 A 
ATOM     40  C   UNL A   1      39.760  28.866  28.849  1.00  0.00     0.049 A 
ATOM     41  N   UNL A   1      42.648  29.167  29.649  1.00  0.00    -0.248 NA
ATOM     42  C   UNL A   1      43.025  26.986  28.909  1.00  0.00     0.031 C 
ATOM     43  C   UNL A   1      38.336  28.749  28.529  1.00  0.00     0.029 A 
ATOM     44  N   UNL A   1      39.881  30.125  29.377  1.00  0.00    -0.354 N 
ATOM     45  C   UNL A   1      43.969  28.817  29.898  1.00  0.00     0.074 A 
ATOM     46  C   UNL A   1      44.123  27.436  29.495  1.00  0.00     0.031 C 
ATOM     47  C   UNL A   1      37.721  29.899  28.845  1.00  0.00     0.029 A 
ATOM     48  C   UNL A   1      38.698  30.820  29.418  1.00  0.00     0.049 A 
ATOM     49  H   UNL A   1      40.736  30.495  29.697  1.00  0.00     0.167 HD
ATOM     50  C   UNL A   1      44.970  29.585  30.392  1.00  0.00     0.037 A 
ATOM     51  C   UNL A   1      38.432  32.059  29.870  1.00  0.00     0.037 A 
ATOM     52  C   UNL A   1      44.808  30.963  30.776  1.00  0.00     0.049 A 
ATOM     53  C   UNL A   1      39.560  32.905  30.394  1.00  0.00     0.074 A 
ATOM     54  C   UNL A   1      45.770  31.854  31.218  1.00  0.00     0.029 A 
ATOM     55  N   UNL A   1      43.601  31.647  30.774  1.00  0.00    -0.354 N 
ATOM     56  N   UNL A   1      40.828  32.598  30.535  1.00  0.00    -0.248 NA
ATOM     57  C   UNL A   1      39.225  34.275  30.803  1.00  0.00     0.031 C 
ATOM     58  C   UNL A   1      45.134  33.057  31.544  1.00  0.00     0.029 A 
ATOM     59  C   UNL A   1      43.786  32.940  31.238  1.00  0.00     0.049 A 
ATOM     60  H   UNL A   1      42.739  31.269  30.487  1.00  0.00     0.167 HD
ATOM     61  C   UNL A   1      41.445  33.741  31.027  1.00  0.00     0.074 A 
ATOM     62  C   UNL A   1      40.414  34.753  31.139  1.00  0.00     0.031 C 
ATOM     63  C   UNL A   1      42.748  33.935  31.353  1.00  0.00     0.037 A 
BRANCH  50  64
ATOM     64  C   UNL A   1      46.319  28.941  30.551  1.00  0.00     0.064 A 
ATOM     65  C   UNL A   1      47.264  28.929  29.513  1.00  0.00     0.173 A 
ATOM     66  C   UNL A   1      46.673  28.325  31.762  1.00  0.00     0.173 A 
ATOM     67  F   UNL A   1      46.977  29.495  28.331  1.00  0.00    -0.203 F 
ATOM     68  C   UNL A   1      48.489  28.283  29.663  1.00  0.00     0.198 A 
ATOM     69  C   UNL A   1      47.914  27.713  31.921  1.00  0.00     0.198 A 
ATOM     70  F   UNL A   1      45.815  28.311  32.792  1.00  0.00    -0.203 F 
ATOM     71  F   UNL A   1      49.342  28.221  28.631  1.00  0.00    -0.200 F 
ATOM     72  C   UNL A   1      48.815  27.680  30.867  1.00  0.00     0.200 A 
ATOM     73  F   UNL A   1      48.234  27.145  33.092  1.00  0.00    -0.200 F 
ATOM     74  F   UNL A   1      49.993  27.057  31.009  1.00  0.00    -0.200 F 
ENDBRANCH  50  64
BRANCH  51  75
ATOM     75  C   UNL A   1      37.039  32.575  29.816  1.00  0.00     0.064 A 
ATOM     76  C   UNL A   1      36.159  32.405  30.893  1.00  0.00     0.173 A 
ATOM     77  C   UNL A   1      36.568  33.272  28.694  1.00  0.00     0.173 A 
ATOM     78  F   UNL A   1      36.555  31.730  31.982  1.00  0.00    -0.203 F 
ATOM     79  C   UNL A   1      34.857  32.900  30.845  1.00  0.00     0.198 A 
ATOM     80  C   UNL A   1      35.278  33.794  28.658  1.00  0.00     0.198 A 
ATOM     81  F   UNL A   1      37.374  33.469  27.640  1.00  0.00    -0.203 F 
ATOM     82  F   UNL A   1      34.024  32.692  31.873  1.00  0.00    -0.200 F 
ATOM     83  C   UNL A   1      34.421  33.602  29.730  1.00  0.00     0.200 A 
ATOM     84  F   UNL A   1      34.867  34.488  27.587  1.00  0.00    -0.200 F 
ATOM     85  F   UNL A   1      33.174  34.090  29.689  1.00  0.00    -0.200 F 
ENDBRANCH  51  75
BRANCH  63  86
ATOM     86  C   UNL A   1      43.138  35.302  31.837  1.00  0.00     0.064 A 
ATOM     87  C   UNL A   1      43.018  35.674  33.184  1.00  0.00     0.173 A 
ATOM     88  C   UNL A   1      43.666  36.247  30.943  1.00  0.00     0.173 A 
ATOM     89  F   UNL A   1      42.508  34.814  34.080  1.00  0.00    -0.203 F 
ATOM     90  C   UNL A   1      43.376  36.951  33.611  1.00  0.00     0.198 A 
ATOM     91  C   UNL A   1      44.057  37.510  31.380  1.00  0.00     0.198 A 
ATOM     92  F   UNL A   1      43.811  35.942  29.645  1.00  0.00    -0.203 F 
ATOM     93  F   UNL A   1      43.194  37.303  34.892  1.00  0.00    -0.200 F 
ATOM     94  C   UNL A   1      43.902  37.865  32.710  1.00  0.00     0.200 A 
ATOM     95  F   UNL A   1      44.581  38.384  30.510  1.00  0.00    -0.200 F 
ATOM     96  F   UNL A   1      44.250  39.091  33.122  1.00  0.00    -0.200 F 
ENDBRANCH  63  86
ENDBRANCH  37  38
ENDBRANCH  29  32
ENDBRANCH  27  28
ENDBRANCH  26  27
ENDBRANCH   1  26
TORSDOF 15
ENDMDL
