MODEL 1
REMARK VINA RESULT:     -13.2      0.000      0.000
REMARK SMILES O=C(NCCCCNC(=O)[C@@H]1CCn2c(C(=O)c3ccccc3)ccc21)c1ccc(-c2c3nc(c(-c4c(F)c(F)c(F)c(F)c4F)c4ccc([nH]4)c(-c4c(F)c(F)c(F)c(F)c4F)c4nc(c(-c5c(F)c(F)c(F)c(F)c5F)c5ccc2[nH]5)C=C4)C=C3)cc1
REMARK SMILES IDX 5 1 4 2 3 3 1 4 2 5 27 7 28 8 89 9 29 10 88 11 30 12 31 13
REMARK SMILES IDX 32 14 82 15 33 16 87 17 81 18 83 19 34 20 86 21 80 22 79 23
REMARK SMILES IDX 35 25 67 26 47 27 66 28 48 29 51 30 65 31 84 32 49 33 50 34
REMARK SMILES IDX 64 36 85 37 52 38 36 39 37 40 45 41 38 42 39 43 43 44 46 45
REMARK SMILES IDX 40 46 41 47 44 48 42 49 68 50 69 51 77 52 70 53 71 54 75 55
REMARK SMILES IDX 78 56 72 57 73 58 76 59 74 60 53 61 54 62 62 63 55 64 56 65
REMARK SMILES IDX 60 66 63 67 57 68 58 69 61 70 59 71 6 72 7 73 8 74 9 75
REMARK SMILES IDX 10 77 11 78 12 79 26 80 13 81 14 82 25 83 15 84 24 85 16 86
REMARK SMILES IDX 17 87 18 88 19 89 23 90 20 91 22 92 21 93
REMARK H PARENT 3 6 83 24 51 35 8 76
REMARK Flexibility Score: inf
ROOT
ATOM      1  C   UNL A   1      31.750  29.642  26.863  1.00  0.00     0.023 C 
ENDROOT
BRANCH   1   2
ATOM      2  C   UNL A   1      32.903  30.548  26.458  1.00  0.00     0.116 C 
BRANCH   2   3
ATOM      3  N   UNL A   1      32.715  31.946  26.818  1.00  0.00    -0.352 N 
ATOM      4  O   UNL A   1      33.222  33.881  27.882  1.00  0.00    -0.269 OA
ATOM      5  C   UNL A   1      33.541  32.735  27.586  1.00  0.00     0.251 C 
ATOM      6  H   UNL A   1      31.901  32.378  26.471  1.00  0.00     0.163 HD
BRANCH   5   7
ATOM      7  C   UNL A   1      34.800  32.153  28.094  1.00  0.00     0.039 A 
ATOM      8  C   UNL A   1      34.818  30.856  28.605  1.00  0.00     0.014 A 
ATOM      9  C   UNL A   1      35.949  32.946  28.128  1.00  0.00     0.014 A 
ATOM     10  C   UNL A   1      35.936  30.407  29.295  1.00  0.00     0.010 A 
ATOM     11  C   UNL A   1      37.103  32.462  28.749  1.00  0.00     0.010 A 
ATOM     12  C   UNL A   1      37.089  31.206  29.375  1.00  0.00    -0.014 A 
BRANCH  12  13
ATOM     13  C   UNL A   1      38.272  30.686  30.102  1.00  0.00     0.031 A 
ATOM     14  C   UNL A   1      38.513  31.033  31.545  1.00  0.00     0.074 A 
ATOM     15  C   UNL A   1      39.104  29.847  29.457  1.00  0.00     0.049 A 
ATOM     16  N   UNL A   1      39.468  30.626  32.342  1.00  0.00    -0.248 NA
ATOM     17  C   UNL A   1      37.564  31.964  32.175  1.00  0.00     0.031 C 
ATOM     18  C   UNL A   1      38.969  29.445  28.056  1.00  0.00     0.029 A 
ATOM     19  N   UNL A   1      40.205  29.158  29.898  1.00  0.00    -0.354 N 
ATOM     20  C   UNL A   1      39.256  31.270  33.553  1.00  0.00     0.074 A 
ATOM     21  C   UNL A   1      38.088  32.108  33.385  1.00  0.00     0.031 C 
ATOM     22  C   UNL A   1      39.910  28.535  27.768  1.00  0.00     0.029 A 
ATOM     23  C   UNL A   1      40.748  28.333  28.946  1.00  0.00     0.049 A 
ATOM     24  H   UNL A   1      40.569  29.247  30.808  1.00  0.00     0.167 HD
ATOM     25  C   UNL A   1      39.970  31.166  34.700  1.00  0.00     0.037 A 
ATOM     26  C   UNL A   1      41.807  27.507  29.012  1.00  0.00     0.037 A 
ATOM     27  C   UNL A   1      41.111  30.302  34.871  1.00  0.00     0.049 A 
ATOM     28  C   UNL A   1      42.576  27.409  30.297  1.00  0.00     0.074 A 
ATOM     29  C   UNL A   1      41.872  30.089  36.008  1.00  0.00     0.029 A 
ATOM     30  N   UNL A   1      41.655  29.507  33.872  1.00  0.00    -0.354 N 
ATOM     31  N   UNL A   1      42.347  28.002  31.442  1.00  0.00    -0.248 NA
ATOM     32  C   UNL A   1      43.752  26.531  30.295  1.00  0.00     0.031 C 
ATOM     33  C   UNL A   1      42.900  29.194  35.687  1.00  0.00     0.029 A 
ATOM     34  C   UNL A   1      42.755  28.819  34.362  1.00  0.00     0.049 A 
ATOM     35  H   UNL A   1      41.312  29.442  32.952  1.00  0.00     0.167 HD
ATOM     36  C   UNL A   1      43.343  27.564  32.303  1.00  0.00     0.074 A 
ATOM     37  C   UNL A   1      44.164  26.635  31.551  1.00  0.00     0.031 C 
ATOM     38  C   UNL A   1      43.560  27.901  33.597  1.00  0.00     0.037 A 
BRANCH  25  39
ATOM     39  C   UNL A   1      39.555  32.021  35.861  1.00  0.00     0.064 A 
ATOM     40  C   UNL A   1      40.129  33.279  36.096  1.00  0.00     0.173 A 
ATOM     41  C   UNL A   1      38.535  31.593  36.724  1.00  0.00     0.173 A 
ATOM     42  F   UNL A   1      41.117  33.729  35.308  1.00  0.00    -0.203 F 
ATOM     43  C   UNL A   1      39.711  34.068  37.166  1.00  0.00     0.198 A 
ATOM     44  C   UNL A   1      38.103  32.395  37.778  1.00  0.00     0.198 A 
ATOM     45  F   UNL A   1      37.949  30.400  36.540  1.00  0.00    -0.203 F 
ATOM     46  F   UNL A   1      40.299  35.250  37.396  1.00  0.00    -0.200 F 
ATOM     47  C   UNL A   1      38.694  33.628  38.001  1.00  0.00     0.200 A 
ATOM     48  F   UNL A   1      37.113  31.973  38.578  1.00  0.00    -0.200 F 
ATOM     49  F   UNL A   1      38.289  34.392  39.026  1.00  0.00    -0.200 F 
ENDBRANCH  25  39
BRANCH  26  50
ATOM     50  C   UNL A   1      42.183  26.700  27.826  1.00  0.00     0.064 A 
ATOM     51  C   UNL A   1      43.146  27.161  26.919  1.00  0.00     0.173 A 
ATOM     52  C   UNL A   1      41.610  25.441  27.589  1.00  0.00     0.173 A 
ATOM     53  F   UNL A   1      43.709  28.366  27.096  1.00  0.00    -0.203 F 
ATOM     54  C   UNL A   1      43.519  26.397  25.816  1.00  0.00     0.198 A 
ATOM     55  C   UNL A   1      42.003  24.666  26.501  1.00  0.00     0.198 A 
ATOM     56  F   UNL A   1      40.688  24.954  28.432  1.00  0.00    -0.203 F 
ATOM     57  F   UNL A   1      44.421  26.873  24.947  1.00  0.00    -0.200 F 
ATOM     58  C   UNL A   1      42.952  25.147  25.612  1.00  0.00     0.200 A 
ATOM     59  F   UNL A   1      41.466  23.453  26.317  1.00  0.00    -0.200 F 
ATOM     60  F   UNL A   1      43.320  24.407  24.558  1.00  0.00    -0.200 F 
ENDBRANCH  26  50
BRANCH  38  61
ATOM     61  C   UNL A   1      44.720  27.244  34.281  1.00  0.00     0.064 A 
ATOM     62  C   UNL A   1      45.987  27.848  34.315  1.00  0.00     0.173 A 
ATOM     63  C   UNL A   1      44.561  26.006  34.920  1.00  0.00     0.173 A 
ATOM     64  F   UNL A   1      46.190  29.023  33.702  1.00  0.00    -0.203 F 
ATOM     65  C   UNL A   1      47.059  27.220  34.941  1.00  0.00     0.198 A 
ATOM     66  C   UNL A   1      45.631  25.393  35.566  1.00  0.00     0.198 A 
ATOM     67  F   UNL A   1      43.369  25.392  34.916  1.00  0.00    -0.203 F 
ATOM     68  F   UNL A   1      48.272  27.789  34.919  1.00  0.00    -0.200 F 
ATOM     69  C   UNL A   1      46.879  25.996  35.570  1.00  0.00     0.200 A 
ATOM     70  F   UNL A   1      45.454  24.215  36.179  1.00  0.00    -0.200 F 
ATOM     71  F   UNL A   1      47.915  25.392  36.170  1.00  0.00    -0.200 F 
ENDBRANCH  38  61
ENDBRANCH  12  13
ENDBRANCH   5   7
ENDBRANCH   2   3
ENDBRANCH   1   2
BRANCH   1  72
ATOM     72  C   UNL A   1      32.167  28.282  27.422  1.00  0.00     0.023 C 
BRANCH  72  73
ATOM     73  C   UNL A   1      31.576  27.073  26.693  1.00  0.00     0.116 C 
BRANCH  73  74
ATOM     74  N   UNL A   1      32.583  26.349  25.949  1.00  0.00    -0.356 N 
ATOM     75  C   UNL A   1      32.902  26.303  24.630  1.00  0.00     0.229 C 
ATOM     76  H   UNL A   1      33.150  25.774  26.512  1.00  0.00     0.163 HD
ATOM     77  O   UNL A   1      33.879  25.589  24.360  1.00  0.00    -0.274 OA
BRANCH  75  78
ATOM     78  C   UNL A   1      32.179  27.072  23.509  1.00  0.00     0.127 C 
ATOM     79  C   UNL A   1      32.228  28.610  23.391  1.00  0.00     0.042 C 
ATOM     80  C   UNL A   1      30.699  26.847  23.583  1.00  0.00     0.031 A 
ATOM     81  C   UNL A   1      30.876  29.045  22.816  1.00  0.00     0.124 C 
ATOM     82  N   UNL A   1      29.997  27.964  23.220  1.00  0.00    -0.341 N 
ATOM     83  C   UNL A   1      29.803  25.854  23.868  1.00  0.00     0.025 A 
ATOM     84  C   UNL A   1      28.652  27.782  23.346  1.00  0.00     0.090 A 
ATOM     85  C   UNL A   1      28.518  26.442  23.721  1.00  0.00     0.032 A 
BRANCH  84  86
ATOM     86  C   UNL A   1      27.557  28.726  23.180  1.00  0.00     0.209 C 
ATOM     87  O   UNL A   1      26.397  28.478  23.502  1.00  0.00    -0.287 OA
BRANCH  86  88
ATOM     88  C   UNL A   1      27.817  30.089  22.680  1.00  0.00     0.024 A 
ATOM     89  C   UNL A   1      27.898  31.136  23.606  1.00  0.00     0.012 A 
ATOM     90  C   UNL A   1      27.971  30.335  21.312  1.00  0.00     0.012 A 
ATOM     91  C   UNL A   1      28.188  32.426  23.162  1.00  0.00     0.001 A 
ATOM     92  C   UNL A   1      28.276  31.626  20.877  1.00  0.00     0.001 A 
ATOM     93  C   UNL A   1      28.390  32.666  21.802  1.00  0.00     0.000 A 
ENDBRANCH  86  88
ENDBRANCH  84  86
ENDBRANCH  75  78
ENDBRANCH  73  74
ENDBRANCH  72  73
ENDBRANCH   1  72
TORSDOF 13
ENDMDL
MODEL 2
REMARK VINA RESULT:     -13.2      2.288      4.587
REMARK SMILES O=C(NCCCCNC(=O)[C@@H]1CCn2c(C(=O)c3ccccc3)ccc21)c1ccc(-c2c3nc(c(-c4c(F)c(F)c(F)c(F)c4F)c4ccc([nH]4)c(-c4c(F)c(F)c(F)c(F)c4F)c4nc(c(-c5c(F)c(F)c(F)c(F)c5F)c5ccc2[nH]5)C=C4)C=C3)cc1
REMARK SMILES IDX 5 1 4 2 3 3 1 4 2 5 27 7 28 8 89 9 29 10 88 11 30 12 31 13
REMARK SMILES IDX 32 14 82 15 33 16 87 17 81 18 83 19 34 20 86 21 80 22 79 23
REMARK SMILES IDX 35 25 67 26 47 27 66 28 48 29 51 30 65 31 84 32 49 33 50 34
REMARK SMILES IDX 64 36 85 37 52 38 36 39 37 40 45 41 38 42 39 43 43 44 46 45
REMARK SMILES IDX 40 46 41 47 44 48 42 49 68 50 69 51 77 52 70 53 71 54 75 55
REMARK SMILES IDX 78 56 72 57 73 58 76 59 74 60 53 61 54 62 62 63 55 64 56 65
REMARK SMILES IDX 60 66 63 67 57 68 58 69 61 70 59 71 6 72 7 73 8 74 9 75
REMARK SMILES IDX 10 77 11 78 12 79 26 80 13 81 14 82 25 83 15 84 24 85 16 86
REMARK SMILES IDX 17 87 18 88 19 89 23 90 20 91 22 92 21 93
REMARK H PARENT 3 6 83 24 51 35 8 76
REMARK Flexibility Score: inf
ROOT
ATOM      1  C   UNL A   1      31.680  31.839  26.879  1.00  0.00     0.023 C 
ENDROOT
BRANCH   1   2
ATOM      2  C   UNL A   1      32.825  32.744  27.306  1.00  0.00     0.116 C 
BRANCH   2   3
ATOM      3  N   UNL A   1      32.416  34.099  27.647  1.00  0.00    -0.352 N 
ATOM      4  O   UNL A   1      32.478  36.028  28.835  1.00  0.00    -0.269 OA
ATOM      5  C   UNL A   1      32.975  34.934  28.588  1.00  0.00     0.251 C 
ATOM      6  H   UNL A   1      31.649  34.461  27.146  1.00  0.00     0.163 HD
BRANCH   5   7
ATOM      7  C   UNL A   1      34.157  34.462  29.337  1.00  0.00     0.039 A 
ATOM      8  C   UNL A   1      35.437  34.638  28.812  1.00  0.00     0.014 A 
ATOM      9  C   UNL A   1      33.970  33.772  30.537  1.00  0.00     0.014 A 
ATOM     10  C   UNL A   1      36.513  33.987  29.398  1.00  0.00     0.010 A 
ATOM     11  C   UNL A   1      35.067  33.186  31.173  1.00  0.00     0.010 A 
ATOM     12  C   UNL A   1      36.339  33.253  30.584  1.00  0.00    -0.014 A 
BRANCH  12  13
ATOM     13  C   UNL A   1      37.515  32.588  31.194  1.00  0.00     0.031 A 
ATOM     14  C   UNL A   1      37.962  32.925  32.589  1.00  0.00     0.074 A 
ATOM     15  C   UNL A   1      38.148  31.629  30.491  1.00  0.00     0.049 A 
ATOM     16  N   UNL A   1      38.938  32.404  33.290  1.00  0.00    -0.248 NA
ATOM     17  C   UNL A   1      37.227  33.990  33.287  1.00  0.00     0.031 C 
ATOM     18  C   UNL A   1      37.802  31.224  29.127  1.00  0.00     0.029 A 
ATOM     19  N   UNL A   1      39.187  30.803  30.832  1.00  0.00    -0.354 N 
ATOM     20  C   UNL A   1      38.953  33.094  34.495  1.00  0.00     0.074 A 
ATOM     21  C   UNL A   1      37.898  34.083  34.427  1.00  0.00     0.031 C 
ATOM     22  C   UNL A   1      38.572  30.187  28.770  1.00  0.00     0.029 A 
ATOM     23  C   UNL A   1      39.503  29.892  29.855  1.00  0.00     0.049 A 
ATOM     24  H   UNL A   1      39.661  30.858  31.693  1.00  0.00     0.167 HD
ATOM     25  C   UNL A   1      39.772  32.914  35.560  1.00  0.00     0.037 A 
ATOM     26  C   UNL A   1      40.441  28.929  29.833  1.00  0.00     0.037 A 
ATOM     27  C   UNL A   1      40.797  31.903  35.634  1.00  0.00     0.049 A 
ATOM     28  C   UNL A   1      41.329  28.750  31.029  1.00  0.00     0.074 A 
ATOM     29  C   UNL A   1      41.646  31.608  36.687  1.00  0.00     0.029 A 
ATOM     30  N   UNL A   1      41.112  31.022  34.610  1.00  0.00    -0.354 N 
ATOM     31  N   UNL A   1      41.314  29.391  32.171  1.00  0.00    -0.248 NA
ATOM     32  C   UNL A   1      42.368  27.717  30.928  1.00  0.00     0.031 C 
ATOM     33  C   UNL A   1      42.499  30.574  36.287  1.00  0.00     0.029 A 
ATOM     34  C   UNL A   1      42.156  30.197  34.999  1.00  0.00     0.049 A 
ATOM     35  H   UNL A   1      40.661  30.988  33.735  1.00  0.00     0.167 HD
ATOM     36  C   UNL A   1      42.332  28.834  32.932  1.00  0.00     0.074 A 
ATOM     37  C   UNL A   1      42.929  27.787  32.127  1.00  0.00     0.031 C 
ATOM     38  C   UNL A   1      42.738  29.163  34.183  1.00  0.00     0.037 A 
BRANCH  25  39
ATOM     39  C   UNL A   1      39.611  33.840  36.729  1.00  0.00     0.064 A 
ATOM     40  C   UNL A   1      38.827  33.500  37.841  1.00  0.00     0.173 A 
ATOM     41  C   UNL A   1      40.289  35.069  36.755  1.00  0.00     0.173 A 
ATOM     42  F   UNL A   1      38.148  32.343  37.860  1.00  0.00    -0.203 F 
ATOM     43  C   UNL A   1      38.711  34.365  38.927  1.00  0.00     0.198 A 
ATOM     44  C   UNL A   1      40.190  35.920  37.853  1.00  0.00     0.198 A 
ATOM     45  F   UNL A   1      41.056  35.440  35.719  1.00  0.00    -0.203 F 
ATOM     46  F   UNL A   1      37.926  34.037  39.963  1.00  0.00    -0.200 F 
ATOM     47  C   UNL A   1      39.398  35.571  38.934  1.00  0.00     0.200 A 
ATOM     48  F   UNL A   1      40.862  37.080  37.863  1.00  0.00    -0.200 F 
ATOM     49  F   UNL A   1      39.290  36.398  39.984  1.00  0.00    -0.200 F 
ENDBRANCH  25  39
BRANCH  26  50
ATOM     50  C   UNL A   1      40.566  28.055  28.641  1.00  0.00     0.064 A 
ATOM     51  C   UNL A   1      39.894  26.828  28.577  1.00  0.00     0.173 A 
ATOM     52  C   UNL A   1      41.335  28.440  27.533  1.00  0.00     0.173 A 
ATOM     53  F   UNL A   1      39.161  26.410  29.620  1.00  0.00    -0.203 F 
ATOM     54  C   UNL A   1      39.990  26.014  27.450  1.00  0.00     0.198 A 
ATOM     55  C   UNL A   1      41.408  27.639  26.396  1.00  0.00     0.198 A 
ATOM     56  F   UNL A   1      41.992  29.610  27.545  1.00  0.00    -0.203 F 
ATOM     57  F   UNL A   1      39.362  24.832  27.425  1.00  0.00    -0.200 F 
ATOM     58  C   UNL A   1      40.741  26.424  26.359  1.00  0.00     0.200 A 
ATOM     59  F   UNL A   1      42.120  28.047  25.337  1.00  0.00    -0.200 F 
ATOM     60  F   UNL A   1      40.823  25.647  25.270  1.00  0.00    -0.200 F 
ENDBRANCH  26  50
BRANCH  38  61
ATOM     61  C   UNL A   1      43.868  28.364  34.758  1.00  0.00     0.064 A 
ATOM     62  C   UNL A   1      45.201  28.780  34.621  1.00  0.00     0.173 A 
ATOM     63  C   UNL A   1      43.614  27.179  35.464  1.00  0.00     0.173 A 
ATOM     64  F   UNL A   1      45.492  29.897  33.938  1.00  0.00    -0.203 F 
ATOM     65  C   UNL A   1      46.242  28.021  35.147  1.00  0.00     0.198 A 
ATOM     66  C   UNL A   1      44.657  26.437  36.010  1.00  0.00     0.198 A 
ATOM     67  F   UNL A   1      42.356  26.743  35.623  1.00  0.00    -0.203 F 
ATOM     68  F   UNL A   1      47.511  28.409  34.962  1.00  0.00    -0.200 F 
ATOM     69  C   UNL A   1      45.969  26.854  35.845  1.00  0.00     0.200 A 
ATOM     70  F   UNL A   1      44.392  25.313  36.690  1.00  0.00    -0.200 F 
ATOM     71  F   UNL A   1      46.974  26.123  36.349  1.00  0.00    -0.200 F 
ENDBRANCH  38  61
ENDBRANCH  12  13
ENDBRANCH   5   7
ENDBRANCH   2   3
ENDBRANCH   1   2
BRANCH   1  72
ATOM     72  C   UNL A   1      32.045  30.361  26.747  1.00  0.00     0.023 C 
BRANCH  72  73
ATOM     73  C   UNL A   1      32.173  29.850  25.310  1.00  0.00     0.116 C 
BRANCH  73  74
ATOM     74  N   UNL A   1      31.094  28.954  24.961  1.00  0.00    -0.356 N 
ATOM     75  C   UNL A   1      31.005  27.903  24.105  1.00  0.00     0.229 C 
ATOM     76  H   UNL A   1      30.254  29.144  25.439  1.00  0.00     0.163 HD
ATOM     77  O   UNL A   1      29.906  27.330  24.103  1.00  0.00    -0.274 OA
BRANCH  75  78
ATOM     78  C   UNL A   1      32.143  27.386  23.205  1.00  0.00     0.127 C 
ATOM     79  C   UNL A   1      31.882  26.539  21.942  1.00  0.00     0.042 C 
ATOM     80  C   UNL A   1      33.048  26.469  23.971  1.00  0.00     0.031 A 
ATOM     81  C   UNL A   1      33.064  25.571  21.816  1.00  0.00     0.124 C 
ATOM     82  N   UNL A   1      33.524  25.454  23.187  1.00  0.00    -0.341 N 
ATOM     83  C   UNL A   1      33.592  26.334  25.219  1.00  0.00     0.025 A 
ATOM     84  C   UNL A   1      34.297  24.584  23.895  1.00  0.00     0.090 A 
ATOM     85  C   UNL A   1      34.375  25.149  25.171  1.00  0.00     0.032 A 
BRANCH  84  86
ATOM     86  C   UNL A   1      34.903  23.324  23.492  1.00  0.00     0.209 C 
ATOM     87  O   UNL A   1      35.960  23.252  22.867  1.00  0.00    -0.287 OA
BRANCH  86  88
ATOM     88  C   UNL A   1      34.300  22.041  23.900  1.00  0.00     0.024 A 
ATOM     89  C   UNL A   1      32.978  21.776  23.525  1.00  0.00     0.012 A 
ATOM     90  C   UNL A   1      35.027  21.113  24.651  1.00  0.00     0.012 A 
ATOM     91  C   UNL A   1      32.400  20.551  23.859  1.00  0.00     0.001 A 
ATOM     92  C   UNL A   1      34.447  19.883  24.969  1.00  0.00     0.001 A 
ATOM     93  C   UNL A   1      33.140  19.603  24.568  1.00  0.00     0.000 A 
ENDBRANCH  86  88
ENDBRANCH  84  86
ENDBRANCH  75  78
ENDBRANCH  73  74
ENDBRANCH  72  73
ENDBRANCH   1  72
TORSDOF 13
ENDMDL
MODEL 3
REMARK VINA RESULT:     -13.2      2.287      4.306
REMARK SMILES O=C(NCCCCNC(=O)[C@@H]1CCn2c(C(=O)c3ccccc3)ccc21)c1ccc(-c2c3nc(c(-c4c(F)c(F)c(F)c(F)c4F)c4ccc([nH]4)c(-c4c(F)c(F)c(F)c(F)c4F)c4nc(c(-c5c(F)c(F)c(F)c(F)c5F)c5ccc2[nH]5)C=C4)C=C3)cc1
REMARK SMILES IDX 5 1 4 2 3 3 1 4 2 5 27 7 28 8 89 9 29 10 88 11 30 12 31 13
REMARK SMILES IDX 32 14 82 15 33 16 87 17 81 18 83 19 34 20 86 21 80 22 79 23
REMARK SMILES IDX 35 25 67 26 47 27 66 28 48 29 51 30 65 31 84 32 49 33 50 34
REMARK SMILES IDX 64 36 85 37 52 38 36 39 37 40 45 41 38 42 39 43 43 44 46 45
REMARK SMILES IDX 40 46 41 47 44 48 42 49 68 50 69 51 77 52 70 53 71 54 75 55
REMARK SMILES IDX 78 56 72 57 73 58 76 59 74 60 53 61 54 62 62 63 55 64 56 65
REMARK SMILES IDX 60 66 63 67 57 68 58 69 61 70 59 71 6 72 7 73 8 74 9 75
REMARK SMILES IDX 10 77 11 78 12 79 26 80 13 81 14 82 25 83 15 84 24 85 16 86
REMARK SMILES IDX 17 87 18 88 19 89 23 90 20 91 22 92 21 93
REMARK H PARENT 3 6 83 24 51 35 8 76
REMARK Flexibility Score: inf
ROOT
ATOM      1  C   UNL A   1      31.718  32.061  26.657  1.00  0.00     0.023 C 
ENDROOT
BRANCH   1   2
ATOM      2  C   UNL A   1      32.794  32.851  27.386  1.00  0.00     0.116 C 
BRANCH   2   3
ATOM      3  N   UNL A   1      32.400  34.208  27.738  1.00  0.00    -0.352 N 
ATOM      4  O   UNL A   1      32.495  36.133  28.928  1.00  0.00    -0.269 OA
ATOM      5  C   UNL A   1      32.980  35.036  28.670  1.00  0.00     0.251 C 
ATOM      6  H   UNL A   1      31.627  34.575  27.250  1.00  0.00     0.163 HD
BRANCH   5   7
ATOM      7  C   UNL A   1      34.171  34.555  29.398  1.00  0.00     0.039 A 
ATOM      8  C   UNL A   1      35.435  34.650  28.816  1.00  0.00     0.014 A 
ATOM      9  C   UNL A   1      34.005  33.936  30.640  1.00  0.00     0.014 A 
ATOM     10  C   UNL A   1      36.507  33.985  29.396  1.00  0.00     0.010 A 
ATOM     11  C   UNL A   1      35.103  33.339  31.264  1.00  0.00     0.010 A 
ATOM     12  C   UNL A   1      36.351  33.322  30.624  1.00  0.00    -0.014 A 
BRANCH  12  13
ATOM     13  C   UNL A   1      37.524  32.640  31.224  1.00  0.00     0.031 A 
ATOM     14  C   UNL A   1      37.976  32.958  32.622  1.00  0.00     0.074 A 
ATOM     15  C   UNL A   1      38.147  31.685  30.509  1.00  0.00     0.049 A 
ATOM     16  N   UNL A   1      38.950  32.422  33.315  1.00  0.00    -0.248 NA
ATOM     17  C   UNL A   1      37.251  34.021  33.334  1.00  0.00     0.031 C 
ATOM     18  C   UNL A   1      37.795  31.298  29.141  1.00  0.00     0.029 A 
ATOM     19  N   UNL A   1      39.181  30.847  30.839  1.00  0.00    -0.354 N 
ATOM     20  C   UNL A   1      38.973  33.098  34.528  1.00  0.00     0.074 A 
ATOM     21  C   UNL A   1      37.925  34.095  34.473  1.00  0.00     0.031 C 
ATOM     22  C   UNL A   1      38.557  30.259  28.771  1.00  0.00     0.029 A 
ATOM     23  C   UNL A   1      39.487  29.945  29.850  1.00  0.00     0.049 A 
ATOM     24  H   UNL A   1      39.657  30.888  31.699  1.00  0.00     0.167 HD
ATOM     25  C   UNL A   1      39.792  32.898  35.588  1.00  0.00     0.037 A 
ATOM     26  C   UNL A   1      40.417  28.974  29.815  1.00  0.00     0.037 A 
ATOM     27  C   UNL A   1      40.809  31.879  35.649  1.00  0.00     0.049 A 
ATOM     28  C   UNL A   1      41.306  28.774  31.007  1.00  0.00     0.074 A 
ATOM     29  C   UNL A   1      41.658  31.566  36.697  1.00  0.00     0.029 A 
ATOM     30  N   UNL A   1      41.115  31.008  34.614  1.00  0.00    -0.354 N 
ATOM     31  N   UNL A   1      41.299  29.402  32.157  1.00  0.00    -0.248 NA
ATOM     32  C   UNL A   1      42.337  27.735  30.892  1.00  0.00     0.031 C 
ATOM     33  C   UNL A   1      42.503  30.529  36.283  1.00  0.00     0.029 A 
ATOM     34  C   UNL A   1      42.154  30.170  34.991  1.00  0.00     0.049 A 
ATOM     35  H   UNL A   1      40.662  30.986  33.740  1.00  0.00     0.167 HD
ATOM     36  C   UNL A   1      42.314  28.829  32.909  1.00  0.00     0.074 A 
ATOM     37  C   UNL A   1      42.901  27.787  32.090  1.00  0.00     0.031 C 
ATOM     38  C   UNL A   1      42.725  29.140  34.162  1.00  0.00     0.037 A 
BRANCH  25  39
ATOM     39  C   UNL A   1      39.641  33.813  36.768  1.00  0.00     0.064 A 
ATOM     40  C   UNL A   1      40.261  35.070  36.815  1.00  0.00     0.173 A 
ATOM     41  C   UNL A   1      38.825  33.442  37.849  1.00  0.00     0.173 A 
ATOM     42  F   UNL A   1      41.060  35.467  35.814  1.00  0.00    -0.203 F 
ATOM     43  C   UNL A   1      40.086  35.914  37.910  1.00  0.00     0.198 A 
ATOM     44  C   UNL A   1      38.635  34.298  38.931  1.00  0.00     0.198 A 
ATOM     45  F   UNL A   1      38.206  32.252  37.852  1.00  0.00    -0.203 F 
ATOM     46  F   UNL A   1      40.718  37.095  37.952  1.00  0.00    -0.200 F 
ATOM     47  C   UNL A   1      39.268  35.529  38.964  1.00  0.00     0.200 A 
ATOM     48  F   UNL A   1      37.836  33.929  39.943  1.00  0.00    -0.200 F 
ATOM     49  F   UNL A   1      39.097  36.346  40.013  1.00  0.00    -0.200 F 
ENDBRANCH  25  39
BRANCH  26  50
ATOM     50  C   UNL A   1      40.533  28.113  28.613  1.00  0.00     0.064 A 
ATOM     51  C   UNL A   1      41.323  28.505  27.524  1.00  0.00     0.173 A 
ATOM     52  C   UNL A   1      39.885  26.872  28.539  1.00  0.00     0.173 A 
ATOM     53  F   UNL A   1      41.948  29.692  27.542  1.00  0.00    -0.203 F 
ATOM     54  C   UNL A   1      41.453  27.690  26.401  1.00  0.00     0.198 A 
ATOM     55  C   UNL A   1      40.038  26.046  27.429  1.00  0.00     0.198 A 
ATOM     56  F   UNL A   1      39.123  26.451  29.560  1.00  0.00    -0.203 F 
ATOM     57  F   UNL A   1      42.190  28.101  25.360  1.00  0.00    -0.200 F 
ATOM     58  C   UNL A   1      40.817  26.458  26.359  1.00  0.00     0.200 A 
ATOM     59  F   UNL A   1      39.436  24.850  27.399  1.00  0.00    -0.200 F 
ATOM     60  F   UNL A   1      40.953  25.669  25.285  1.00  0.00    -0.200 F 
ENDBRANCH  26  50
BRANCH  38  61
ATOM     61  C   UNL A   1      43.850  28.326  34.726  1.00  0.00     0.064 A 
ATOM     62  C   UNL A   1      45.187  28.726  34.577  1.00  0.00     0.173 A 
ATOM     63  C   UNL A   1      43.588  27.143  35.431  1.00  0.00     0.173 A 
ATOM     64  F   UNL A   1      45.486  29.840  33.895  1.00  0.00    -0.203 F 
ATOM     65  C   UNL A   1      46.224  27.953  35.093  1.00  0.00     0.198 A 
ATOM     66  C   UNL A   1      44.627  26.386  35.966  1.00  0.00     0.198 A 
ATOM     67  F   UNL A   1      42.326  26.722  35.600  1.00  0.00    -0.203 F 
ATOM     68  F   UNL A   1      47.496  28.326  34.898  1.00  0.00    -0.200 F 
ATOM     69  C   UNL A   1      45.942  26.787  35.791  1.00  0.00     0.200 A 
ATOM     70  F   UNL A   1      44.353  25.264  36.646  1.00  0.00    -0.200 F 
ATOM     71  F   UNL A   1      46.942  26.043  36.284  1.00  0.00    -0.200 F 
ENDBRANCH  38  61
ENDBRANCH  12  13
ENDBRANCH   5   7
ENDBRANCH   2   3
ENDBRANCH   1   2
BRANCH   1  72
ATOM     72  C   UNL A   1      31.878  30.543  26.726  1.00  0.00     0.023 C 
BRANCH  72  73
ATOM     73  C   UNL A   1      32.166  29.859  25.387  1.00  0.00     0.116 C 
BRANCH  73  74
ATOM     74  N   UNL A   1      31.090  28.979  24.991  1.00  0.00    -0.356 N 
ATOM     75  C   UNL A   1      31.017  27.945  24.114  1.00  0.00     0.229 C 
ATOM     76  H   UNL A   1      30.239  29.166  25.450  1.00  0.00     0.163 HD
ATOM     77  O   UNL A   1      29.914  27.380  24.071  1.00  0.00    -0.274 OA
BRANCH  75  78
ATOM     78  C   UNL A   1      32.175  27.437  23.235  1.00  0.00     0.127 C 
ATOM     79  C   UNL A   1      31.943  26.606  21.955  1.00  0.00     0.042 C 
ATOM     80  C   UNL A   1      33.060  26.508  24.010  1.00  0.00     0.031 A 
ATOM     81  C   UNL A   1      33.125  25.637  21.846  1.00  0.00     0.124 C 
ATOM     82  N   UNL A   1      33.552  25.502  23.225  1.00  0.00    -0.341 N 
ATOM     83  C   UNL A   1      33.573  26.357  25.269  1.00  0.00     0.025 A 
ATOM     84  C   UNL A   1      34.307  24.621  23.941  1.00  0.00     0.090 A 
ATOM     85  C   UNL A   1      34.355  25.171  25.225  1.00  0.00     0.032 A 
BRANCH  84  86
ATOM     86  C   UNL A   1      34.920  23.365  23.537  1.00  0.00     0.209 C 
ATOM     87  O   UNL A   1      35.990  23.299  22.936  1.00  0.00    -0.287 OA
BRANCH  86  88
ATOM     88  C   UNL A   1      34.306  22.079  23.917  1.00  0.00     0.024 A 
ATOM     89  C   UNL A   1      32.984  21.830  23.529  1.00  0.00     0.012 A 
ATOM     90  C   UNL A   1      35.023  21.131  24.653  1.00  0.00     0.012 A 
ATOM     91  C   UNL A   1      32.396  20.603  23.836  1.00  0.00     0.001 A 
ATOM     92  C   UNL A   1      34.433  19.899  24.944  1.00  0.00     0.001 A 
ATOM     93  C   UNL A   1      33.126  19.636  24.530  1.00  0.00     0.000 A 
ENDBRANCH  86  88
ENDBRANCH  84  86
ENDBRANCH  75  78
ENDBRANCH  73  74
ENDBRANCH  72  73
ENDBRANCH   1  72
TORSDOF 13
ENDMDL
