MODEL 1
REMARK VINA RESULT:     -13.0      0.000      0.000
REMARK SMILES O=C(NCCCCNC(=O)C1(NC(=O)c2nc(C3CC3)n[nH]2)CCCCC1)c1ccc(-c2c3nc(c(-c4c(F)c(F)c(F)c(F)c4F)c4ccc([nH]4)c(-c4c(F)c(F)c(F)c(F)c4F)c4nc(c(-c5c(F)c(F)c(F)c(F)c5F)c5ccc2[nH]5)C=C4)C=C3)cc1
REMARK SMILES IDX 6 1 5 2 4 3 3 4 1 5 2 6 28 8 29 9 90 10 30 11 89 12 31 13
REMARK SMILES IDX 32 14 33 15 83 16 34 17 88 18 82 19 84 20 35 21 87 22 81 23
REMARK SMILES IDX 80 24 36 26 68 27 48 28 67 29 49 30 52 31 66 32 85 33 50 34
REMARK SMILES IDX 51 35 65 37 86 38 53 39 37 40 38 41 46 42 39 43 40 44 44 45
REMARK SMILES IDX 47 46 41 47 42 48 45 49 43 50 69 51 70 52 78 53 71 54 72 55
REMARK SMILES IDX 76 56 79 57 73 58 74 59 77 60 75 61 54 62 55 63 63 64 56 65
REMARK SMILES IDX 57 66 61 67 64 68 58 69 59 70 62 71 60 72 7 73 8 74 9 75
REMARK SMILES IDX 10 77 11 78 23 79 27 80 24 81 26 82 25 83 12 84 13 85 14 87
REMARK SMILES IDX 15 88 16 89 22 90 17 91 21 92 18 94 19 95 20 96
REMARK H PARENT 3 7 84 25 52 36 8 76 12 86 22 93
REMARK Flexibility Score: inf
ROOT
ATOM      1  C   UNL A   1      31.563  30.815  25.944  1.00  0.00     0.023 C 
ENDROOT
BRANCH   1   2
ATOM      2  C   UNL A   1      31.377  31.995  26.892  1.00  0.00     0.023 C 
BRANCH   2   3
ATOM      3  C   UNL A   1      32.640  32.733  27.287  1.00  0.00     0.116 C 
BRANCH   3   4
ATOM      4  N   UNL A   1      32.385  34.132  27.583  1.00  0.00    -0.352 N 
ATOM      5  O   UNL A   1      32.446  36.038  28.775  1.00  0.00    -0.269 OA
ATOM      6  C   UNL A   1      32.942  34.932  28.548  1.00  0.00     0.251 C 
ATOM      7  H   UNL A   1      31.716  34.568  27.008  1.00  0.00     0.163 HD
BRANCH   6   8
ATOM      8  C   UNL A   1      34.133  34.497  29.316  1.00  0.00     0.039 A 
ATOM      9  C   UNL A   1      34.009  33.858  30.554  1.00  0.00     0.014 A 
ATOM     10  C   UNL A   1      35.401  34.640  28.739  1.00  0.00     0.014 A 
ATOM     11  C   UNL A   1      35.141  33.433  31.242  1.00  0.00     0.010 A 
ATOM     12  C   UNL A   1      36.532  34.134  29.389  1.00  0.00     0.010 A 
ATOM     13  C   UNL A   1      36.405  33.514  30.641  1.00  0.00    -0.014 A 
BRANCH  13  14
ATOM     14  C   UNL A   1      37.545  32.785  31.251  1.00  0.00     0.031 A 
ATOM     15  C   UNL A   1      38.201  31.631  30.558  1.00  0.00     0.074 A 
ATOM     16  C   UNL A   1      37.961  33.178  32.472  1.00  0.00     0.049 A 
ATOM     17  N   UNL A   1      39.174  30.864  30.982  1.00  0.00    -0.248 NA
ATOM     18  C   UNL A   1      37.702  31.284  29.219  1.00  0.00     0.031 C 
ATOM     19  C   UNL A   1      37.372  34.275  33.246  1.00  0.00     0.029 A 
ATOM     20  N   UNL A   1      38.966  32.710  33.279  1.00  0.00    -0.354 N 
ATOM     21  C   UNL A   1      39.387  29.929  29.979  1.00  0.00     0.074 A 
ATOM     22  C   UNL A   1      38.437  30.218  28.925  1.00  0.00     0.031 C 
ATOM     23  C   UNL A   1      38.040  34.412  34.399  1.00  0.00     0.029 A 
ATOM     24  C   UNL A   1      39.053  33.370  34.481  1.00  0.00     0.049 A 
ATOM     25  H   UNL A   1      39.566  31.973  33.023  1.00  0.00     0.167 HD
ATOM     26  C   UNL A   1      40.297  28.926  29.950  1.00  0.00     0.037 A 
ATOM     27  C   UNL A   1      39.837  33.139  35.551  1.00  0.00     0.037 A 
ATOM     28  C   UNL A   1      41.251  28.668  31.001  1.00  0.00     0.049 A 
ATOM     29  C   UNL A   1      40.815  32.003  35.495  1.00  0.00     0.074 A 
ATOM     30  C   UNL A   1      42.266  27.727  31.031  1.00  0.00     0.029 A 
ATOM     31  N   UNL A   1      41.299  29.345  32.211  1.00  0.00    -0.354 N 
ATOM     32  N   UNL A   1      41.053  31.168  34.514  1.00  0.00    -0.248 NA
ATOM     33  C   UNL A   1      41.626  31.767  36.697  1.00  0.00     0.031 C 
ATOM     34  C   UNL A   1      42.889  27.795  32.280  1.00  0.00     0.029 A 
ATOM     35  C   UNL A   1      42.298  28.813  33.012  1.00  0.00     0.049 A 
ATOM     36  H   UNL A   1      40.710  30.092  32.463  1.00  0.00     0.167 HD
ATOM     37  C   UNL A   1      42.043  30.313  34.973  1.00  0.00     0.074 A 
ATOM     38  C   UNL A   1      42.381  30.749  36.312  1.00  0.00     0.031 C 
ATOM     39  C   UNL A   1      42.615  29.258  34.345  1.00  0.00     0.037 A 
BRANCH  26  40
ATOM     40  C   UNL A   1      40.302  28.007  28.764  1.00  0.00     0.064 A 
ATOM     41  C   UNL A   1      41.029  28.300  27.601  1.00  0.00     0.173 A 
ATOM     42  C   UNL A   1      39.633  26.773  28.824  1.00  0.00     0.173 A 
ATOM     43  F   UNL A   1      41.682  29.466  27.490  1.00  0.00    -0.203 F 
ATOM     44  C   UNL A   1      41.074  27.401  26.538  1.00  0.00     0.198 A 
ATOM     45  C   UNL A   1      39.700  25.866  27.771  1.00  0.00     0.198 A 
ATOM     46  F   UNL A   1      38.931  26.439  29.917  1.00  0.00    -0.203 F 
ATOM     47  F   UNL A   1      41.753  27.714  25.425  1.00  0.00    -0.200 F 
ATOM     48  C   UNL A   1      40.418  26.182  26.627  1.00  0.00     0.200 A 
ATOM     49  F   UNL A   1      39.078  24.683  27.866  1.00  0.00    -0.200 F 
ATOM     50  F   UNL A   1      40.476  25.311  25.610  1.00  0.00    -0.200 F 
ENDBRANCH  26  40
BRANCH  27  51
ATOM     51  C   UNL A   1      39.693  33.977  36.769  1.00  0.00     0.064 A 
ATOM     52  C   UNL A   1      40.366  35.200  36.894  1.00  0.00     0.173 A 
ATOM     53  C   UNL A   1      38.872  33.573  37.835  1.00  0.00     0.173 A 
ATOM     54  F   UNL A   1      41.176  35.620  35.912  1.00  0.00    -0.203 F 
ATOM     55  C   UNL A   1      40.239  35.976  38.044  1.00  0.00     0.198 A 
ATOM     56  C   UNL A   1      38.719  34.366  38.969  1.00  0.00     0.198 A 
ATOM     57  F   UNL A   1      38.200  32.413  37.764  1.00  0.00    -0.203 F 
ATOM     58  F   UNL A   1      40.929  37.118  38.157  1.00  0.00    -0.200 F 
ATOM     59  C   UNL A   1      39.409  35.563  39.077  1.00  0.00     0.200 A 
ATOM     60  F   UNL A   1      37.901  33.971  39.955  1.00  0.00    -0.200 F 
ATOM     61  F   UNL A   1      39.283  36.314  40.179  1.00  0.00    -0.200 F 
ENDBRANCH  27  51
BRANCH  39  62
ATOM     62  C   UNL A   1      43.672  28.509  35.099  1.00  0.00     0.064 A 
ATOM     63  C   UNL A   1      43.355  27.385  35.876  1.00  0.00     0.173 A 
ATOM     64  C   UNL A   1      45.017  28.894  35.012  1.00  0.00     0.173 A 
ATOM     65  F   UNL A   1      42.079  26.990  36.007  1.00  0.00    -0.203 F 
ATOM     66  C   UNL A   1      44.348  26.683  36.554  1.00  0.00     0.198 A 
ATOM     67  C   UNL A   1      46.010  28.172  35.668  1.00  0.00     0.198 A 
ATOM     68  F   UNL A   1      45.370  29.960  34.280  1.00  0.00    -0.203 F 
ATOM     69  F   UNL A   1      44.020  25.638  37.326  1.00  0.00    -0.200 F 
ATOM     70  C   UNL A   1      45.675  27.071  36.442  1.00  0.00     0.200 A 
ATOM     71  F   UNL A   1      47.294  28.541  35.549  1.00  0.00    -0.200 F 
ATOM     72  F   UNL A   1      46.631  26.389  37.086  1.00  0.00    -0.200 F 
ENDBRANCH  39  62
ENDBRANCH  13  14
ENDBRANCH   6   8
ENDBRANCH   3   4
ENDBRANCH   2   3
ENDBRANCH   1   2
BRANCH   1  73
ATOM     73  C   UNL A   1      32.724  29.847  26.216  1.00  0.00     0.116 C 
BRANCH  73  74
ATOM     74  N   UNL A   1      33.673  29.520  25.158  1.00  0.00    -0.354 N 
ATOM     75  C   UNL A   1      33.776  28.494  24.243  1.00  0.00     0.245 C 
ATOM     76  H   UNL A   1      34.403  30.177  25.080  1.00  0.00     0.163 HD
ATOM     77  O   UNL A   1      34.382  28.744  23.193  1.00  0.00    -0.272 OA
BRANCH  75  78
ATOM     78  C   UNL A   1      32.985  27.166  24.405  1.00  0.00     0.119 C 
ATOM     79  C   UNL A   1      33.911  26.376  25.388  1.00  0.00     0.038 C 
ATOM     80  C   UNL A   1      31.592  27.291  25.078  1.00  0.00     0.038 C 
ATOM     81  C   UNL A   1      33.357  25.120  26.048  1.00  0.00     0.003 C 
ATOM     82  C   UNL A   1      31.049  25.907  25.486  1.00  0.00     0.003 C 
ATOM     83  C   UNL A   1      31.934  25.283  26.553  1.00  0.00     0.000 C 
BRANCH  78  84
ATOM     84  N   UNL A   1      32.765  26.523  23.098  1.00  0.00    -0.335 N 
ATOM     85  C   UNL A   1      31.685  26.710  22.236  1.00  0.00     0.289 C 
ATOM     86  H   UNL A   1      33.458  25.890  22.800  1.00  0.00     0.165 HD
ATOM     87  O   UNL A   1      31.463  25.788  21.435  1.00  0.00    -0.266 OA
BRANCH  85  88
ATOM     88  C   UNL A   1      30.895  27.934  22.179  1.00  0.00     0.214 A 
ATOM     89  N   UNL A   1      29.622  28.108  22.481  1.00  0.00    -0.207 NA
ATOM     90  N   UNL A   1      31.438  29.178  21.995  1.00  0.00    -0.255 N 
ATOM     91  C   UNL A   1      29.459  29.465  22.574  1.00  0.00     0.154 A 
ATOM     92  N   UNL A   1      30.553  30.162  22.252  1.00  0.00    -0.158 NA
ATOM     93  H   UNL A   1      32.366  29.334  21.707  1.00  0.00     0.192 HD
BRANCH  91  94
ATOM     94  C   UNL A   1      28.184  30.136  23.089  1.00  0.00     0.060 C 
ATOM     95  C   UNL A   1      28.286  31.495  23.753  1.00  0.00     0.012 C 
ATOM     96  C   UNL A   1      27.668  31.392  22.404  1.00  0.00     0.012 C 
ENDBRANCH  91  94
ENDBRANCH  85  88
ENDBRANCH  78  84
ENDBRANCH  75  78
ENDBRANCH  73  74
ENDBRANCH   1  73
TORSDOF 14
ENDMDL
MODEL 2
REMARK VINA RESULT:     -12.9      0.277      1.606
REMARK SMILES O=C(NCCCCNC(=O)C1(NC(=O)c2nc(C3CC3)n[nH]2)CCCCC1)c1ccc(-c2c3nc(c(-c4c(F)c(F)c(F)c(F)c4F)c4ccc([nH]4)c(-c4c(F)c(F)c(F)c(F)c4F)c4nc(c(-c5c(F)c(F)c(F)c(F)c5F)c5ccc2[nH]5)C=C4)C=C3)cc1
REMARK SMILES IDX 6 1 5 2 4 3 3 4 1 5 2 6 28 8 29 9 90 10 30 11 89 12 31 13
REMARK SMILES IDX 32 14 33 15 83 16 34 17 88 18 82 19 84 20 35 21 87 22 81 23
REMARK SMILES IDX 80 24 36 26 68 27 48 28 67 29 49 30 52 31 66 32 85 33 50 34
REMARK SMILES IDX 51 35 65 37 86 38 53 39 37 40 38 41 46 42 39 43 40 44 44 45
REMARK SMILES IDX 47 46 41 47 42 48 45 49 43 50 69 51 70 52 78 53 71 54 72 55
REMARK SMILES IDX 76 56 79 57 73 58 74 59 77 60 75 61 54 62 55 63 63 64 56 65
REMARK SMILES IDX 57 66 61 67 64 68 58 69 59 70 62 71 60 72 7 73 8 74 9 75
REMARK SMILES IDX 10 77 11 78 23 79 27 80 24 81 26 82 25 83 12 84 13 85 14 87
REMARK SMILES IDX 15 88 16 89 22 90 17 91 21 92 18 94 19 95 20 96
REMARK H PARENT 3 7 84 25 52 36 8 76 12 86 22 93
REMARK Flexibility Score: inf
ROOT
ATOM      1  C   UNL A   1      31.572  30.317  26.847  1.00  0.00     0.023 C 
ENDROOT
BRANCH   1   2
ATOM      2  C   UNL A   1      31.680  31.818  26.601  1.00  0.00     0.023 C 
BRANCH   2   3
ATOM      3  C   UNL A   1      32.842  32.519  27.275  1.00  0.00     0.116 C 
BRANCH   3   4
ATOM      4  N   UNL A   1      32.545  33.911  27.565  1.00  0.00    -0.352 N 
ATOM      5  O   UNL A   1      32.526  35.814  28.762  1.00  0.00    -0.269 OA
ATOM      6  C   UNL A   1      33.054  34.721  28.548  1.00  0.00     0.251 C 
ATOM      7  H   UNL A   1      31.883  34.333  26.972  1.00  0.00     0.163 HD
BRANCH   6   8
ATOM      8  C   UNL A   1      34.232  34.312  29.351  1.00  0.00     0.039 A 
ATOM      9  C   UNL A   1      34.086  33.642  30.569  1.00  0.00     0.014 A 
ATOM     10  C   UNL A   1      35.514  34.514  28.824  1.00  0.00     0.014 A 
ATOM     11  C   UNL A   1      35.207  33.243  31.290  1.00  0.00     0.010 A 
ATOM     12  C   UNL A   1      36.638  34.035  29.505  1.00  0.00     0.010 A 
ATOM     13  C   UNL A   1      36.488  33.383  30.738  1.00  0.00    -0.014 A 
BRANCH  13  14
ATOM     14  C   UNL A   1      37.632  32.682  31.375  1.00  0.00     0.031 A 
ATOM     15  C   UNL A   1      38.306  31.519  30.715  1.00  0.00     0.074 A 
ATOM     16  C   UNL A   1      38.033  33.109  32.589  1.00  0.00     0.049 A 
ATOM     17  N   UNL A   1      39.284  30.773  31.165  1.00  0.00    -0.248 NA
ATOM     18  C   UNL A   1      37.822  31.133  29.382  1.00  0.00     0.031 C 
ATOM     19  C   UNL A   1      37.426  34.218  33.331  1.00  0.00     0.029 A 
ATOM     20  N   UNL A   1      39.037  32.672  33.415  1.00  0.00    -0.354 N 
ATOM     21  C   UNL A   1      39.516  29.817  30.187  1.00  0.00     0.074 A 
ATOM     22  C   UNL A   1      38.571  30.069  29.119  1.00  0.00     0.031 C 
ATOM     23  C   UNL A   1      38.083  34.391  34.486  1.00  0.00     0.029 A 
ATOM     24  C   UNL A   1      39.107  33.362  34.601  1.00  0.00     0.049 A 
ATOM     25  H   UNL A   1      39.647  31.936  33.182  1.00  0.00     0.167 HD
ATOM     26  C   UNL A   1      40.437  28.823  30.190  1.00  0.00     0.037 A 
ATOM     27  C   UNL A   1      39.885  33.167  35.682  1.00  0.00     0.037 A 
ATOM     28  C   UNL A   1      41.386  28.602  31.254  1.00  0.00     0.049 A 
ATOM     29  C   UNL A   1      40.876  32.041  35.662  1.00  0.00     0.074 A 
ATOM     30  C   UNL A   1      42.411  27.674  31.315  1.00  0.00     0.029 A 
ATOM     31  N   UNL A   1      41.416  29.309  32.447  1.00  0.00    -0.354 N 
ATOM     32  N   UNL A   1      41.131  31.185  34.703  1.00  0.00    -0.248 NA
ATOM     33  C   UNL A   1      41.679  31.844  36.875  1.00  0.00     0.031 C 
ATOM     34  C   UNL A   1      43.023  27.779  32.567  1.00  0.00     0.029 A 
ATOM     35  C   UNL A   1      42.415  28.809  33.269  1.00  0.00     0.049 A 
ATOM     36  H   UNL A   1      40.817  30.056  32.677  1.00  0.00     0.167 HD
ATOM     37  C   UNL A   1      42.127  30.353  35.191  1.00  0.00     0.074 A 
ATOM     38  C   UNL A   1      42.450  30.825  36.521  1.00  0.00     0.031 C 
ATOM     39  C   UNL A   1      42.716  29.289  34.593  1.00  0.00     0.037 A 
BRANCH  26  40
ATOM     40  C   UNL A   1      40.462  27.876  29.027  1.00  0.00     0.064 A 
ATOM     41  C   UNL A   1      39.674  26.716  28.998  1.00  0.00     0.173 A 
ATOM     42  C   UNL A   1      41.225  28.178  27.888  1.00  0.00     0.173 A 
ATOM     43  F   UNL A   1      38.929  26.379  30.061  1.00  0.00    -0.203 F 
ATOM     44  C   UNL A   1      39.661  25.886  27.879  1.00  0.00     0.198 A 
ATOM     45  C   UNL A   1      41.191  27.360  26.761  1.00  0.00     0.198 A 
ATOM     46  F   UNL A   1      41.989  29.280  27.859  1.00  0.00    -0.203 F 
ATOM     47  F   UNL A   1      38.922  24.768  27.883  1.00  0.00    -0.200 F 
ATOM     48  C   UNL A   1      40.412  26.214  26.759  1.00  0.00     0.200 A 
ATOM     49  F   UNL A   1      41.906  27.687  25.676  1.00  0.00    -0.200 F 
ATOM     50  F   UNL A   1      40.386  25.423  25.677  1.00  0.00    -0.200 F 
ENDBRANCH  26  40
BRANCH  27  51
ATOM     51  C   UNL A   1      39.721  34.033  36.879  1.00  0.00     0.064 A 
ATOM     52  C   UNL A   1      38.909  33.642  37.952  1.00  0.00     0.173 A 
ATOM     53  C   UNL A   1      40.379  35.269  36.975  1.00  0.00     0.173 A 
ATOM     54  F   UNL A   1      38.245  32.479  37.899  1.00  0.00    -0.203 F 
ATOM     55  C   UNL A   1      38.747  34.463  39.066  1.00  0.00     0.198 A 
ATOM     56  C   UNL A   1      40.244  36.073  38.104  1.00  0.00     0.198 A 
ATOM     57  F   UNL A   1      41.173  35.688  35.978  1.00  0.00    -0.203 F 
ATOM     58  F   UNL A   1      37.929  34.087  40.057  1.00  0.00    -0.200 F 
ATOM     59  C   UNL A   1      39.420  35.674  39.146  1.00  0.00     0.200 A 
ATOM     60  F   UNL A   1      40.911  37.232  38.183  1.00  0.00    -0.200 F 
ATOM     61  F   UNL A   1      39.269  36.458  40.220  1.00  0.00    -0.200 F 
ENDBRANCH  27  51
BRANCH  39  62
ATOM     62  C   UNL A   1      43.775  28.571  35.374  1.00  0.00     0.064 A 
ATOM     63  C   UNL A   1      43.450  27.534  36.261  1.00  0.00     0.173 A 
ATOM     64  C   UNL A   1      45.128  28.894  35.203  1.00  0.00     0.173 A 
ATOM     65  F   UNL A   1      42.167  27.202  36.473  1.00  0.00    -0.203 F 
ATOM     66  C   UNL A   1      44.444  26.858  36.964  1.00  0.00     0.198 A 
ATOM     67  C   UNL A   1      46.121  28.197  35.886  1.00  0.00     0.198 A 
ATOM     68  F   UNL A   1      45.489  29.876  34.364  1.00  0.00    -0.203 F 
ATOM     69  F   UNL A   1      44.110  25.900  37.839  1.00  0.00    -0.200 F 
ATOM     70  C   UNL A   1      45.778  27.184  36.769  1.00  0.00     0.200 A 
ATOM     71  F   UNL A   1      47.410  28.505  35.687  1.00  0.00    -0.200 F 
ATOM     72  F   UNL A   1      46.734  26.526  37.437  1.00  0.00    -0.200 F 
ENDBRANCH  39  62
ENDBRANCH  13  14
ENDBRANCH   6   8
ENDBRANCH   3   4
ENDBRANCH   2   3
ENDBRANCH   1   2
BRANCH   1  73
ATOM     73  C   UNL A   1      32.855  29.477  26.760  1.00  0.00     0.116 C 
BRANCH  73  74
ATOM     74  N   UNL A   1      33.608  29.408  25.513  1.00  0.00    -0.354 N 
ATOM     75  C   UNL A   1      33.584  28.564  24.423  1.00  0.00     0.245 C 
ATOM     76  H   UNL A   1      34.281  30.121  25.431  1.00  0.00     0.163 HD
ATOM     77  O   UNL A   1      33.976  29.034  23.348  1.00  0.00    -0.272 OA
BRANCH  75  78
ATOM     78  C   UNL A   1      32.894  27.172  24.476  1.00  0.00     0.119 C 
ATOM     79  C   UNL A   1      33.827  26.405  25.469  1.00  0.00     0.038 C 
ATOM     80  C   UNL A   1      31.462  27.154  25.073  1.00  0.00     0.038 C 
ATOM     81  C   UNL A   1      33.341  25.078  26.035  1.00  0.00     0.003 C 
ATOM     82  C   UNL A   1      31.011  25.713  25.382  1.00  0.00     0.003 C 
ATOM     83  C   UNL A   1      31.885  25.103  26.467  1.00  0.00     0.000 C 
BRANCH  78  84
ATOM     84  N   UNL A   1      32.796  26.584  23.128  1.00  0.00    -0.335 N 
ATOM     85  C   UNL A   1      31.765  26.757  22.204  1.00  0.00     0.289 C 
ATOM     86  H   UNL A   1      33.540  26.004  22.849  1.00  0.00     0.165 HD
ATOM     87  O   UNL A   1      31.648  25.865  21.349  1.00  0.00    -0.266 OA
BRANCH  85  88
ATOM     88  C   UNL A   1      30.915  27.941  22.150  1.00  0.00     0.214 A 
ATOM     89  N   UNL A   1      29.640  28.054  22.470  1.00  0.00    -0.207 NA
ATOM     90  N   UNL A   1      31.393  29.208  21.948  1.00  0.00    -0.255 N 
ATOM     91  C   UNL A   1      29.410  29.402  22.556  1.00  0.00     0.154 A 
ATOM     92  N   UNL A   1      30.463  30.149  22.211  1.00  0.00    -0.158 NA
ATOM     93  H   UNL A   1      32.307  29.408  21.645  1.00  0.00     0.192 HD
BRANCH  91  94
ATOM     94  C   UNL A   1      28.112  30.012  23.085  1.00  0.00     0.060 C 
ATOM     95  C   UNL A   1      28.156  31.381  23.737  1.00  0.00     0.012 C 
ATOM     96  C   UNL A   1      27.524  31.235  22.398  1.00  0.00     0.012 C 
ENDBRANCH  91  94
ENDBRANCH  85  88
ENDBRANCH  78  84
ENDBRANCH  75  78
ENDBRANCH  73  74
ENDBRANCH   1  73
TORSDOF 14
ENDMDL
MODEL 3
REMARK VINA RESULT:     -12.8      5.537     10.812
REMARK SMILES O=C(NCCCCNC(=O)C1(NC(=O)c2nc(C3CC3)n[nH]2)CCCCC1)c1ccc(-c2c3nc(c(-c4c(F)c(F)c(F)c(F)c4F)c4ccc([nH]4)c(-c4c(F)c(F)c(F)c(F)c4F)c4nc(c(-c5c(F)c(F)c(F)c(F)c5F)c5ccc2[nH]5)C=C4)C=C3)cc1
REMARK SMILES IDX 6 1 5 2 4 3 3 4 1 5 2 6 28 8 29 9 90 10 30 11 89 12 31 13
REMARK SMILES IDX 32 14 33 15 83 16 34 17 88 18 82 19 84 20 35 21 87 22 81 23
REMARK SMILES IDX 80 24 36 26 68 27 48 28 67 29 49 30 52 31 66 32 85 33 50 34
REMARK SMILES IDX 51 35 65 37 86 38 53 39 37 40 38 41 46 42 39 43 40 44 44 45
REMARK SMILES IDX 47 46 41 47 42 48 45 49 43 50 69 51 70 52 78 53 71 54 72 55
REMARK SMILES IDX 76 56 79 57 73 58 74 59 77 60 75 61 54 62 55 63 63 64 56 65
REMARK SMILES IDX 57 66 61 67 64 68 58 69 59 70 62 71 60 72 7 73 8 74 9 75
REMARK SMILES IDX 10 77 11 78 23 79 27 80 24 81 26 82 25 83 12 84 13 85 14 87
REMARK SMILES IDX 15 88 16 89 22 90 17 91 21 92 18 94 19 95 20 96
REMARK H PARENT 3 7 84 25 52 36 8 76 12 86 22 93
REMARK Flexibility Score: inf
ROOT
ATOM      1  C   UNL A   1      36.649  22.988  23.180  1.00  0.00     0.023 C 
ENDROOT
BRANCH   1   2
ATOM      2  C   UNL A   1      36.947  21.693  23.927  1.00  0.00     0.023 C 
BRANCH   2   3
ATOM      3  C   UNL A   1      37.366  21.844  25.375  1.00  0.00     0.116 C 
BRANCH   3   4
ATOM      4  N   UNL A   1      38.376  20.871  25.756  1.00  0.00    -0.352 N 
ATOM      5  O   UNL A   1      40.412  20.133  26.358  1.00  0.00    -0.269 OA
ATOM      6  C   UNL A   1      39.620  21.076  26.294  1.00  0.00     0.251 C 
ATOM      7  H   UNL A   1      38.131  19.930  25.604  1.00  0.00     0.163 HD
BRANCH   6   8
ATOM      8  C   UNL A   1      40.027  22.405  26.811  1.00  0.00     0.039 A 
ATOM      9  C   UNL A   1      41.065  22.538  27.739  1.00  0.00     0.014 A 
ATOM     10  C   UNL A   1      39.425  23.552  26.280  1.00  0.00     0.014 A 
ATOM     11  C   UNL A   1      41.448  23.798  28.188  1.00  0.00     0.010 A 
ATOM     12  C   UNL A   1      39.870  24.821  26.664  1.00  0.00     0.010 A 
ATOM     13  C   UNL A   1      40.896  24.951  27.612  1.00  0.00    -0.014 A 
BRANCH  13  14
ATOM     14  C   UNL A   1      41.529  26.267  27.878  1.00  0.00     0.031 A 
ATOM     15  C   UNL A   1      40.792  27.366  28.580  1.00  0.00     0.074 A 
ATOM     16  C   UNL A   1      42.790  26.457  27.441  1.00  0.00     0.049 A 
ATOM     17  N   UNL A   1      41.190  28.585  28.842  1.00  0.00    -0.248 NA
ATOM     18  C   UNL A   1      39.429  27.067  29.044  1.00  0.00     0.031 C 
ATOM     19  C   UNL A   1      43.589  25.460  26.722  1.00  0.00     0.029 A 
ATOM     20  N   UNL A   1      43.624  27.542  27.531  1.00  0.00    -0.354 N 
ATOM     21  C   UNL A   1      40.125  29.207  29.476  1.00  0.00     0.074 A 
ATOM     22  C   UNL A   1      39.055  28.234  29.554  1.00  0.00     0.031 C 
ATOM     23  C   UNL A   1      44.800  25.967  26.460  1.00  0.00     0.029 A 
ATOM     24  C   UNL A   1      44.842  27.347  26.925  1.00  0.00     0.049 A 
ATOM     25  H   UNL A   1      43.375  28.379  27.985  1.00  0.00     0.167 HD
ATOM     26  C   UNL A   1      40.057  30.475  29.948  1.00  0.00     0.037 A 
ATOM     27  C   UNL A   1      45.868  28.196  26.728  1.00  0.00     0.037 A 
ATOM     28  C   UNL A   1      41.142  31.424  29.881  1.00  0.00     0.049 A 
ATOM     29  C   UNL A   1      45.748  29.601  27.240  1.00  0.00     0.074 A 
ATOM     30  C   UNL A   1      41.199  32.705  30.401  1.00  0.00     0.029 A 
ATOM     31  N   UNL A   1      42.353  31.197  29.244  1.00  0.00    -0.354 N 
ATOM     32  N   UNL A   1      44.760  30.156  27.898  1.00  0.00    -0.248 NA
ATOM     33  C   UNL A   1      46.876  30.501  26.974  1.00  0.00     0.031 C 
ATOM     34  C   UNL A   1      42.420  33.274  30.030  1.00  0.00     0.029 A 
ATOM     35  C   UNL A   1      43.148  32.330  29.322  1.00  0.00     0.049 A 
ATOM     36  H   UNL A   1      42.611  30.355  28.803  1.00  0.00     0.167 HD
ATOM     37  C   UNL A   1      45.148  31.466  28.132  1.00  0.00     0.074 A 
ATOM     38  C   UNL A   1      46.474  31.615  27.569  1.00  0.00     0.031 C 
ATOM     39  C   UNL A   1      44.464  32.459  28.749  1.00  0.00     0.037 A 
BRANCH  26  40
ATOM     40  C   UNL A   1      38.766  30.936  30.558  1.00  0.00     0.064 A 
ATOM     41  C   UNL A   1      37.691  31.380  29.774  1.00  0.00     0.173 A 
ATOM     42  C   UNL A   1      38.573  30.855  31.947  1.00  0.00     0.173 A 
ATOM     43  F   UNL A   1      37.823  31.481  28.443  1.00  0.00    -0.203 F 
ATOM     44  C   UNL A   1      36.477  31.739  30.357  1.00  0.00     0.198 A 
ATOM     45  C   UNL A   1      37.352  31.190  32.525  1.00  0.00     0.198 A 
ATOM     46  F   UNL A   1      39.565  30.427  32.742  1.00  0.00    -0.203 F 
ATOM     47  F   UNL A   1      35.473  32.186  29.591  1.00  0.00    -0.200 F 
ATOM     48  C   UNL A   1      36.306  31.634  31.730  1.00  0.00     0.200 A 
ATOM     49  F   UNL A   1      37.184  31.074  33.849  1.00  0.00    -0.200 F 
ATOM     50  F   UNL A   1      35.133  31.964  32.288  1.00  0.00    -0.200 F 
ENDBRANCH  26  40
BRANCH  27  51
ATOM     51  C   UNL A   1      47.070  27.744  25.980  1.00  0.00     0.064 A 
ATOM     52  C   UNL A   1      48.209  27.277  26.649  1.00  0.00     0.173 A 
ATOM     53  C   UNL A   1      47.102  27.767  24.576  1.00  0.00     0.173 A 
ATOM     54  F   UNL A   1      48.234  27.254  27.990  1.00  0.00    -0.203 F 
ATOM     55  C   UNL A   1      49.339  26.868  25.944  1.00  0.00     0.198 A 
ATOM     56  C   UNL A   1      48.219  27.326  23.873  1.00  0.00     0.198 A 
ATOM     57  F   UNL A   1      46.035  28.200  23.887  1.00  0.00    -0.203 F 
ATOM     58  F   UNL A   1      50.431  26.469  26.609  1.00  0.00    -0.200 F 
ATOM     59  C   UNL A   1      49.341  26.884  24.557  1.00  0.00     0.200 A 
ATOM     60  F   UNL A   1      48.207  27.326  22.533  1.00  0.00    -0.200 F 
ATOM     61  F   UNL A   1      50.425  26.484  23.881  1.00  0.00    -0.200 F 
ENDBRANCH  27  51
BRANCH  39  62
ATOM     62  C   UNL A   1      45.145  33.790  28.856  1.00  0.00     0.064 A 
ATOM     63  C   UNL A   1      46.000  34.089  29.927  1.00  0.00     0.173 A 
ATOM     64  C   UNL A   1      44.974  34.760  27.858  1.00  0.00     0.173 A 
ATOM     65  F   UNL A   1      46.179  33.200  30.917  1.00  0.00    -0.203 F 
ATOM     66  C   UNL A   1      46.645  35.320  30.004  1.00  0.00     0.198 A 
ATOM     67  C   UNL A   1      45.643  35.978  27.923  1.00  0.00     0.198 A 
ATOM     68  F   UNL A   1      44.168  34.521  26.813  1.00  0.00    -0.203 F 
ATOM     69  F   UNL A   1      47.424  35.602  31.057  1.00  0.00    -0.200 F 
ATOM     70  C   UNL A   1      46.474  36.260  28.998  1.00  0.00     0.200 A 
ATOM     71  F   UNL A   1      45.486  36.881  26.944  1.00  0.00    -0.200 F 
ATOM     72  F   UNL A   1      47.104  37.440  29.067  1.00  0.00    -0.200 F 
ENDBRANCH  39  62
ENDBRANCH  13  14
ENDBRANCH   6   8
ENDBRANCH   3   4
ENDBRANCH   2   3
ENDBRANCH   1   2
BRANCH   1  73
ATOM     73  C   UNL A   1      35.242  23.589  23.310  1.00  0.00     0.116 C 
BRANCH  73  74
ATOM     74  N   UNL A   1      34.064  22.777  23.024  1.00  0.00    -0.354 N 
ATOM     75  C   UNL A   1      32.774  22.752  23.509  1.00  0.00     0.245 C 
ATOM     76  H   UNL A   1      34.226  22.096  22.332  1.00  0.00     0.163 HD
ATOM     77  O   UNL A   1      31.904  22.306  22.751  1.00  0.00    -0.272 OA
BRANCH  75  78
ATOM     78  C   UNL A   1      32.383  23.452  24.841  1.00  0.00     0.119 C 
ATOM     79  C   UNL A   1      32.397  24.957  24.411  1.00  0.00     0.038 C 
ATOM     80  C   UNL A   1      30.962  23.135  25.376  1.00  0.00     0.038 C 
ATOM     81  C   UNL A   1      31.778  25.980  25.354  1.00  0.00     0.003 C 
ATOM     82  C   UNL A   1      30.560  24.116  26.494  1.00  0.00     0.003 C 
ATOM     83  C   UNL A   1      30.454  25.530  25.946  1.00  0.00     0.000 C 
BRANCH  78  84
ATOM     84  N   UNL A   1      33.327  23.099  25.916  1.00  0.00    -0.335 N 
ATOM     85  C   UNL A   1      33.576  21.830  26.438  1.00  0.00     0.289 C 
ATOM     86  H   UNL A   1      33.839  23.842  26.309  1.00  0.00     0.165 HD
ATOM     87  O   UNL A   1      34.044  21.798  27.587  1.00  0.00    -0.266 OA
BRANCH  85  88
ATOM     88  C   UNL A   1      33.400  20.594  25.684  1.00  0.00     0.214 A 
ATOM     89  N   UNL A   1      34.299  19.912  24.999  1.00  0.00    -0.207 NA
ATOM     90  N   UNL A   1      32.273  19.820  25.751  1.00  0.00    -0.255 N 
ATOM     91  C   UNL A   1      33.719  18.693  24.763  1.00  0.00     0.154 A 
ATOM     92  N   UNL A   1      32.454  18.608  25.188  1.00  0.00    -0.158 NA
ATOM     93  H   UNL A   1      31.429  20.114  26.163  1.00  0.00     0.192 HD
BRANCH  91  94
ATOM     94  C   UNL A   1      34.461  17.500  24.160  1.00  0.00     0.060 C 
ATOM     95  C   UNL A   1      33.742  16.170  24.042  1.00  0.00     0.012 C 
ATOM     96  C   UNL A   1      34.027  16.952  22.809  1.00  0.00     0.012 C 
ENDBRANCH  91  94
ENDBRANCH  85  88
ENDBRANCH  78  84
ENDBRANCH  75  78
ENDBRANCH  73  74
ENDBRANCH   1  73
TORSDOF 14
ENDMDL
