MODEL 1
REMARK VINA RESULT:     -12.4      0.000      0.000
REMARK SMILES C[C@@H](C(=O)NCCCCNC(=O)c1ccc(-c2c3nc(c(-c4c(F)c(F)c(F)c(F)c4F)c4ccc([nH]4)c(-c4c(F)c(F)c(F)c(F)c4F)c4nc(c(-c5c(F)c(F)c(F)c(F)c5F)c5ccc2[nH]5)C=C4)C=C3)cc1)c1ccc(C[C@H]2CCC[C@H]2O)cc1
REMARK SMILES IDX 6 1 5 2 3 3 4 4 2 6 1 7 76 8 77 9 88 10 78 11 87 12 79 13
REMARK SMILES IDX 80 14 81 15 82 16 85 17 83 18 84 19 86 20 7 22 8 23 9 24
REMARK SMILES IDX 10 25 11 26 12 28 13 29 14 30 75 31 15 32 74 33 16 34 17 35
REMARK SMILES IDX 18 36 68 37 19 38 73 39 67 40 69 41 20 42 72 43 66 44 65 45
REMARK SMILES IDX 21 47 53 48 33 49 52 50 34 51 37 52 51 53 70 54 35 55 36 56
REMARK SMILES IDX 50 58 71 59 38 60 22 61 23 62 31 63 24 64 25 65 29 66 32 67
REMARK SMILES IDX 26 68 27 69 30 70 28 71 54 72 55 73 63 74 56 75 57 76 61 77
REMARK SMILES IDX 64 78 58 79 59 80 62 81 60 82 39 83 40 84 48 85 41 86 42 87
REMARK SMILES IDX 46 88 49 89 43 90 44 91 47 92 45 93
REMARK H PARENT 5 5 86 21 10 27 69 46 37 57
REMARK Flexibility Score: inf
ROOT
ATOM      1  C   UNL A   1      36.837  23.034  24.805  1.00  0.00     0.116 C 
ENDROOT
BRANCH   1   2
ATOM      2  N   UNL A   1      35.917  23.325  23.725  1.00  0.00    -0.356 N 
ATOM      3  C   UNL A   1      34.742  24.024  23.735  1.00  0.00     0.227 C 
ATOM      4  O   UNL A   1      34.077  24.003  22.699  1.00  0.00    -0.274 OA
ATOM      5  H   UNL A   1      36.176  22.963  22.848  1.00  0.00     0.163 HD
BRANCH   3   6
ATOM      6  C   UNL A   1      34.334  24.800  24.993  1.00  0.00     0.105 C 
ATOM      7  C   UNL A   1      33.650  23.904  26.032  1.00  0.00     0.023 C 
BRANCH   6   8
ATOM      8  C   UNL A   1      33.442  25.997  24.688  1.00  0.00    -0.036 A 
ATOM      9  C   UNL A   1      33.938  27.066  23.932  1.00  0.00     0.005 A 
ATOM     10  C   UNL A   1      32.140  26.085  25.202  1.00  0.00     0.005 A 
ATOM     11  C   UNL A   1      33.190  28.234  23.785  1.00  0.00     0.004 A 
ATOM     12  C   UNL A   1      31.404  27.262  25.072  1.00  0.00     0.004 A 
ATOM     13  C   UNL A   1      31.950  28.370  24.416  1.00  0.00    -0.048 A 
BRANCH  13  14
ATOM     14  C   UNL A   1      31.241  29.701  24.448  1.00  0.00     0.041 C 
BRANCH  14  15
ATOM     15  C   UNL A   1      29.860  29.768  23.764  1.00  0.00     0.022 C 
ATOM     16  C   UNL A   1      29.100  31.102  23.876  1.00  0.00     0.007 C 
ATOM     17  C   UNL A   1      29.777  29.406  22.273  1.00  0.00     0.117 C 
ATOM     18  C   UNL A   1      28.216  31.197  22.628  1.00  0.00     0.003 C 
ATOM     19  C   UNL A   1      28.374  29.867  21.897  1.00  0.00     0.032 C 
BRANCH  17  20
ATOM     20  O   UNL A   1      30.709  30.079  21.444  1.00  0.00    -0.393 OA
ATOM     21  H   UNL A   1      31.573  29.641  21.507  1.00  0.00     0.210 HD
ENDBRANCH  17  20
ENDBRANCH  14  15
ENDBRANCH  13  14
ENDBRANCH   6   8
ENDBRANCH   3   6
ENDBRANCH   1   2
BRANCH   1  22
ATOM     22  C   UNL A   1      36.655  21.602  25.315  1.00  0.00     0.023 C 
BRANCH  22  23
ATOM     23  C   UNL A   1      37.819  20.659  25.000  1.00  0.00     0.023 C 
BRANCH  23  24
ATOM     24  C   UNL A   1      39.039  20.808  25.901  1.00  0.00     0.116 C 
BRANCH  24  25
ATOM     25  N   UNL A   1      39.888  19.627  25.901  1.00  0.00    -0.352 N 
ATOM     26  C   UNL A   1      41.249  19.538  26.077  1.00  0.00     0.251 C 
ATOM     27  H   UNL A   1      39.424  18.771  25.755  1.00  0.00     0.163 HD
ATOM     28  O   UNL A   1      41.831  18.475  25.924  1.00  0.00    -0.269 OA
BRANCH  26  29
ATOM     29  C   UNL A   1      42.013  20.759  26.414  1.00  0.00     0.039 A 
ATOM     30  C   UNL A   1      42.486  21.564  25.374  1.00  0.00     0.014 A 
ATOM     31  C   UNL A   1      42.215  21.130  27.746  1.00  0.00     0.014 A 
ATOM     32  C   UNL A   1      43.079  22.793  25.670  1.00  0.00     0.010 A 
ATOM     33  C   UNL A   1      42.757  22.378  28.037  1.00  0.00     0.010 A 
ATOM     34  C   UNL A   1      43.171  23.230  27.000  1.00  0.00    -0.014 A 
BRANCH  34  35
ATOM     35  C   UNL A   1      43.631  24.601  27.334  1.00  0.00     0.031 A 
ATOM     36  C   UNL A   1      42.654  25.632  27.821  1.00  0.00     0.074 A 
ATOM     37  C   UNL A   1      44.912  24.943  27.088  1.00  0.00     0.049 A 
ATOM     38  N   UNL A   1      42.840  26.910  28.031  1.00  0.00    -0.248 NA
ATOM     39  C   UNL A   1      41.282  25.172  28.084  1.00  0.00     0.031 C 
ATOM     40  C   UNL A   1      45.941  24.042  26.565  1.00  0.00     0.029 A 
ATOM     41  N   UNL A   1      45.559  26.147  27.215  1.00  0.00    -0.354 N 
ATOM     42  C   UNL A   1      41.607  27.411  28.428  1.00  0.00     0.074 A 
ATOM     43  C   UNL A   1      40.673  26.306  28.404  1.00  0.00     0.031 C 
ATOM     44  C   UNL A   1      47.087  24.725  26.410  1.00  0.00     0.029 A 
ATOM     45  C   UNL A   1      46.864  26.118  26.781  1.00  0.00     0.049 A 
ATOM     46  H   UNL A   1      45.131  26.954  27.580  1.00  0.00     0.167 HD
ATOM     47  C   UNL A   1      41.293  28.677  28.788  1.00  0.00     0.037 A 
ATOM     48  C   UNL A   1      47.769  27.109  26.669  1.00  0.00     0.037 A 
ATOM     49  C   UNL A   1      42.235  29.763  28.851  1.00  0.00     0.049 A 
ATOM     50  C   UNL A   1      47.384  28.506  27.073  1.00  0.00     0.074 A 
ATOM     51  C   UNL A   1      42.034  31.050  29.316  1.00  0.00     0.029 A 
ATOM     52  N   UNL A   1      43.552  29.691  28.426  1.00  0.00    -0.354 N 
ATOM     53  N   UNL A   1      46.241  28.947  27.537  1.00  0.00    -0.248 NA
ATOM     54  C   UNL A   1      48.416  29.545  26.934  1.00  0.00     0.031 C 
ATOM     55  C   UNL A   1      43.216  31.773  29.126  1.00  0.00     0.029 A 
ATOM     56  C   UNL A   1      44.165  30.923  28.582  1.00  0.00     0.049 A 
ATOM     57  H   UNL A   1      43.988  28.884  28.067  1.00  0.00     0.167 HD
ATOM     58  C   UNL A   1      46.418  30.305  27.759  1.00  0.00     0.074 A 
ATOM     59  C   UNL A   1      47.786  30.615  27.400  1.00  0.00     0.031 C 
ATOM     60  C   UNL A   1      45.526  31.216  28.217  1.00  0.00     0.037 A 
BRANCH  47  61
ATOM     61  C   UNL A   1      39.870  28.971  29.156  1.00  0.00     0.064 A 
ATOM     62  C   UNL A   1      38.922  29.334  28.189  1.00  0.00     0.173 A 
ATOM     63  C   UNL A   1      39.433  28.802  30.478  1.00  0.00     0.173 A 
ATOM     64  F   UNL A   1      39.293  29.515  26.913  1.00  0.00    -0.203 F 
ATOM     65  C   UNL A   1      37.587  29.525  28.535  1.00  0.00     0.198 A 
ATOM     66  C   UNL A   1      38.093  28.972  30.816  1.00  0.00     0.198 A 
ATOM     67  F   UNL A   1      40.301  28.450  31.438  1.00  0.00    -0.203 F 
ATOM     68  F   UNL A   1      36.700  29.892  27.601  1.00  0.00    -0.200 F 
ATOM     69  C   UNL A   1      37.172  29.334  29.846  1.00  0.00     0.200 A 
ATOM     70  F   UNL A   1      37.692  28.776  32.080  1.00  0.00    -0.200 F 
ATOM     71  F   UNL A   1      35.883  29.501  30.173  1.00  0.00    -0.200 F 
ENDBRANCH  47  61
BRANCH  48  72
ATOM     72  C   UNL A   1      49.124  26.824  26.130  1.00  0.00     0.064 A 
ATOM     73  C   UNL A   1      49.416  27.018  24.773  1.00  0.00     0.173 A 
ATOM     74  C   UNL A   1      50.145  26.326  26.953  1.00  0.00     0.173 A 
ATOM     75  F   UNL A   1      48.464  27.471  23.942  1.00  0.00    -0.203 F 
ATOM     76  C   UNL A   1      50.669  26.701  24.254  1.00  0.00     0.198 A 
ATOM     77  C   UNL A   1      51.406  26.035  26.438  1.00  0.00     0.198 A 
ATOM     78  F   UNL A   1      49.917  26.125  28.259  1.00  0.00    -0.203 F 
ATOM     79  F   UNL A   1      50.904  26.846  22.942  1.00  0.00    -0.200 F 
ATOM     80  C   UNL A   1      51.665  26.213  25.087  1.00  0.00     0.200 A 
ATOM     81  F   UNL A   1      52.369  25.576  27.249  1.00  0.00    -0.200 F 
ATOM     82  F   UNL A   1      52.869  25.905  24.587  1.00  0.00    -0.200 F 
ENDBRANCH  48  72
BRANCH  60  83
ATOM     83  C   UNL A   1      46.002  32.630  28.364  1.00  0.00     0.064 A 
ATOM     84  C   UNL A   1      46.615  33.073  29.546  1.00  0.00     0.173 A 
ATOM     85  C   UNL A   1      45.888  33.535  27.299  1.00  0.00     0.173 A 
ATOM     86  F   UNL A   1      46.730  32.247  30.596  1.00  0.00    -0.203 F 
ATOM     87  C   UNL A   1      47.082  34.379  29.660  1.00  0.00     0.198 A 
ATOM     88  C   UNL A   1      46.380  34.834  27.409  1.00  0.00     0.198 A 
ATOM     89  F   UNL A   1      45.312  33.158  26.149  1.00  0.00    -0.203 F 
ATOM     90  F   UNL A   1      47.630  34.792  30.812  1.00  0.00    -0.200 F 
ATOM     91  C   UNL A   1      46.972  35.255  28.591  1.00  0.00     0.200 A 
ATOM     92  F   UNL A   1      46.283  35.675  26.371  1.00  0.00    -0.200 F 
ATOM     93  F   UNL A   1      47.432  36.509  28.700  1.00  0.00    -0.200 F 
ENDBRANCH  60  83
ENDBRANCH  34  35
ENDBRANCH  26  29
ENDBRANCH  24  25
ENDBRANCH  23  24
ENDBRANCH  22  23
ENDBRANCH   1  22
TORSDOF 15
ENDMDL
MODEL 2
REMARK VINA RESULT:     -12.4      5.770     11.487
REMARK SMILES C[C@@H](C(=O)NCCCCNC(=O)c1ccc(-c2c3nc(c(-c4c(F)c(F)c(F)c(F)c4F)c4ccc([nH]4)c(-c4c(F)c(F)c(F)c(F)c4F)c4nc(c(-c5c(F)c(F)c(F)c(F)c5F)c5ccc2[nH]5)C=C4)C=C3)cc1)c1ccc(C[C@H]2CCC[C@H]2O)cc1
REMARK SMILES IDX 6 1 5 2 3 3 4 4 2 6 1 7 76 8 77 9 88 10 78 11 87 12 79 13
REMARK SMILES IDX 80 14 81 15 82 16 85 17 83 18 84 19 86 20 7 22 8 23 9 24
REMARK SMILES IDX 10 25 11 26 12 28 13 29 14 30 75 31 15 32 74 33 16 34 17 35
REMARK SMILES IDX 18 36 68 37 19 38 73 39 67 40 69 41 20 42 72 43 66 44 65 45
REMARK SMILES IDX 21 47 53 48 33 49 52 50 34 51 37 52 51 53 70 54 35 55 36 56
REMARK SMILES IDX 50 58 71 59 38 60 22 61 23 62 31 63 24 64 25 65 29 66 32 67
REMARK SMILES IDX 26 68 27 69 30 70 28 71 54 72 55 73 63 74 56 75 57 76 61 77
REMARK SMILES IDX 64 78 58 79 59 80 62 81 60 82 39 83 40 84 48 85 41 86 42 87
REMARK SMILES IDX 46 88 49 89 43 90 44 91 47 92 45 93
REMARK H PARENT 5 5 86 21 10 27 69 46 37 57
REMARK Flexibility Score: inf
ROOT
ATOM      1  C   UNL A   1      32.976  28.791  26.698  1.00  0.00     0.116 C 
ENDROOT
BRANCH   1   2
ATOM      2  N   UNL A   1      32.073  27.672  26.873  1.00  0.00    -0.356 N 
ATOM      3  C   UNL A   1      32.072  26.442  26.276  1.00  0.00     0.227 C 
ATOM      4  O   UNL A   1      31.100  25.719  26.501  1.00  0.00    -0.274 OA
ATOM      5  H   UNL A   1      31.348  27.820  27.521  1.00  0.00     0.163 HD
BRANCH   3   6
ATOM      6  C   UNL A   1      33.258  26.024  25.400  1.00  0.00     0.105 C 
ATOM      7  C   UNL A   1      33.116  26.516  23.955  1.00  0.00     0.023 C 
BRANCH   6   8
ATOM      8  C   UNL A   1      33.496  24.519  25.403  1.00  0.00    -0.036 A 
ATOM      9  C   UNL A   1      34.125  23.912  26.498  1.00  0.00     0.005 A 
ATOM     10  C   UNL A   1      33.154  23.725  24.300  1.00  0.00     0.005 A 
ATOM     11  C   UNL A   1      34.495  22.567  26.442  1.00  0.00     0.004 A 
ATOM     12  C   UNL A   1      33.544  22.388  24.238  1.00  0.00     0.004 A 
ATOM     13  C   UNL A   1      34.276  21.815  25.284  1.00  0.00    -0.048 A 
BRANCH  13  14
ATOM     14  C   UNL A   1      34.868  20.436  25.135  1.00  0.00     0.041 C 
BRANCH  14  15
ATOM     15  C   UNL A   1      33.943  19.341  24.566  1.00  0.00     0.022 C 
ATOM     16  C   UNL A   1      34.597  17.983  24.251  1.00  0.00     0.007 C 
ATOM     17  C   UNL A   1      32.680  18.980  25.365  1.00  0.00     0.117 C 
ATOM     18  C   UNL A   1      33.495  16.930  24.413  1.00  0.00     0.003 C 
ATOM     19  C   UNL A   1      32.207  17.705  24.677  1.00  0.00     0.032 C 
BRANCH  17  20
ATOM     20  O   UNL A   1      32.903  18.697  26.735  1.00  0.00    -0.393 OA
ATOM     21  H   UNL A   1      33.577  18.003  26.817  1.00  0.00     0.210 HD
ENDBRANCH  17  20
ENDBRANCH  14  15
ENDBRANCH  13  14
ENDBRANCH   6   8
ENDBRANCH   3   6
ENDBRANCH   1   2
BRANCH   1  22
ATOM     22  C   UNL A   1      32.317  29.911  25.888  1.00  0.00     0.023 C 
BRANCH  22  23
ATOM     23  C   UNL A   1      31.838  31.103  26.721  1.00  0.00     0.023 C 
BRANCH  23  24
ATOM     24  C   UNL A   1      32.943  31.985  27.288  1.00  0.00     0.116 C 
BRANCH  24  25
ATOM     25  N   UNL A   1      32.537  33.374  27.440  1.00  0.00    -0.352 N 
ATOM     26  C   UNL A   1      33.039  34.337  28.284  1.00  0.00     0.251 C 
ATOM     27  H   UNL A   1      31.798  33.665  26.857  1.00  0.00     0.163 HD
ATOM     28  O   UNL A   1      32.498  35.428  28.377  1.00  0.00    -0.269 OA
BRANCH  26  29
ATOM     29  C   UNL A   1      34.221  34.021  29.114  1.00  0.00     0.039 A 
ATOM     30  C   UNL A   1      34.028  33.389  30.345  1.00  0.00     0.014 A 
ATOM     31  C   UNL A   1      35.511  34.304  28.656  1.00  0.00     0.014 A 
ATOM     32  C   UNL A   1      35.135  32.951  31.075  1.00  0.00     0.010 A 
ATOM     33  C   UNL A   1      36.610  33.819  29.358  1.00  0.00     0.010 A 
ATOM     34  C   UNL A   1      36.430  33.117  30.561  1.00  0.00    -0.014 A 
BRANCH  34  35
ATOM     35  C   UNL A   1      37.610  32.507  31.224  1.00  0.00     0.031 A 
ATOM     36  C   UNL A   1      38.301  31.326  30.607  1.00  0.00     0.074 A 
ATOM     37  C   UNL A   1      37.984  32.954  32.440  1.00  0.00     0.049 A 
ATOM     38  N   UNL A   1      39.254  30.578  31.100  1.00  0.00    -0.248 NA
ATOM     39  C   UNL A   1      37.844  30.916  29.270  1.00  0.00     0.031 C 
ATOM     40  C   UNL A   1      37.356  34.061  33.164  1.00  0.00     0.029 A 
ATOM     41  N   UNL A   1      38.962  32.511  33.296  1.00  0.00    -0.354 N 
ATOM     42  C   UNL A   1      39.496  29.597  30.148  1.00  0.00     0.074 A 
ATOM     43  C   UNL A   1      38.572  29.828  29.058  1.00  0.00     0.031 C 
ATOM     44  C   UNL A   1      37.959  34.207  34.355  1.00  0.00     0.029 A 
ATOM     45  C   UNL A   1      38.986  33.180  34.496  1.00  0.00     0.049 A 
ATOM     46  H   UNL A   1      39.587  31.784  33.072  1.00  0.00     0.167 HD
ATOM     47  C   UNL A   1      40.415  28.604  30.180  1.00  0.00     0.037 A 
ATOM     48  C   UNL A   1      39.732  32.971  35.599  1.00  0.00     0.037 A 
ATOM     49  C   UNL A   1      41.359  28.405  31.248  1.00  0.00     0.049 A 
ATOM     50  C   UNL A   1      40.739  31.854  35.604  1.00  0.00     0.074 A 
ATOM     51  C   UNL A   1      42.403  27.499  31.315  1.00  0.00     0.029 A 
ATOM     52  N   UNL A   1      41.368  29.115  32.438  1.00  0.00    -0.354 N 
ATOM     53  N   UNL A   1      41.024  30.993  34.657  1.00  0.00    -0.248 NA
ATOM     54  C   UNL A   1      41.528  31.677  36.832  1.00  0.00     0.031 C 
ATOM     55  C   UNL A   1      43.013  27.626  32.567  1.00  0.00     0.029 A 
ATOM     56  C   UNL A   1      42.375  28.641  33.262  1.00  0.00     0.049 A 
ATOM     57  H   UNL A   1      40.751  29.848  32.663  1.00  0.00     0.167 HD
ATOM     58  C   UNL A   1      42.030  30.186  35.168  1.00  0.00     0.074 A 
ATOM     59  C   UNL A   1      42.325  30.671  36.499  1.00  0.00     0.031 C 
ATOM     60  C   UNL A   1      42.653  29.133  34.585  1.00  0.00     0.037 A 
BRANCH  47  61
ATOM     61  C   UNL A   1      40.461  27.649  29.026  1.00  0.00     0.064 A 
ATOM     62  C   UNL A   1      39.662  26.497  28.994  1.00  0.00     0.173 A 
ATOM     63  C   UNL A   1      41.249  27.938  27.902  1.00  0.00     0.173 A 
ATOM     64  F   UNL A   1      38.899  26.175  30.048  1.00  0.00    -0.203 F 
ATOM     65  C   UNL A   1      39.657  25.663  27.879  1.00  0.00     0.198 A 
ATOM     66  C   UNL A   1      41.224  27.114  26.780  1.00  0.00     0.198 A 
ATOM     67  F   UNL A   1      42.025  29.032  27.883  1.00  0.00    -0.203 F 
ATOM     68  F   UNL A   1      38.904  24.556  27.876  1.00  0.00    -0.200 F 
ATOM     69  C   UNL A   1      40.430  25.978  26.769  1.00  0.00     0.200 A 
ATOM     70  F   UNL A   1      41.962  27.426  25.705  1.00  0.00    -0.200 F 
ATOM     71  F   UNL A   1      40.410  25.184  25.690  1.00  0.00    -0.200 F 
ENDBRANCH  47  61
BRANCH  48  72
ATOM     72  C   UNL A   1      39.541  33.822  36.802  1.00  0.00     0.064 A 
ATOM     73  C   UNL A   1      40.187  35.060  36.919  1.00  0.00     0.173 A 
ATOM     74  C   UNL A   1      38.733  33.402  37.869  1.00  0.00     0.173 A 
ATOM     75  F   UNL A   1      40.989  35.492  35.934  1.00  0.00    -0.203 F 
ATOM     76  C   UNL A   1      40.053  35.836  38.069  1.00  0.00     0.198 A 
ATOM     77  C   UNL A   1      38.578  34.192  39.007  1.00  0.00     0.198 A 
ATOM     78  F   UNL A   1      38.092  32.227  37.805  1.00  0.00    -0.203 F 
ATOM     79  F   UNL A   1      40.724  36.990  38.177  1.00  0.00    -0.200 F 
ATOM     80  C   UNL A   1      39.246  35.403  39.110  1.00  0.00     0.200 A 
ATOM     81  F   UNL A   1      37.787  33.776  40.006  1.00  0.00    -0.200 F 
ATOM     82  F   UNL A   1      39.120  36.147  40.217  1.00  0.00    -0.200 F 
ENDBRANCH  48  72
BRANCH  60  83
ATOM     83  C   UNL A   1      43.720  28.441  35.380  1.00  0.00     0.064 A 
ATOM     84  C   UNL A   1      45.067  28.817  35.273  1.00  0.00     0.173 A 
ATOM     85  C   UNL A   1      43.387  27.427  36.290  1.00  0.00     0.173 A 
ATOM     86  F   UNL A   1      45.434  29.769  34.403  1.00  0.00    -0.203 F 
ATOM     87  C   UNL A   1      46.046  28.189  36.039  1.00  0.00     0.198 A 
ATOM     88  C   UNL A   1      44.365  26.820  37.073  1.00  0.00     0.198 A 
ATOM     89  F   UNL A   1      42.112  27.035  36.430  1.00  0.00    -0.203 F 
ATOM     90  F   UNL A   1      47.331  28.537  35.893  1.00  0.00    -0.200 F 
ATOM     91  C   UNL A   1      45.693  27.199  36.943  1.00  0.00     0.200 A 
ATOM     92  F   UNL A   1      44.022  25.871  37.954  1.00  0.00    -0.200 F 
ATOM     93  F   UNL A   1      46.636  26.603  37.687  1.00  0.00    -0.200 F 
ENDBRANCH  60  83
ENDBRANCH  34  35
ENDBRANCH  26  29
ENDBRANCH  24  25
ENDBRANCH  23  24
ENDBRANCH  22  23
ENDBRANCH   1  22
TORSDOF 15
ENDMDL
MODEL 3
REMARK VINA RESULT:     -12.3      4.233     10.270
REMARK SMILES C[C@@H](C(=O)NCCCCNC(=O)c1ccc(-c2c3nc(c(-c4c(F)c(F)c(F)c(F)c4F)c4ccc([nH]4)c(-c4c(F)c(F)c(F)c(F)c4F)c4nc(c(-c5c(F)c(F)c(F)c(F)c5F)c5ccc2[nH]5)C=C4)C=C3)cc1)c1ccc(C[C@H]2CCC[C@H]2O)cc1
REMARK SMILES IDX 6 1 5 2 3 3 4 4 2 6 1 7 76 8 77 9 88 10 78 11 87 12 79 13
REMARK SMILES IDX 80 14 81 15 82 16 85 17 83 18 84 19 86 20 7 22 8 23 9 24
REMARK SMILES IDX 10 25 11 26 12 28 13 29 14 30 75 31 15 32 74 33 16 34 17 35
REMARK SMILES IDX 18 36 68 37 19 38 73 39 67 40 69 41 20 42 72 43 66 44 65 45
REMARK SMILES IDX 21 47 53 48 33 49 52 50 34 51 37 52 51 53 70 54 35 55 36 56
REMARK SMILES IDX 50 58 71 59 38 60 22 61 23 62 31 63 24 64 25 65 29 66 32 67
REMARK SMILES IDX 26 68 27 69 30 70 28 71 54 72 55 73 63 74 56 75 57 76 61 77
REMARK SMILES IDX 64 78 58 79 59 80 62 81 60 82 39 83 40 84 48 85 41 86 42 87
REMARK SMILES IDX 46 88 49 89 43 90 44 91 47 92 45 93
REMARK H PARENT 5 5 86 21 10 27 69 46 37 57
REMARK Flexibility Score: inf
ROOT
ATOM      1  C   UNL A   1      43.382  19.158  25.201  1.00  0.00     0.116 C 
ENDROOT
BRANCH   1   2
ATOM      2  N   UNL A   1      44.817  19.351  25.252  1.00  0.00    -0.356 N 
ATOM      3  C   UNL A   1      45.553  20.501  25.175  1.00  0.00     0.227 C 
ATOM      4  O   UNL A   1      46.775  20.371  25.102  1.00  0.00    -0.274 OA
ATOM      5  H   UNL A   1      45.344  18.528  25.358  1.00  0.00     0.163 HD
BRANCH   3   6
ATOM      6  C   UNL A   1      44.842  21.858  25.207  1.00  0.00     0.105 C 
ATOM      7  C   UNL A   1      45.429  22.847  24.192  1.00  0.00     0.023 C 
BRANCH   6   8
ATOM      8  C   UNL A   1      44.839  22.494  26.592  1.00  0.00    -0.036 A 
ATOM      9  C   UNL A   1      43.766  22.270  27.463  1.00  0.00     0.005 A 
ATOM     10  C   UNL A   1      45.866  23.358  26.998  1.00  0.00     0.005 A 
ATOM     11  C   UNL A   1      43.674  22.974  28.664  1.00  0.00     0.004 A 
ATOM     12  C   UNL A   1      45.760  24.076  28.189  1.00  0.00     0.004 A 
ATOM     13  C   UNL A   1      44.630  23.937  29.001  1.00  0.00    -0.048 A 
BRANCH  13  14
ATOM     14  C   UNL A   1      44.420  24.854  30.180  1.00  0.00     0.041 C 
BRANCH  14  15
ATOM     15  C   UNL A   1      44.870  26.320  30.008  1.00  0.00     0.022 C 
ATOM     16  C   UNL A   1      43.871  27.404  30.452  1.00  0.00     0.007 C 
ATOM     17  C   UNL A   1      46.202  26.743  30.649  1.00  0.00     0.117 C 
ATOM     18  C   UNL A   1      44.711  28.614  30.871  1.00  0.00     0.003 C 
ATOM     19  C   UNL A   1      46.157  28.262  30.532  1.00  0.00     0.032 C 
BRANCH  17  20
ATOM     20  O   UNL A   1      46.340  26.400  32.017  1.00  0.00    -0.393 OA
ATOM     21  H   UNL A   1      47.260  26.153  32.197  1.00  0.00     0.210 HD
ENDBRANCH  17  20
ENDBRANCH  14  15
ENDBRANCH  13  14
ENDBRANCH   6   8
ENDBRANCH   3   6
ENDBRANCH   1   2
BRANCH   1  22
ATOM     22  C   UNL A   1      42.845  18.652  26.541  1.00  0.00     0.023 C 
BRANCH  22  23
ATOM     23  C   UNL A   1      41.611  19.397  27.057  1.00  0.00     0.023 C 
BRANCH  23  24
ATOM     24  C   UNL A   1      41.161  20.577  26.204  1.00  0.00     0.116 C 
BRANCH  24  25
ATOM     25  N   UNL A   1      39.736  20.551  25.910  1.00  0.00    -0.352 N 
ATOM     26  C   UNL A   1      38.798  21.544  26.077  1.00  0.00     0.251 C 
ATOM     27  H   UNL A   1      39.395  19.705  25.541  1.00  0.00     0.163 HD
ATOM     28  O   UNL A   1      37.612  21.317  25.897  1.00  0.00    -0.269 OA
BRANCH  26  29
ATOM     29  C   UNL A   1      39.239  22.883  26.521  1.00  0.00     0.039 A 
ATOM     30  C   UNL A   1      40.091  22.979  27.624  1.00  0.00     0.014 A 
ATOM     31  C   UNL A   1      38.853  24.030  25.821  1.00  0.00     0.014 A 
ATOM     32  C   UNL A   1      40.635  24.218  27.969  1.00  0.00     0.010 A 
ATOM     33  C   UNL A   1      39.439  25.254  26.132  1.00  0.00     0.010 A 
ATOM     34  C   UNL A   1      40.353  25.353  27.193  1.00  0.00    -0.014 A 
BRANCH  34  35
ATOM     35  C   UNL A   1      41.053  26.642  27.423  1.00  0.00     0.031 A 
ATOM     36  C   UNL A   1      42.461  26.838  26.943  1.00  0.00     0.074 A 
ATOM     37  C   UNL A   1      40.450  27.593  28.166  1.00  0.00     0.049 A 
ATOM     38  N   UNL A   1      43.278  27.834  27.168  1.00  0.00    -0.248 NA
ATOM     39  C   UNL A   1      43.036  25.761  26.122  1.00  0.00     0.031 C 
ATOM     40  C   UNL A   1      39.103  27.495  28.732  1.00  0.00     0.029 A 
ATOM     41  N   UNL A   1      40.904  28.813  28.600  1.00  0.00    -0.354 N 
ATOM     42  C   UNL A   1      44.468  27.497  26.538  1.00  0.00     0.074 A 
ATOM     43  C   UNL A   1      44.278  26.192  25.944  1.00  0.00     0.031 C 
ATOM     44  C   UNL A   1      38.842  28.605  29.442  1.00  0.00     0.029 A 
ATOM     45  C   UNL A   1      40.016  29.471  29.417  1.00  0.00     0.049 A 
ATOM     46  H   UNL A   1      41.782  29.183  28.351  1.00  0.00     0.167 HD
ATOM     47  C   UNL A   1      45.609  28.220  26.457  1.00  0.00     0.037 A 
ATOM     48  C   UNL A   1      40.144  30.630  30.093  1.00  0.00     0.037 A 
ATOM     49  C   UNL A   1      45.779  29.536  27.015  1.00  0.00     0.049 A 
ATOM     50  C   UNL A   1      41.428  31.406  29.987  1.00  0.00     0.074 A 
ATOM     51  C   UNL A   1      46.858  30.393  26.884  1.00  0.00     0.029 A 
ATOM     52  N   UNL A   1      44.851  30.180  27.817  1.00  0.00    -0.354 N 
ATOM     53  N   UNL A   1      42.513  31.119  29.308  1.00  0.00    -0.248 NA
ATOM     54  C   UNL A   1      41.508  32.665  30.742  1.00  0.00     0.031 C 
ATOM     55  C   UNL A   1      46.603  31.537  27.648  1.00  0.00     0.029 A 
ATOM     56  C   UNL A   1      45.348  31.408  28.221  1.00  0.00     0.049 A 
ATOM     57  H   UNL A   1      43.968  29.819  28.063  1.00  0.00     0.167 HD
ATOM     58  C   UNL A   1      43.394  32.165  29.542  1.00  0.00     0.074 A 
ATOM     59  C   UNL A   1      42.713  33.105  30.406  1.00  0.00     0.031 C 
ATOM     60  C   UNL A   1      44.658  32.330  29.083  1.00  0.00     0.037 A 
BRANCH  47  61
ATOM     61  C   UNL A   1      46.775  27.618  25.733  1.00  0.00     0.064 A 
ATOM     62  C   UNL A   1      46.977  27.831  24.362  1.00  0.00     0.173 A 
ATOM     63  C   UNL A   1      47.747  26.894  26.438  1.00  0.00     0.173 A 
ATOM     64  F   UNL A   1      46.070  28.510  23.643  1.00  0.00    -0.203 F 
ATOM     65  C   UNL A   1      48.107  27.332  23.721  1.00  0.00     0.198 A 
ATOM     66  C   UNL A   1      48.888  26.416  25.799  1.00  0.00     0.198 A 
ATOM     67  F   UNL A   1      47.603  26.670  27.753  1.00  0.00    -0.203 F 
ATOM     68  F   UNL A   1      48.271  27.527  22.405  1.00  0.00    -0.200 F 
ATOM     69  C   UNL A   1      49.067  26.635  24.441  1.00  0.00     0.200 A 
ATOM     70  F   UNL A   1      49.819  25.754  26.499  1.00  0.00    -0.200 F 
ATOM     71  F   UNL A   1      50.164  26.171  23.826  1.00  0.00    -0.200 F 
ENDBRANCH  47  61
BRANCH  48  72
ATOM     72  C   UNL A   1      39.035  31.119  30.952  1.00  0.00     0.064 A 
ATOM     73  C   UNL A   1      38.958  30.760  32.304  1.00  0.00     0.173 A 
ATOM     74  C   UNL A   1      38.015  31.930  30.432  1.00  0.00     0.173 A 
ATOM     75  F   UNL A   1      39.897  29.966  32.841  1.00  0.00    -0.203 F 
ATOM     76  C   UNL A   1      37.890  31.173  33.099  1.00  0.00     0.198 A 
ATOM     77  C   UNL A   1      36.962  32.364  31.235  1.00  0.00     0.198 A 
ATOM     78  F   UNL A   1      38.044  32.302  29.144  1.00  0.00    -0.203 F 
ATOM     79  F   UNL A   1      37.814  30.771  34.375  1.00  0.00    -0.200 F 
ATOM     80  C   UNL A   1      36.895  31.977  32.565  1.00  0.00     0.200 A 
ATOM     81  F   UNL A   1      36.009  33.152  30.718  1.00  0.00    -0.200 F 
ATOM     82  F   UNL A   1      35.867  32.371  33.328  1.00  0.00    -0.200 F 
ENDBRANCH  48  72
BRANCH  60  83
ATOM     83  C   UNL A   1      45.383  33.576  29.499  1.00  0.00     0.064 A 
ATOM     84  C   UNL A   1      45.260  34.768  28.771  1.00  0.00     0.173 A 
ATOM     85  C   UNL A   1      46.168  33.590  30.662  1.00  0.00     0.173 A 
ATOM     86  F   UNL A   1      44.534  34.797  27.643  1.00  0.00    -0.203 F 
ATOM     87  C   UNL A   1      45.911  35.927  29.183  1.00  0.00     0.198 A 
ATOM     88  C   UNL A   1      46.796  34.758  31.085  1.00  0.00     0.198 A 
ATOM     89  F   UNL A   1      46.313  32.476  31.394  1.00  0.00    -0.203 F 
ATOM     90  F   UNL A   1      45.810  37.045  28.451  1.00  0.00    -0.200 F 
ATOM     91  C   UNL A   1      46.670  35.923  30.343  1.00  0.00     0.200 A 
ATOM     92  F   UNL A   1      47.521  34.756  32.212  1.00  0.00    -0.200 F 
ATOM     93  F   UNL A   1      47.289  37.043  30.744  1.00  0.00    -0.200 F 
ENDBRANCH  60  83
ENDBRANCH  34  35
ENDBRANCH  26  29
ENDBRANCH  24  25
ENDBRANCH  23  24
ENDBRANCH  22  23
ENDBRANCH   1  22
TORSDOF 15
ENDMDL
