MODEL 1
REMARK VINA RESULT:     -12.2      0.000      0.000
REMARK SMILES CC(C)c1nc(C(=O)NCCCCNC(=O)c2ccc(-c3c4nc(c(-c5c(F)c(F)c(F)c(F)c5F)c5ccc([nH]5)c(-c5c(F)c(F)c(F)c(F)c5F)c5nc(c(-c6c(F)c(F)c(F)c(F)c6F)c6ccc3[nH]6)C=C5)C=C4)cc2)nn1-c1ccccc1F
REMARK SMILES IDX 12 1 11 2 10 3 9 4 7 5 8 6 6 8 4 9 5 10 81 11 80 12 2 13
REMARK SMILES IDX 1 14 3 15 82 16 83 17 87 18 84 19 86 20 88 21 85 22 13 23
REMARK SMILES IDX 14 24 15 25 16 27 17 28 18 29 79 30 19 31 78 32 20 33 21 34
REMARK SMILES IDX 22 35 72 36 23 37 77 38 71 39 73 40 24 41 76 42 70 43 69 44
REMARK SMILES IDX 25 46 57 47 37 48 56 49 38 50 41 51 55 52 74 53 39 54 40 55
REMARK SMILES IDX 54 57 75 58 42 59 26 60 27 61 35 62 28 63 29 64 33 65 36 66
REMARK SMILES IDX 30 67 31 68 34 69 32 70 58 71 59 72 67 73 60 74 61 75 65 76
REMARK SMILES IDX 68 77 62 78 63 79 66 80 64 81 43 82 44 83 52 84 45 85 46 86
REMARK SMILES IDX 50 87 53 88 47 89 48 90 51 91 49 92
REMARK H PARENT 9 7 14 26 73 45 41 56
REMARK Flexibility Score: inf
ROOT
ATOM      1  C   UNL A   1      37.781  19.771  24.977  1.00  0.00     0.023 C 
ENDROOT
BRANCH   1   2
ATOM      2  C   UNL A   1      36.896  20.905  24.448  1.00  0.00     0.023 C 
BRANCH   2   3
ATOM      3  C   UNL A   1      36.659  22.078  25.403  1.00  0.00     0.116 C 
BRANCH   3   4
ATOM      4  N   UNL A   1      35.761  21.749  26.501  1.00  0.00    -0.349 N 
ATOM      5  C   UNL A   1      34.532  22.288  26.859  1.00  0.00     0.290 C 
ATOM      6  O   UNL A   1      34.012  21.848  27.888  1.00  0.00    -0.266 OA
ATOM      7  H   UNL A   1      36.078  21.024  27.087  1.00  0.00     0.163 HD
BRANCH   5   8
ATOM      8  C   UNL A   1      33.907  23.361  26.047  1.00  0.00     0.239 A 
ATOM      9  C   UNL A   1      32.577  24.352  24.693  1.00  0.00     0.136 A 
ATOM     10  N   UNL A   1      32.938  23.138  25.086  1.00  0.00    -0.207 NA
ATOM     11  N   UNL A   1      33.221  25.266  25.511  1.00  0.00    -0.214 N 
ATOM     12  N   UNL A   1      34.254  24.654  26.126  1.00  0.00    -0.140 NA
BRANCH   9  13
ATOM     13  C   UNL A   1      31.819  24.648  23.421  1.00  0.00     0.051 C 
ATOM     14  C   UNL A   1      32.730  24.809  22.210  1.00  0.00     0.016 C 
ATOM     15  C   UNL A   1      30.653  23.703  23.126  1.00  0.00     0.016 C 
ENDBRANCH   9  13
BRANCH  11  16
ATOM     16  C   UNL A   1      32.960  26.613  25.817  1.00  0.00     0.102 A 
ATOM     17  C   UNL A   1      32.071  26.921  26.856  1.00  0.00     0.031 A 
ATOM     18  C   UNL A   1      33.499  27.634  25.043  1.00  0.00     0.148 A 
ATOM     19  C   UNL A   1      31.808  28.255  27.165  1.00  0.00     0.002 A 
ATOM     20  C   UNL A   1      33.223  28.966  25.339  1.00  0.00     0.041 A 
ATOM     21  F   UNL A   1      34.218  27.366  23.948  1.00  0.00    -0.205 F 
ATOM     22  C   UNL A   1      32.391  29.277  26.414  1.00  0.00     0.003 A 
ENDBRANCH  11  16
ENDBRANCH   5   8
ENDBRANCH   3   4
ENDBRANCH   2   3
ENDBRANCH   1   2
BRANCH   1  23
ATOM     23  C   UNL A   1      39.005  20.227  25.766  1.00  0.00     0.116 C 
BRANCH  23  24
ATOM     24  N   UNL A   1      40.102  19.260  25.751  1.00  0.00    -0.352 N 
ATOM     25  C   UNL A   1      41.450  19.514  25.891  1.00  0.00     0.251 C 
ATOM     26  H   UNL A   1      39.847  18.317  25.625  1.00  0.00     0.163 HD
ATOM     27  O   UNL A   1      42.289  18.711  25.475  1.00  0.00    -0.269 OA
BRANCH  25  28
ATOM     28  C   UNL A   1      41.890  20.755  26.550  1.00  0.00     0.039 A 
ATOM     29  C   UNL A   1      42.389  21.829  25.806  1.00  0.00     0.014 A 
ATOM     30  C   UNL A   1      41.795  20.838  27.939  1.00  0.00     0.014 A 
ATOM     31  C   UNL A   1      42.703  23.019  26.459  1.00  0.00     0.010 A 
ATOM     32  C   UNL A   1      41.998  22.044  28.570  1.00  0.00     0.010 A 
ATOM     33  C   UNL A   1      42.476  23.131  27.841  1.00  0.00    -0.014 A 
BRANCH  33  34
ATOM     34  C   UNL A   1      42.506  24.445  28.492  1.00  0.00     0.031 A 
ATOM     35  C   UNL A   1      41.329  25.290  28.132  1.00  0.00     0.074 A 
ATOM     36  C   UNL A   1      43.358  24.740  29.502  1.00  0.00     0.049 A 
ATOM     37  N   UNL A   1      41.329  26.445  27.554  1.00  0.00    -0.248 NA
ATOM     38  C   UNL A   1      39.976  24.716  28.287  1.00  0.00     0.031 C 
ATOM     39  C   UNL A   1      44.343  23.833  30.105  1.00  0.00     0.029 A 
ATOM     40  N   UNL A   1      43.451  25.846  30.304  1.00  0.00    -0.354 N 
ATOM     41  C   UNL A   1      39.992  26.842  27.493  1.00  0.00     0.074 A 
ATOM     42  C   UNL A   1      39.210  25.668  27.750  1.00  0.00     0.031 C 
ATOM     43  C   UNL A   1      44.734  24.314  31.305  1.00  0.00     0.029 A 
ATOM     44  C   UNL A   1      44.152  25.629  31.494  1.00  0.00     0.049 A 
ATOM     45  H   UNL A   1      43.059  26.716  30.063  1.00  0.00     0.167 HD
ATOM     46  C   UNL A   1      39.676  28.166  27.579  1.00  0.00     0.037 A 
ATOM     47  C   UNL A   1      44.221  26.450  32.575  1.00  0.00     0.037 A 
ATOM     48  C   UNL A   1      40.848  28.964  27.319  1.00  0.00     0.049 A 
ATOM     49  C   UNL A   1      43.816  27.799  32.125  1.00  0.00     0.074 A 
ATOM     50  C   UNL A   1      41.657  29.242  26.240  1.00  0.00     0.029 A 
ATOM     51  N   UNL A   1      41.556  29.266  28.449  1.00  0.00    -0.354 N 
ATOM     52  N   UNL A   1      44.531  28.539  31.329  1.00  0.00    -0.248 NA
ATOM     53  C   UNL A   1      42.424  28.201  32.275  1.00  0.00     0.031 C 
ATOM     54  C   UNL A   1      42.950  29.516  26.783  1.00  0.00     0.029 A 
ATOM     55  C   UNL A   1      42.875  29.470  28.174  1.00  0.00     0.049 A 
ATOM     56  H   UNL A   1      41.162  29.328  29.349  1.00  0.00     0.167 HD
ATOM     57  C   UNL A   1      43.599  29.178  30.537  1.00  0.00     0.074 A 
ATOM     58  C   UNL A   1      42.345  29.084  31.277  1.00  0.00     0.031 C 
ATOM     59  C   UNL A   1      43.871  29.410  29.220  1.00  0.00     0.037 A 
BRANCH  46  60
ATOM     60  C   UNL A   1      38.546  28.727  28.444  1.00  0.00     0.064 A 
ATOM     61  C   UNL A   1      37.768  29.786  27.923  1.00  0.00     0.173 A 
ATOM     62  C   UNL A   1      38.426  28.534  29.838  1.00  0.00     0.173 A 
ATOM     63  F   UNL A   1      37.799  30.078  26.613  1.00  0.00    -0.203 F 
ATOM     64  C   UNL A   1      37.025  30.643  28.744  1.00  0.00     0.198 A 
ATOM     65  C   UNL A   1      37.648  29.364  30.649  1.00  0.00     0.198 A 
ATOM     66  F   UNL A   1      39.129  27.615  30.504  1.00  0.00    -0.203 F 
ATOM     67  F   UNL A   1      36.419  31.716  28.215  1.00  0.00    -0.200 F 
ATOM     68  C   UNL A   1      36.976  30.438  30.109  1.00  0.00     0.200 A 
ATOM     69  F   UNL A   1      37.632  29.158  31.973  1.00  0.00    -0.200 F 
ATOM     70  F   UNL A   1      36.325  31.293  30.907  1.00  0.00    -0.200 F 
ENDBRANCH  46  60
BRANCH  47  71
ATOM     71  C   UNL A   1      44.393  26.138  34.018  1.00  0.00     0.064 A 
ATOM     72  C   UNL A   1      43.289  25.802  34.825  1.00  0.00     0.173 A 
ATOM     73  C   UNL A   1      45.663  25.870  34.563  1.00  0.00     0.173 A 
ATOM     74  F   UNL A   1      42.040  25.991  34.376  1.00  0.00    -0.203 F 
ATOM     75  C   UNL A   1      43.446  25.193  36.077  1.00  0.00     0.198 A 
ATOM     76  C   UNL A   1      45.819  25.269  35.815  1.00  0.00     0.198 A 
ATOM     77  F   UNL A   1      46.776  26.093  33.851  1.00  0.00    -0.203 F 
ATOM     78  F   UNL A   1      42.367  24.820  36.780  1.00  0.00    -0.200 F 
ATOM     79  C   UNL A   1      44.711  24.913  36.563  1.00  0.00     0.200 A 
ATOM     80  F   UNL A   1      47.047  24.972  36.260  1.00  0.00    -0.200 F 
ATOM     81  F   UNL A   1      44.863  24.265  37.726  1.00  0.00    -0.200 F 
ENDBRANCH  47  71
BRANCH  59  82
ATOM     82  C   UNL A   1      45.312  29.470  28.816  1.00  0.00     0.064 A 
ATOM     83  C   UNL A   1      46.078  28.376  28.381  1.00  0.00     0.173 A 
ATOM     84  C   UNL A   1      45.924  30.732  28.816  1.00  0.00     0.173 A 
ATOM     85  F   UNL A   1      45.541  27.154  28.264  1.00  0.00    -0.203 F 
ATOM     86  C   UNL A   1      47.416  28.537  28.019  1.00  0.00     0.198 A 
ATOM     87  C   UNL A   1      47.242  30.896  28.411  1.00  0.00     0.198 A 
ATOM     88  F   UNL A   1      45.226  31.817  29.182  1.00  0.00    -0.203 F 
ATOM     89  F   UNL A   1      48.141  27.475  27.639  1.00  0.00    -0.200 F 
ATOM     90  C   UNL A   1      47.993  29.797  28.028  1.00  0.00     0.200 A 
ATOM     91  F   UNL A   1      47.779  32.124  28.377  1.00  0.00    -0.200 F 
ATOM     92  F   UNL A   1      49.269  29.956  27.651  1.00  0.00    -0.200 F 
ENDBRANCH  59  82
ENDBRANCH  33  34
ENDBRANCH  25  28
ENDBRANCH  23  24
ENDBRANCH   1  23
TORSDOF 13
ENDMDL
MODEL 2
REMARK VINA RESULT:     -12.1      0.718      1.764
REMARK SMILES CC(C)c1nc(C(=O)NCCCCNC(=O)c2ccc(-c3c4nc(c(-c5c(F)c(F)c(F)c(F)c5F)c5ccc([nH]5)c(-c5c(F)c(F)c(F)c(F)c5F)c5nc(c(-c6c(F)c(F)c(F)c(F)c6F)c6ccc3[nH]6)C=C5)C=C4)cc2)nn1-c1ccccc1F
REMARK SMILES IDX 12 1 11 2 10 3 9 4 7 5 8 6 6 8 4 9 5 10 81 11 80 12 2 13
REMARK SMILES IDX 1 14 3 15 82 16 83 17 87 18 84 19 86 20 88 21 85 22 13 23
REMARK SMILES IDX 14 24 15 25 16 27 17 28 18 29 79 30 19 31 78 32 20 33 21 34
REMARK SMILES IDX 22 35 72 36 23 37 77 38 71 39 73 40 24 41 76 42 70 43 69 44
REMARK SMILES IDX 25 46 57 47 37 48 56 49 38 50 41 51 55 52 74 53 39 54 40 55
REMARK SMILES IDX 54 57 75 58 42 59 26 60 27 61 35 62 28 63 29 64 33 65 36 66
REMARK SMILES IDX 30 67 31 68 34 69 32 70 58 71 59 72 67 73 60 74 61 75 65 76
REMARK SMILES IDX 68 77 62 78 63 79 66 80 64 81 43 82 44 83 52 84 45 85 46 86
REMARK SMILES IDX 50 87 53 88 47 89 48 90 51 91 49 92
REMARK H PARENT 9 7 14 26 73 45 41 56
REMARK Flexibility Score: inf
ROOT
ATOM      1  C   UNL A   1      37.233  20.413  24.682  1.00  0.00     0.023 C 
ENDROOT
BRANCH   1   2
ATOM      2  C   UNL A   1      36.192  21.538  24.671  1.00  0.00     0.023 C 
BRANCH   2   3
ATOM      3  C   UNL A   1      36.222  22.497  25.863  1.00  0.00     0.116 C 
BRANCH   3   4
ATOM      4  N   UNL A   1      35.269  22.145  26.907  1.00  0.00    -0.349 N 
ATOM      5  C   UNL A   1      34.013  22.660  27.198  1.00  0.00     0.290 C 
ATOM      6  O   UNL A   1      33.444  22.202  28.193  1.00  0.00    -0.266 OA
ATOM      7  H   UNL A   1      35.565  21.419  27.504  1.00  0.00     0.163 HD
BRANCH   5   8
ATOM      8  C   UNL A   1      33.418  23.729  26.362  1.00  0.00     0.239 A 
ATOM      9  C   UNL A   1      32.027  24.778  25.116  1.00  0.00     0.136 A 
ATOM     10  N   UNL A   1      32.272  23.570  25.603  1.00  0.00    -0.207 NA
ATOM     11  N   UNL A   1      32.930  25.655  25.694  1.00  0.00    -0.214 N 
ATOM     12  N   UNL A   1      33.957  24.949  26.213  1.00  0.00    -0.140 NA
BRANCH   9  13
ATOM     13  C   UNL A   1      31.107  25.060  23.951  1.00  0.00     0.051 C 
ATOM     14  C   UNL A   1      30.654  23.794  23.232  1.00  0.00     0.016 C 
ATOM     15  C   UNL A   1      29.927  25.980  24.266  1.00  0.00     0.016 C 
ENDBRANCH   9  13
BRANCH  11  16
ATOM     16  C   UNL A   1      32.925  27.051  25.857  1.00  0.00     0.102 A 
ATOM     17  C   UNL A   1      32.321  27.607  26.992  1.00  0.00     0.031 A 
ATOM     18  C   UNL A   1      33.429  27.884  24.864  1.00  0.00     0.148 A 
ATOM     19  C   UNL A   1      32.312  28.992  27.160  1.00  0.00     0.002 A 
ATOM     20  C   UNL A   1      33.406  29.266  25.022  1.00  0.00     0.041 A 
ATOM     21  F   UNL A   1      33.865  27.388  23.701  1.00  0.00    -0.205 F 
ATOM     22  C   UNL A   1      32.863  29.820  26.181  1.00  0.00     0.003 A 
ENDBRANCH  11  16
ENDBRANCH   5   8
ENDBRANCH   3   4
ENDBRANCH   2   3
ENDBRANCH   1   2
BRANCH   1  23
ATOM     23  C   UNL A   1      38.533  20.749  25.407  1.00  0.00     0.116 C 
BRANCH  23  24
ATOM     24  N   UNL A   1      39.399  19.590  25.617  1.00  0.00    -0.352 N 
ATOM     25  C   UNL A   1      40.740  19.588  25.940  1.00  0.00     0.251 C 
ATOM     26  H   UNL A   1      38.975  18.707  25.516  1.00  0.00     0.163 HD
ATOM     27  O   UNL A   1      41.443  18.602  25.706  1.00  0.00    -0.269 OA
BRANCH  25  28
ATOM     28  C   UNL A   1      41.335  20.776  26.577  1.00  0.00     0.039 A 
ATOM     29  C   UNL A   1      42.015  21.735  25.819  1.00  0.00     0.014 A 
ATOM     30  C   UNL A   1      41.200  20.926  27.957  1.00  0.00     0.014 A 
ATOM     31  C   UNL A   1      42.478  22.890  26.446  1.00  0.00     0.010 A 
ATOM     32  C   UNL A   1      41.557  22.113  28.556  1.00  0.00     0.010 A 
ATOM     33  C   UNL A   1      42.218  23.088  27.812  1.00  0.00    -0.014 A 
BRANCH  33  34
ATOM     34  C   UNL A   1      42.419  24.408  28.420  1.00  0.00     0.031 A 
ATOM     35  C   UNL A   1      41.314  25.360  28.100  1.00  0.00     0.074 A 
ATOM     36  C   UNL A   1      43.353  24.638  29.373  1.00  0.00     0.049 A 
ATOM     37  N   UNL A   1      41.398  26.494  27.488  1.00  0.00    -0.248 NA
ATOM     38  C   UNL A   1      39.921  24.933  28.346  1.00  0.00     0.031 C 
ATOM     39  C   UNL A   1      44.274  23.650  29.948  1.00  0.00     0.029 A 
ATOM     40  N   UNL A   1      43.603  25.748  30.135  1.00  0.00    -0.354 N 
ATOM     41  C   UNL A   1      40.107  27.025  27.487  1.00  0.00     0.074 A 
ATOM     42  C   UNL A   1      39.227  25.945  27.823  1.00  0.00     0.031 C 
ATOM     43  C   UNL A   1      44.780  24.117  31.110  1.00  0.00     0.029 A 
ATOM     44  C   UNL A   1      44.346  25.489  31.290  1.00  0.00     0.049 A 
ATOM     45  H   UNL A   1      43.289  26.648  29.889  1.00  0.00     0.167 HD
ATOM     46  C   UNL A   1      39.933  28.376  27.551  1.00  0.00     0.037 A 
ATOM     47  C   UNL A   1      44.560  26.325  32.340  1.00  0.00     0.037 A 
ATOM     48  C   UNL A   1      41.163  29.043  27.202  1.00  0.00     0.049 A 
ATOM     49  C   UNL A   1      44.269  27.697  31.873  1.00  0.00     0.074 A 
ATOM     50  C   UNL A   1      41.932  29.209  26.073  1.00  0.00     0.029 A 
ATOM     51  N   UNL A   1      41.961  29.298  28.283  1.00  0.00    -0.354 N 
ATOM     52  N   UNL A   1      45.009  28.340  31.016  1.00  0.00    -0.248 NA
ATOM     53  C   UNL A   1      42.936  28.244  32.086  1.00  0.00     0.031 C 
ATOM     54  C   UNL A   1      43.276  29.362  26.536  1.00  0.00     0.029 A 
ATOM     55  C   UNL A   1      43.277  29.359  27.930  1.00  0.00     0.049 A 
ATOM     56  H   UNL A   1      41.628  29.423  29.201  1.00  0.00     0.167 HD
ATOM     57  C   UNL A   1      44.102  29.051  30.257  1.00  0.00     0.074 A 
ATOM     58  C   UNL A   1      42.890  29.106  31.067  1.00  0.00     0.031 C 
ATOM     59  C   UNL A   1      44.320  29.222  28.921  1.00  0.00     0.037 A 
BRANCH  46  60
ATOM     60  C   UNL A   1      38.917  29.072  28.459  1.00  0.00     0.064 A 
ATOM     61  C   UNL A   1      38.914  28.741  29.834  1.00  0.00     0.173 A 
ATOM     62  C   UNL A   1      37.759  29.743  28.009  1.00  0.00     0.173 A 
ATOM     63  F   UNL A   1      39.952  28.094  30.385  1.00  0.00    -0.203 F 
ATOM     64  C   UNL A   1      37.802  28.965  30.654  1.00  0.00     0.198 A 
ATOM     65  C   UNL A   1      36.669  30.006  28.841  1.00  0.00     0.198 A 
ATOM     66  F   UNL A   1      37.571  30.083  26.731  1.00  0.00    -0.203 F 
ATOM     67  F   UNL A   1      37.797  28.505  31.913  1.00  0.00    -0.200 F 
ATOM     68  C   UNL A   1      36.675  29.586  30.153  1.00  0.00     0.200 A 
ATOM     69  F   UNL A   1      35.579  30.592  28.328  1.00  0.00    -0.200 F 
ATOM     70  F   UNL A   1      35.583  29.741  30.912  1.00  0.00    -0.200 F 
ENDBRANCH  46  60
BRANCH  47  71
ATOM     71  C   UNL A   1      44.782  26.033  33.781  1.00  0.00     0.064 A 
ATOM     72  C   UNL A   1      43.702  25.765  34.643  1.00  0.00     0.173 A 
ATOM     73  C   UNL A   1      46.062  25.717  34.274  1.00  0.00     0.173 A 
ATOM     74  F   UNL A   1      42.444  26.003  34.245  1.00  0.00    -0.203 F 
ATOM     75  C   UNL A   1      43.887  25.173  35.899  1.00  0.00     0.198 A 
ATOM     76  C   UNL A   1      46.247  25.133  35.531  1.00  0.00     0.198 A 
ATOM     77  F   UNL A   1      47.151  25.875  33.509  1.00  0.00    -0.203 F 
ATOM     78  F   UNL A   1      42.825  24.863  36.656  1.00  0.00    -0.200 F 
ATOM     79  C   UNL A   1      45.158  24.843  36.334  1.00  0.00     0.200 A 
ATOM     80  F   UNL A   1      47.479  24.788  35.928  1.00  0.00    -0.200 F 
ATOM     81  F   UNL A   1      45.333  24.211  37.503  1.00  0.00    -0.200 F 
ENDBRANCH  47  71
BRANCH  59  82
ATOM     82  C   UNL A   1      45.734  29.123  28.437  1.00  0.00     0.064 A 
ATOM     83  C   UNL A   1      46.690  30.150  28.514  1.00  0.00     0.173 A 
ATOM     84  C   UNL A   1      46.150  27.887  27.923  1.00  0.00     0.173 A 
ATOM     85  F   UNL A   1      46.397  31.331  29.075  1.00  0.00    -0.203 F 
ATOM     86  C   UNL A   1      47.988  29.957  28.040  1.00  0.00     0.198 A 
ATOM     87  C   UNL A   1      47.455  27.683  27.496  1.00  0.00     0.198 A 
ATOM     88  F   UNL A   1      45.289  26.859  27.867  1.00  0.00    -0.203 F 
ATOM     89  F   UNL A   1      48.876  30.960  28.089  1.00  0.00    -0.200 F 
ATOM     90  C   UNL A   1      48.370  28.723  27.539  1.00  0.00     0.200 A 
ATOM     91  F   UNL A   1      47.830  26.473  27.057  1.00  0.00    -0.200 F 
ATOM     92  F   UNL A   1      49.625  28.528  27.112  1.00  0.00    -0.200 F 
ENDBRANCH  59  82
ENDBRANCH  33  34
ENDBRANCH  25  28
ENDBRANCH  23  24
ENDBRANCH   1  23
TORSDOF 13
ENDMDL
MODEL 3
REMARK VINA RESULT:     -12.1      3.829      9.094
REMARK SMILES CC(C)c1nc(C(=O)NCCCCNC(=O)c2ccc(-c3c4nc(c(-c5c(F)c(F)c(F)c(F)c5F)c5ccc([nH]5)c(-c5c(F)c(F)c(F)c(F)c5F)c5nc(c(-c6c(F)c(F)c(F)c(F)c6F)c6ccc3[nH]6)C=C5)C=C4)cc2)nn1-c1ccccc1F
REMARK SMILES IDX 12 1 11 2 10 3 9 4 7 5 8 6 6 8 4 9 5 10 81 11 80 12 2 13
REMARK SMILES IDX 1 14 3 15 82 16 83 17 87 18 84 19 86 20 88 21 85 22 13 23
REMARK SMILES IDX 14 24 15 25 16 27 17 28 18 29 79 30 19 31 78 32 20 33 21 34
REMARK SMILES IDX 22 35 72 36 23 37 77 38 71 39 73 40 24 41 76 42 70 43 69 44
REMARK SMILES IDX 25 46 57 47 37 48 56 49 38 50 41 51 55 52 74 53 39 54 40 55
REMARK SMILES IDX 54 57 75 58 42 59 26 60 27 61 35 62 28 63 29 64 33 65 36 66
REMARK SMILES IDX 30 67 31 68 34 69 32 70 58 71 59 72 67 73 60 74 61 75 65 76
REMARK SMILES IDX 68 77 62 78 63 79 66 80 64 81 43 82 44 83 52 84 45 85 46 86
REMARK SMILES IDX 50 87 53 88 47 89 48 90 51 91 49 92
REMARK H PARENT 9 7 14 26 73 45 41 56
REMARK Flexibility Score: inf
ROOT
ATOM      1  C   UNL A   1      31.436  31.772  26.555  1.00  0.00     0.023 C 
ENDROOT
BRANCH   1   2
ATOM      2  C   UNL A   1      31.544  30.260  26.330  1.00  0.00     0.023 C 
BRANCH   2   3
ATOM      3  C   UNL A   1      32.914  29.739  25.888  1.00  0.00     0.116 C 
BRANCH   3   4
ATOM      4  N   UNL A   1      33.076  29.710  24.441  1.00  0.00    -0.349 N 
ATOM      5  C   UNL A   1      33.229  28.640  23.568  1.00  0.00     0.290 C 
ATOM      6  O   UNL A   1      33.407  28.917  22.378  1.00  0.00    -0.266 OA
ATOM      7  H   UNL A   1      33.075  30.596  24.010  1.00  0.00     0.163 HD
BRANCH   5   8
ATOM      8  C   UNL A   1      33.209  27.244  24.066  1.00  0.00     0.239 A 
ATOM      9  C   UNL A   1      32.534  25.250  24.453  1.00  0.00     0.136 A 
ATOM     10  N   UNL A   1      32.095  26.425  24.027  1.00  0.00    -0.207 NA
ATOM     11  N   UNL A   1      33.908  25.343  24.601  1.00  0.00    -0.214 N 
ATOM     12  N   UNL A   1      34.257  26.645  24.653  1.00  0.00    -0.140 NA
BRANCH   9  13
ATOM     13  C   UNL A   1      31.644  24.127  24.932  1.00  0.00     0.051 C 
ATOM     14  C   UNL A   1      30.647  24.572  25.996  1.00  0.00     0.016 C 
ATOM     15  C   UNL A   1      30.961  23.323  23.824  1.00  0.00     0.016 C 
ENDBRANCH   9  13
BRANCH  11  16
ATOM     16  C   UNL A   1      34.925  24.374  24.654  1.00  0.00     0.102 A 
ATOM     17  C   UNL A   1      35.829  24.386  25.725  1.00  0.00     0.031 A 
ATOM     18  C   UNL A   1      35.096  23.466  23.615  1.00  0.00     0.148 A 
ATOM     19  C   UNL A   1      36.840  23.427  25.783  1.00  0.00     0.002 A 
ATOM     20  C   UNL A   1      36.114  22.519  23.663  1.00  0.00     0.041 A 
ATOM     21  F   UNL A   1      34.349  23.535  22.507  1.00  0.00    -0.205 F 
ATOM     22  C   UNL A   1      36.977  22.488  24.759  1.00  0.00     0.003 A 
ENDBRANCH  11  16
ENDBRANCH   5   8
ENDBRANCH   3   4
ENDBRANCH   2   3
ENDBRANCH   1   2
BRANCH   1  23
ATOM     23  C   UNL A   1      32.657  32.413  27.209  1.00  0.00     0.116 C 
BRANCH  23  24
ATOM     24  N   UNL A   1      32.440  33.800  27.617  1.00  0.00    -0.352 N 
ATOM     25  C   UNL A   1      33.100  34.500  28.604  1.00  0.00     0.251 C 
ATOM     26  H   UNL A   1      31.739  34.291  27.129  1.00  0.00     0.163 HD
ATOM     27  O   UNL A   1      32.586  35.495  29.122  1.00  0.00    -0.269 OA
BRANCH  25  28
ATOM     28  C   UNL A   1      34.435  34.057  29.041  1.00  0.00     0.039 A 
ATOM     29  C   UNL A   1      34.605  33.350  30.236  1.00  0.00     0.014 A 
ATOM     30  C   UNL A   1      35.530  34.353  28.230  1.00  0.00     0.014 A 
ATOM     31  C   UNL A   1      35.871  32.866  30.562  1.00  0.00     0.010 A 
ATOM     32  C   UNL A   1      36.754  33.783  28.493  1.00  0.00     0.010 A 
ATOM     33  C   UNL A   1      36.938  33.059  29.669  1.00  0.00    -0.014 A 
BRANCH  33  34
ATOM     34  C   UNL A   1      38.187  32.310  29.837  1.00  0.00     0.031 A 
ATOM     35  C   UNL A   1      38.091  30.913  29.318  1.00  0.00     0.074 A 
ATOM     36  C   UNL A   1      39.357  32.905  30.170  1.00  0.00     0.049 A 
ATOM     37  N   UNL A   1      38.257  29.812  29.973  1.00  0.00    -0.248 NA
ATOM     38  C   UNL A   1      37.594  30.703  27.943  1.00  0.00     0.031 C 
ATOM     39  C   UNL A   1      39.571  34.340  30.397  1.00  0.00     0.029 A 
ATOM     40  N   UNL A   1      40.628  32.404  30.249  1.00  0.00    -0.354 N 
ATOM     41  C   UNL A   1      38.119  28.785  29.036  1.00  0.00     0.074 A 
ATOM     42  C   UNL A   1      37.507  29.373  27.881  1.00  0.00     0.031 C 
ATOM     43  C   UNL A   1      40.890  34.623  30.328  1.00  0.00     0.029 A 
ATOM     44  C   UNL A   1      41.628  33.381  30.204  1.00  0.00     0.049 A 
ATOM     45  H   UNL A   1      40.821  31.442  30.331  1.00  0.00     0.167 HD
ATOM     46  C   UNL A   1      38.840  27.637  29.182  1.00  0.00     0.037 A 
ATOM     47  C   UNL A   1      42.964  33.189  30.040  1.00  0.00     0.037 A 
ATOM     48  C   UNL A   1      39.334  27.540  30.533  1.00  0.00     0.049 A 
ATOM     49  C   UNL A   1      43.247  31.776  30.367  1.00  0.00     0.074 A 
ATOM     50  C   UNL A   1      38.801  27.348  31.788  1.00  0.00     0.029 A 
ATOM     51  N   UNL A   1      40.571  28.100  30.696  1.00  0.00    -0.354 N 
ATOM     52  N   UNL A   1      43.173  31.285  31.570  1.00  0.00    -0.248 NA
ATOM     53  C   UNL A   1      43.270  30.796  29.289  1.00  0.00     0.031 C 
ATOM     54  C   UNL A   1      39.683  28.016  32.693  1.00  0.00     0.029 A 
ATOM     55  C   UNL A   1      40.762  28.531  31.975  1.00  0.00     0.049 A 
ATOM     56  H   UNL A   1      41.241  28.182  29.979  1.00  0.00     0.167 HD
ATOM     57  C   UNL A   1      42.671  30.013  31.384  1.00  0.00     0.074 A 
ATOM     58  C   UNL A   1      42.930  29.705  29.981  1.00  0.00     0.031 C 
ATOM     59  C   UNL A   1      41.798  29.487  32.291  1.00  0.00     0.037 A 
BRANCH  46  60
ATOM     60  C   UNL A   1      39.587  26.939  28.044  1.00  0.00     0.064 A 
ATOM     61  C   UNL A   1      39.567  25.525  28.000  1.00  0.00     0.173 A 
ATOM     62  C   UNL A   1      40.579  27.543  27.240  1.00  0.00     0.173 A 
ATOM     63  F   UNL A   1      38.677  24.831  28.725  1.00  0.00    -0.203 F 
ATOM     64  C   UNL A   1      40.527  24.786  27.300  1.00  0.00     0.198 A 
ATOM     65  C   UNL A   1      41.507  26.801  26.506  1.00  0.00     0.198 A 
ATOM     66  F   UNL A   1      40.774  28.864  27.203  1.00  0.00    -0.203 F 
ATOM     67  F   UNL A   1      40.548  23.450  27.405  1.00  0.00    -0.200 F 
ATOM     68  C   UNL A   1      41.505  25.426  26.563  1.00  0.00     0.200 A 
ATOM     69  F   UNL A   1      42.459  27.443  25.815  1.00  0.00    -0.200 F 
ATOM     70  F   UNL A   1      42.467  24.726  25.949  1.00  0.00    -0.200 F 
ENDBRANCH  46  60
BRANCH  47  71
ATOM     71  C   UNL A   1      43.995  34.056  29.411  1.00  0.00     0.064 A 
ATOM     72  C   UNL A   1      44.115  34.146  28.011  1.00  0.00     0.173 A 
ATOM     73  C   UNL A   1      44.680  35.035  30.155  1.00  0.00     0.173 A 
ATOM     74  F   UNL A   1      43.470  33.276  27.220  1.00  0.00    -0.203 F 
ATOM     75  C   UNL A   1      44.833  35.177  27.394  1.00  0.00     0.198 A 
ATOM     76  C   UNL A   1      45.403  36.061  29.539  1.00  0.00     0.198 A 
ATOM     77  F   UNL A   1      44.580  35.077  31.491  1.00  0.00    -0.203 F 
ATOM     78  F   UNL A   1      44.858  35.271  26.057  1.00  0.00    -0.200 F 
ATOM     79  C   UNL A   1      45.464  36.143  28.159  1.00  0.00     0.200 A 
ATOM     80  F   UNL A   1      45.981  37.008  30.290  1.00  0.00    -0.200 F 
ATOM     81  F   UNL A   1      46.091  37.172  27.573  1.00  0.00    -0.200 F 
ENDBRANCH  47  71
BRANCH  59  82
ATOM     82  C   UNL A   1      41.835  30.043  33.682  1.00  0.00     0.064 A 
ATOM     83  C   UNL A   1      41.126  31.173  34.121  1.00  0.00     0.173 A 
ATOM     84  C   UNL A   1      42.590  29.341  34.633  1.00  0.00     0.173 A 
ATOM     85  F   UNL A   1      40.310  31.845  33.297  1.00  0.00    -0.203 F 
ATOM     86  C   UNL A   1      41.221  31.610  35.442  1.00  0.00     0.198 A 
ATOM     87  C   UNL A   1      42.645  29.751  35.958  1.00  0.00     0.198 A 
ATOM     88  F   UNL A   1      43.252  28.230  34.277  1.00  0.00    -0.203 F 
ATOM     89  F   UNL A   1      40.565  32.712  35.835  1.00  0.00    -0.200 F 
ATOM     90  C   UNL A   1      41.974  30.894  36.360  1.00  0.00     0.200 A 
ATOM     91  F   UNL A   1      43.336  29.027  36.849  1.00  0.00    -0.200 F 
ATOM     92  F   UNL A   1      42.040  31.296  37.636  1.00  0.00    -0.200 F 
ENDBRANCH  59  82
ENDBRANCH  33  34
ENDBRANCH  25  28
ENDBRANCH  23  24
ENDBRANCH   1  23
TORSDOF 13
ENDMDL
