MODEL 1
REMARK VINA RESULT:     -12.6      0.000      0.000
REMARK SMILES Cc1ccc(NS(=O)(=O)c2cc(C(=O)NCCCCNC(=O)c3ccc(-c4c5nc(c(-c6c(F)c(F)c(F)c(F)c6F)c6ccc([nH]6)c(-c6c(F)c(F)c(F)c(F)c6F)c6nc(c(-c7c(F)c(F)c(F)c(F)c7F)c7ccc4[nH]7)C=C6)C=C5)cc3)ccc2Cl)nc1
REMARK SMILES IDX 17 1 16 2 15 3 13 4 14 5 12 7 10 8 11 9 88 10 87 11 89 12
REMARK SMILES IDX 86 13 7 14 8 15 9 16 6 17 5 19 1 20 2 21 3 22 91 23 4 24
REMARK SMILES IDX 90 25 18 26 19 27 20 28 21 29 22 31 23 32 24 33 85 34 25 35
REMARK SMILES IDX 84 36 26 37 27 38 28 39 78 40 29 41 83 42 77 43 79 44 30 45
REMARK SMILES IDX 82 46 76 47 75 48 31 50 63 51 43 52 62 53 44 54 47 55 61 56
REMARK SMILES IDX 80 57 45 58 46 59 60 61 81 62 48 63 32 64 33 65 41 66 34 67
REMARK SMILES IDX 35 68 39 69 42 70 36 71 37 72 40 73 38 74 64 75 65 76 73 77
REMARK SMILES IDX 66 78 67 79 71 80 74 81 68 82 69 83 72 84 70 85 49 86 50 87
REMARK SMILES IDX 58 88 51 89 52 90 56 91 59 92 53 93 54 94 57 95 55 96
REMARK H PARENT 15 6 6 18 20 30 79 49 47 60
REMARK Flexibility Score: inf
ROOT
ATOM      1  C   UNL A   1      31.741  30.684  26.121  1.00  0.00     0.023 C 
ENDROOT
BRANCH   1   2
ATOM      2  C   UNL A   1      32.137  29.692  27.218  1.00  0.00     0.116 C 
BRANCH   2   3
ATOM      3  N   UNL A   1      33.572  29.516  27.221  1.00  0.00    -0.352 N 
ATOM      4  C   UNL A   1      34.404  28.499  26.833  1.00  0.00     0.251 C 
ATOM      5  O   UNL A   1      35.598  28.643  27.107  1.00  0.00    -0.269 OA
ATOM      6  H   UNL A   1      34.056  30.297  27.578  1.00  0.00     0.163 HD
BRANCH   4   7
ATOM      7  C   UNL A   1      33.984  27.304  26.038  1.00  0.00     0.041 A 
ATOM      8  C   UNL A   1      33.155  26.519  23.866  1.00  0.00     0.107 A 
ATOM      9  C   UNL A   1      33.730  27.518  24.674  1.00  0.00     0.037 A 
ATOM     10  C   UNL A   1      32.715  25.339  24.449  1.00  0.00     0.061 A 
ATOM     11  C   UNL A   1      33.110  25.057  25.760  1.00  0.00     0.023 A 
ATOM     12  Cl  UNL A   1      31.649  24.209  23.698  1.00  0.00    -0.083 Cl
ATOM     13  C   UNL A   1      33.789  26.013  26.527  1.00  0.00     0.015 A 
BRANCH   8  14
ATOM     14  S   UNL A   1      33.178  26.812  22.120  1.00  0.00     0.264 S 
ATOM     15  O   UNL A   1      33.612  25.574  21.479  1.00  0.00    -0.201 OA
ATOM     16  O   UNL A   1      33.934  28.024  21.924  1.00  0.00    -0.201 OA
BRANCH  14  17
ATOM     17  N   UNL A   1      31.649  27.144  21.560  1.00  0.00    -0.263 N 
ATOM     18  H   UNL A   1      31.362  26.711  20.723  1.00  0.00     0.182 HD
BRANCH  17  19
ATOM     19  C   UNL A   1      30.738  28.004  22.200  1.00  0.00     0.139 A 
ATOM     20  C   UNL A   1      27.280  30.272  23.046  1.00  0.00     0.046 C 
ATOM     21  C   UNL A   1      28.551  29.497  22.896  1.00  0.00    -0.033 A 
ATOM     22  C   UNL A   1      28.649  28.180  23.342  1.00  0.00     0.009 A 
ATOM     23  C   UNL A   1      29.634  30.014  22.195  1.00  0.00     0.117 A 
ATOM     24  C   UNL A   1      29.769  27.426  23.007  1.00  0.00     0.048 A 
ATOM     25  N   UNL A   1      30.730  29.299  21.849  1.00  0.00    -0.238 NA
ENDBRANCH  17  19
ENDBRANCH  14  17
ENDBRANCH   8  14
ENDBRANCH   4   7
ENDBRANCH   2   3
ENDBRANCH   1   2
BRANCH   1  26
ATOM     26  C   UNL A   1      31.400  32.075  26.669  1.00  0.00     0.023 C 
BRANCH  26  27
ATOM     27  C   UNL A   1      32.575  32.789  27.334  1.00  0.00     0.116 C 
BRANCH  27  28
ATOM     28  N   UNL A   1      32.301  34.189  27.616  1.00  0.00    -0.352 N 
ATOM     29  C   UNL A   1      32.941  35.020  28.501  1.00  0.00     0.251 C 
ATOM     30  H   UNL A   1      31.562  34.593  27.107  1.00  0.00     0.163 HD
ATOM     31  O   UNL A   1      32.528  36.158  28.699  1.00  0.00    -0.269 OA
BRANCH  29  32
ATOM     32  C   UNL A   1      34.105  34.512  29.255  1.00  0.00     0.039 A 
ATOM     33  C   UNL A   1      33.879  33.861  30.470  1.00  0.00     0.014 A 
ATOM     34  C   UNL A   1      35.400  34.649  28.751  1.00  0.00     0.014 A 
ATOM     35  C   UNL A   1      34.952  33.288  31.154  1.00  0.00     0.010 A 
ATOM     36  C   UNL A   1      36.461  34.029  29.405  1.00  0.00     0.010 A 
ATOM     37  C   UNL A   1      36.245  33.340  30.608  1.00  0.00    -0.014 A 
BRANCH  37  38
ATOM     38  C   UNL A   1      37.385  32.671  31.280  1.00  0.00     0.031 A 
ATOM     39  C   UNL A   1      38.078  31.518  30.617  1.00  0.00     0.074 A 
ATOM     40  C   UNL A   1      37.745  33.062  32.517  1.00  0.00     0.049 A 
ATOM     41  N   UNL A   1      39.040  30.757  31.074  1.00  0.00    -0.248 NA
ATOM     42  C   UNL A   1      37.612  31.155  29.269  1.00  0.00     0.031 C 
ATOM     43  C   UNL A   1      37.112  34.137  33.283  1.00  0.00     0.029 A 
ATOM     44  N   UNL A   1      38.722  32.588  33.354  1.00  0.00    -0.354 N 
ATOM     45  C   UNL A   1      39.282  29.818  30.081  1.00  0.00     0.074 A 
ATOM     46  C   UNL A   1      38.339  30.076  29.014  1.00  0.00     0.031 C 
ATOM     47  C   UNL A   1      37.727  34.251  34.471  1.00  0.00     0.029 A 
ATOM     48  C   UNL A   1      38.776  33.239  34.562  1.00  0.00     0.049 A 
ATOM     49  H   UNL A   1      39.329  31.851  33.112  1.00  0.00     0.167 HD
ATOM     50  C   UNL A   1      40.220  28.842  30.055  1.00  0.00     0.037 A 
ATOM     51  C   UNL A   1      39.579  33.039  35.624  1.00  0.00     0.037 A 
ATOM     52  C   UNL A   1      41.177  28.609  31.103  1.00  0.00     0.049 A 
ATOM     53  C   UNL A   1      40.624  31.958  35.560  1.00  0.00     0.074 A 
ATOM     54  C   UNL A   1      42.206  27.685  31.143  1.00  0.00     0.029 A 
ATOM     55  N   UNL A   1      41.222  29.312  32.299  1.00  0.00    -0.354 N 
ATOM     56  N   UNL A   1      40.885  31.117  34.590  1.00  0.00    -0.248 NA
ATOM     57  C   UNL A   1      41.489  31.803  36.738  1.00  0.00     0.031 C 
ATOM     58  C   UNL A   1      42.857  27.809  32.376  1.00  0.00     0.029 A 
ATOM     59  C   UNL A   1      42.254  28.833  33.089  1.00  0.00     0.049 A 
ATOM     60  H   UNL A   1      40.611  30.042  32.548  1.00  0.00     0.167 HD
ATOM     61  C   UNL A   1      41.956  30.352  35.028  1.00  0.00     0.074 A 
ATOM     62  C   UNL A   1      42.306  30.837  36.346  1.00  0.00     0.031 C 
ATOM     63  C   UNL A   1      42.593  29.337  34.394  1.00  0.00     0.037 A 
BRANCH  50  64
ATOM     64  C   UNL A   1      40.263  27.957  28.845  1.00  0.00     0.064 A 
ATOM     65  C   UNL A   1      40.994  28.315  27.703  1.00  0.00     0.173 A 
ATOM     66  C   UNL A   1      39.598  26.723  28.841  1.00  0.00     0.173 A 
ATOM     67  F   UNL A   1      41.636  29.492  27.654  1.00  0.00    -0.203 F 
ATOM     68  C   UNL A   1      41.040  27.479  26.591  1.00  0.00     0.198 A 
ATOM     69  C   UNL A   1      39.666  25.878  27.737  1.00  0.00     0.198 A 
ATOM     70  F   UNL A   1      38.888  26.333  29.910  1.00  0.00    -0.203 F 
ATOM     71  F   UNL A   1      41.709  27.860  25.495  1.00  0.00    -0.200 F 
ATOM     72  C   UNL A   1      40.381  26.258  26.610  1.00  0.00     0.200 A 
ATOM     73  F   UNL A   1      39.037  24.694  27.761  1.00  0.00    -0.200 F 
ATOM     74  F   UNL A   1      40.430  25.452  25.542  1.00  0.00    -0.200 F 
ENDBRANCH  50  64
BRANCH  51  75
ATOM     75  C   UNL A   1      39.446  33.897  36.828  1.00  0.00     0.064 A 
ATOM     76  C   UNL A   1      38.682  33.479  37.925  1.00  0.00     0.173 A 
ATOM     77  C   UNL A   1      40.072  35.149  36.905  1.00  0.00     0.173 A 
ATOM     78  F   UNL A   1      38.049  32.297  37.888  1.00  0.00    -0.203 F 
ATOM     79  C   UNL A   1      38.531  34.289  39.047  1.00  0.00     0.198 A 
ATOM     80  C   UNL A   1      39.940  35.949  38.038  1.00  0.00     0.198 A 
ATOM     81  F   UNL A   1      40.819  35.591  35.882  1.00  0.00    -0.203 F 
ATOM     82  F   UNL A   1      37.760  33.884  40.066  1.00  0.00    -0.200 F 
ATOM     83  C   UNL A   1      39.164  35.522  39.105  1.00  0.00     0.200 A 
ATOM     84  F   UNL A   1      40.563  37.134  38.095  1.00  0.00    -0.200 F 
ATOM     85  F   UNL A   1      39.020  36.302  40.185  1.00  0.00    -0.200 F 
ENDBRANCH  51  75
BRANCH  63  86
ATOM     86  C   UNL A   1      43.750  28.704  35.107  1.00  0.00     0.064 A 
ATOM     87  C   UNL A   1      45.054  29.199  34.971  1.00  0.00     0.173 A 
ATOM     88  C   UNL A   1      43.542  27.615  35.967  1.00  0.00     0.173 A 
ATOM     89  F   UNL A   1      45.302  30.228  34.147  1.00  0.00    -0.203 F 
ATOM     90  C   UNL A   1      46.115  28.613  35.656  1.00  0.00     0.198 A 
ATOM     91  C   UNL A   1      44.601  27.047  36.670  1.00  0.00     0.198 A 
ATOM     92  F   UNL A   1      42.311  27.109  36.133  1.00  0.00    -0.203 F 
ATOM     93  F   UNL A   1      47.360  29.077  35.481  1.00  0.00    -0.200 F 
ATOM     94  C   UNL A   1      45.887  27.543  36.509  1.00  0.00     0.200 A 
ATOM     95  F   UNL A   1      44.378  26.020  37.501  1.00  0.00    -0.200 F 
ATOM     96  F   UNL A   1      46.908  26.985  37.172  1.00  0.00    -0.200 F 
ENDBRANCH  63  86
ENDBRANCH  37  38
ENDBRANCH  29  32
ENDBRANCH  27  28
ENDBRANCH  26  27
ENDBRANCH   1  26
TORSDOF 14
ENDMDL
MODEL 2
REMARK VINA RESULT:     -12.5      2.284      3.624
REMARK SMILES Cc1ccc(NS(=O)(=O)c2cc(C(=O)NCCCCNC(=O)c3ccc(-c4c5nc(c(-c6c(F)c(F)c(F)c(F)c6F)c6ccc([nH]6)c(-c6c(F)c(F)c(F)c(F)c6F)c6nc(c(-c7c(F)c(F)c(F)c(F)c7F)c7ccc4[nH]7)C=C6)C=C5)cc3)ccc2Cl)nc1
REMARK SMILES IDX 17 1 16 2 15 3 13 4 14 5 12 7 10 8 11 9 88 10 87 11 89 12
REMARK SMILES IDX 86 13 7 14 8 15 9 16 6 17 5 19 1 20 2 21 3 22 91 23 4 24
REMARK SMILES IDX 90 25 18 26 19 27 20 28 21 29 22 31 23 32 24 33 85 34 25 35
REMARK SMILES IDX 84 36 26 37 27 38 28 39 78 40 29 41 83 42 77 43 79 44 30 45
REMARK SMILES IDX 82 46 76 47 75 48 31 50 63 51 43 52 62 53 44 54 47 55 61 56
REMARK SMILES IDX 80 57 45 58 46 59 60 61 81 62 48 63 32 64 33 65 41 66 34 67
REMARK SMILES IDX 35 68 39 69 42 70 36 71 37 72 40 73 38 74 64 75 65 76 73 77
REMARK SMILES IDX 66 78 67 79 71 80 74 81 68 82 69 83 72 84 70 85 49 86 50 87
REMARK SMILES IDX 58 88 51 89 52 90 56 91 59 92 53 93 54 94 57 95 55 96
REMARK H PARENT 15 6 6 18 20 30 79 49 47 60
REMARK Flexibility Score: inf
ROOT
ATOM      1  C   UNL A   1      31.790  30.358  26.669  1.00  0.00     0.023 C 
ENDROOT
BRANCH   1   2
ATOM      2  C   UNL A   1      33.274  29.984  26.648  1.00  0.00     0.116 C 
BRANCH   2   3
ATOM      3  N   UNL A   1      33.640  29.511  25.332  1.00  0.00    -0.352 N 
ATOM      4  C   UNL A   1      33.604  28.284  24.722  1.00  0.00     0.251 C 
ATOM      5  O   UNL A   1      34.129  28.220  23.608  1.00  0.00    -0.269 OA
ATOM      6  H   UNL A   1      33.987  30.223  24.747  1.00  0.00     0.163 HD
BRANCH   4   7
ATOM      7  C   UNL A   1      32.908  27.077  25.264  1.00  0.00     0.041 A 
ATOM      8  C   UNL A   1      33.050  24.650  25.597  1.00  0.00     0.107 A 
ATOM      9  C   UNL A   1      33.648  25.884  25.285  1.00  0.00     0.037 A 
ATOM     10  C   UNL A   1      31.674  24.583  25.772  1.00  0.00     0.061 A 
ATOM     11  C   UNL A   1      30.964  25.778  25.914  1.00  0.00     0.023 A 
ATOM     12  Cl  UNL A   1      30.752  23.126  25.759  1.00  0.00    -0.083 Cl
ATOM     13  C   UNL A   1      31.591  27.015  25.717  1.00  0.00     0.015 A 
BRANCH   8  14
ATOM     14  S   UNL A   1      34.150  23.294  25.887  1.00  0.00     0.264 S 
ATOM     15  O   UNL A   1      33.627  22.547  27.027  1.00  0.00    -0.201 OA
ATOM     16  O   UNL A   1      35.477  23.857  25.946  1.00  0.00    -0.201 OA
BRANCH  14  17
ATOM     17  N   UNL A   1      34.162  22.258  24.587  1.00  0.00    -0.263 N 
ATOM     18  H   UNL A   1      34.357  22.638  23.699  1.00  0.00     0.182 HD
BRANCH  17  19
ATOM     19  C   UNL A   1      33.913  20.877  24.670  1.00  0.00     0.139 A 
ATOM     20  C   UNL A   1      33.497  16.807  23.629  1.00  0.00     0.046 C 
ATOM     21  C   UNL A   1      33.634  18.203  24.150  1.00  0.00    -0.033 A 
ATOM     22  C   UNL A   1      34.861  18.686  24.603  1.00  0.00     0.009 A 
ATOM     23  C   UNL A   1      32.579  19.106  24.082  1.00  0.00     0.117 A 
ATOM     24  C   UNL A   1      34.999  20.041  24.888  1.00  0.00     0.048 A 
ATOM     25  N   UNL A   1      32.691  20.429  24.345  1.00  0.00    -0.238 NA
ENDBRANCH  17  19
ENDBRANCH  14  17
ENDBRANCH   8  14
ENDBRANCH   4   7
ENDBRANCH   2   3
ENDBRANCH   1   2
BRANCH   1  26
ATOM     26  C   UNL A   1      31.557  31.872  26.744  1.00  0.00     0.023 C 
BRANCH  26  27
ATOM     27  C   UNL A   1      32.737  32.658  27.310  1.00  0.00     0.116 C 
BRANCH  27  28
ATOM     28  N   UNL A   1      32.401  34.037  27.626  1.00  0.00    -0.352 N 
ATOM     29  C   UNL A   1      32.994  34.869  28.543  1.00  0.00     0.251 C 
ATOM     30  H   UNL A   1      31.653  34.424  27.117  1.00  0.00     0.163 HD
ATOM     31  O   UNL A   1      32.531  35.982  28.766  1.00  0.00    -0.269 OA
BRANCH  29  32
ATOM     32  C   UNL A   1      34.168  34.389  29.299  1.00  0.00     0.039 A 
ATOM     33  C   UNL A   1      33.953  33.659  30.471  1.00  0.00     0.014 A 
ATOM     34  C   UNL A   1      35.464  34.630  28.839  1.00  0.00     0.014 A 
ATOM     35  C   UNL A   1      35.042  33.113  31.151  1.00  0.00     0.010 A 
ATOM     36  C   UNL A   1      36.545  34.038  29.487  1.00  0.00     0.010 A 
ATOM     37  C   UNL A   1      36.341  33.271  30.645  1.00  0.00    -0.014 A 
BRANCH  37  38
ATOM     38  C   UNL A   1      37.503  32.634  31.311  1.00  0.00     0.031 A 
ATOM     39  C   UNL A   1      38.233  31.510  30.637  1.00  0.00     0.074 A 
ATOM     40  C   UNL A   1      37.851  33.025  32.550  1.00  0.00     0.049 A 
ATOM     41  N   UNL A   1      39.220  30.777  31.087  1.00  0.00    -0.248 NA
ATOM     42  C   UNL A   1      37.779  31.144  29.286  1.00  0.00     0.031 C 
ATOM     43  C   UNL A   1      37.184  34.073  33.327  1.00  0.00     0.029 A 
ATOM     44  N   UNL A   1      38.844  32.577  33.383  1.00  0.00    -0.354 N 
ATOM     45  C   UNL A   1      39.491  29.855  30.086  1.00  0.00     0.074 A 
ATOM     46  C   UNL A   1      38.540  30.091  29.021  1.00  0.00     0.031 C 
ATOM     47  C   UNL A   1      37.796  34.196  34.515  1.00  0.00     0.029 A 
ATOM     48  C   UNL A   1      38.878  33.219  34.596  1.00  0.00     0.049 A 
ATOM     49  H   UNL A   1      39.474  31.862  33.134  1.00  0.00     0.167 HD
ATOM     50  C   UNL A   1      40.461  28.911  30.051  1.00  0.00     0.037 A 
ATOM     51  C   UNL A   1      39.688  33.035  35.656  1.00  0.00     0.037 A 
ATOM     52  C   UNL A   1      41.426  28.699  31.096  1.00  0.00     0.049 A 
ATOM     53  C   UNL A   1      40.767  31.990  35.582  1.00  0.00     0.074 A 
ATOM     54  C   UNL A   1      42.485  27.810  31.127  1.00  0.00     0.029 A 
ATOM     55  N   UNL A   1      41.449  29.393  32.297  1.00  0.00    -0.354 N 
ATOM     56  N   UNL A   1      41.054  31.166  34.605  1.00  0.00    -0.248 NA
ATOM     57  C   UNL A   1      41.638  31.853  36.759  1.00  0.00     0.031 C 
ATOM     58  C   UNL A   1      43.132  27.944  32.361  1.00  0.00     0.029 A 
ATOM     59  C   UNL A   1      42.497  28.942  33.083  1.00  0.00     0.049 A 
ATOM     60  H   UNL A   1      40.815  30.101  32.554  1.00  0.00     0.167 HD
ATOM     61  C   UNL A   1      42.151  30.433  35.035  1.00  0.00     0.074 A 
ATOM     62  C   UNL A   1      42.486  30.917  36.358  1.00  0.00     0.031 C 
ATOM     63  C   UNL A   1      42.820  29.445  34.393  1.00  0.00     0.037 A 
BRANCH  50  64
ATOM     64  C   UNL A   1      40.532  28.038  28.833  1.00  0.00     0.064 A 
ATOM     65  C   UNL A   1      39.801  26.844  28.745  1.00  0.00     0.173 A 
ATOM     66  C   UNL A   1      41.307  28.418  27.728  1.00  0.00     0.173 A 
ATOM     67  F   UNL A   1      39.055  26.433  29.782  1.00  0.00    -0.203 F 
ATOM     68  C   UNL A   1      39.862  26.049  27.604  1.00  0.00     0.198 A 
ATOM     69  C   UNL A   1      41.347  27.633  26.579  1.00  0.00     0.198 A 
ATOM     70  F   UNL A   1      42.022  29.552  27.760  1.00  0.00    -0.203 F 
ATOM     71  F   UNL A   1      39.189  24.892  27.559  1.00  0.00    -0.200 F 
ATOM     72  C   UNL A   1      40.630  26.447  26.519  1.00  0.00     0.200 A 
ATOM     73  F   UNL A   1      42.081  28.023  25.527  1.00  0.00    -0.200 F 
ATOM     74  F   UNL A   1      40.683  25.684  25.420  1.00  0.00    -0.200 F 
ENDBRANCH  50  64
BRANCH  51  75
ATOM     75  C   UNL A   1      39.528  33.878  36.868  1.00  0.00     0.064 A 
ATOM     76  C   UNL A   1      38.776  33.427  37.961  1.00  0.00     0.173 A 
ATOM     77  C   UNL A   1      40.114  35.148  36.957  1.00  0.00     0.173 A 
ATOM     78  F   UNL A   1      38.180  32.226  37.912  1.00  0.00    -0.203 F 
ATOM     79  C   UNL A   1      38.600  34.222  39.090  1.00  0.00     0.198 A 
ATOM     80  C   UNL A   1      39.958  35.933  38.097  1.00  0.00     0.198 A 
ATOM     81  F   UNL A   1      40.848  35.622  35.938  1.00  0.00    -0.203 F 
ATOM     82  F   UNL A   1      37.841  33.784  40.104  1.00  0.00    -0.200 F 
ATOM     83  C   UNL A   1      39.194  35.473  39.159  1.00  0.00     0.200 A 
ATOM     84  F   UNL A   1      40.543  37.137  38.165  1.00  0.00    -0.200 F 
ATOM     85  F   UNL A   1      39.025  36.238  40.246  1.00  0.00    -0.200 F 
ENDBRANCH  51  75
BRANCH  63  86
ATOM     86  C   UNL A   1      43.997  28.843  35.099  1.00  0.00     0.064 A 
ATOM     87  C   UNL A   1      45.291  29.358  34.936  1.00  0.00     0.173 A 
ATOM     88  C   UNL A   1      43.820  27.766  35.981  1.00  0.00     0.173 A 
ATOM     89  F   UNL A   1      45.510  30.376  34.090  1.00  0.00    -0.203 F 
ATOM     90  C   UNL A   1      46.371  28.802  35.615  1.00  0.00     0.198 A 
ATOM     91  C   UNL A   1      44.899  27.229  36.678  1.00  0.00     0.198 A 
ATOM     92  F   UNL A   1      42.600  27.243  36.174  1.00  0.00    -0.203 F 
ATOM     93  F   UNL A   1      47.606  29.283  35.414  1.00  0.00    -0.200 F 
ATOM     94  C   UNL A   1      46.173  27.743  36.490  1.00  0.00     0.200 A 
ATOM     95  F   UNL A   1      44.705  26.214  37.530  1.00  0.00    -0.200 F 
ATOM     96  F   UNL A   1      47.214  27.214  37.148  1.00  0.00    -0.200 F 
ENDBRANCH  63  86
ENDBRANCH  37  38
ENDBRANCH  29  32
ENDBRANCH  27  28
ENDBRANCH  26  27
ENDBRANCH   1  26
TORSDOF 14
ENDMDL
MODEL 3
REMARK VINA RESULT:     -12.5      6.061     11.228
REMARK SMILES Cc1ccc(NS(=O)(=O)c2cc(C(=O)NCCCCNC(=O)c3ccc(-c4c5nc(c(-c6c(F)c(F)c(F)c(F)c6F)c6ccc([nH]6)c(-c6c(F)c(F)c(F)c(F)c6F)c6nc(c(-c7c(F)c(F)c(F)c(F)c7F)c7ccc4[nH]7)C=C6)C=C5)cc3)ccc2Cl)nc1
REMARK SMILES IDX 17 1 16 2 15 3 13 4 14 5 12 7 10 8 11 9 88 10 87 11 89 12
REMARK SMILES IDX 86 13 7 14 8 15 9 16 6 17 5 19 1 20 2 21 3 22 91 23 4 24
REMARK SMILES IDX 90 25 18 26 19 27 20 28 21 29 22 31 23 32 24 33 85 34 25 35
REMARK SMILES IDX 84 36 26 37 27 38 28 39 78 40 29 41 83 42 77 43 79 44 30 45
REMARK SMILES IDX 82 46 76 47 75 48 31 50 63 51 43 52 62 53 44 54 47 55 61 56
REMARK SMILES IDX 80 57 45 58 46 59 60 61 81 62 48 63 32 64 33 65 41 66 34 67
REMARK SMILES IDX 35 68 39 69 42 70 36 71 37 72 40 73 38 74 64 75 65 76 73 77
REMARK SMILES IDX 66 78 67 79 71 80 74 81 68 82 69 83 72 84 70 85 49 86 50 87
REMARK SMILES IDX 58 88 51 89 52 90 56 91 59 92 53 93 54 94 57 95 55 96
REMARK H PARENT 15 6 6 18 20 30 79 49 47 60
REMARK Flexibility Score: inf
ROOT
ATOM      1  C   UNL A   1      37.212  21.015  24.759  1.00  0.00     0.023 C 
ENDROOT
BRANCH   1   2
ATOM      2  C   UNL A   1      35.971  20.962  25.653  1.00  0.00     0.116 C 
BRANCH   2   3
ATOM      3  N   UNL A   1      35.025  20.007  25.120  1.00  0.00    -0.352 N 
ATOM      4  C   UNL A   1      33.747  20.107  24.638  1.00  0.00     0.251 C 
ATOM      5  O   UNL A   1      33.182  19.041  24.382  1.00  0.00    -0.269 OA
ATOM      6  H   UNL A   1      35.377  19.087  25.097  1.00  0.00     0.163 HD
BRANCH   4   7
ATOM      7  C   UNL A   1      33.047  21.390  24.323  1.00  0.00     0.041 A 
ATOM      8  C   UNL A   1      31.412  23.040  25.114  1.00  0.00     0.107 A 
ATOM      9  C   UNL A   1      32.260  21.941  25.346  1.00  0.00     0.037 A 
ATOM     10  C   UNL A   1      31.254  23.519  23.821  1.00  0.00     0.061 A 
ATOM     11  C   UNL A   1      32.149  23.087  22.838  1.00  0.00     0.023 A 
ATOM     12  Cl  UNL A   1      29.982  24.565  23.309  1.00  0.00    -0.083 Cl
ATOM     13  C   UNL A   1      33.075  22.070  23.106  1.00  0.00     0.015 A 
BRANCH   8  14
ATOM     14  S   UNL A   1      30.723  23.818  26.548  1.00  0.00     0.264 S 
ATOM     15  O   UNL A   1      31.787  23.916  27.541  1.00  0.00    -0.201 OA
ATOM     16  O   UNL A   1      29.516  23.091  26.859  1.00  0.00    -0.201 OA
BRANCH  14  17
ATOM     17  N   UNL A   1      30.233  25.367  26.198  1.00  0.00    -0.263 N 
ATOM     18  H   UNL A   1      29.306  25.498  25.895  1.00  0.00     0.182 HD
BRANCH  17  19
ATOM     19  C   UNL A   1      31.056  26.503  26.305  1.00  0.00     0.139 A 
ATOM     20  C   UNL A   1      34.229  29.069  27.382  1.00  0.00     0.046 C 
ATOM     21  C   UNL A   1      33.064  28.269  26.893  1.00  0.00    -0.033 A 
ATOM     22  C   UNL A   1      33.160  27.483  25.745  1.00  0.00     0.009 A 
ATOM     23  C   UNL A   1      31.888  28.180  27.629  1.00  0.00     0.117 A 
ATOM     24  C   UNL A   1      32.132  26.600  25.434  1.00  0.00     0.048 A 
ATOM     25  N   UNL A   1      30.878  27.322  27.352  1.00  0.00    -0.238 NA
ENDBRANCH  17  19
ENDBRANCH  14  17
ENDBRANCH   8  14
ENDBRANCH   4   7
ENDBRANCH   2   3
ENDBRANCH   1   2
BRANCH   1  26
ATOM     26  C   UNL A   1      38.165  19.835  24.991  1.00  0.00     0.023 C 
BRANCH  26  27
ATOM     27  C   UNL A   1      39.420  20.193  25.782  1.00  0.00     0.116 C 
BRANCH  27  28
ATOM     28  N   UNL A   1      40.379  19.101  25.849  1.00  0.00    -0.352 N 
ATOM     29  C   UNL A   1      41.726  19.166  26.104  1.00  0.00     0.251 C 
ATOM     30  H   UNL A   1      40.015  18.200  25.692  1.00  0.00     0.163 HD
ATOM     31  O   UNL A   1      42.424  18.161  26.030  1.00  0.00    -0.269 OA
BRANCH  29  32
ATOM     32  C   UNL A   1      42.339  20.472  26.419  1.00  0.00     0.039 A 
ATOM     33  C   UNL A   1      42.882  21.223  25.373  1.00  0.00     0.014 A 
ATOM     34  C   UNL A   1      42.349  20.963  27.725  1.00  0.00     0.014 A 
ATOM     35  C   UNL A   1      43.380  22.501  25.629  1.00  0.00     0.010 A 
ATOM     36  C   UNL A   1      42.794  22.259  27.970  1.00  0.00     0.010 A 
ATOM     37  C   UNL A   1      43.308  23.039  26.923  1.00  0.00    -0.014 A 
BRANCH  37  38
ATOM     38  C   UNL A   1      43.761  24.424  27.200  1.00  0.00     0.031 A 
ATOM     39  C   UNL A   1      42.787  25.448  27.703  1.00  0.00     0.074 A 
ATOM     40  C   UNL A   1      45.034  24.770  26.931  1.00  0.00     0.049 A 
ATOM     41  N   UNL A   1      42.972  26.724  27.930  1.00  0.00    -0.248 NA
ATOM     42  C   UNL A   1      41.415  24.983  27.961  1.00  0.00     0.031 C 
ATOM     43  C   UNL A   1      46.059  23.874  26.392  1.00  0.00     0.029 A 
ATOM     44  N   UNL A   1      45.679  25.973  27.060  1.00  0.00    -0.354 N 
ATOM     45  C   UNL A   1      41.740  27.215  28.340  1.00  0.00     0.074 A 
ATOM     46  C   UNL A   1      40.804  26.112  28.291  1.00  0.00     0.031 C 
ATOM     47  C   UNL A   1      47.207  24.554  26.251  1.00  0.00     0.029 A 
ATOM     48  C   UNL A   1      46.992  25.939  26.661  1.00  0.00     0.049 A 
ATOM     49  H   UNL A   1      45.242  26.784  27.406  1.00  0.00     0.167 HD
ATOM     50  C   UNL A   1      41.425  28.469  28.741  1.00  0.00     0.037 A 
ATOM     51  C   UNL A   1      47.917  26.917  26.625  1.00  0.00     0.037 A 
ATOM     52  C   UNL A   1      42.364  29.556  28.820  1.00  0.00     0.049 A 
ATOM     53  C   UNL A   1      47.542  28.297  27.093  1.00  0.00     0.074 A 
ATOM     54  C   UNL A   1      42.156  30.847  29.273  1.00  0.00     0.029 A 
ATOM     55  N   UNL A   1      43.695  29.474  28.438  1.00  0.00    -0.354 N 
ATOM     56  N   UNL A   1      46.391  28.735  27.538  1.00  0.00    -0.248 NA
ATOM     57  C   UNL A   1      48.600  29.318  27.057  1.00  0.00     0.031 C 
ATOM     58  C   UNL A   1      43.355  31.556  29.137  1.00  0.00     0.029 A 
ATOM     59  C   UNL A   1      44.317  30.697  28.633  1.00  0.00     0.049 A 
ATOM     60  H   UNL A   1      44.133  28.668  28.082  1.00  0.00     0.167 HD
ATOM     61  C   UNL A   1      46.590  30.070  27.859  1.00  0.00     0.074 A 
ATOM     62  C   UNL A   1      47.977  30.369  27.569  1.00  0.00     0.031 C 
ATOM     63  C   UNL A   1      45.702  30.970  28.349  1.00  0.00     0.037 A 
BRANCH  50  64
ATOM     64  C   UNL A   1      40.002  28.731  29.136  1.00  0.00     0.064 A 
ATOM     65  C   UNL A   1      39.550  28.493  30.442  1.00  0.00     0.173 A 
ATOM     66  C   UNL A   1      39.091  29.261  28.211  1.00  0.00     0.173 A 
ATOM     67  F   UNL A   1      40.380  27.974  31.359  1.00  0.00    -0.203 F 
ATOM     68  C   UNL A   1      38.231  28.754  30.803  1.00  0.00     0.198 A 
ATOM     69  C   UNL A   1      37.779  29.544  28.581  1.00  0.00     0.198 A 
ATOM     70  F   UNL A   1      39.475  29.510  26.950  1.00  0.00    -0.203 F 
ATOM     71  F   UNL A   1      37.810  28.478  32.044  1.00  0.00    -0.200 F 
ATOM     72  C   UNL A   1      37.348  29.285  29.874  1.00  0.00     0.200 A 
ATOM     73  F   UNL A   1      36.930  30.067  27.685  1.00  0.00    -0.200 F 
ATOM     74  F   UNL A   1      36.080  29.541  30.223  1.00  0.00    -0.200 F 
ENDBRANCH  50  64
BRANCH  51  75
ATOM     75  C   UNL A   1      49.293  26.622  26.156  1.00  0.00     0.064 A 
ATOM     76  C   UNL A   1      50.249  26.085  27.029  1.00  0.00     0.173 A 
ATOM     77  C   UNL A   1      49.684  26.873  24.833  1.00  0.00     0.173 A 
ATOM     78  F   UNL A   1      49.926  25.847  28.308  1.00  0.00    -0.203 F 
ATOM     79  C   UNL A   1      51.550  25.830  26.602  1.00  0.00     0.198 A 
ATOM     80  C   UNL A   1      50.979  26.595  24.401  1.00  0.00     0.198 A 
ATOM     81  F   UNL A   1      48.803  27.381  23.958  1.00  0.00    -0.203 F 
ATOM     82  F   UNL A   1      52.457  25.356  27.469  1.00  0.00    -0.200 F 
ATOM     83  C   UNL A   1      51.913  26.081  25.288  1.00  0.00     0.200 A 
ATOM     84  F   UNL A   1      51.323  26.828  23.126  1.00  0.00    -0.200 F 
ATOM     85  F   UNL A   1      53.164  25.834  24.877  1.00  0.00    -0.200 F 
ENDBRANCH  51  75
BRANCH  63  86
ATOM     86  C   UNL A   1      46.212  32.352  28.628  1.00  0.00     0.064 A 
ATOM     87  C   UNL A   1      46.768  32.690  29.869  1.00  0.00     0.173 A 
ATOM     88  C   UNL A   1      46.179  33.335  27.628  1.00  0.00     0.173 A 
ATOM     89  F   UNL A   1      46.805  31.787  30.861  1.00  0.00    -0.203 F 
ATOM     90  C   UNL A   1      47.256  33.972  30.107  1.00  0.00     0.198 A 
ATOM     91  C   UNL A   1      46.691  34.608  27.861  1.00  0.00     0.198 A 
ATOM     92  F   UNL A   1      45.661  33.057  26.422  1.00  0.00    -0.203 F 
ATOM     93  F   UNL A   1      47.747  34.286  31.314  1.00  0.00    -0.200 F 
ATOM     94  C   UNL A   1      47.223  34.927  29.102  1.00  0.00     0.200 A 
ATOM     95  F   UNL A   1      46.668  35.527  26.886  1.00  0.00    -0.200 F 
ATOM     96  F   UNL A   1      47.700  36.159  29.331  1.00  0.00    -0.200 F 
ENDBRANCH  63  86
ENDBRANCH  37  38
ENDBRANCH  29  32
ENDBRANCH  27  28
ENDBRANCH  26  27
ENDBRANCH   1  26
TORSDOF 14
ENDMDL
