MODEL 1
REMARK VINA RESULT:     -13.9      0.000      0.000
REMARK SMILES Cc1cccc(CNC(=O)N[C@@H](CC2=c3ccccc3=NC2)C(=O)NCCCCNC(=O)c2ccc(-c3c4nc(c(-c5c(F)c(F)c(F)c(F)c5F)c5ccc([nH]5)c(-c5c(F)c(F)c(F)c(F)c5F)c5nc(c(-c6c(F)c(F)c(F)c(F)c6F)c6ccc3[nH]6)C=C5)C=C4)cc2)c1
REMARK SMILES IDX 27 1 26 2 25 3 23 4 24 5 12 7 11 8 8 9 9 10 10 12 7 14 6 15
REMARK SMILES IDX 1 16 2 17 3 18 96 19 4 20 5 21 13 22 14 23 15 24 22 25 16 26
REMARK SMILES IDX 20 27 21 28 17 29 19 30 18 31 28 32 29 33 30 34 31 35 32 37
REMARK SMILES IDX 33 38 34 39 95 40 35 41 94 42 36 43 37 44 38 45 88 46 39 47
REMARK SMILES IDX 93 48 87 49 89 50 40 51 92 52 86 53 85 54 41 56 73 57 53 58
REMARK SMILES IDX 72 59 54 60 57 61 71 62 90 63 55 64 56 65 70 67 91 68 58 69
REMARK SMILES IDX 42 70 43 71 51 72 44 73 45 74 49 75 52 76 46 77 47 78 50 79
REMARK SMILES IDX 48 80 74 81 75 82 83 83 76 84 77 85 81 86 84 87 78 88 79 89
REMARK SMILES IDX 82 90 80 91 59 92 60 93 68 94 61 95 62 96 66 97 69 98 63 99
REMARK SMILES IDX 64 100 67 101 65 102
REMARK H PARENT 25 6 8 11 11 13 30 36 89 55 57 66
REMARK Flexibility Score: inf
ROOT
ATOM      1  C   UNL A   1      37.494  20.859  24.819  1.00  0.00     0.023 C 
ENDROOT
BRANCH   1   2
ATOM      2  C   UNL A   1      36.313  21.117  25.769  1.00  0.00     0.116 C 
BRANCH   2   3
ATOM      3  N   UNL A   1      35.156  20.269  25.525  1.00  0.00    -0.354 N 
ATOM      4  C   UNL A   1      33.967  20.460  24.886  1.00  0.00     0.242 C 
ATOM      5  O   UNL A   1      33.358  19.419  24.595  1.00  0.00    -0.273 OA
ATOM      6  H   UNL A   1      35.252  19.364  25.900  1.00  0.00     0.163 HD
BRANCH   4   7
ATOM      7  C   UNL A   1      33.374  21.830  24.436  1.00  0.00     0.177 C 
BRANCH   7   8
ATOM      8  N   UNL A   1      34.176  22.461  23.395  1.00  0.00    -0.326 N 
ATOM      9  N   UNL A   1      35.276  24.211  24.536  1.00  0.00    -0.334 N 
ATOM     10  C   UNL A   1      35.174  23.351  23.513  1.00  0.00     0.315 C 
ATOM     11  H   UNL A   1      36.194  24.534  24.685  1.00  0.00     0.165 HD
ATOM     12  O   UNL A   1      36.036  23.370  22.635  1.00  0.00    -0.249 OA
ATOM     13  H   UNL A   1      33.954  22.196  22.472  1.00  0.00     0.166 HD
BRANCH   9  14
ATOM     14  C   UNL A   1      34.310  24.765  25.469  1.00  0.00     0.153 C 
BRANCH  14  15
ATOM     15  C   UNL A   1      34.055  26.242  25.260  1.00  0.00    -0.028 A 
ATOM     16  C   UNL A   1      33.770  28.686  22.328  1.00  0.00     0.044 C 
ATOM     17  C   UNL A   1      33.770  28.126  23.719  1.00  0.00    -0.051 A 
ATOM     18  C   UNL A   1      33.566  28.978  24.809  1.00  0.00     0.003 A 
ATOM     19  C   UNL A   1      34.013  26.762  23.953  1.00  0.00     0.009 A 
ATOM     20  C   UNL A   1      33.579  28.473  26.107  1.00  0.00     0.001 A 
ATOM     21  C   UNL A   1      33.816  27.116  26.330  1.00  0.00     0.005 A 
ENDBRANCH  14  15
ENDBRANCH   9  14
ENDBRANCH   7   8
BRANCH   7  22
ATOM     22  C   UNL A   1      31.853  21.955  24.157  1.00  0.00     0.068 C 
BRANCH  22  23
ATOM     23  C   UNL A   1      31.096  22.884  25.036  1.00  0.00    -0.037 C 
ATOM     24  C   UNL A   1      30.643  24.076  24.664  1.00  0.00     0.001 A 
ATOM     25  C   UNL A   1      30.886  22.666  26.503  1.00  0.00     0.174 C 
ATOM     26  C   UNL A   1      30.605  24.789  23.430  1.00  0.00     0.010 A 
ATOM     27  C   UNL A   1      30.458  24.732  25.959  1.00  0.00     0.065 A 
ATOM     28  N   UNL A   1      30.522  24.009  27.037  1.00  0.00    -0.280 NA
ATOM     29  C   UNL A   1      30.499  26.125  23.465  1.00  0.00     0.001 A 
ATOM     30  C   UNL A   1      30.404  26.204  25.911  1.00  0.00     0.028 A 
ATOM     31  C   UNL A   1      30.448  26.833  24.727  1.00  0.00     0.002 A 
ENDBRANCH  22  23
ENDBRANCH   7  22
ENDBRANCH   4   7
ENDBRANCH   2   3
ENDBRANCH   1   2
BRANCH   1  32
ATOM     32  C   UNL A   1      38.903  20.971  25.428  1.00  0.00     0.023 C 
BRANCH  32  33
ATOM     33  C   UNL A   1      39.255  22.299  26.109  1.00  0.00     0.116 C 
BRANCH  33  34
ATOM     34  N   UNL A   1      40.683  22.555  26.249  1.00  0.00    -0.352 N 
ATOM     35  C   UNL A   1      41.361  23.721  26.577  1.00  0.00     0.251 C 
ATOM     36  H   UNL A   1      41.261  21.776  26.084  1.00  0.00     0.163 HD
ATOM     37  O   UNL A   1      42.580  23.717  26.632  1.00  0.00    -0.269 OA
BRANCH  35  38
ATOM     38  C   UNL A   1      40.617  24.952  26.959  1.00  0.00     0.039 A 
ATOM     39  C   UNL A   1      40.851  26.130  26.234  1.00  0.00     0.014 A 
ATOM     40  C   UNL A   1      39.765  24.989  28.057  1.00  0.00     0.014 A 
ATOM     41  C   UNL A   1      40.442  27.364  26.752  1.00  0.00     0.010 A 
ATOM     42  C   UNL A   1      39.400  26.215  28.593  1.00  0.00     0.010 A 
ATOM     43  C   UNL A   1      39.824  27.412  28.000  1.00  0.00    -0.014 A 
BRANCH  43  44
ATOM     44  C   UNL A   1      39.794  28.622  28.835  1.00  0.00     0.031 A 
ATOM     45  C   UNL A   1      38.743  29.661  28.696  1.00  0.00     0.074 A 
ATOM     46  C   UNL A   1      40.675  28.743  29.860  1.00  0.00     0.049 A 
ATOM     47  N   UNL A   1      38.883  30.885  29.093  1.00  0.00    -0.248 NA
ATOM     48  C   UNL A   1      37.451  29.420  28.070  1.00  0.00     0.031 C 
ATOM     49  C   UNL A   1      40.564  29.645  31.006  1.00  0.00     0.029 A 
ATOM     50  N   UNL A   1      41.942  28.157  30.007  1.00  0.00    -0.354 N 
ATOM     51  C   UNL A   1      37.654  31.505  29.038  1.00  0.00     0.074 A 
ATOM     52  C   UNL A   1      36.812  30.566  28.331  1.00  0.00     0.031 C 
ATOM     53  C   UNL A   1      41.767  29.772  31.584  1.00  0.00     0.029 A 
ATOM     54  C   UNL A   1      42.722  29.057  30.763  1.00  0.00     0.049 A 
ATOM     55  H   UNL A   1      42.231  27.286  29.652  1.00  0.00     0.167 HD
ATOM     56  C   UNL A   1      37.465  32.683  29.706  1.00  0.00     0.037 A 
ATOM     57  C   UNL A   1      43.903  29.548  30.297  1.00  0.00     0.037 A 
ATOM     58  C   UNL A   1      38.691  33.114  30.380  1.00  0.00     0.049 A 
ATOM     59  C   UNL A   1      43.915  31.048  30.187  1.00  0.00     0.074 A 
ATOM     60  C   UNL A   1      39.108  33.025  31.699  1.00  0.00     0.029 A 
ATOM     61  N   UNL A   1      39.804  33.498  29.640  1.00  0.00    -0.354 N 
ATOM     62  N   UNL A   1      42.837  31.778  30.216  1.00  0.00    -0.248 NA
ATOM     63  C   UNL A   1      45.123  31.844  29.997  1.00  0.00     0.031 C 
ATOM     64  C   UNL A   1      40.482  33.350  31.750  1.00  0.00     0.029 A 
ATOM     65  C   UNL A   1      40.904  33.642  30.463  1.00  0.00     0.049 A 
ATOM     66  H   UNL A   1      39.807  33.648  28.667  1.00  0.00     0.167 HD
ATOM     67  C   UNL A   1      43.166  33.091  30.017  1.00  0.00     0.074 A 
ATOM     68  C   UNL A   1      44.612  33.085  29.909  1.00  0.00     0.031 C 
ATOM     69  C   UNL A   1      42.200  34.054  29.943  1.00  0.00     0.037 A 
BRANCH  56  70
ATOM     70  C   UNL A   1      36.117  33.328  30.005  1.00  0.00     0.064 A 
ATOM     71  C   UNL A   1      35.352  33.924  28.973  1.00  0.00     0.173 A 
ATOM     72  C   UNL A   1      35.535  33.436  31.282  1.00  0.00     0.173 A 
ATOM     73  F   UNL A   1      35.685  33.792  27.683  1.00  0.00    -0.203 F 
ATOM     74  C   UNL A   1      34.198  34.676  29.218  1.00  0.00     0.198 A 
ATOM     75  C   UNL A   1      34.407  34.227  31.536  1.00  0.00     0.198 A 
ATOM     76  F   UNL A   1      35.985  32.723  32.317  1.00  0.00    -0.203 F 
ATOM     77  F   UNL A   1      33.531  35.227  28.193  1.00  0.00    -0.200 F 
ATOM     78  C   UNL A   1      33.747  34.862  30.506  1.00  0.00     0.200 A 
ATOM     79  F   UNL A   1      33.961  34.359  32.794  1.00  0.00    -0.200 F 
ATOM     80  F   UNL A   1      32.667  35.616  30.750  1.00  0.00    -0.200 F 
ENDBRANCH  56  70
BRANCH  57  81
ATOM     81  C   UNL A   1      44.593  28.600  29.387  1.00  0.00     0.064 A 
ATOM     82  C   UNL A   1      45.327  27.551  29.975  1.00  0.00     0.173 A 
ATOM     83  C   UNL A   1      44.181  28.443  28.059  1.00  0.00     0.173 A 
ATOM     84  F   UNL A   1      45.749  27.661  31.244  1.00  0.00    -0.203 F 
ATOM     85  C   UNL A   1      45.521  26.344  29.308  1.00  0.00     0.198 A 
ATOM     86  C   UNL A   1      44.389  27.234  27.390  1.00  0.00     0.198 A 
ATOM     87  F   UNL A   1      43.457  29.397  27.456  1.00  0.00    -0.203 F 
ATOM     88  F   UNL A   1      46.120  25.321  29.933  1.00  0.00    -0.200 F 
ATOM     89  C   UNL A   1      45.021  26.176  28.028  1.00  0.00     0.200 A 
ATOM     90  F   UNL A   1      43.879  27.057  26.162  1.00  0.00    -0.200 F 
ATOM     91  F   UNL A   1      45.109  24.983  27.424  1.00  0.00    -0.200 F 
ENDBRANCH  57  81
BRANCH  69  92
ATOM     92  C   UNL A   1      42.396  35.479  29.488  1.00  0.00     0.064 A 
ATOM     93  C   UNL A   1      43.175  36.424  30.175  1.00  0.00     0.173 A 
ATOM     94  C   UNL A   1      41.896  35.905  28.232  1.00  0.00     0.173 A 
ATOM     95  F   UNL A   1      43.812  36.113  31.311  1.00  0.00    -0.203 F 
ATOM     96  C   UNL A   1      43.380  37.716  29.681  1.00  0.00     0.198 A 
ATOM     97  C   UNL A   1      42.151  37.175  27.715  1.00  0.00     0.198 A 
ATOM     98  F   UNL A   1      41.168  35.092  27.453  1.00  0.00    -0.203 F 
ATOM     99  F   UNL A   1      44.095  38.594  30.399  1.00  0.00    -0.200 F 
ATOM    100  C   UNL A   1      42.878  38.089  28.449  1.00  0.00     0.200 A 
ATOM    101  F   UNL A   1      41.703  37.499  26.494  1.00  0.00    -0.200 F 
ATOM    102  F   UNL A   1      43.115  39.312  27.960  1.00  0.00    -0.200 F 
ENDBRANCH  69  92
ENDBRANCH  43  44
ENDBRANCH  35  38
ENDBRANCH  33  34
ENDBRANCH  32  33
ENDBRANCH   1  32
TORSDOF 16
ENDMDL
MODEL 2
REMARK VINA RESULT:     -13.8      3.770      9.773
REMARK SMILES Cc1cccc(CNC(=O)N[C@@H](CC2=c3ccccc3=NC2)C(=O)NCCCCNC(=O)c2ccc(-c3c4nc(c(-c5c(F)c(F)c(F)c(F)c5F)c5ccc([nH]5)c(-c5c(F)c(F)c(F)c(F)c5F)c5nc(c(-c6c(F)c(F)c(F)c(F)c6F)c6ccc3[nH]6)C=C5)C=C4)cc2)c1
REMARK SMILES IDX 27 1 26 2 25 3 23 4 24 5 12 7 11 8 8 9 9 10 10 12 7 14 6 15
REMARK SMILES IDX 1 16 2 17 3 18 96 19 4 20 5 21 13 22 14 23 15 24 22 25 16 26
REMARK SMILES IDX 20 27 21 28 17 29 19 30 18 31 28 32 29 33 30 34 31 35 32 37
REMARK SMILES IDX 33 38 34 39 95 40 35 41 94 42 36 43 37 44 38 45 88 46 39 47
REMARK SMILES IDX 93 48 87 49 89 50 40 51 92 52 86 53 85 54 41 56 73 57 53 58
REMARK SMILES IDX 72 59 54 60 57 61 71 62 90 63 55 64 56 65 70 67 91 68 58 69
REMARK SMILES IDX 42 70 43 71 51 72 44 73 45 74 49 75 52 76 46 77 47 78 50 79
REMARK SMILES IDX 48 80 74 81 75 82 83 83 76 84 77 85 81 86 84 87 78 88 79 89
REMARK SMILES IDX 82 90 80 91 59 92 60 93 68 94 61 95 62 96 66 97 69 98 63 99
REMARK SMILES IDX 64 100 67 101 65 102
REMARK H PARENT 25 6 8 11 11 13 30 36 89 55 57 66
REMARK Flexibility Score: inf
ROOT
ATOM      1  C   UNL A   1      31.871  28.901  26.303  1.00  0.00     0.023 C 
ENDROOT
BRANCH   1   2
ATOM      2  C   UNL A   1      31.984  27.455  26.812  1.00  0.00     0.116 C 
BRANCH   2   3
ATOM      3  N   UNL A   1      30.720  26.734  26.846  1.00  0.00    -0.354 N 
ATOM      4  C   UNL A   1      30.212  25.691  26.130  1.00  0.00     0.242 C 
ATOM      5  O   UNL A   1      29.232  25.132  26.647  1.00  0.00    -0.273 OA
ATOM      6  H   UNL A   1      30.099  27.071  27.532  1.00  0.00     0.163 HD
BRANCH   4   7
ATOM      7  C   UNL A   1      30.795  25.113  24.805  1.00  0.00     0.177 C 
BRANCH   7   8
ATOM      8  N   UNL A   1      30.824  23.656  24.806  1.00  0.00    -0.326 N 
ATOM      9  N   UNL A   1      32.516  23.143  26.370  1.00  0.00    -0.334 N 
ATOM     10  C   UNL A   1      31.422  22.818  25.668  1.00  0.00     0.315 C 
ATOM     11  H   UNL A   1      32.629  22.608  27.188  1.00  0.00     0.165 HD
ATOM     12  O   UNL A   1      30.933  21.699  25.817  1.00  0.00    -0.249 OA
ATOM     13  H   UNL A   1      30.335  23.223  24.068  1.00  0.00     0.166 HD
BRANCH   9  14
ATOM     14  C   UNL A   1      33.572  24.122  26.171  1.00  0.00     0.153 C 
BRANCH  14  15
ATOM     15  C   UNL A   1      34.708  23.610  25.315  1.00  0.00    -0.028 A 
ATOM     16  C   UNL A   1      38.260  22.273  25.812  1.00  0.00     0.044 C 
ATOM     17  C   UNL A   1      36.974  22.690  25.162  1.00  0.00    -0.051 A 
ATOM     18  C   UNL A   1      36.850  22.631  23.770  1.00  0.00     0.003 A 
ATOM     19  C   UNL A   1      35.900  23.179  25.925  1.00  0.00     0.009 A 
ATOM     20  C   UNL A   1      35.667  23.030  23.154  1.00  0.00     0.001 A 
ATOM     21  C   UNL A   1      34.604  23.510  23.920  1.00  0.00     0.005 A 
ENDBRANCH  14  15
ENDBRANCH   9  14
ENDBRANCH   7   8
BRANCH   7  22
ATOM     22  C   UNL A   1      30.322  25.686  23.443  1.00  0.00     0.068 C 
BRANCH  22  23
ATOM     23  C   UNL A   1      30.532  27.143  23.233  1.00  0.00    -0.037 C 
ATOM     24  C   UNL A   1      29.562  28.050  23.203  1.00  0.00     0.001 A 
ATOM     25  C   UNL A   1      31.849  27.756  22.865  1.00  0.00     0.174 C 
ATOM     26  C   UNL A   1      28.156  28.017  23.437  1.00  0.00     0.010 A 
ATOM     27  C   UNL A   1      30.216  29.149  22.492  1.00  0.00     0.065 A 
ATOM     28  N   UNL A   1      31.501  29.094  22.309  1.00  0.00    -0.280 NA
ATOM     29  C   UNL A   1      27.393  28.977  22.896  1.00  0.00     0.001 A 
ATOM     30  C   UNL A   1      29.301  30.132  21.883  1.00  0.00     0.028 A 
ATOM     31  C   UNL A   1      27.978  30.013  22.071  1.00  0.00     0.002 A 
ENDBRANCH  22  23
ENDBRANCH   7  22
ENDBRANCH   4   7
ENDBRANCH   2   3
ENDBRANCH   1   2
BRANCH   1  32
ATOM     32  C   UNL A   1      32.463  29.996  27.207  1.00  0.00     0.023 C 
BRANCH  32  33
ATOM     33  C   UNL A   1      33.983  29.973  27.411  1.00  0.00     0.116 C 
BRANCH  33  34
ATOM     34  N   UNL A   1      34.496  31.003  28.306  1.00  0.00    -0.352 N 
ATOM     35  C   UNL A   1      35.687  31.067  29.016  1.00  0.00     0.251 C 
ATOM     36  H   UNL A   1      33.902  31.779  28.427  1.00  0.00     0.163 HD
ATOM     37  O   UNL A   1      35.917  32.034  29.725  1.00  0.00    -0.269 OA
BRANCH  35  38
ATOM     38  C   UNL A   1      36.731  30.020  28.848  1.00  0.00     0.039 A 
ATOM     39  C   UNL A   1      36.944  29.110  29.894  1.00  0.00     0.014 A 
ATOM     40  C   UNL A   1      37.551  29.968  27.727  1.00  0.00     0.014 A 
ATOM     41  C   UNL A   1      38.110  28.339  29.924  1.00  0.00     0.010 A 
ATOM     42  C   UNL A   1      38.729  29.237  27.779  1.00  0.00     0.010 A 
ATOM     43  C   UNL A   1      39.065  28.500  28.922  1.00  0.00    -0.014 A 
BRANCH  43  44
ATOM     44  C   UNL A   1      40.478  28.134  29.093  1.00  0.00     0.031 A 
ATOM     45  C   UNL A   1      41.071  26.926  28.465  1.00  0.00     0.074 A 
ATOM     46  C   UNL A   1      41.312  28.989  29.736  1.00  0.00     0.049 A 
ATOM     47  N   UNL A   1      42.149  26.349  28.888  1.00  0.00    -0.248 NA
ATOM     48  C   UNL A   1      40.483  26.244  27.320  1.00  0.00     0.031 C 
ATOM     49  C   UNL A   1      42.774  28.998  29.673  1.00  0.00     0.029 A 
ATOM     50  N   UNL A   1      41.006  29.960  30.702  1.00  0.00    -0.354 N 
ATOM     51  C   UNL A   1      42.547  25.423  27.948  1.00  0.00     0.074 A 
ATOM     52  C   UNL A   1      41.437  25.353  27.025  1.00  0.00     0.031 C 
ATOM     53  C   UNL A   1      43.255  29.699  30.709  1.00  0.00     0.029 A 
ATOM     54  C   UNL A   1      42.131  30.064  31.547  1.00  0.00     0.049 A 
ATOM     55  H   UNL A   1      40.168  30.470  30.777  1.00  0.00     0.167 HD
ATOM     56  C   UNL A   1      43.818  24.920  27.996  1.00  0.00     0.037 A 
ATOM     57  C   UNL A   1      42.039  29.871  32.890  1.00  0.00     0.037 A 
ATOM     58  C   UNL A   1      44.565  25.473  29.128  1.00  0.00     0.049 A 
ATOM     59  C   UNL A   1      42.906  28.746  33.386  1.00  0.00     0.074 A 
ATOM     60  C   UNL A   1      45.510  26.482  29.214  1.00  0.00     0.029 A 
ATOM     61  N   UNL A   1      44.196  25.165  30.433  1.00  0.00    -0.354 N 
ATOM     62  N   UNL A   1      43.433  27.849  32.602  1.00  0.00    -0.248 NA
ATOM     63  C   UNL A   1      43.219  28.513  34.792  1.00  0.00     0.031 C 
ATOM     64  C   UNL A   1      45.704  26.789  30.580  1.00  0.00     0.029 A 
ATOM     65  C   UNL A   1      44.881  25.964  31.328  1.00  0.00     0.049 A 
ATOM     66  H   UNL A   1      43.540  24.475  30.683  1.00  0.00     0.167 HD
ATOM     67  C   UNL A   1      44.101  26.920  33.352  1.00  0.00     0.074 A 
ATOM     68  C   UNL A   1      43.959  27.392  34.715  1.00  0.00     0.031 C 
ATOM     69  C   UNL A   1      44.691  25.837  32.767  1.00  0.00     0.037 A 
BRANCH  56  70
ATOM     70  C   UNL A   1      44.509  24.146  26.881  1.00  0.00     0.064 A 
ATOM     71  C   UNL A   1      44.223  22.776  26.662  1.00  0.00     0.173 A 
ATOM     72  C   UNL A   1      45.489  24.669  26.017  1.00  0.00     0.173 A 
ATOM     73  F   UNL A   1      43.220  22.156  27.295  1.00  0.00    -0.203 F 
ATOM     74  C   UNL A   1      44.950  21.980  25.770  1.00  0.00     0.198 A 
ATOM     75  C   UNL A   1      46.250  23.866  25.159  1.00  0.00     0.198 A 
ATOM     76  F   UNL A   1      45.699  25.984  25.914  1.00  0.00    -0.203 F 
ATOM     77  F   UNL A   1      44.636  20.684  25.625  1.00  0.00    -0.200 F 
ATOM     78  C   UNL A   1      45.992  22.516  25.046  1.00  0.00     0.200 A 
ATOM     79  F   UNL A   1      47.233  24.418  24.432  1.00  0.00    -0.200 F 
ATOM     80  F   UNL A   1      46.718  21.749  24.223  1.00  0.00    -0.200 F 
ENDBRANCH  56  70
BRANCH  57  81
ATOM     81  C   UNL A   1      40.708  30.250  33.429  1.00  0.00     0.064 A 
ATOM     82  C   UNL A   1      40.436  31.624  33.583  1.00  0.00     0.173 A 
ATOM     83  C   UNL A   1      39.620  29.374  33.348  1.00  0.00     0.173 A 
ATOM     84  F   UNL A   1      41.449  32.500  33.672  1.00  0.00    -0.203 F 
ATOM     85  C   UNL A   1      39.134  32.112  33.522  1.00  0.00     0.198 A 
ATOM     86  C   UNL A   1      38.314  29.868  33.300  1.00  0.00     0.198 A 
ATOM     87  F   UNL A   1      39.818  28.059  33.175  1.00  0.00    -0.203 F 
ATOM     88  F   UNL A   1      38.910  33.433  33.554  1.00  0.00    -0.200 F 
ATOM     89  C   UNL A   1      38.077  31.235  33.346  1.00  0.00     0.200 A 
ATOM     90  F   UNL A   1      37.291  29.025  33.098  1.00  0.00    -0.200 F 
ATOM     91  F   UNL A   1      36.833  31.707  33.178  1.00  0.00    -0.200 F 
ENDBRANCH  57  81
BRANCH  69  92
ATOM     92  C   UNL A   1      45.239  24.625  33.480  1.00  0.00     0.064 A 
ATOM     93  C   UNL A   1      44.511  23.444  33.696  1.00  0.00     0.173 A 
ATOM     94  C   UNL A   1      46.604  24.572  33.856  1.00  0.00     0.173 A 
ATOM     95  F   UNL A   1      43.247  23.313  33.272  1.00  0.00    -0.203 F 
ATOM     96  C   UNL A   1      45.081  22.322  34.305  1.00  0.00     0.198 A 
ATOM     97  C   UNL A   1      47.185  23.431  34.410  1.00  0.00     0.198 A 
ATOM     98  F   UNL A   1      47.425  25.616  33.671  1.00  0.00    -0.203 F 
ATOM     99  F   UNL A   1      44.329  21.235  34.529  1.00  0.00    -0.200 F 
ATOM    100  C   UNL A   1      46.418  22.311  34.653  1.00  0.00     0.200 A 
ATOM    101  F   UNL A   1      48.497  23.421  34.689  1.00  0.00    -0.200 F 
ATOM    102  F   UNL A   1      46.971  21.219  35.195  1.00  0.00    -0.200 F 
ENDBRANCH  69  92
ENDBRANCH  43  44
ENDBRANCH  35  38
ENDBRANCH  33  34
ENDBRANCH  32  33
ENDBRANCH   1  32
TORSDOF 16
ENDMDL
MODEL 3
REMARK VINA RESULT:     -13.7      3.458      9.749
REMARK SMILES Cc1cccc(CNC(=O)N[C@@H](CC2=c3ccccc3=NC2)C(=O)NCCCCNC(=O)c2ccc(-c3c4nc(c(-c5c(F)c(F)c(F)c(F)c5F)c5ccc([nH]5)c(-c5c(F)c(F)c(F)c(F)c5F)c5nc(c(-c6c(F)c(F)c(F)c(F)c6F)c6ccc3[nH]6)C=C5)C=C4)cc2)c1
REMARK SMILES IDX 27 1 26 2 25 3 23 4 24 5 12 7 11 8 8 9 9 10 10 12 7 14 6 15
REMARK SMILES IDX 1 16 2 17 3 18 96 19 4 20 5 21 13 22 14 23 15 24 22 25 16 26
REMARK SMILES IDX 20 27 21 28 17 29 19 30 18 31 28 32 29 33 30 34 31 35 32 37
REMARK SMILES IDX 33 38 34 39 95 40 35 41 94 42 36 43 37 44 38 45 88 46 39 47
REMARK SMILES IDX 93 48 87 49 89 50 40 51 92 52 86 53 85 54 41 56 73 57 53 58
REMARK SMILES IDX 72 59 54 60 57 61 71 62 90 63 55 64 56 65 70 67 91 68 58 69
REMARK SMILES IDX 42 70 43 71 51 72 44 73 45 74 49 75 52 76 46 77 47 78 50 79
REMARK SMILES IDX 48 80 74 81 75 82 83 83 76 84 77 85 81 86 84 87 78 88 79 89
REMARK SMILES IDX 82 90 80 91 59 92 60 93 68 94 61 95 62 96 66 97 69 98 63 99
REMARK SMILES IDX 64 100 67 101 65 102
REMARK H PARENT 25 6 8 11 11 13 30 36 89 55 57 66
REMARK Flexibility Score: inf
ROOT
ATOM      1  C   UNL A   1      32.044  30.649  26.656  1.00  0.00     0.023 C 
ENDROOT
BRANCH   1   2
ATOM      2  C   UNL A   1      31.846  29.764  25.414  1.00  0.00     0.116 C 
BRANCH   2   3
ATOM      3  N   UNL A   1      33.027  29.644  24.573  1.00  0.00    -0.354 N 
ATOM      4  C   UNL A   1      33.665  28.590  23.993  1.00  0.00     0.242 C 
ATOM      5  O   UNL A   1      34.452  28.893  23.082  1.00  0.00    -0.273 OA
ATOM      6  H   UNL A   1      33.456  30.509  24.381  1.00  0.00     0.163 HD
BRANCH   4   7
ATOM      7  C   UNL A   1      33.433  27.082  24.315  1.00  0.00     0.177 C 
BRANCH   7   8
ATOM      8  N   UNL A   1      33.586  26.238  23.137  1.00  0.00    -0.326 N 
ATOM      9  N   UNL A   1      31.440  26.277  22.153  1.00  0.00    -0.334 N 
ATOM     10  C   UNL A   1      32.765  26.091  22.085  1.00  0.00     0.315 C 
ATOM     11  H   UNL A   1      31.029  26.487  21.284  1.00  0.00     0.165 HD
ATOM     12  O   UNL A   1      33.264  25.771  21.006  1.00  0.00    -0.249 OA
ATOM     13  H   UNL A   1      34.409  25.697  23.109  1.00  0.00     0.166 HD
BRANCH   9  14
ATOM     14  C   UNL A   1      30.484  26.232  23.247  1.00  0.00     0.153 C 
BRANCH  14  15
ATOM     15  C   UNL A   1      29.431  27.314  23.166  1.00  0.00    -0.028 A 
ATOM     16  C   UNL A   1      29.131  30.890  21.834  1.00  0.00     0.044 C 
ATOM     17  C   UNL A   1      28.785  29.567  22.451  1.00  0.00    -0.051 A 
ATOM     18  C   UNL A   1      27.504  29.359  22.972  1.00  0.00     0.003 A 
ATOM     19  C   UNL A   1      29.740  28.542  22.551  1.00  0.00     0.009 A 
ATOM     20  C   UNL A   1      27.175  28.140  23.560  1.00  0.00     0.001 A 
ATOM     21  C   UNL A   1      28.129  27.125  23.652  1.00  0.00     0.005 A 
ENDBRANCH  14  15
ENDBRANCH   9  14
ENDBRANCH   7   8
BRANCH   7  22
ATOM     22  C   UNL A   1      34.091  26.454  25.572  1.00  0.00     0.068 C 
BRANCH  22  23
ATOM     23  C   UNL A   1      33.885  24.995  25.764  1.00  0.00    -0.037 C 
ATOM     24  C   UNL A   1      34.841  24.078  25.670  1.00  0.00     0.001 A 
ATOM     25  C   UNL A   1      32.542  24.352  25.929  1.00  0.00     0.174 C 
ATOM     26  C   UNL A   1      36.254  24.123  25.487  1.00  0.00     0.010 A 
ATOM     27  C   UNL A   1      34.056  22.865  25.438  1.00  0.00     0.065 A 
ATOM     28  N   UNL A   1      32.769  22.913  25.615  1.00  0.00    -0.280 NA
ATOM     29  C   UNL A   1      36.871  23.044  24.986  1.00  0.00     0.001 A 
ATOM     30  C   UNL A   1      34.801  21.743  24.837  1.00  0.00     0.028 A 
ATOM     31  C   UNL A   1      36.118  21.864  24.615  1.00  0.00     0.002 A 
ENDBRANCH  22  23
ENDBRANCH   7  22
ENDBRANCH   4   7
ENDBRANCH   2   3
ENDBRANCH   1   2
BRANCH   1  32
ATOM     32  C   UNL A   1      33.246  30.312  27.555  1.00  0.00     0.023 C 
BRANCH  32  33
ATOM     33  C   UNL A   1      34.450  31.259  27.478  1.00  0.00     0.116 C 
BRANCH  33  34
ATOM     34  N   UNL A   1      34.872  31.818  28.756  1.00  0.00    -0.352 N 
ATOM     35  C   UNL A   1      35.823  31.374  29.663  1.00  0.00     0.251 C 
ATOM     36  H   UNL A   1      34.407  32.645  29.019  1.00  0.00     0.163 HD
ATOM     37  O   UNL A   1      36.015  32.000  30.694  1.00  0.00    -0.269 OA
BRANCH  35  38
ATOM     38  C   UNL A   1      36.682  30.200  29.353  1.00  0.00     0.039 A 
ATOM     39  C   UNL A   1      36.953  29.276  30.374  1.00  0.00     0.014 A 
ATOM     40  C   UNL A   1      37.286  30.034  28.112  1.00  0.00     0.014 A 
ATOM     41  C   UNL A   1      38.000  28.360  30.229  1.00  0.00     0.010 A 
ATOM     42  C   UNL A   1      38.354  29.157  27.986  1.00  0.00     0.010 A 
ATOM     43  C   UNL A   1      38.783  28.390  29.077  1.00  0.00    -0.014 A 
BRANCH  43  44
ATOM     44  C   UNL A   1      40.147  27.844  29.019  1.00  0.00     0.031 A 
ATOM     45  C   UNL A   1      40.431  26.450  28.593  1.00  0.00     0.074 A 
ATOM     46  C   UNL A   1      41.201  28.670  29.232  1.00  0.00     0.049 A 
ATOM     47  N   UNL A   1      41.514  25.810  28.898  1.00  0.00    -0.248 NA
ATOM     48  C   UNL A   1      39.506  25.645  27.808  1.00  0.00     0.031 C 
ATOM     49  C   UNL A   1      42.593  28.429  28.851  1.00  0.00     0.029 A 
ATOM     50  N   UNL A   1      41.253  29.861  29.974  1.00  0.00    -0.354 N 
ATOM     51  C   UNL A   1      41.562  24.654  28.151  1.00  0.00     0.074 A 
ATOM     52  C   UNL A   1      40.255  24.569  27.539  1.00  0.00     0.031 C 
ATOM     53  C   UNL A   1      43.390  29.248  29.551  1.00  0.00     0.029 A 
ATOM     54  C   UNL A   1      42.558  29.960  30.498  1.00  0.00     0.049 A 
ATOM     55  H   UNL A   1      40.519  30.505  30.102  1.00  0.00     0.167 HD
ATOM     56  C   UNL A   1      42.743  23.973  28.041  1.00  0.00     0.037 A 
ATOM     57  C   UNL A   1      42.786  30.075  31.835  1.00  0.00     0.037 A 
ATOM     58  C   UNL A   1      43.805  24.626  28.810  1.00  0.00     0.049 A 
ATOM     59  C   UNL A   1      43.625  28.956  32.389  1.00  0.00     0.074 A 
ATOM     60  C   UNL A   1      44.843  25.464  28.437  1.00  0.00     0.029 A 
ATOM     61  N   UNL A   1      43.744  24.667  30.199  1.00  0.00    -0.354 N 
ATOM     62  N   UNL A   1      43.840  27.840  31.755  1.00  0.00    -0.248 NA
ATOM     63  C   UNL A   1      44.254  28.981  33.705  1.00  0.00     0.031 C 
ATOM     64  C   UNL A   1      45.405  26.020  29.608  1.00  0.00     0.029 A 
ATOM     65  C   UNL A   1      44.713  25.517  30.698  1.00  0.00     0.049 A 
ATOM     66  H   UNL A   1      43.103  24.162  30.748  1.00  0.00     0.167 HD
ATOM     67  C   UNL A   1      44.573  26.997  32.545  1.00  0.00     0.074 A 
ATOM     68  C   UNL A   1      44.828  27.765  33.747  1.00  0.00     0.031 C 
ATOM     69  C   UNL A   1      44.879  25.732  32.128  1.00  0.00     0.037 A 
BRANCH  56  70
ATOM     70  C   UNL A   1      43.046  22.878  27.026  1.00  0.00     0.064 A 
ATOM     71  C   UNL A   1      42.435  21.604  27.128  1.00  0.00     0.173 A 
ATOM     72  C   UNL A   1      43.954  22.991  25.957  1.00  0.00     0.173 A 
ATOM     73  F   UNL A   1      41.444  21.365  27.997  1.00  0.00    -0.203 F 
ATOM     74  C   UNL A   1      42.805  20.516  26.331  1.00  0.00     0.198 A 
ATOM     75  C   UNL A   1      44.361  21.893  25.189  1.00  0.00     0.198 A 
ATOM     76  F   UNL A   1      44.425  24.177  25.563  1.00  0.00    -0.203 F 
ATOM     77  F   UNL A   1      42.196  19.333  26.492  1.00  0.00    -0.200 F 
ATOM     78  C   UNL A   1      43.799  20.650  25.386  1.00  0.00     0.200 A 
ATOM     79  F   UNL A   1      45.301  22.056  24.246  1.00  0.00    -0.200 F 
ATOM     80  F   UNL A   1      44.187  19.601  24.650  1.00  0.00    -0.200 F 
ENDBRANCH  56  70
BRANCH  57  81
ATOM     81  C   UNL A   1      41.681  30.771  32.542  1.00  0.00     0.064 A 
ATOM     82  C   UNL A   1      41.617  32.173  32.427  1.00  0.00     0.173 A 
ATOM     83  C   UNL A   1      40.512  30.091  32.902  1.00  0.00     0.173 A 
ATOM     84  F   UNL A   1      42.715  32.868  32.091  1.00  0.00    -0.203 F 
ATOM     85  C   UNL A   1      40.404  32.851  32.534  1.00  0.00     0.198 A 
ATOM     86  C   UNL A   1      39.301  30.777  33.020  1.00  0.00     0.198 A 
ATOM     87  F   UNL A   1      40.508  28.754  33.001  1.00  0.00    -0.203 F 
ATOM     88  F   UNL A   1      40.350  34.170  32.304  1.00  0.00    -0.200 F 
ATOM     89  C   UNL A   1      39.242  32.145  32.796  1.00  0.00     0.200 A 
ATOM     90  F   UNL A   1      38.169  30.093  33.243  1.00  0.00    -0.200 F 
ATOM     91  F   UNL A   1      38.059  32.775  32.792  1.00  0.00    -0.200 F 
ENDBRANCH  57  81
BRANCH  69  92
ATOM     92  C   UNL A   1      45.456  24.628  32.980  1.00  0.00     0.064 A 
ATOM     93  C   UNL A   1      46.739  24.663  33.549  1.00  0.00     0.173 A 
ATOM     94  C   UNL A   1      44.650  23.530  33.370  1.00  0.00     0.173 A 
ATOM     95  F   UNL A   1      47.558  25.707  33.366  1.00  0.00    -0.203 F 
ATOM     96  C   UNL A   1      47.207  23.644  34.386  1.00  0.00     0.198 A 
ATOM     97  C   UNL A   1      45.099  22.546  34.252  1.00  0.00     0.198 A 
ATOM     98  F   UNL A   1      43.389  23.392  32.933  1.00  0.00    -0.203 F 
ATOM     99  F   UNL A   1      48.457  23.704  34.866  1.00  0.00    -0.200 F 
ATOM    100  C   UNL A   1      46.386  22.593  34.745  1.00  0.00     0.200 A 
ATOM    101  F   UNL A   1      44.269  21.564  34.632  1.00  0.00    -0.200 F 
ATOM    102  F   UNL A   1      46.823  21.644  35.582  1.00  0.00    -0.200 F 
ENDBRANCH  69  92
ENDBRANCH  43  44
ENDBRANCH  35  38
ENDBRANCH  33  34
ENDBRANCH  32  33
ENDBRANCH   1  32
TORSDOF 16
ENDMDL
