MODEL 1
REMARK VINA RESULT:     -12.4      0.000      0.000
REMARK SMILES CC(C)C[C@@H](CNC1=[NH+]S(=O)(=O)c2ccccc21)C(=O)NCCCCNC(=O)c1ccc(-c2c3nc(c(-c4c(F)c(F)c(F)c(F)c4F)c4ccc([nH]4)c(-c4c(F)c(F)c(F)c(F)c4F)c4nc(c(-c5c(F)c(F)c(F)c(F)c5F)c5ccc2[nH]5)C=C4)C=C3)cc1
REMARK SMILES IDX 23 1 22 2 21 3 19 4 20 5 5 7 4 8 2 9 1 10 3 11 6 12 7 13
REMARK SMILES IDX 8 14 9 16 18 17 10 18 13 20 17 21 11 22 12 23 14 24 16 25
REMARK SMILES IDX 15 26 24 27 25 28 26 29 27 30 28 32 29 33 30 34 91 35 31 36
REMARK SMILES IDX 90 37 32 38 33 39 34 40 84 41 35 42 89 43 83 44 85 45 36 46
REMARK SMILES IDX 88 47 82 48 81 49 37 51 69 52 49 53 68 54 50 55 53 56 67 57
REMARK SMILES IDX 86 58 51 59 52 60 66 62 87 63 54 64 38 65 39 66 47 67 40 68
REMARK SMILES IDX 41 69 45 70 48 71 42 72 43 73 46 74 44 75 70 76 71 77 79 78
REMARK SMILES IDX 72 79 73 80 77 81 80 82 74 83 75 84 78 85 76 86 55 87 56 88
REMARK SMILES IDX 64 89 57 90 58 91 62 92 65 93 59 94 60 95 63 96 61 97
REMARK H PARENT 21 6 7 15 9 19 26 31 85 50 53 61
REMARK Flexibility Score: inf
ROOT
ATOM      1  C   UNL A   1      37.229  21.807  24.412  1.00  0.00     0.023 C 
ENDROOT
BRANCH   1   2
ATOM      2  C   UNL A   1      36.669  22.966  25.228  1.00  0.00     0.116 C 
BRANCH   2   3
ATOM      3  N   UNL A   1      35.786  22.564  26.295  1.00  0.00    -0.356 N 
ATOM      4  C   UNL A   1      34.642  21.825  26.264  1.00  0.00     0.227 C 
ATOM      5  O   UNL A   1      34.199  21.442  27.352  1.00  0.00    -0.275 OA
ATOM      6  H   UNL A   1      36.052  22.872  27.191  1.00  0.00     0.163 HD
BRANCH   4   7
ATOM      7  C   UNL A   1      33.886  21.494  24.974  1.00  0.00     0.120 C 
BRANCH   7   8
ATOM      8  C   UNL A   1      34.043  20.021  24.555  1.00  0.00     0.020 C 
BRANCH   8   9
ATOM      9  C   UNL A   1      32.758  19.172  24.528  1.00  0.00    -0.016 C 
ATOM     10  C   UNL A   1      32.556  18.428  23.208  1.00  0.00     0.007 C 
ATOM     11  C   UNL A   1      32.807  18.160  25.680  1.00  0.00     0.007 C 
ENDBRANCH   8   9
ENDBRANCH   7   8
BRANCH   7  12
ATOM     12  C   UNL A   1      32.489  22.131  24.885  1.00  0.00     0.247 C 
BRANCH  12  13
ATOM     13  N   UNL A   1      32.399  23.521  25.320  1.00  0.00    -0.272 N 
ATOM     14  C   UNL A   1      32.478  24.575  24.439  1.00  0.00     0.292 C 
ATOM     15  H   UNL A   1      32.276  23.711  26.278  1.00  0.00     0.305 HD
ATOM     16  N   UNL A   1      32.278  24.450  23.158  1.00  0.00    -0.162 N 
ATOM     17  C   UNL A   1      32.891  25.933  24.880  1.00  0.00     0.087 A 
ATOM     18  S   UNL A   1      32.528  25.865  22.373  1.00  0.00     0.329 S 
ATOM     19  H   UNL A   1      32.011  23.611  22.718  1.00  0.00     0.327 HD
ATOM     20  C   UNL A   1      33.081  26.735  23.770  1.00  0.00     0.124 A 
ATOM     21  C   UNL A   1      33.192  26.422  26.138  1.00  0.00     0.018 A 
ATOM     22  O   UNL A   1      31.268  26.460  21.989  1.00  0.00    -0.179 OA
ATOM     23  O   UNL A   1      33.652  25.754  21.467  1.00  0.00    -0.179 OA
ATOM     24  C   UNL A   1      33.660  27.988  23.817  1.00  0.00     0.025 A 
ATOM     25  C   UNL A   1      33.749  27.706  26.227  1.00  0.00     0.001 A 
ATOM     26  C   UNL A   1      34.012  28.471  25.075  1.00  0.00     0.002 A 
ENDBRANCH  12  13
ENDBRANCH   7  12
ENDBRANCH   4   7
ENDBRANCH   2   3
ENDBRANCH   1   2
BRANCH   1  27
ATOM     27  C   UNL A   1      37.755  20.630  25.237  1.00  0.00     0.023 C 
BRANCH  27  28
ATOM     28  C   UNL A   1      39.127  20.833  25.882  1.00  0.00     0.116 C 
BRANCH  28  29
ATOM     29  N   UNL A   1      39.964  19.642  25.895  1.00  0.00    -0.352 N 
ATOM     30  C   UNL A   1      41.315  19.541  26.132  1.00  0.00     0.251 C 
ATOM     31  H   UNL A   1      39.500  18.794  25.709  1.00  0.00     0.163 HD
ATOM     32  O   UNL A   1      41.868  18.448  26.060  1.00  0.00    -0.269 OA
BRANCH  30  33
ATOM     33  C   UNL A   1      42.114  20.749  26.439  1.00  0.00     0.039 A 
ATOM     34  C   UNL A   1      42.590  21.513  25.369  1.00  0.00     0.014 A 
ATOM     35  C   UNL A   1      42.362  21.154  27.753  1.00  0.00     0.014 A 
ATOM     36  C   UNL A   1      43.206  22.741  25.614  1.00  0.00     0.010 A 
ATOM     37  C   UNL A   1      42.925  22.402  27.998  1.00  0.00     0.010 A 
ATOM     38  C   UNL A   1      43.317  23.219  26.929  1.00  0.00    -0.014 A 
BRANCH  38  39
ATOM     39  C   UNL A   1      43.718  24.620  27.195  1.00  0.00     0.031 A 
ATOM     40  C   UNL A   1      42.718  25.640  27.645  1.00  0.00     0.074 A 
ATOM     41  C   UNL A   1      44.988  24.979  26.925  1.00  0.00     0.049 A 
ATOM     42  N   UNL A   1      42.894  26.912  27.892  1.00  0.00    -0.248 NA
ATOM     43  C   UNL A   1      41.334  25.175  27.818  1.00  0.00     0.031 C 
ATOM     44  C   UNL A   1      46.024  24.080  26.406  1.00  0.00     0.029 A 
ATOM     45  N   UNL A   1      45.622  26.190  27.026  1.00  0.00    -0.354 N 
ATOM     46  C   UNL A   1      41.648  27.400  28.259  1.00  0.00     0.074 A 
ATOM     47  C   UNL A   1      40.714  26.300  28.146  1.00  0.00     0.031 C 
ATOM     48  C   UNL A   1      47.163  24.768  26.243  1.00  0.00     0.029 A 
ATOM     49  C   UNL A   1      46.934  26.159  26.619  1.00  0.00     0.049 A 
ATOM     50  H   UNL A   1      45.180  27.005  27.358  1.00  0.00     0.167 HD
ATOM     51  C   UNL A   1      41.324  28.649  28.671  1.00  0.00     0.037 A 
ATOM     52  C   UNL A   1      47.848  27.144  26.554  1.00  0.00     0.037 A 
ATOM     53  C   UNL A   1      42.264  29.738  28.764  1.00  0.00     0.049 A 
ATOM     54  C   UNL A   1      47.462  28.521  27.015  1.00  0.00     0.074 A 
ATOM     55  C   UNL A   1      42.054  31.027  29.221  1.00  0.00     0.029 A 
ATOM     56  N   UNL A   1      43.596  29.665  28.377  1.00  0.00    -0.354 N 
ATOM     57  N   UNL A   1      46.305  28.950  27.458  1.00  0.00    -0.248 NA
ATOM     58  C   UNL A   1      48.512  29.548  26.981  1.00  0.00     0.031 C 
ATOM     59  C   UNL A   1      43.244  31.747  29.063  1.00  0.00     0.029 A 
ATOM     60  C   UNL A   1      44.212  30.892  28.561  1.00  0.00     0.049 A 
ATOM     61  H   UNL A   1      44.038  28.859  28.023  1.00  0.00     0.167 HD
ATOM     62  C   UNL A   1      46.492  30.285  27.782  1.00  0.00     0.074 A 
ATOM     63  C   UNL A   1      47.879  30.592  27.499  1.00  0.00     0.031 C 
ATOM     64  C   UNL A   1      45.596  31.178  28.272  1.00  0.00     0.037 A 
BRANCH  51  65
ATOM     65  C   UNL A   1      39.896  28.904  29.059  1.00  0.00     0.064 A 
ATOM     66  C   UNL A   1      38.932  29.272  28.106  1.00  0.00     0.173 A 
ATOM     67  C   UNL A   1      39.472  28.743  30.387  1.00  0.00     0.173 A 
ATOM     68  F   UNL A   1      39.286  29.449  26.823  1.00  0.00    -0.203 F 
ATOM     69  C   UNL A   1      37.608  29.498  28.473  1.00  0.00     0.198 A 
ATOM     70  C   UNL A   1      38.140  28.940  30.745  1.00  0.00     0.198 A 
ATOM     71  F   UNL A   1      40.348  28.385  31.338  1.00  0.00    -0.203 F 
ATOM     72  F   UNL A   1      36.719  29.896  27.552  1.00  0.00    -0.200 F 
ATOM     73  C   UNL A   1      37.212  29.325  29.789  1.00  0.00     0.200 A 
ATOM     74  F   UNL A   1      37.755  28.759  32.016  1.00  0.00    -0.200 F 
ATOM     75  F   UNL A   1      35.935  29.536  30.139  1.00  0.00    -0.200 F 
ENDBRANCH  51  65
BRANCH  52  76
ATOM     76  C   UNL A   1      49.221  26.847  26.070  1.00  0.00     0.064 A 
ATOM     77  C   UNL A   1      50.206  26.369  26.945  1.00  0.00     0.173 A 
ATOM     78  C   UNL A   1      49.570  27.013  24.721  1.00  0.00     0.173 A 
ATOM     79  F   UNL A   1      49.922  26.206  28.246  1.00  0.00    -0.203 F 
ATOM     80  C   UNL A   1      51.493  26.087  26.494  1.00  0.00     0.198 A 
ATOM     81  C   UNL A   1      50.850  26.703  24.266  1.00  0.00     0.198 A 
ATOM     82  F   UNL A   1      48.660  27.455  23.840  1.00  0.00    -0.203 F 
ATOM     83  F   UNL A   1      52.425  25.667  27.360  1.00  0.00    -0.200 F 
ATOM     84  C   UNL A   1      51.813  26.248  25.155  1.00  0.00     0.200 A 
ATOM     85  F   UNL A   1      51.150  26.842  22.967  1.00  0.00    -0.200 F 
ATOM     86  F   UNL A   1      53.049  25.967  24.721  1.00  0.00    -0.200 F 
ENDBRANCH  52  76
BRANCH  64  87
ATOM     87  C   UNL A   1      46.098  32.562  28.557  1.00  0.00     0.064 A 
ATOM     88  C   UNL A   1      46.019  33.586  27.602  1.00  0.00     0.173 A 
ATOM     89  C   UNL A   1      46.640  32.876  29.813  1.00  0.00     0.173 A 
ATOM     90  F   UNL A   1      45.527  33.332  26.380  1.00  0.00    -0.203 F 
ATOM     91  C   UNL A   1      46.487  34.866  27.884  1.00  0.00     0.198 A 
ATOM     92  C   UNL A   1      47.077  34.164  30.103  1.00  0.00     0.198 A 
ATOM     93  F   UNL A   1      46.734  31.933  30.763  1.00  0.00    -0.203 F 
ATOM     94  F   UNL A   1      46.447  35.816  26.940  1.00  0.00    -0.200 F 
ATOM     95  C   UNL A   1      47.008  35.156  29.137  1.00  0.00     0.200 A 
ATOM     96  F   UNL A   1      47.569  34.446  31.318  1.00  0.00    -0.200 F 
ATOM     97  F   UNL A   1      47.452  36.391  29.409  1.00  0.00    -0.200 F 
ENDBRANCH  64  87
ENDBRANCH  38  39
ENDBRANCH  30  33
ENDBRANCH  28  29
ENDBRANCH  27  28
ENDBRANCH   1  27
TORSDOF 15
ENDMDL
MODEL 2
REMARK VINA RESULT:     -12.4      3.700      8.628
REMARK SMILES CC(C)C[C@@H](CNC1=[NH+]S(=O)(=O)c2ccccc21)C(=O)NCCCCNC(=O)c1ccc(-c2c3nc(c(-c4c(F)c(F)c(F)c(F)c4F)c4ccc([nH]4)c(-c4c(F)c(F)c(F)c(F)c4F)c4nc(c(-c5c(F)c(F)c(F)c(F)c5F)c5ccc2[nH]5)C=C4)C=C3)cc1
REMARK SMILES IDX 23 1 22 2 21 3 19 4 20 5 5 7 4 8 2 9 1 10 3 11 6 12 7 13
REMARK SMILES IDX 8 14 9 16 18 17 10 18 13 20 17 21 11 22 12 23 14 24 16 25
REMARK SMILES IDX 15 26 24 27 25 28 26 29 27 30 28 32 29 33 30 34 91 35 31 36
REMARK SMILES IDX 90 37 32 38 33 39 34 40 84 41 35 42 89 43 83 44 85 45 36 46
REMARK SMILES IDX 88 47 82 48 81 49 37 51 69 52 49 53 68 54 50 55 53 56 67 57
REMARK SMILES IDX 86 58 51 59 52 60 66 62 87 63 54 64 38 65 39 66 47 67 40 68
REMARK SMILES IDX 41 69 45 70 48 71 42 72 43 73 46 74 44 75 70 76 71 77 79 78
REMARK SMILES IDX 72 79 73 80 77 81 80 82 74 83 75 84 78 85 76 86 55 87 56 88
REMARK SMILES IDX 64 89 57 90 58 91 62 92 65 93 59 94 60 95 63 96 61 97
REMARK H PARENT 21 6 7 15 9 19 26 31 85 50 53 61
REMARK Flexibility Score: inf
ROOT
ATOM      1  C   UNL A   1      35.649  21.921  26.332  1.00  0.00     0.023 C 
ENDROOT
BRANCH   1   2
ATOM      2  C   UNL A   1      34.323  21.827  27.077  1.00  0.00     0.116 C 
BRANCH   2   3
ATOM      3  N   UNL A   1      33.362  20.942  26.464  1.00  0.00    -0.356 N 
ATOM      4  C   UNL A   1      32.382  21.197  25.553  1.00  0.00     0.227 C 
ATOM      5  O   UNL A   1      31.842  20.217  25.029  1.00  0.00    -0.275 OA
ATOM      6  H   UNL A   1      33.424  20.003  26.749  1.00  0.00     0.163 HD
BRANCH   4   7
ATOM      7  C   UNL A   1      31.911  22.610  25.195  1.00  0.00     0.120 C 
BRANCH   7   8
ATOM      8  C   UNL A   1      32.023  22.909  23.688  1.00  0.00     0.020 C 
BRANCH   8   9
ATOM      9  C   UNL A   1      33.197  23.805  23.251  1.00  0.00    -0.016 C 
ATOM     10  C   UNL A   1      33.582  24.847  24.301  1.00  0.00     0.007 C 
ATOM     11  C   UNL A   1      34.412  22.920  22.944  1.00  0.00     0.007 C 
ENDBRANCH   8   9
ENDBRANCH   7   8
BRANCH   7  12
ATOM     12  C   UNL A   1      30.633  23.049  25.930  1.00  0.00     0.247 C 
BRANCH  12  13
ATOM     13  N   UNL A   1      30.623  24.427  26.413  1.00  0.00    -0.272 N 
ATOM     14  C   UNL A   1      30.444  25.501  25.571  1.00  0.00     0.292 C 
ATOM     15  H   UNL A   1      30.749  24.593  27.374  1.00  0.00     0.305 HD
ATOM     16  N   UNL A   1      29.921  25.397  24.383  1.00  0.00    -0.162 N 
ATOM     17  C   UNL A   1      30.923  26.862  25.929  1.00  0.00     0.087 A 
ATOM     18  S   UNL A   1      29.922  26.835  23.601  1.00  0.00     0.329 S 
ATOM     19  H   UNL A   1      29.570  24.559  24.003  1.00  0.00     0.327 HD
ATOM     20  C   UNL A   1      30.797  27.693  24.831  1.00  0.00     0.124 A 
ATOM     21  C   UNL A   1      31.528  27.333  27.079  1.00  0.00     0.018 A 
ATOM     22  O   UNL A   1      28.591  27.397  23.573  1.00  0.00    -0.179 OA
ATOM     23  O   UNL A   1      30.775  26.779  22.431  1.00  0.00    -0.179 OA
ATOM     24  C   UNL A   1      31.337  28.962  24.762  1.00  0.00     0.025 A 
ATOM     25  C   UNL A   1      32.057  28.633  27.058  1.00  0.00     0.001 A 
ATOM     26  C   UNL A   1      31.991  29.430  25.899  1.00  0.00     0.002 A 
ENDBRANCH  12  13
ENDBRANCH   7  12
ENDBRANCH   4   7
ENDBRANCH   2   3
ENDBRANCH   1   2
BRANCH   1  27
ATOM     27  C   UNL A   1      36.197  23.341  26.165  1.00  0.00     0.023 C 
BRANCH  27  28
ATOM     28  C   UNL A   1      37.378  23.487  25.204  1.00  0.00     0.116 C 
BRANCH  28  29
ATOM     29  N   UNL A   1      38.545  22.698  25.566  1.00  0.00    -0.352 N 
ATOM     30  C   UNL A   1      39.634  23.066  26.323  1.00  0.00     0.251 C 
ATOM     31  H   UNL A   1      38.557  21.775  25.224  1.00  0.00     0.163 HD
ATOM     32  O   UNL A   1      40.555  22.274  26.493  1.00  0.00    -0.269 OA
BRANCH  30  33
ATOM     33  C   UNL A   1      39.716  24.425  26.903  1.00  0.00     0.039 A 
ATOM     34  C   UNL A   1      39.194  24.627  28.185  1.00  0.00     0.014 A 
ATOM     35  C   UNL A   1      40.329  25.480  26.223  1.00  0.00     0.014 A 
ATOM     36  C   UNL A   1      39.394  25.848  28.830  1.00  0.00     0.010 A 
ATOM     37  C   UNL A   1      40.579  26.679  26.885  1.00  0.00     0.010 A 
ATOM     38  C   UNL A   1      40.145  26.856  28.206  1.00  0.00    -0.014 A 
BRANCH  38  39
ATOM     39  C   UNL A   1      40.596  28.045  28.964  1.00  0.00     0.031 A 
ATOM     40  C   UNL A   1      41.968  28.109  29.560  1.00  0.00     0.074 A 
ATOM     41  C   UNL A   1      39.704  29.029  29.191  1.00  0.00     0.049 A 
ATOM     42  N   UNL A   1      42.510  29.059  30.277  1.00  0.00    -0.248 NA
ATOM     43  C   UNL A   1      42.838  26.944  29.342  1.00  0.00     0.031 C 
ATOM     44  C   UNL A   1      38.315  29.030  28.723  1.00  0.00     0.029 A 
ATOM     45  N   UNL A   1      39.819  30.205  29.887  1.00  0.00    -0.354 N 
ATOM     46  C   UNL A   1      43.787  28.613  30.588  1.00  0.00     0.074 A 
ATOM     47  C   UNL A   1      43.918  27.283  30.032  1.00  0.00     0.031 C 
ATOM     48  C   UNL A   1      37.711  30.152  29.137  1.00  0.00     0.029 A 
ATOM     49  C   UNL A   1      38.658  30.938  29.919  1.00  0.00     0.049 A 
ATOM     50  H   UNL A   1      40.653  30.496  30.321  1.00  0.00     0.167 HD
ATOM     51  C   UNL A   1      44.765  29.268  31.261  1.00  0.00     0.037 A 
ATOM     52  C   UNL A   1      38.388  32.113  30.517  1.00  0.00     0.037 A 
ATOM     53  C   UNL A   1      44.614  30.587  31.822  1.00  0.00     0.049 A 
ATOM     54  C   UNL A   1      39.489  32.818  31.259  1.00  0.00     0.074 A 
ATOM     55  C   UNL A   1      45.555  31.364  32.475  1.00  0.00     0.029 A 
ATOM     56  N   UNL A   1      43.434  31.320  31.808  1.00  0.00    -0.354 N 
ATOM     57  N   UNL A   1      40.725  32.434  31.461  1.00  0.00    -0.248 NA
ATOM     58  C   UNL A   1      39.161  34.126  31.843  1.00  0.00     0.031 C 
ATOM     59  C   UNL A   1      44.932  32.543  32.898  1.00  0.00     0.029 A 
ATOM     60  C   UNL A   1      43.617  32.528  32.462  1.00  0.00     0.049 A 
ATOM     61  H   UNL A   1      42.590  31.024  31.395  1.00  0.00     0.167 HD
ATOM     62  C   UNL A   1      41.332  33.460  32.170  1.00  0.00     0.074 A 
ATOM     63  C   UNL A   1      40.331  34.492  32.349  1.00  0.00     0.031 C 
ATOM     64  C   UNL A   1      42.606  33.542  32.630  1.00  0.00     0.037 A 
BRANCH  51  65
ATOM     65  C   UNL A   1      46.085  28.570  31.421  1.00  0.00     0.064 A 
ATOM     66  C   UNL A   1      47.106  28.708  30.468  1.00  0.00     0.173 A 
ATOM     67  C   UNL A   1      46.352  27.788  32.555  1.00  0.00     0.173 A 
ATOM     68  F   UNL A   1      46.901  29.438  29.360  1.00  0.00    -0.203 F 
ATOM     69  C   UNL A   1      48.331  28.065  30.628  1.00  0.00     0.198 A 
ATOM     70  C   UNL A   1      47.588  27.171  32.728  1.00  0.00     0.198 A 
ATOM     71  F   UNL A   1      45.415  27.628  33.502  1.00  0.00    -0.203 F 
ATOM     72  F   UNL A   1      49.271  28.173  29.680  1.00  0.00    -0.200 F 
ATOM     73  C   UNL A   1      48.573  27.303  31.760  1.00  0.00     0.200 A 
ATOM     74  F   UNL A   1      47.826  26.446  33.829  1.00  0.00    -0.200 F 
ATOM     75  F   UNL A   1      49.755  26.690  31.917  1.00  0.00    -0.200 F 
ENDBRANCH  51  65
BRANCH  52  76
ATOM     76  C   UNL A   1      37.031  32.707  30.401  1.00  0.00     0.064 A 
ATOM     77  C   UNL A   1      36.077  32.529  31.412  1.00  0.00     0.173 A 
ATOM     78  C   UNL A   1      36.668  33.482  29.289  1.00  0.00     0.173 A 
ATOM     79  F   UNL A   1      36.376  31.786  32.488  1.00  0.00    -0.203 F 
ATOM     80  C   UNL A   1      34.805  33.086  31.308  1.00  0.00     0.198 A 
ATOM     81  C   UNL A   1      35.404  34.063  29.199  1.00  0.00     0.198 A 
ATOM     82  F   UNL A   1      37.548  33.694  28.299  1.00  0.00    -0.203 F 
ATOM     83  F   UNL A   1      33.901  32.868  32.272  1.00  0.00    -0.200 F 
ATOM     84  C   UNL A   1      34.471  33.857  30.204  1.00  0.00     0.200 A 
ATOM     85  F   UNL A   1      35.091  34.823  28.141  1.00  0.00    -0.200 F 
ATOM     86  F   UNL A   1      33.250  34.401  30.110  1.00  0.00    -0.200 F 
ENDBRANCH  52  76
BRANCH  64  87
ATOM     87  C   UNL A   1      42.992  34.802  33.347  1.00  0.00     0.064 A 
ATOM     88  C   UNL A   1      42.928  34.904  34.744  1.00  0.00     0.173 A 
ATOM     89  C   UNL A   1      43.460  35.912  32.628  1.00  0.00     0.173 A 
ATOM     90  F   UNL A   1      42.468  33.876  35.475  1.00  0.00    -0.203 F 
ATOM     91  C   UNL A   1      43.293  36.080  35.394  1.00  0.00     0.198 A 
ATOM     92  C   UNL A   1      43.855  37.075  33.283  1.00  0.00     0.198 A 
ATOM     93  F   UNL A   1      43.545  35.864  31.290  1.00  0.00    -0.203 F 
ATOM     94  F   UNL A   1      43.175  36.171  36.725  1.00  0.00    -0.200 F 
ATOM     95  C   UNL A   1      43.764  37.161  34.663  1.00  0.00     0.200 A 
ATOM     96  F   UNL A   1      44.321  38.114  32.576  1.00  0.00    -0.200 F 
ATOM     97  F   UNL A   1      44.121  38.289  35.291  1.00  0.00    -0.200 F 
ENDBRANCH  64  87
ENDBRANCH  38  39
ENDBRANCH  30  33
ENDBRANCH  28  29
ENDBRANCH  27  28
ENDBRANCH   1  27
TORSDOF 15
ENDMDL
MODEL 3
REMARK VINA RESULT:     -12.4      5.773     11.214
REMARK SMILES CC(C)C[C@@H](CNC1=[NH+]S(=O)(=O)c2ccccc21)C(=O)NCCCCNC(=O)c1ccc(-c2c3nc(c(-c4c(F)c(F)c(F)c(F)c4F)c4ccc([nH]4)c(-c4c(F)c(F)c(F)c(F)c4F)c4nc(c(-c5c(F)c(F)c(F)c(F)c5F)c5ccc2[nH]5)C=C4)C=C3)cc1
REMARK SMILES IDX 23 1 22 2 21 3 19 4 20 5 5 7 4 8 2 9 1 10 3 11 6 12 7 13
REMARK SMILES IDX 8 14 9 16 18 17 10 18 13 20 17 21 11 22 12 23 14 24 16 25
REMARK SMILES IDX 15 26 24 27 25 28 26 29 27 30 28 32 29 33 30 34 91 35 31 36
REMARK SMILES IDX 90 37 32 38 33 39 34 40 84 41 35 42 89 43 83 44 85 45 36 46
REMARK SMILES IDX 88 47 82 48 81 49 37 51 69 52 49 53 68 54 50 55 53 56 67 57
REMARK SMILES IDX 86 58 51 59 52 60 66 62 87 63 54 64 38 65 39 66 47 67 40 68
REMARK SMILES IDX 41 69 45 70 48 71 42 72 43 73 46 74 44 75 70 76 71 77 79 78
REMARK SMILES IDX 72 79 73 80 77 81 80 82 74 83 75 84 78 85 76 86 55 87 56 88
REMARK SMILES IDX 64 89 57 90 58 91 62 92 65 93 59 94 60 95 63 96 61 97
REMARK H PARENT 21 6 7 15 9 19 26 31 85 50 53 61
REMARK Flexibility Score: inf
ROOT
ATOM      1  C   UNL A   1      32.452  30.101  26.978  1.00  0.00     0.023 C 
ENDROOT
BRANCH   1   2
ATOM      2  C   UNL A   1      31.671  29.152  26.076  1.00  0.00     0.116 C 
BRANCH   2   3
ATOM      3  N   UNL A   1      32.328  28.850  24.828  1.00  0.00    -0.356 N 
ATOM      4  C   UNL A   1      31.810  28.481  23.623  1.00  0.00     0.227 C 
ATOM      5  O   UNL A   1      32.582  28.495  22.659  1.00  0.00    -0.275 OA
ATOM      6  H   UNL A   1      33.309  28.921  24.848  1.00  0.00     0.163 HD
BRANCH   4   7
ATOM      7  C   UNL A   1      30.360  28.024  23.433  1.00  0.00     0.120 C 
BRANCH   7   8
ATOM      8  C   UNL A   1      29.576  28.925  22.462  1.00  0.00     0.020 C 
BRANCH   8   9
ATOM      9  C   UNL A   1      28.359  29.668  23.043  1.00  0.00    -0.016 C 
ATOM     10  C   UNL A   1      27.920  30.862  22.195  1.00  0.00     0.007 C 
ATOM     11  C   UNL A   1      27.190  28.682  23.173  1.00  0.00     0.007 C 
ENDBRANCH   8   9
ENDBRANCH   7   8
BRANCH   7  12
ATOM     12  C   UNL A   1      30.195  26.500  23.305  1.00  0.00     0.247 C 
BRANCH  12  13
ATOM     13  N   UNL A   1      31.419  25.717  23.448  1.00  0.00    -0.272 N 
ATOM     14  C   UNL A   1      31.550  24.720  24.387  1.00  0.00     0.292 C 
ATOM     15  H   UNL A   1      32.177  25.909  22.850  1.00  0.00     0.305 HD
ATOM     16  N   UNL A   1      30.533  24.147  24.966  1.00  0.00    -0.162 N 
ATOM     17  C   UNL A   1      32.882  24.283  24.882  1.00  0.00     0.087 A 
ATOM     18  S   UNL A   1      31.019  23.064  26.093  1.00  0.00     0.329 S 
ATOM     19  H   UNL A   1      29.592  24.341  24.752  1.00  0.00     0.327 HD
ATOM     20  C   UNL A   1      32.711  23.426  25.954  1.00  0.00     0.124 A 
ATOM     21  C   UNL A   1      34.156  24.675  24.514  1.00  0.00     0.018 A 
ATOM     22  O   UNL A   1      30.845  21.714  25.607  1.00  0.00    -0.179 OA
ATOM     23  O   UNL A   1      30.601  23.482  27.415  1.00  0.00    -0.179 OA
ATOM     24  C   UNL A   1      33.742  23.001  26.770  1.00  0.00     0.025 A 
ATOM     25  C   UNL A   1      35.231  24.232  25.299  1.00  0.00     0.001 A 
ATOM     26  C   UNL A   1      35.025  23.429  26.436  1.00  0.00     0.002 A 
ENDBRANCH  12  13
ENDBRANCH   7  12
ENDBRANCH   4   7
ENDBRANCH   2   3
ENDBRANCH   1   2
BRANCH   1  27
ATOM     27  C   UNL A   1      32.012  31.565  26.912  1.00  0.00     0.023 C 
BRANCH  27  28
ATOM     28  C   UNL A   1      33.079  32.596  27.280  1.00  0.00     0.116 C 
BRANCH  28  29
ATOM     29  N   UNL A   1      32.550  33.907  27.629  1.00  0.00    -0.352 N 
ATOM     30  C   UNL A   1      33.016  34.804  28.562  1.00  0.00     0.251 C 
ATOM     31  H   UNL A   1      31.751  34.189  27.128  1.00  0.00     0.163 HD
ATOM     32  O   UNL A   1      32.412  35.855  28.753  1.00  0.00    -0.269 OA
BRANCH  30  33
ATOM     33  C   UNL A   1      34.221  34.492  29.363  1.00  0.00     0.039 A 
ATOM     34  C   UNL A   1      34.042  34.026  30.669  1.00  0.00     0.014 A 
ATOM     35  C   UNL A   1      35.509  34.617  28.835  1.00  0.00     0.014 A 
ATOM     36  C   UNL A   1      35.141  33.570  31.398  1.00  0.00     0.010 A 
ATOM     37  C   UNL A   1      36.598  34.112  29.538  1.00  0.00     0.010 A 
ATOM     38  C   UNL A   1      36.415  33.551  30.810  1.00  0.00    -0.014 A 
BRANCH  38  39
ATOM     39  C   UNL A   1      37.538  32.833  31.455  1.00  0.00     0.031 A 
ATOM     40  C   UNL A   1      38.171  31.642  30.804  1.00  0.00     0.074 A 
ATOM     41  C   UNL A   1      37.910  33.217  32.691  1.00  0.00     0.049 A 
ATOM     42  N   UNL A   1      39.140  30.882  31.245  1.00  0.00    -0.248 NA
ATOM     43  C   UNL A   1      37.630  31.238  29.498  1.00  0.00     0.031 C 
ATOM     44  C   UNL A   1      37.304  34.316  33.449  1.00  0.00     0.029 A 
ATOM     45  N   UNL A   1      38.867  32.720  33.538  1.00  0.00    -0.354 N 
ATOM     46  C   UNL A   1      39.333  29.915  30.268  1.00  0.00     0.074 A 
ATOM     47  C   UNL A   1      38.342  30.150  29.239  1.00  0.00     0.031 C 
ATOM     48  C   UNL A   1      37.907  34.414  34.642  1.00  0.00     0.029 A 
ATOM     49  C   UNL A   1      38.923  33.373  34.745  1.00  0.00     0.049 A 
ATOM     50  H   UNL A   1      39.457  31.968  33.303  1.00  0.00     0.167 HD
ATOM     51  C   UNL A   1      40.268  28.935  30.230  1.00  0.00     0.037 A 
ATOM     52  C   UNL A   1      39.707  33.153  35.817  1.00  0.00     0.037 A 
ATOM     53  C   UNL A   1      41.239  28.706  31.271  1.00  0.00     0.049 A 
ATOM     54  C   UNL A   1      40.734  32.058  35.750  1.00  0.00     0.074 A 
ATOM     55  C   UNL A   1      42.264  27.777  31.309  1.00  0.00     0.029 A 
ATOM     56  N   UNL A   1      41.293  29.408  32.468  1.00  0.00    -0.354 N 
ATOM     57  N   UNL A   1      40.978  31.213  34.779  1.00  0.00    -0.248 NA
ATOM     58  C   UNL A   1      41.605  31.896  36.922  1.00  0.00     0.031 C 
ATOM     59  C   UNL A   1      42.906  27.884  32.549  1.00  0.00     0.029 A 
ATOM     60  C   UNL A   1      42.317  28.916  33.262  1.00  0.00     0.049 A 
ATOM     61  H   UNL A   1      40.691  30.146  32.718  1.00  0.00     0.167 HD
ATOM     62  C   UNL A   1      42.045  30.437  35.207  1.00  0.00     0.074 A 
ATOM     63  C   UNL A   1      42.413  30.924  36.521  1.00  0.00     0.031 C 
ATOM     64  C   UNL A   1      42.667  29.415  34.569  1.00  0.00     0.037 A 
BRANCH  51  65
ATOM     65  C   UNL A   1      40.291  28.043  29.023  1.00  0.00     0.064 A 
ATOM     66  C   UNL A   1      41.036  28.375  27.880  1.00  0.00     0.173 A 
ATOM     67  C   UNL A   1      39.595  26.824  29.017  1.00  0.00     0.173 A 
ATOM     68  F   UNL A   1      41.713  29.533  27.830  1.00  0.00    -0.203 F 
ATOM     69  C   UNL A   1      41.058  27.537  26.768  1.00  0.00     0.198 A 
ATOM     70  C   UNL A   1      39.644  25.974  27.915  1.00  0.00     0.198 A 
ATOM     71  F   UNL A   1      38.873  26.453  30.085  1.00  0.00    -0.203 F 
ATOM     72  F   UNL A   1      41.738  27.901  25.672  1.00  0.00    -0.200 F 
ATOM     73  C   UNL A   1      40.368  26.335  26.789  1.00  0.00     0.200 A 
ATOM     74  F   UNL A   1      38.988  24.806  27.941  1.00  0.00    -0.200 F 
ATOM     75  F   UNL A   1      40.397  25.527  25.720  1.00  0.00    -0.200 F 
ENDBRANCH  51  65
BRANCH  52  76
ATOM     76  C   UNL A   1      39.570  34.013  37.021  1.00  0.00     0.064 A 
ATOM     77  C   UNL A   1      38.806  33.599  38.120  1.00  0.00     0.173 A 
ATOM     78  C   UNL A   1      40.219  35.254  37.107  1.00  0.00     0.173 A 
ATOM     79  F   UNL A   1      38.158  32.425  38.078  1.00  0.00    -0.203 F 
ATOM     80  C   UNL A   1      38.678  34.401  39.251  1.00  0.00     0.198 A 
ATOM     81  C   UNL A   1      40.113  36.043  38.251  1.00  0.00     0.198 A 
ATOM     82  F   UNL A   1      40.974  35.691  36.088  1.00  0.00    -0.203 F 
ATOM     83  F   UNL A   1      37.909  33.997  40.271  1.00  0.00    -0.200 F 
ATOM     84  C   UNL A   1      39.336  35.620  39.318  1.00  0.00     0.200 A 
ATOM     85  F   UNL A   1      40.766  37.212  38.320  1.00  0.00    -0.200 F 
ATOM     86  F   UNL A   1      39.220  36.386  40.411  1.00  0.00    -0.200 F 
ENDBRANCH  52  76
BRANCH  64  87
ATOM     87  C   UNL A   1      43.825  28.774  35.275  1.00  0.00     0.064 A 
ATOM     88  C   UNL A   1      43.652  27.672  36.125  1.00  0.00     0.173 A 
ATOM     89  C   UNL A   1      45.129  29.250  35.074  1.00  0.00     0.173 A 
ATOM     90  F   UNL A   1      42.422  27.192  36.365  1.00  0.00    -0.203 F 
ATOM     91  C   UNL A   1      44.738  27.088  36.770  1.00  0.00     0.198 A 
ATOM     92  C   UNL A   1      46.217  28.644  35.694  1.00  0.00     0.198 A 
ATOM     93  F   UNL A   1      45.349  30.298  34.265  1.00  0.00    -0.203 F 
ATOM     94  F   UNL A   1      44.543  26.069  37.618  1.00  0.00    -0.200 F 
ATOM     95  C   UNL A   1      46.021  27.569  36.548  1.00  0.00     0.200 A 
ATOM     96  F   UNL A   1      47.456  29.101  35.469  1.00  0.00    -0.200 F 
ATOM     97  F   UNL A   1      47.065  27.000  37.164  1.00  0.00    -0.200 F 
ENDBRANCH  64  87
ENDBRANCH  38  39
ENDBRANCH  30  33
ENDBRANCH  28  29
ENDBRANCH  27  28
ENDBRANCH   1  27
TORSDOF 15
ENDMDL
