MODEL 1
REMARK VINA RESULT:     -11.9      0.000      0.000
REMARK SMILES Cc1cc(C[N@@H+]2CC[C@@H](C(=O)NCCCCNC(=O)c3ccc(-c4c5nc(c(-c6c(F)c(F)c(F)c(F)c6F)c6ccc([nH]6)c(-c6c(F)c(F)c(F)c(F)c6F)c6nc(c(-c7c(F)c(F)c(F)c(F)c7F)c7ccc4[nH]7)C=C6)C=C5)cc3)C2)ccc1Br
REMARK SMILES IDX 14 1 13 2 12 3 10 4 11 5 9 7 6 8 7 9 83 10 8 12 5 13 4 14
REMARK SMILES IDX 1 15 2 16 3 17 86 18 85 19 87 20 84 21 15 22 16 23 17 24
REMARK SMILES IDX 18 25 19 27 20 28 21 29 82 30 22 31 81 32 23 33 24 34 25 35
REMARK SMILES IDX 75 36 26 37 80 38 74 39 76 40 27 41 79 42 73 43 72 44 28 46
REMARK SMILES IDX 60 47 40 48 59 49 41 50 44 51 58 52 77 53 42 54 43 55 57 57
REMARK SMILES IDX 78 58 45 59 29 60 30 61 38 62 31 63 32 64 36 65 39 66 33 67
REMARK SMILES IDX 34 68 37 69 35 70 61 71 62 72 70 73 63 74 64 75 68 76 71 77
REMARK SMILES IDX 65 78 66 79 69 80 67 81 46 82 47 83 55 84 48 85 49 86 53 87
REMARK SMILES IDX 56 88 50 89 51 90 54 91 52 92
REMARK H PARENT 12 6 6 11 17 26 76 45 44 56
REMARK Flexibility Score: inf
ROOT
ATOM      1  C   UNL A   1      32.931  29.739  25.137  1.00  0.00     0.023 C 
ENDROOT
BRANCH   1   2
ATOM      2  C   UNL A   1      31.421  29.580  25.101  1.00  0.00     0.116 C 
BRANCH   2   3
ATOM      3  N   UNL A   1      30.848  29.508  23.780  1.00  0.00    -0.356 N 
ATOM      4  C   UNL A   1      30.819  28.453  22.914  1.00  0.00     0.229 C 
ATOM      5  O   UNL A   1      30.186  28.610  21.866  1.00  0.00    -0.275 OA
ATOM      6  H   UNL A   1      30.417  30.333  23.458  1.00  0.00     0.163 HD
BRANCH   4   7
ATOM      7  C   UNL A   1      31.578  27.145  23.160  1.00  0.00     0.139 C 
ATOM      8  N   UNL A   1      31.386  24.867  22.390  1.00  0.00    -0.330 N 
ATOM      9  C   UNL A   1      32.414  25.498  21.573  1.00  0.00     0.263 C 
ATOM     10  C   UNL A   1      30.665  25.926  23.105  1.00  0.00     0.276 C 
ATOM     11  H   UNL A   1      30.726  24.385  21.778  1.00  0.00     0.348 HD
ATOM     12  C   UNL A   1      32.761  26.823  22.252  1.00  0.00     0.081 C 
BRANCH   8  13
ATOM     13  C   UNL A   1      31.831  23.729  23.202  1.00  0.00     0.299 C 
BRANCH  13  14
ATOM     14  C   UNL A   1      33.208  23.818  23.829  1.00  0.00     0.007 A 
ATOM     15  C   UNL A   1      36.777  22.754  23.031  1.00  0.00     0.045 C 
ATOM     16  C   UNL A   1      35.601  23.309  23.783  1.00  0.00    -0.036 A 
ATOM     17  C   UNL A   1      34.322  23.247  23.199  1.00  0.00     0.014 A 
ATOM     18  C   UNL A   1      35.736  23.884  25.055  1.00  0.00     0.020 A 
ATOM     19  C   UNL A   1      34.644  24.486  25.675  1.00  0.00     0.016 A 
ATOM     20  Br  UNL A   1      37.382  23.884  26.002  1.00  0.00    -0.051 Br
ATOM     21  C   UNL A   1      33.403  24.492  25.042  1.00  0.00     0.011 A 
ENDBRANCH  13  14
ENDBRANCH   8  13
ENDBRANCH   4   7
ENDBRANCH   2   3
ENDBRANCH   1   2
BRANCH   1  22
ATOM     22  C   UNL A   1      33.682  28.614  25.834  1.00  0.00     0.023 C 
BRANCH  22  23
ATOM     23  C   UNL A   1      33.799  28.733  27.350  1.00  0.00     0.116 C 
BRANCH  23  24
ATOM     24  N   UNL A   1      33.822  30.100  27.857  1.00  0.00    -0.352 N 
ATOM     25  C   UNL A   1      34.887  30.773  28.415  1.00  0.00     0.251 C 
ATOM     26  H   UNL A   1      32.976  30.601  27.794  1.00  0.00     0.163 HD
ATOM     27  O   UNL A   1      34.767  31.915  28.844  1.00  0.00    -0.269 OA
BRANCH  25  28
ATOM     28  C   UNL A   1      36.174  30.063  28.532  1.00  0.00     0.039 A 
ATOM     29  C   UNL A   1      37.105  30.174  27.498  1.00  0.00     0.014 A 
ATOM     30  C   UNL A   1      36.502  29.412  29.724  1.00  0.00     0.014 A 
ATOM     31  C   UNL A   1      38.407  29.714  27.697  1.00  0.00     0.010 A 
ATOM     32  C   UNL A   1      37.818  29.030  29.949  1.00  0.00     0.010 A 
ATOM     33  C   UNL A   1      38.787  29.187  28.944  1.00  0.00    -0.014 A 
BRANCH  33  34
ATOM     34  C   UNL A   1      40.190  28.796  29.227  1.00  0.00     0.031 A 
ATOM     35  C   UNL A   1      41.096  29.749  29.954  1.00  0.00     0.074 A 
ATOM     36  C   UNL A   1      40.673  27.630  28.753  1.00  0.00     0.049 A 
ATOM     37  N   UNL A   1      42.377  29.650  30.202  1.00  0.00    -0.248 NA
ATOM     38  C   UNL A   1      40.486  30.999  30.434  1.00  0.00     0.031 C 
ATOM     39  C   UNL A   1      39.912  26.647  27.982  1.00  0.00     0.029 A 
ATOM     40  N   UNL A   1      41.930  27.084  28.838  1.00  0.00    -0.354 N 
ATOM     41  C   UNL A   1      42.728  30.831  30.840  1.00  0.00     0.074 A 
ATOM     42  C   UNL A   1      41.540  31.655  30.893  1.00  0.00     0.031 C 
ATOM     43  C   UNL A   1      40.709  25.608  27.683  1.00  0.00     0.029 A 
ATOM     44  C   UNL A   1      42.046  25.867  28.209  1.00  0.00     0.049 A 
ATOM     45  H   UNL A   1      42.678  27.522  29.304  1.00  0.00     0.167 HD
ATOM     46  C   UNL A   1      43.927  31.186  31.359  1.00  0.00     0.037 A 
ATOM     47  C   UNL A   1      43.112  25.056  28.070  1.00  0.00     0.037 A 
ATOM     48  C   UNL A   1      45.095  30.348  31.343  1.00  0.00     0.049 A 
ATOM     49  C   UNL A   1      44.428  25.464  28.677  1.00  0.00     0.074 A 
ATOM     50  C   UNL A   1      46.336  30.586  31.904  1.00  0.00     0.029 A 
ATOM     51  N   UNL A   1      45.160  29.102  30.735  1.00  0.00    -0.354 N 
ATOM     52  N   UNL A   1      44.731  26.553  29.340  1.00  0.00    -0.248 NA
ATOM     53  C   UNL A   1      45.549  24.525  28.522  1.00  0.00     0.031 C 
ATOM     54  C   UNL A   1      47.166  29.499  31.606  1.00  0.00     0.029 A 
ATOM     55  C   UNL A   1      46.428  28.566  30.896  1.00  0.00     0.049 A 
ATOM     56  H   UNL A   1      44.418  28.665  30.260  1.00  0.00     0.167 HD
ATOM     57  C   UNL A   1      46.063  26.419  29.708  1.00  0.00     0.074 A 
ATOM     58  C   UNL A   1      46.508  25.138  29.202  1.00  0.00     0.031 C 
ATOM     59  C   UNL A   1      46.847  27.281  30.401  1.00  0.00     0.037 A 
BRANCH  46  60
ATOM     60  C   UNL A   1      44.028  32.539  31.998  1.00  0.00     0.064 A 
ATOM     61  C   UNL A   1      44.408  33.673  31.264  1.00  0.00     0.173 A 
ATOM     62  C   UNL A   1      43.719  32.711  33.356  1.00  0.00     0.173 A 
ATOM     63  F   UNL A   1      44.728  33.559  29.965  1.00  0.00    -0.203 F 
ATOM     64  C   UNL A   1      44.507  34.921  31.870  1.00  0.00     0.198 A 
ATOM     65  C   UNL A   1      43.789  33.967  33.953  1.00  0.00     0.198 A 
ATOM     66  F   UNL A   1      43.347  31.661  34.103  1.00  0.00    -0.203 F 
ATOM     67  F   UNL A   1      44.924  35.979  31.161  1.00  0.00    -0.200 F 
ATOM     68  C   UNL A   1      44.191  35.069  33.213  1.00  0.00     0.200 A 
ATOM     69  F   UNL A   1      43.474  34.110  35.247  1.00  0.00    -0.200 F 
ATOM     70  F   UNL A   1      44.282  36.272  33.795  1.00  0.00    -0.200 F 
ENDBRANCH  46  60
BRANCH  47  71
ATOM     71  C   UNL A   1      42.975  23.761  27.353  1.00  0.00     0.064 A 
ATOM     72  C   UNL A   1      43.365  23.641  26.012  1.00  0.00     0.173 A 
ATOM     73  C   UNL A   1      42.448  22.627  27.984  1.00  0.00     0.173 A 
ATOM     74  F   UNL A   1      43.855  24.705  25.360  1.00  0.00    -0.203 F 
ATOM     75  C   UNL A   1      43.215  22.439  25.323  1.00  0.00     0.198 A 
ATOM     76  C   UNL A   1      42.322  21.418  27.302  1.00  0.00     0.198 A 
ATOM     77  F   UNL A   1      42.064  22.689  29.268  1.00  0.00    -0.203 F 
ATOM     78  F   UNL A   1      43.555  22.363  24.030  1.00  0.00    -0.200 F 
ATOM     79  C   UNL A   1      42.698  21.327  25.971  1.00  0.00     0.200 A 
ATOM     80  F   UNL A   1      41.834  20.341  27.934  1.00  0.00    -0.200 F 
ATOM     81  F   UNL A   1      42.555  20.171  25.309  1.00  0.00    -0.200 F 
ENDBRANCH  47  71
BRANCH  59  82
ATOM     82  C   UNL A   1      48.254  26.850  30.692  1.00  0.00     0.064 A 
ATOM     83  C   UNL A   1      48.561  26.024  31.781  1.00  0.00     0.173 A 
ATOM     84  C   UNL A   1      49.300  27.230  29.836  1.00  0.00     0.173 A 
ATOM     85  F   UNL A   1      47.597  25.648  32.636  1.00  0.00    -0.203 F 
ATOM     86  C   UNL A   1      49.869  25.608  32.015  1.00  0.00     0.198 A 
ATOM     87  C   UNL A   1      50.601  26.789  30.057  1.00  0.00     0.198 A 
ATOM     88  F   UNL A   1      49.055  28.015  28.776  1.00  0.00    -0.203 F 
ATOM     89  F   UNL A   1      50.147  24.850  33.084  1.00  0.00    -0.200 F 
ATOM     90  C   UNL A   1      50.885  25.983  31.149  1.00  0.00     0.200 A 
ATOM     91  F   UNL A   1      51.579  27.142  29.212  1.00  0.00    -0.200 F 
ATOM     92  F   UNL A   1      52.141  25.572  31.370  1.00  0.00    -0.200 F 
ENDBRANCH  59  82
ENDBRANCH  33  34
ENDBRANCH  25  28
ENDBRANCH  23  24
ENDBRANCH  22  23
ENDBRANCH   1  22
TORSDOF 13
ENDMDL
MODEL 2
REMARK VINA RESULT:     -11.8      3.985      5.612
REMARK SMILES Cc1cc(C[N@@H+]2CC[C@@H](C(=O)NCCCCNC(=O)c3ccc(-c4c5nc(c(-c6c(F)c(F)c(F)c(F)c6F)c6ccc([nH]6)c(-c6c(F)c(F)c(F)c(F)c6F)c6nc(c(-c7c(F)c(F)c(F)c(F)c7F)c7ccc4[nH]7)C=C6)C=C5)cc3)C2)ccc1Br
REMARK SMILES IDX 14 1 13 2 12 3 10 4 11 5 9 7 6 8 7 9 83 10 8 12 5 13 4 14
REMARK SMILES IDX 1 15 2 16 3 17 86 18 85 19 87 20 84 21 15 22 16 23 17 24
REMARK SMILES IDX 18 25 19 27 20 28 21 29 82 30 22 31 81 32 23 33 24 34 25 35
REMARK SMILES IDX 75 36 26 37 80 38 74 39 76 40 27 41 79 42 73 43 72 44 28 46
REMARK SMILES IDX 60 47 40 48 59 49 41 50 44 51 58 52 77 53 42 54 43 55 57 57
REMARK SMILES IDX 78 58 45 59 29 60 30 61 38 62 31 63 32 64 36 65 39 66 33 67
REMARK SMILES IDX 34 68 37 69 35 70 61 71 62 72 70 73 63 74 64 75 68 76 71 77
REMARK SMILES IDX 65 78 66 79 69 80 67 81 46 82 47 83 55 84 48 85 49 86 53 87
REMARK SMILES IDX 56 88 50 89 51 90 54 91 52 92
REMARK H PARENT 12 6 6 11 17 26 76 45 44 56
REMARK Flexibility Score: inf
ROOT
ATOM      1  C   UNL A   1      32.154  30.465  26.610  1.00  0.00     0.023 C 
ENDROOT
BRANCH   1   2
ATOM      2  C   UNL A   1      31.659  29.860  25.308  1.00  0.00     0.116 C 
BRANCH   2   3
ATOM      3  N   UNL A   1      32.693  29.528  24.359  1.00  0.00    -0.356 N 
ATOM      4  C   UNL A   1      33.181  28.299  24.019  1.00  0.00     0.229 C 
ATOM      5  O   UNL A   1      34.013  28.264  23.107  1.00  0.00    -0.275 OA
ATOM      6  H   UNL A   1      33.103  30.292  23.893  1.00  0.00     0.163 HD
BRANCH   4   7
ATOM      7  C   UNL A   1      32.796  27.011  24.751  1.00  0.00     0.139 C 
ATOM      8  N   UNL A   1      33.418  24.685  24.595  1.00  0.00    -0.330 N 
ATOM      9  C   UNL A   1      34.206  25.256  25.680  1.00  0.00     0.263 C 
ATOM     10  C   UNL A   1      32.827  25.792  23.835  1.00  0.00     0.276 C 
ATOM     11  H   UNL A   1      34.038  24.163  23.975  1.00  0.00     0.348 HD
ATOM     12  C   UNL A   1      33.598  26.624  25.990  1.00  0.00     0.081 C 
BRANCH   8  13
ATOM     13  C   UNL A   1      32.502  23.605  24.979  1.00  0.00     0.299 C 
BRANCH  13  14
ATOM     14  C   UNL A   1      33.024  22.185  24.897  1.00  0.00     0.007 A 
ATOM     15  C   UNL A   1      36.372  20.371  25.000  1.00  0.00     0.045 C 
ATOM     16  C   UNL A   1      34.896  20.609  24.856  1.00  0.00    -0.036 A 
ATOM     17  C   UNL A   1      34.400  21.922  24.950  1.00  0.00     0.014 A 
ATOM     18  C   UNL A   1      33.992  19.561  24.625  1.00  0.00     0.020 A 
ATOM     19  C   UNL A   1      32.621  19.805  24.605  1.00  0.00     0.016 A 
ATOM     20  Br  UNL A   1      34.562  17.774  24.329  1.00  0.00    -0.051 Br
ATOM     21  C   UNL A   1      32.144  21.100  24.788  1.00  0.00     0.011 A 
ENDBRANCH  13  14
ENDBRANCH   8  13
ENDBRANCH   4   7
ENDBRANCH   2   3
ENDBRANCH   1   2
BRANCH   1  22
ATOM     22  C   UNL A   1      31.772  31.922  26.831  1.00  0.00     0.023 C 
BRANCH  22  23
ATOM     23  C   UNL A   1      32.884  32.828  27.349  1.00  0.00     0.116 C 
BRANCH  23  24
ATOM     24  N   UNL A   1      32.470  34.194  27.650  1.00  0.00    -0.352 N 
ATOM     25  C   UNL A   1      33.027  35.059  28.567  1.00  0.00     0.251 C 
ATOM     26  H   UNL A   1      31.702  34.538  27.139  1.00  0.00     0.163 HD
ATOM     27  O   UNL A   1      32.559  36.176  28.758  1.00  0.00    -0.269 OA
BRANCH  25  28
ATOM     28  C   UNL A   1      34.179  34.587  29.359  1.00  0.00     0.039 A 
ATOM     29  C   UNL A   1      33.950  34.013  30.611  1.00  0.00     0.014 A 
ATOM     30  C   UNL A   1      35.457  34.589  28.796  1.00  0.00     0.014 A 
ATOM     31  C   UNL A   1      34.991  33.351  31.261  1.00  0.00     0.010 A 
ATOM     32  C   UNL A   1      36.469  33.859  29.405  1.00  0.00     0.010 A 
ATOM     33  C   UNL A   1      36.244  33.222  30.637  1.00  0.00    -0.014 A 
BRANCH  33  34
ATOM     34  C   UNL A   1      37.337  32.425  31.247  1.00  0.00     0.031 A 
ATOM     35  C   UNL A   1      37.830  32.768  32.623  1.00  0.00     0.074 A 
ATOM     36  C   UNL A   1      37.945  31.457  30.531  1.00  0.00     0.049 A 
ATOM     37  N   UNL A   1      38.842  32.273  33.290  1.00  0.00    -0.248 NA
ATOM     38  C   UNL A   1      37.111  33.840  33.331  1.00  0.00     0.031 C 
ATOM     39  C   UNL A   1      37.599  31.068  29.164  1.00  0.00     0.029 A 
ATOM     40  N   UNL A   1      38.995  30.634  30.854  1.00  0.00    -0.354 N 
ATOM     41  C   UNL A   1      38.894  32.989  34.477  1.00  0.00     0.074 A 
ATOM     42  C   UNL A   1      37.849  33.988  34.419  1.00  0.00     0.031 C 
ATOM     43  C   UNL A   1      38.407  30.069  28.772  1.00  0.00     0.029 A 
ATOM     44  C   UNL A   1      39.350  29.770  29.845  1.00  0.00     0.049 A 
ATOM     45  H   UNL A   1      39.453  30.660  31.725  1.00  0.00     0.167 HD
ATOM     46  C   UNL A   1      39.722  32.812  35.534  1.00  0.00     0.037 A 
ATOM     47  C   UNL A   1      40.328  28.846  29.793  1.00  0.00     0.037 A 
ATOM     48  C   UNL A   1      40.732  31.791  35.607  1.00  0.00     0.049 A 
ATOM     49  C   UNL A   1      41.220  28.653  30.990  1.00  0.00     0.074 A 
ATOM     50  C   UNL A   1      41.574  31.483  36.660  1.00  0.00     0.029 A 
ATOM     51  N   UNL A   1      41.031  30.905  34.581  1.00  0.00    -0.354 N 
ATOM     52  N   UNL A   1      41.215  29.289  32.136  1.00  0.00    -0.248 NA
ATOM     53  C   UNL A   1      42.249  27.608  30.889  1.00  0.00     0.031 C 
ATOM     54  C   UNL A   1      42.408  30.434  36.260  1.00  0.00     0.029 A 
ATOM     55  C   UNL A   1      42.056  30.059  34.974  1.00  0.00     0.049 A 
ATOM     56  H   UNL A   1      40.582  30.882  33.706  1.00  0.00     0.167 HD
ATOM     57  C   UNL A   1      42.214  28.704  32.901  1.00  0.00     0.074 A 
ATOM     58  C   UNL A   1      42.799  27.655  32.094  1.00  0.00     0.031 C 
ATOM     59  C   UNL A   1      42.612  29.009  34.161  1.00  0.00     0.037 A 
BRANCH  46  60
ATOM     60  C   UNL A   1      39.560  33.740  36.701  1.00  0.00     0.064 A 
ATOM     61  C   UNL A   1      40.170  35.004  36.726  1.00  0.00     0.173 A 
ATOM     62  C   UNL A   1      38.766  33.375  37.798  1.00  0.00     0.173 A 
ATOM     63  F   UNL A   1      40.952  35.396  35.707  1.00  0.00    -0.203 F 
ATOM     64  C   UNL A   1      40.019  35.853  37.818  1.00  0.00     0.198 A 
ATOM     65  C   UNL A   1      38.592  34.238  38.876  1.00  0.00     0.198 A 
ATOM     66  F   UNL A   1      38.157  32.179  37.823  1.00  0.00    -0.203 F 
ATOM     67  F   UNL A   1      40.656  37.031  37.842  1.00  0.00    -0.200 F 
ATOM     68  C   UNL A   1      39.224  35.472  38.889  1.00  0.00     0.200 A 
ATOM     69  F   UNL A   1      37.815  33.874  39.905  1.00  0.00    -0.200 F 
ATOM     70  F   UNL A   1      39.075  36.291  39.939  1.00  0.00    -0.200 F 
ENDBRANCH  46  60
BRANCH  47  71
ATOM     71  C   UNL A   1      40.497  28.008  28.577  1.00  0.00     0.064 A 
ATOM     72  C   UNL A   1      41.283  28.453  27.505  1.00  0.00     0.173 A 
ATOM     73  C   UNL A   1      39.875  26.758  28.455  1.00  0.00     0.173 A 
ATOM     74  F   UNL A   1      41.881  29.652  27.566  1.00  0.00    -0.203 F 
ATOM     75  C   UNL A   1      41.426  27.687  26.349  1.00  0.00     0.198 A 
ATOM     76  C   UNL A   1      40.038  25.982  27.310  1.00  0.00     0.198 A 
ATOM     77  F   UNL A   1      39.115  26.286  29.455  1.00  0.00    -0.203 F 
ATOM     78  F   UNL A   1      42.148  28.155  25.322  1.00  0.00    -0.200 F 
ATOM     79  C   UNL A   1      40.807  26.450  26.254  1.00  0.00     0.200 A 
ATOM     80  F   UNL A   1      39.449  24.781  27.226  1.00  0.00    -0.200 F 
ATOM     81  F   UNL A   1      40.945  25.713  25.145  1.00  0.00    -0.200 F 
ENDBRANCH  47  71
BRANCH  59  82
ATOM     82  C   UNL A   1      43.704  28.173  34.761  1.00  0.00     0.064 A 
ATOM     83  C   UNL A   1      45.048  28.562  34.697  1.00  0.00     0.173 A 
ATOM     84  C   UNL A   1      43.390  26.993  35.454  1.00  0.00     0.173 A 
ATOM     85  F   UNL A   1      45.398  29.674  34.033  1.00  0.00    -0.203 F 
ATOM     86  C   UNL A   1      46.044  27.789  35.289  1.00  0.00     0.198 A 
ATOM     87  C   UNL A   1      44.384  26.238  36.068  1.00  0.00     0.198 A 
ATOM     88  F   UNL A   1      42.116  26.583  35.547  1.00  0.00    -0.203 F 
ATOM     89  F   UNL A   1      47.327  28.159  35.183  1.00  0.00    -0.200 F 
ATOM     90  C   UNL A   1      45.710  26.633  35.980  1.00  0.00     0.200 A 
ATOM     91  F   UNL A   1      44.059  25.129  36.746  1.00  0.00    -0.200 F 
ATOM     92  F   UNL A   1      46.669  25.897  36.558  1.00  0.00    -0.200 F 
ENDBRANCH  59  82
ENDBRANCH  33  34
ENDBRANCH  25  28
ENDBRANCH  23  24
ENDBRANCH  22  23
ENDBRANCH   1  22
TORSDOF 13
ENDMDL
MODEL 3
REMARK VINA RESULT:     -11.7      3.683      5.525
REMARK SMILES Cc1cc(C[N@@H+]2CC[C@@H](C(=O)NCCCCNC(=O)c3ccc(-c4c5nc(c(-c6c(F)c(F)c(F)c(F)c6F)c6ccc([nH]6)c(-c6c(F)c(F)c(F)c(F)c6F)c6nc(c(-c7c(F)c(F)c(F)c(F)c7F)c7ccc4[nH]7)C=C6)C=C5)cc3)C2)ccc1Br
REMARK SMILES IDX 14 1 13 2 12 3 10 4 11 5 9 7 6 8 7 9 83 10 8 12 5 13 4 14
REMARK SMILES IDX 1 15 2 16 3 17 86 18 85 19 87 20 84 21 15 22 16 23 17 24
REMARK SMILES IDX 18 25 19 27 20 28 21 29 82 30 22 31 81 32 23 33 24 34 25 35
REMARK SMILES IDX 75 36 26 37 80 38 74 39 76 40 27 41 79 42 73 43 72 44 28 46
REMARK SMILES IDX 60 47 40 48 59 49 41 50 44 51 58 52 77 53 42 54 43 55 57 57
REMARK SMILES IDX 78 58 45 59 29 60 30 61 38 62 31 63 32 64 36 65 39 66 33 67
REMARK SMILES IDX 34 68 37 69 35 70 61 71 62 72 70 73 63 74 64 75 68 76 71 77
REMARK SMILES IDX 65 78 66 79 69 80 67 81 46 82 47 83 55 84 48 85 49 86 53 87
REMARK SMILES IDX 56 88 50 89 51 90 54 91 52 92
REMARK H PARENT 12 6 6 11 17 26 76 45 44 56
REMARK Flexibility Score: inf
ROOT
ATOM      1  C   UNL A   1      32.086  30.320  26.805  1.00  0.00     0.023 C 
ENDROOT
BRANCH   1   2
ATOM      2  C   UNL A   1      32.571  29.706  25.503  1.00  0.00     0.116 C 
BRANCH   2   3
ATOM      3  N   UNL A   1      31.639  29.791  24.406  1.00  0.00    -0.356 N 
ATOM      4  C   UNL A   1      31.236  28.810  23.545  1.00  0.00     0.229 C 
ATOM      5  O   UNL A   1      30.353  29.110  22.735  1.00  0.00    -0.275 OA
ATOM      6  H   UNL A   1      31.238  30.678  24.257  1.00  0.00     0.163 HD
BRANCH   4   7
ATOM      7  C   UNL A   1      31.868  27.416  23.507  1.00  0.00     0.139 C 
ATOM      8  N   UNL A   1      31.339  25.310  22.455  1.00  0.00    -0.330 N 
ATOM      9  C   UNL A   1      32.333  25.960  21.611  1.00  0.00     0.263 C 
ATOM     10  C   UNL A   1      30.825  26.310  23.398  1.00  0.00     0.276 C 
ATOM     11  H   UNL A   1      30.566  24.990  21.871  1.00  0.00     0.348 HD
ATOM     12  C   UNL A   1      32.899  27.128  22.419  1.00  0.00     0.081 C 
BRANCH   8  13
ATOM     13  C   UNL A   1      31.745  24.025  23.036  1.00  0.00     0.299 C 
BRANCH  13  14
ATOM     14  C   UNL A   1      33.094  23.966  23.723  1.00  0.00     0.007 A 
ATOM     15  C   UNL A   1      36.654  22.873  22.920  1.00  0.00     0.045 C 
ATOM     16  C   UNL A   1      35.467  23.367  23.697  1.00  0.00    -0.036 A 
ATOM     17  C   UNL A   1      34.214  23.443  23.062  1.00  0.00     0.014 A 
ATOM     18  C   UNL A   1      35.566  23.751  25.043  1.00  0.00     0.020 A 
ATOM     19  C   UNL A   1      34.470  24.305  25.699  1.00  0.00     0.016 A 
ATOM     20  Br  UNL A   1      37.167  23.548  26.043  1.00  0.00    -0.051 Br
ATOM     21  C   UNL A   1      33.260  24.453  25.026  1.00  0.00     0.011 A 
ENDBRANCH  13  14
ENDBRANCH   8  13
ENDBRANCH   4   7
ENDBRANCH   2   3
ENDBRANCH   1   2
BRANCH   1  22
ATOM     22  C   UNL A   1      31.814  31.816  26.752  1.00  0.00     0.023 C 
BRANCH  22  23
ATOM     23  C   UNL A   1      32.879  32.707  27.382  1.00  0.00     0.116 C 
BRANCH  23  24
ATOM     24  N   UNL A   1      32.444  34.067  27.677  1.00  0.00    -0.352 N 
ATOM     25  C   UNL A   1      32.987  34.944  28.590  1.00  0.00     0.251 C 
ATOM     26  H   UNL A   1      31.671  34.397  27.164  1.00  0.00     0.163 HD
ATOM     27  O   UNL A   1      32.501  36.055  28.777  1.00  0.00    -0.269 OA
BRANCH  25  28
ATOM     28  C   UNL A   1      34.145  34.494  29.385  1.00  0.00     0.039 A 
ATOM     29  C   UNL A   1      33.921  33.846  30.601  1.00  0.00     0.014 A 
ATOM     30  C   UNL A   1      35.433  34.593  28.853  1.00  0.00     0.014 A 
ATOM     31  C   UNL A   1      34.983  33.207  31.241  1.00  0.00     0.010 A 
ATOM     32  C   UNL A   1      36.470  33.887  29.449  1.00  0.00     0.010 A 
ATOM     33  C   UNL A   1      36.254  33.177  30.642  1.00  0.00    -0.014 A 
BRANCH  33  34
ATOM     34  C   UNL A   1      37.375  32.408  31.237  1.00  0.00     0.031 A 
ATOM     35  C   UNL A   1      37.867  32.754  32.613  1.00  0.00     0.074 A 
ATOM     36  C   UNL A   1      38.008  31.466  30.508  1.00  0.00     0.049 A 
ATOM     37  N   UNL A   1      38.898  32.285  33.268  1.00  0.00    -0.248 NA
ATOM     38  C   UNL A   1      37.120  33.796  33.336  1.00  0.00     0.031 C 
ATOM     39  C   UNL A   1      37.665  31.080  29.140  1.00  0.00     0.029 A 
ATOM     40  N   UNL A   1      39.085  30.674  30.816  1.00  0.00    -0.354 N 
ATOM     41  C   UNL A   1      38.937  32.991  34.462  1.00  0.00     0.074 A 
ATOM     42  C   UNL A   1      37.861  33.957  34.421  1.00  0.00     0.031 C 
ATOM     43  C   UNL A   1      38.500  30.110  28.733  1.00  0.00     0.029 A 
ATOM     44  C   UNL A   1      39.459  29.830  29.797  1.00  0.00     0.049 A 
ATOM     45  H   UNL A   1      39.548  30.706  31.684  1.00  0.00     0.167 HD
ATOM     46  C   UNL A   1      39.777  32.830  35.512  1.00  0.00     0.037 A 
ATOM     47  C   UNL A   1      40.465  28.938  29.729  1.00  0.00     0.037 A 
ATOM     48  C   UNL A   1      40.818  31.840  35.568  1.00  0.00     0.049 A 
ATOM     49  C   UNL A   1      41.371  28.761  30.918  1.00  0.00     0.074 A 
ATOM     50  C   UNL A   1      41.677  31.549  36.612  1.00  0.00     0.029 A 
ATOM     51  N   UNL A   1      41.137  30.974  34.532  1.00  0.00    -0.354 N 
ATOM     52  N   UNL A   1      41.355  29.386  32.071  1.00  0.00    -0.248 NA
ATOM     53  C   UNL A   1      42.432  27.750  30.800  1.00  0.00     0.031 C 
ATOM     54  C   UNL A   1      42.540  30.529  36.197  1.00  0.00     0.029 A 
ATOM     55  C   UNL A   1      42.191  30.156  34.910  1.00  0.00     0.049 A 
ATOM     56  H   UNL A   1      40.684  30.944  33.660  1.00  0.00     0.167 HD
ATOM     57  C   UNL A   1      42.377  28.825  32.824  1.00  0.00     0.074 A 
ATOM     58  C   UNL A   1      42.989  27.803  32.002  1.00  0.00     0.031 C 
ATOM     59  C   UNL A   1      42.774  29.132  34.084  1.00  0.00     0.037 A 
BRANCH  46  60
ATOM     60  C   UNL A   1      39.594  33.742  36.688  1.00  0.00     0.064 A 
ATOM     61  C   UNL A   1      38.807  33.372  37.790  1.00  0.00     0.173 A 
ATOM     62  C   UNL A   1      40.231  34.991  36.728  1.00  0.00     0.173 A 
ATOM     63  F   UNL A   1      38.165  32.193  37.794  1.00  0.00    -0.203 F 
ATOM     64  C   UNL A   1      38.638  34.230  38.872  1.00  0.00     0.198 A 
ATOM     65  C   UNL A   1      40.085  35.835  37.825  1.00  0.00     0.198 A 
ATOM     66  F   UNL A   1      40.998  35.392  35.703  1.00  0.00    -0.203 F 
ATOM     67  F   UNL A   1      37.838  33.877  39.887  1.00  0.00    -0.200 F 
ATOM     68  C   UNL A   1      39.283  35.458  38.892  1.00  0.00     0.200 A 
ATOM     69  F   UNL A   1      40.716  37.017  37.849  1.00  0.00    -0.200 F 
ATOM     70  F   UNL A   1      39.123  36.283  39.936  1.00  0.00    -0.200 F 
ENDBRANCH  46  60
BRANCH  47  71
ATOM     71  C   UNL A   1      40.652  28.117  28.504  1.00  0.00     0.064 A 
ATOM     72  C   UNL A   1      40.105  26.829  28.416  1.00  0.00     0.173 A 
ATOM     73  C   UNL A   1      41.381  28.593  27.407  1.00  0.00     0.173 A 
ATOM     74  F   UNL A   1      39.417  26.321  29.449  1.00  0.00    -0.203 F 
ATOM     75  C   UNL A   1      40.297  26.040  27.283  1.00  0.00     0.198 A 
ATOM     76  C   UNL A   1      41.552  27.814  26.264  1.00  0.00     0.198 A 
ATOM     77  F   UNL A   1      41.921  29.821  27.440  1.00  0.00    -0.203 F 
ATOM     78  F   UNL A   1      39.801  24.797  27.241  1.00  0.00    -0.200 F 
ATOM     79  C   UNL A   1      41.017  26.536  26.205  1.00  0.00     0.200 A 
ATOM     80  F   UNL A   1      42.237  28.301  25.219  1.00  0.00    -0.200 F 
ATOM     81  F   UNL A   1      41.201  25.779  25.115  1.00  0.00    -0.200 F 
ENDBRANCH  47  71
BRANCH  59  82
ATOM     82  C   UNL A   1      43.895  28.324  34.668  1.00  0.00     0.064 A 
ATOM     83  C   UNL A   1      45.228  28.746  34.583  1.00  0.00     0.173 A 
ATOM     84  C   UNL A   1      43.621  27.138  35.368  1.00  0.00     0.173 A 
ATOM     85  F   UNL A   1      45.540  29.865  33.910  1.00  0.00    -0.203 F 
ATOM     86  C   UNL A   1      46.252  27.999  35.161  1.00  0.00     0.198 A 
ATOM     87  C   UNL A   1      44.644  26.410  35.968  1.00  0.00     0.198 A 
ATOM     88  F   UNL A   1      42.359  26.697  35.482  1.00  0.00    -0.203 F 
ATOM     89  F   UNL A   1      47.524  28.400  35.034  1.00  0.00    -0.200 F 
ATOM     90  C   UNL A   1      45.958  26.838  35.859  1.00  0.00     0.200 A 
ATOM     91  F   UNL A   1      44.356  25.295  36.654  1.00  0.00    -0.200 F 
ATOM     92  F   UNL A   1      46.943  26.127  36.424  1.00  0.00    -0.200 F 
ENDBRANCH  59  82
ENDBRANCH  33  34
ENDBRANCH  25  28
ENDBRANCH  23  24
ENDBRANCH  22  23
ENDBRANCH   1  22
TORSDOF 13
ENDMDL
