MODEL 1
REMARK VINA RESULT:     -12.6      0.000      0.000
REMARK SMILES COc1cccc(C(=O)N[C@H]2C=C[C@@H](C(=O)NCCCCNC(=O)c3ccc(-c4c5nc(c(-c6c(F)c(F)c(F)c(F)c6F)c6ccc([nH]6)c(-c6c(F)c(F)c(F)c(F)c6F)c6nc(c(-c7c(F)c(F)c(F)c(F)c7F)c7ccc4[nH]7)C=C6)C=C5)cc3)C2)c1
REMARK SMILES IDX 19 1 18 2 17 3 15 4 16 5 14 7 11 8 12 9 88 10 13 11 10 12
REMARK SMILES IDX 8 13 9 14 7 16 3 17 4 18 89 19 5 20 6 21 2 22 1 23 20 24
REMARK SMILES IDX 21 25 22 26 23 27 24 29 25 30 26 31 87 32 27 33 86 34 28 35
REMARK SMILES IDX 29 36 30 37 80 38 31 39 85 40 79 41 81 42 32 43 84 44 78 45
REMARK SMILES IDX 77 46 33 48 65 49 45 50 64 51 46 52 49 53 63 54 82 55 47 56
REMARK SMILES IDX 48 57 62 59 83 60 50 61 34 62 35 63 43 64 36 65 37 66 41 67
REMARK SMILES IDX 44 68 38 69 39 70 42 71 40 72 66 73 67 74 75 75 68 76 69 77
REMARK SMILES IDX 73 78 76 79 70 80 71 81 74 82 72 83 51 84 52 85 60 86 53 87
REMARK SMILES IDX 54 88 58 89 61 90 55 91 56 92 59 93 57 94
REMARK H PARENT 17 6 10 15 22 28 81 47 49 58
REMARK Flexibility Score: inf
ROOT
ATOM      1  C   UNL A   1      37.411  20.743  24.658  1.00  0.00     0.023 C 
ENDROOT
BRANCH   1   2
ATOM      2  C   UNL A   1      36.195  20.828  25.568  1.00  0.00     0.116 C 
BRANCH   2   3
ATOM      3  N   UNL A   1      35.083  20.082  25.007  1.00  0.00    -0.356 N 
ATOM      4  C   UNL A   1      33.791  20.454  24.779  1.00  0.00     0.227 C 
ATOM      5  O   UNL A   1      33.017  19.595  24.347  1.00  0.00    -0.274 OA
ATOM      6  H   UNL A   1      35.295  19.156  24.750  1.00  0.00     0.163 HD
BRANCH   4   7
ATOM      7  C   UNL A   1      33.328  21.901  24.936  1.00  0.00     0.103 C 
ATOM      8  C   UNL A   1      32.700  23.710  23.392  1.00  0.00     0.106 C 
ATOM      9  C   UNL A   1      31.556  22.802  23.716  1.00  0.00    -0.006 C 
ATOM     10  C   UNL A   1      33.910  22.934  23.955  1.00  0.00     0.047 C 
ATOM     11  C   UNL A   1      31.862  21.905  24.652  1.00  0.00    -0.016 C 
BRANCH   8  12
ATOM     12  N   UNL A   1      32.805  24.022  21.976  1.00  0.00    -0.346 N 
ATOM     13  C   UNL A   1      32.845  25.238  21.322  1.00  0.00     0.251 C 
ATOM     14  O   UNL A   1      33.115  25.271  20.124  1.00  0.00    -0.269 OA
ATOM     15  H   UNL A   1      32.856  23.235  21.385  1.00  0.00     0.164 HD
BRANCH  13  16
ATOM     16  C   UNL A   1      32.418  26.480  22.012  1.00  0.00     0.043 A 
ATOM     17  C   UNL A   1      30.739  28.172  22.356  1.00  0.00     0.119 A 
ATOM     18  C   UNL A   1      31.745  29.092  22.663  1.00  0.00     0.046 A 
ATOM     19  C   UNL A   1      31.071  26.836  22.138  1.00  0.00     0.060 A 
ATOM     20  C   UNL A   1      33.084  28.695  22.706  1.00  0.00     0.005 A 
ATOM     21  C   UNL A   1      33.425  27.390  22.359  1.00  0.00     0.014 A 
BRANCH  17  22
ATOM     22  O   UNL A   1      29.482  28.697  22.228  1.00  0.00    -0.497 OA
ATOM     23  C   UNL A   1      29.378  30.119  22.167  1.00  0.00     0.278 C 
ENDBRANCH  17  22
ENDBRANCH  13  16
ENDBRANCH   8  12
ENDBRANCH   4   7
ENDBRANCH   2   3
ENDBRANCH   1   2
BRANCH   1  24
ATOM     24  C   UNL A   1      38.319  19.568  24.993  1.00  0.00     0.023 C 
BRANCH  24  25
ATOM     25  C   UNL A   1      39.445  19.915  25.956  1.00  0.00     0.116 C 
BRANCH  25  26
ATOM     26  N   UNL A   1      40.483  18.897  26.000  1.00  0.00    -0.352 N 
ATOM     27  C   UNL A   1      41.843  19.072  26.089  1.00  0.00     0.251 C 
ATOM     28  H   UNL A   1      40.172  17.964  25.960  1.00  0.00     0.163 HD
ATOM     29  O   UNL A   1      42.607  18.130  25.951  1.00  0.00    -0.269 OA
BRANCH  27  30
ATOM     30  C   UNL A   1      42.366  20.431  26.330  1.00  0.00     0.039 A 
ATOM     31  C   UNL A   1      42.752  21.208  25.238  1.00  0.00     0.014 A 
ATOM     32  C   UNL A   1      42.436  20.943  27.629  1.00  0.00     0.014 A 
ATOM     33  C   UNL A   1      43.177  22.519  25.450  1.00  0.00     0.010 A 
ATOM     34  C   UNL A   1      42.757  22.279  27.825  1.00  0.00     0.010 A 
ATOM     35  C   UNL A   1      43.159  23.072  26.742  1.00  0.00    -0.014 A 
BRANCH  35  36
ATOM     36  C   UNL A   1      43.611  24.464  26.977  1.00  0.00     0.031 A 
ATOM     37  C   UNL A   1      42.648  25.482  27.523  1.00  0.00     0.074 A 
ATOM     38  C   UNL A   1      44.877  24.815  26.679  1.00  0.00     0.049 A 
ATOM     39  N   UNL A   1      42.850  26.745  27.809  1.00  0.00    -0.248 NA
ATOM     40  C   UNL A   1      41.264  25.035  27.749  1.00  0.00     0.031 C 
ATOM     41  C   UNL A   1      45.884  23.933  26.088  1.00  0.00     0.029 A 
ATOM     42  N   UNL A   1      45.534  26.009  26.839  1.00  0.00    -0.354 N 
ATOM     43  C   UNL A   1      41.623  27.234  28.238  1.00  0.00     0.074 A 
ATOM     44  C   UNL A   1      40.665  26.162  28.101  1.00  0.00     0.031 C 
ATOM     45  C   UNL A   1      47.042  24.602  25.974  1.00  0.00     0.029 A 
ATOM     46  C   UNL A   1      46.851  25.968  26.451  1.00  0.00     0.049 A 
ATOM     47  H   UNL A   1      45.102  26.818  27.198  1.00  0.00     0.167 HD
ATOM     48  C   UNL A   1      41.329  28.459  28.734  1.00  0.00     0.037 A 
ATOM     49  C   UNL A   1      47.795  26.926  26.485  1.00  0.00     0.037 A 
ATOM     50  C   UNL A   1      42.292  29.516  28.890  1.00  0.00     0.049 A 
ATOM     51  C   UNL A   1      47.443  28.278  27.048  1.00  0.00     0.074 A 
ATOM     52  C   UNL A   1      42.112  30.777  29.429  1.00  0.00     0.029 A 
ATOM     53  N   UNL A   1      43.621  29.434  28.498  1.00  0.00    -0.354 N 
ATOM     54  N   UNL A   1      46.299  28.706  27.525  1.00  0.00    -0.248 NA
ATOM     55  C   UNL A   1      48.521  29.273  27.090  1.00  0.00     0.031 C 
ATOM     56  C   UNL A   1      43.317  31.476  29.315  1.00  0.00     0.029 A 
ATOM     57  C   UNL A   1      44.267  30.631  28.766  1.00  0.00     0.049 A 
ATOM     58  H   UNL A   1      44.042  28.643  28.091  1.00  0.00     0.167 HD
ATOM     59  C   UNL A   1      46.528  30.007  27.956  1.00  0.00     0.074 A 
ATOM     60  C   UNL A   1      47.926  30.287  27.701  1.00  0.00     0.031 C 
ATOM     61  C   UNL A   1      45.662  30.890  28.512  1.00  0.00     0.037 A 
BRANCH  48  62
ATOM     62  C   UNL A   1      39.907  28.715  29.150  1.00  0.00     0.064 A 
ATOM     63  C   UNL A   1      39.468  28.483  30.465  1.00  0.00     0.173 A 
ATOM     64  C   UNL A   1      38.975  29.217  28.230  1.00  0.00     0.173 A 
ATOM     65  F   UNL A   1      40.313  27.988  31.382  1.00  0.00    -0.203 F 
ATOM     66  C   UNL A   1      38.144  28.713  30.831  1.00  0.00     0.198 A 
ATOM     67  C   UNL A   1      37.662  29.480  28.610  1.00  0.00     0.198 A 
ATOM     68  F   UNL A   1      39.339  29.459  26.961  1.00  0.00    -0.203 F 
ATOM     69  F   UNL A   1      37.736  28.426  32.074  1.00  0.00    -0.200 F 
ATOM     70  C   UNL A   1      37.245  29.219  29.906  1.00  0.00     0.200 A 
ATOM     71  F   UNL A   1      36.797  29.983  27.718  1.00  0.00    -0.200 F 
ATOM     72  F   UNL A   1      35.973  29.446  30.262  1.00  0.00    -0.200 F 
ENDBRANCH  48  62
BRANCH  49  73
ATOM     73  C   UNL A   1      49.174  26.631  26.011  1.00  0.00     0.064 A 
ATOM     74  C   UNL A   1      50.112  26.017  26.853  1.00  0.00     0.173 A 
ATOM     75  C   UNL A   1      49.587  26.970  24.715  1.00  0.00     0.173 A 
ATOM     76  F   UNL A   1      49.771  25.688  28.108  1.00  0.00    -0.203 F 
ATOM     77  C   UNL A   1      51.418  25.781  26.428  1.00  0.00     0.198 A 
ATOM     78  C   UNL A   1      50.885  26.704  24.279  1.00  0.00     0.198 A 
ATOM     79  F   UNL A   1      48.728  27.553  23.866  1.00  0.00    -0.203 F 
ATOM     80  F   UNL A   1      52.308  25.244  27.273  1.00  0.00    -0.200 F 
ATOM     81  C   UNL A   1      51.801  26.120  25.141  1.00  0.00     0.200 A 
ATOM     82  F   UNL A   1      51.245  27.017  23.028  1.00  0.00    -0.200 F 
ATOM     83  F   UNL A   1      53.057  25.892  24.731  1.00  0.00    -0.200 F 
ENDBRANCH  49  73
BRANCH  61  84
ATOM     84  C   UNL A   1      46.215  32.224  28.927  1.00  0.00     0.064 A 
ATOM     85  C   UNL A   1      46.735  32.444  30.211  1.00  0.00     0.173 A 
ATOM     86  C   UNL A   1      46.234  33.295  28.019  1.00  0.00     0.173 A 
ATOM     87  F   UNL A   1      46.730  31.458  31.121  1.00  0.00    -0.203 F 
ATOM     88  C   UNL A   1      47.212  33.698  30.585  1.00  0.00     0.198 A 
ATOM     89  C   UNL A   1      46.749  34.535  28.384  1.00  0.00     0.198 A 
ATOM     90  F   UNL A   1      45.761  33.136  26.774  1.00  0.00    -0.203 F 
ATOM     91  F   UNL A   1      47.640  33.903  31.838  1.00  0.00    -0.200 F 
ATOM     92  C   UNL A   1      47.225  34.740  29.670  1.00  0.00     0.200 A 
ATOM     93  F   UNL A   1      46.777  35.535  27.492  1.00  0.00    -0.200 F 
ATOM     94  F   UNL A   1      47.685  35.945  30.031  1.00  0.00    -0.200 F 
ENDBRANCH  61  84
ENDBRANCH  35  36
ENDBRANCH  27  30
ENDBRANCH  25  26
ENDBRANCH  24  25
ENDBRANCH   1  24
TORSDOF 14
ENDMDL
MODEL 2
REMARK VINA RESULT:     -12.6      5.420      9.956
REMARK SMILES COc1cccc(C(=O)N[C@H]2C=C[C@@H](C(=O)NCCCCNC(=O)c3ccc(-c4c5nc(c(-c6c(F)c(F)c(F)c(F)c6F)c6ccc([nH]6)c(-c6c(F)c(F)c(F)c(F)c6F)c6nc(c(-c7c(F)c(F)c(F)c(F)c7F)c7ccc4[nH]7)C=C6)C=C5)cc3)C2)c1
REMARK SMILES IDX 19 1 18 2 17 3 15 4 16 5 14 7 11 8 12 9 88 10 13 11 10 12
REMARK SMILES IDX 8 13 9 14 7 16 3 17 4 18 89 19 5 20 6 21 2 22 1 23 20 24
REMARK SMILES IDX 21 25 22 26 23 27 24 29 25 30 26 31 87 32 27 33 86 34 28 35
REMARK SMILES IDX 29 36 30 37 80 38 31 39 85 40 79 41 81 42 32 43 84 44 78 45
REMARK SMILES IDX 77 46 33 48 65 49 45 50 64 51 46 52 49 53 63 54 82 55 47 56
REMARK SMILES IDX 48 57 62 59 83 60 50 61 34 62 35 63 43 64 36 65 37 66 41 67
REMARK SMILES IDX 44 68 38 69 39 70 42 71 40 72 66 73 67 74 75 75 68 76 69 77
REMARK SMILES IDX 73 78 76 79 70 80 71 81 74 82 72 83 51 84 52 85 60 86 53 87
REMARK SMILES IDX 54 88 58 89 61 90 55 91 56 92 59 93 57 94
REMARK H PARENT 17 6 10 15 22 28 81 47 49 58
REMARK Flexibility Score: inf
ROOT
ATOM      1  C   UNL A   1      31.781  30.351  26.461  1.00  0.00     0.023 C 
ENDROOT
BRANCH   1   2
ATOM      2  C   UNL A   1      31.389  29.914  25.058  1.00  0.00     0.116 C 
BRANCH   2   3
ATOM      3  N   UNL A   1      32.569  29.694  24.242  1.00  0.00    -0.356 N 
ATOM      4  C   UNL A   1      33.284  28.557  24.003  1.00  0.00     0.227 C 
ATOM      5  O   UNL A   1      34.301  28.658  23.312  1.00  0.00    -0.274 OA
ATOM      6  H   UNL A   1      32.911  30.497  23.786  1.00  0.00     0.163 HD
BRANCH   4   7
ATOM      7  C   UNL A   1      32.797  27.187  24.468  1.00  0.00     0.103 C 
ATOM      8  C   UNL A   1      33.814  24.958  24.693  1.00  0.00     0.106 C 
ATOM      9  C   UNL A   1      34.038  25.821  25.895  1.00  0.00    -0.006 C 
ATOM     10  C   UNL A   1      33.265  25.964  23.659  1.00  0.00     0.047 C 
ATOM     11  C   UNL A   1      33.378  26.976  25.827  1.00  0.00    -0.016 C 
BRANCH   8  12
ATOM     12  N   UNL A   1      35.009  24.255  24.258  1.00  0.00    -0.346 N 
ATOM     13  C   UNL A   1      35.170  22.980  23.751  1.00  0.00     0.251 C 
ATOM     14  O   UNL A   1      36.255  22.650  23.279  1.00  0.00    -0.269 OA
ATOM     15  H   UNL A   1      35.843  24.774  24.338  1.00  0.00     0.164 HD
BRANCH  13  16
ATOM     16  C   UNL A   1      34.099  21.965  23.908  1.00  0.00     0.043 A 
ATOM     17  C   UNL A   1      33.457  19.727  24.525  1.00  0.00     0.119 A 
ATOM     18  C   UNL A   1      32.397  19.793  23.616  1.00  0.00     0.046 A 
ATOM     19  C   UNL A   1      34.243  20.857  24.750  1.00  0.00     0.060 A 
ATOM     20  C   UNL A   1      32.148  20.964  22.898  1.00  0.00     0.005 A 
ATOM     21  C   UNL A   1      33.013  22.047  23.027  1.00  0.00     0.014 A 
BRANCH  17  22
ATOM     22  O   UNL A   1      33.678  18.497  25.083  1.00  0.00    -0.497 OA
ATOM     23  C   UNL A   1      32.541  17.650  25.250  1.00  0.00     0.278 C 
ENDBRANCH  17  22
ENDBRANCH  13  16
ENDBRANCH   8  12
ENDBRANCH   4   7
ENDBRANCH   2   3
ENDBRANCH   1   2
BRANCH   1  24
ATOM     24  C   UNL A   1      31.513  31.828  26.717  1.00  0.00     0.023 C 
BRANCH  24  25
ATOM     25  C   UNL A   1      32.762  32.633  27.043  1.00  0.00     0.116 C 
BRANCH  25  26
ATOM     26  N   UNL A   1      32.461  33.969  27.532  1.00  0.00    -0.352 N 
ATOM     27  C   UNL A   1      33.041  34.643  28.579  1.00  0.00     0.251 C 
ATOM     28  H   UNL A   1      31.750  34.453  27.051  1.00  0.00     0.163 HD
ATOM     29  O   UNL A   1      32.575  35.698  28.982  1.00  0.00    -0.269 OA
BRANCH  27  30
ATOM     30  C   UNL A   1      34.228  34.053  29.228  1.00  0.00     0.039 A 
ATOM     31  C   UNL A   1      34.045  33.072  30.202  1.00  0.00     0.014 A 
ATOM     32  C   UNL A   1      35.514  34.445  28.843  1.00  0.00     0.014 A 
ATOM     33  C   UNL A   1      35.161  32.456  30.767  1.00  0.00     0.010 A 
ATOM     34  C   UNL A   1      36.616  33.756  29.330  1.00  0.00     0.010 A 
ATOM     35  C   UNL A   1      36.454  32.776  30.318  1.00  0.00    -0.014 A 
BRANCH  35  36
ATOM     36  C   UNL A   1      37.647  32.127  30.914  1.00  0.00     0.031 A 
ATOM     37  C   UNL A   1      38.104  32.521  32.291  1.00  0.00     0.074 A 
ATOM     38  C   UNL A   1      38.328  31.204  30.208  1.00  0.00     0.049 A 
ATOM     39  N   UNL A   1      39.114  32.066  32.992  1.00  0.00    -0.248 NA
ATOM     40  C   UNL A   1      37.349  33.592  32.962  1.00  0.00     0.031 C 
ATOM     41  C   UNL A   1      38.018  30.785  28.840  1.00  0.00     0.029 A 
ATOM     42  N   UNL A   1      39.421  30.448  30.547  1.00  0.00    -0.354 N 
ATOM     43  C   UNL A   1      39.113  32.798  34.171  1.00  0.00     0.074 A 
ATOM     44  C   UNL A   1      38.058  33.779  34.064  1.00  0.00     0.031 C 
ATOM     45  C   UNL A   1      38.873  29.817  28.473  1.00  0.00     0.029 A 
ATOM     46  C   UNL A   1      39.811  29.573  29.564  1.00  0.00     0.049 A 
ATOM     47  H   UNL A   1      39.882  30.525  31.414  1.00  0.00     0.167 HD
ATOM     48  C   UNL A   1      39.900  32.643  35.263  1.00  0.00     0.037 A 
ATOM     49  C   UNL A   1      40.810  28.671  29.551  1.00  0.00     0.037 A 
ATOM     50  C   UNL A   1      40.934  31.649  35.373  1.00  0.00     0.049 A 
ATOM     51  C   UNL A   1      41.667  28.514  30.779  1.00  0.00     0.074 A 
ATOM     52  C   UNL A   1      41.755  31.372  36.451  1.00  0.00     0.029 A 
ATOM     53  N   UNL A   1      41.292  30.770  34.361  1.00  0.00    -0.354 N 
ATOM     54  N   UNL A   1      41.607  29.157  31.921  1.00  0.00    -0.248 NA
ATOM     55  C   UNL A   1      42.720  27.494  30.721  1.00  0.00     0.031 C 
ATOM     56  C   UNL A   1      42.645  30.363  36.074  1.00  0.00     0.029 A 
ATOM     57  C   UNL A   1      42.336  29.963  34.783  1.00  0.00     0.049 A 
ATOM     58  H   UNL A   1      40.867  30.726  33.474  1.00  0.00     0.167 HD
ATOM     59  C   UNL A   1      42.589  28.596  32.727  1.00  0.00     0.074 A 
ATOM     60  C   UNL A   1      43.214  27.547  31.949  1.00  0.00     0.031 C 
ATOM     61  C   UNL A   1      42.943  28.918  33.996  1.00  0.00     0.037 A 
BRANCH  48  62
ATOM     62  C   UNL A   1      39.664  33.568  36.424  1.00  0.00     0.064 A 
ATOM     63  C   UNL A   1      38.848  33.202  37.507  1.00  0.00     0.173 A 
ATOM     64  C   UNL A   1      40.279  34.829  36.466  1.00  0.00     0.173 A 
ATOM     65  F   UNL A   1      38.223  32.014  37.511  1.00  0.00    -0.203 F 
ATOM     66  C   UNL A   1      38.629  34.076  38.569  1.00  0.00     0.198 A 
ATOM     67  C   UNL A   1      40.086  35.684  37.548  1.00  0.00     0.198 A 
ATOM     68  F   UNL A   1      41.071  35.230  35.460  1.00  0.00    -0.203 F 
ATOM     69  F   UNL A   1      37.798  33.727  39.560  1.00  0.00    -0.200 F 
ATOM     70  C   UNL A   1      39.255  35.312  38.593  1.00  0.00     0.200 A 
ATOM     71  F   UNL A   1      40.703  36.874  37.576  1.00  0.00    -0.200 F 
ATOM     72  F   UNL A   1      39.050  36.149  39.619  1.00  0.00    -0.200 F 
ENDBRANCH  48  62
BRANCH  49  73
ATOM     73  C   UNL A   1      41.030  27.817  28.352  1.00  0.00     0.064 A 
ATOM     74  C   UNL A   1      41.876  28.234  27.314  1.00  0.00     0.173 A 
ATOM     75  C   UNL A   1      40.390  26.578  28.213  1.00  0.00     0.173 A 
ATOM     76  F   UNL A   1      42.499  29.419  27.393  1.00  0.00    -0.203 F 
ATOM     77  C   UNL A   1      42.048  27.459  26.169  1.00  0.00     0.198 A 
ATOM     78  C   UNL A   1      40.588  25.788  27.081  1.00  0.00     0.198 A 
ATOM     79  F   UNL A   1      39.576  26.129  29.179  1.00  0.00    -0.203 F 
ATOM     80  F   UNL A   1      42.818  27.908  25.169  1.00  0.00    -0.200 F 
ATOM     81  C   UNL A   1      41.408  26.235  26.056  1.00  0.00     0.200 A 
ATOM     82  F   UNL A   1      39.981  24.598  26.984  1.00  0.00    -0.200 F 
ATOM     83  F   UNL A   1      41.575  25.489  24.955  1.00  0.00    -0.200 F 
ENDBRANCH  49  73
BRANCH  61  84
ATOM     84  C   UNL A   1      44.023  28.094  34.638  1.00  0.00     0.064 A 
ATOM     85  C   UNL A   1      43.738  26.908  35.330  1.00  0.00     0.173 A 
ATOM     86  C   UNL A   1      45.366  28.493  34.546  1.00  0.00     0.173 A 
ATOM     87  F   UNL A   1      42.470  26.487  35.458  1.00  0.00    -0.203 F 
ATOM     88  C   UNL A   1      44.751  26.177  35.945  1.00  0.00     0.198 A 
ATOM     89  C   UNL A   1      46.380  27.738  35.127  1.00  0.00     0.198 A 
ATOM     90  F   UNL A   1      45.696  29.612  33.884  1.00  0.00    -0.203 F 
ATOM     91  F   UNL A   1      44.447  25.085  36.660  1.00  0.00    -0.200 F 
ATOM     92  C   UNL A   1      46.071  26.588  35.838  1.00  0.00     0.200 A 
ATOM     93  F   UNL A   1      47.657  28.128  35.006  1.00  0.00    -0.200 F 
ATOM     94  F   UNL A   1      47.044  25.884  36.430  1.00  0.00    -0.200 F 
ENDBRANCH  61  84
ENDBRANCH  35  36
ENDBRANCH  27  30
ENDBRANCH  25  26
ENDBRANCH  24  25
ENDBRANCH   1  24
TORSDOF 14
ENDMDL
MODEL 3
REMARK VINA RESULT:     -12.5      5.634     11.256
REMARK SMILES COc1cccc(C(=O)N[C@H]2C=C[C@@H](C(=O)NCCCCNC(=O)c3ccc(-c4c5nc(c(-c6c(F)c(F)c(F)c(F)c6F)c6ccc([nH]6)c(-c6c(F)c(F)c(F)c(F)c6F)c6nc(c(-c7c(F)c(F)c(F)c(F)c7F)c7ccc4[nH]7)C=C6)C=C5)cc3)C2)c1
REMARK SMILES IDX 19 1 18 2 17 3 15 4 16 5 14 7 11 8 12 9 88 10 13 11 10 12
REMARK SMILES IDX 8 13 9 14 7 16 3 17 4 18 89 19 5 20 6 21 2 22 1 23 20 24
REMARK SMILES IDX 21 25 22 26 23 27 24 29 25 30 26 31 87 32 27 33 86 34 28 35
REMARK SMILES IDX 29 36 30 37 80 38 31 39 85 40 79 41 81 42 32 43 84 44 78 45
REMARK SMILES IDX 77 46 33 48 65 49 45 50 64 51 46 52 49 53 63 54 82 55 47 56
REMARK SMILES IDX 48 57 62 59 83 60 50 61 34 62 35 63 43 64 36 65 37 66 41 67
REMARK SMILES IDX 44 68 38 69 39 70 42 71 40 72 66 73 67 74 75 75 68 76 69 77
REMARK SMILES IDX 73 78 76 79 70 80 71 81 74 82 72 83 51 84 52 85 60 86 53 87
REMARK SMILES IDX 54 88 58 89 61 90 55 91 56 92 59 93 57 94
REMARK H PARENT 17 6 10 15 22 28 81 47 49 58
REMARK Flexibility Score: inf
ROOT
ATOM      1  C   UNL A   1      31.661  30.835  26.161  1.00  0.00     0.023 C 
ENDROOT
BRANCH   1   2
ATOM      2  C   UNL A   1      32.232  29.789  27.106  1.00  0.00     0.116 C 
BRANCH   2   3
ATOM      3  N   UNL A   1      31.435  28.576  27.070  1.00  0.00    -0.356 N 
ATOM      4  C   UNL A   1      31.726  27.337  26.582  1.00  0.00     0.227 C 
ATOM      5  O   UNL A   1      30.832  26.486  26.617  1.00  0.00    -0.274 OA
ATOM      6  H   UNL A   1      30.536  28.663  27.463  1.00  0.00     0.163 HD
BRANCH   4   7
ATOM      7  C   UNL A   1      33.130  26.965  26.111  1.00  0.00     0.103 C 
ATOM      8  C   UNL A   1      34.067  25.846  24.130  1.00  0.00     0.106 C 
ATOM      9  C   UNL A   1      33.864  27.315  23.924  1.00  0.00    -0.006 C 
ATOM     10  C   UNL A   1      33.305  25.587  25.447  1.00  0.00     0.047 C 
ATOM     11  C   UNL A   1      33.482  27.941  25.037  1.00  0.00    -0.016 C 
BRANCH   8  12
ATOM     12  N   UNL A   1      33.606  25.040  23.012  1.00  0.00    -0.346 N 
ATOM     13  C   UNL A   1      33.684  23.678  22.791  1.00  0.00     0.251 C 
ATOM     14  O   UNL A   1      33.069  23.182  21.852  1.00  0.00    -0.269 OA
ATOM     15  H   UNL A   1      33.164  25.548  22.293  1.00  0.00     0.164 HD
BRANCH  13  16
ATOM     16  C   UNL A   1      34.621  22.839  23.579  1.00  0.00     0.043 A 
ATOM     17  C   UNL A   1      35.164  21.762  25.664  1.00  0.00     0.119 A 
ATOM     18  C   UNL A   1      36.523  21.895  25.366  1.00  0.00     0.046 A 
ATOM     19  C   UNL A   1      34.211  22.136  24.718  1.00  0.00     0.060 A 
ATOM     20  C   UNL A   1      36.934  22.443  24.149  1.00  0.00     0.005 A 
ATOM     21  C   UNL A   1      35.982  22.937  23.261  1.00  0.00     0.014 A 
BRANCH  17  22
ATOM     22  O   UNL A   1      34.880  21.322  26.929  1.00  0.00    -0.497 OA
ATOM     23  C   UNL A   1      33.977  22.113  27.700  1.00  0.00     0.278 C 
ENDBRANCH  17  22
ENDBRANCH  13  16
ENDBRANCH   8  12
ENDBRANCH   4   7
ENDBRANCH   2   3
ENDBRANCH   1   2
BRANCH   1  24
ATOM     24  C   UNL A   1      31.408  32.172  26.844  1.00  0.00     0.023 C 
BRANCH  24  25
ATOM     25  C   UNL A   1      32.677  32.920  27.222  1.00  0.00     0.116 C 
BRANCH  25  26
ATOM     26  N   UNL A   1      32.426  34.302  27.599  1.00  0.00    -0.352 N 
ATOM     27  C   UNL A   1      32.997  35.023  28.620  1.00  0.00     0.251 C 
ATOM     28  H   UNL A   1      31.762  34.783  27.054  1.00  0.00     0.163 HD
ATOM     29  O   UNL A   1      32.571  36.126  28.924  1.00  0.00    -0.269 OA
BRANCH  27  30
ATOM     30  C   UNL A   1      34.124  34.425  29.362  1.00  0.00     0.039 A 
ATOM     31  C   UNL A   1      33.855  33.669  30.502  1.00  0.00     0.014 A 
ATOM     32  C   UNL A   1      35.436  34.583  28.906  1.00  0.00     0.014 A 
ATOM     33  C   UNL A   1      34.906  33.039  31.166  1.00  0.00     0.010 A 
ATOM     34  C   UNL A   1      36.464  33.870  29.506  1.00  0.00     0.010 A 
ATOM     35  C   UNL A   1      36.214  33.114  30.660  1.00  0.00    -0.014 A 
BRANCH  35  36
ATOM     36  C   UNL A   1      37.339  32.449  31.361  1.00  0.00     0.031 A 
ATOM     37  C   UNL A   1      38.070  31.314  30.697  1.00  0.00     0.074 A 
ATOM     38  C   UNL A   1      37.685  32.850  32.600  1.00  0.00     0.049 A 
ATOM     39  N   UNL A   1      39.084  30.611  31.136  1.00  0.00    -0.248 NA
ATOM     40  C   UNL A   1      37.579  30.889  29.376  1.00  0.00     0.031 C 
ATOM     41  C   UNL A   1      37.012  33.896  33.370  1.00  0.00     0.029 A 
ATOM     42  N   UNL A   1      38.695  32.427  33.425  1.00  0.00    -0.354 N 
ATOM     43  C   UNL A   1      39.340  29.665  30.153  1.00  0.00     0.074 A 
ATOM     44  C   UNL A   1      38.331  29.828  29.132  1.00  0.00     0.031 C 
ATOM     45  C   UNL A   1      37.653  34.063  34.538  1.00  0.00     0.029 A 
ATOM     46  C   UNL A   1      38.759  33.114  34.613  1.00  0.00     0.049 A 
ATOM     47  H   UNL A   1      39.316  31.699  33.189  1.00  0.00     0.167 HD
ATOM     48  C   UNL A   1      40.349  28.763  30.090  1.00  0.00     0.037 A 
ATOM     49  C   UNL A   1      39.619  32.992  35.641  1.00  0.00     0.037 A 
ATOM     50  C   UNL A   1      41.364  28.622  31.099  1.00  0.00     0.049 A 
ATOM     51  C   UNL A   1      40.735  31.985  35.543  1.00  0.00     0.074 A 
ATOM     52  C   UNL A   1      42.459  27.776  31.110  1.00  0.00     0.029 A 
ATOM     53  N   UNL A   1      41.404  29.344  32.282  1.00  0.00    -0.354 N 
ATOM     54  N   UNL A   1      41.016  31.150  34.572  1.00  0.00    -0.248 NA
ATOM     55  C   UNL A   1      41.662  31.919  36.679  1.00  0.00     0.031 C 
ATOM     56  C   UNL A   1      43.131  27.949  32.323  1.00  0.00     0.029 A 
ATOM     57  C   UNL A   1      42.495  28.949  33.041  1.00  0.00     0.049 A 
ATOM     58  H   UNL A   1      40.754  30.036  32.544  1.00  0.00     0.167 HD
ATOM     59  C   UNL A   1      42.170  30.484  34.964  1.00  0.00     0.074 A 
ATOM     60  C   UNL A   1      42.546  31.030  36.252  1.00  0.00     0.031 C 
ATOM     61  C   UNL A   1      42.858  29.509  34.319  1.00  0.00     0.037 A 
BRANCH  48  62
ATOM     62  C   UNL A   1      40.402  27.867  28.884  1.00  0.00     0.064 A 
ATOM     63  C   UNL A   1      39.700  26.651  28.836  1.00  0.00     0.173 A 
ATOM     64  C   UNL A   1      41.146  28.236  27.754  1.00  0.00     0.173 A 
ATOM     65  F   UNL A   1      38.985  26.241  29.895  1.00  0.00    -0.203 F 
ATOM     66  C   UNL A   1      39.769  25.826  27.716  1.00  0.00     0.198 A 
ATOM     67  C   UNL A   1      41.184  27.426  26.623  1.00  0.00     0.198 A 
ATOM     68  F   UNL A   1      41.835  29.388  27.744  1.00  0.00    -0.203 F 
ATOM     69  F   UNL A   1      39.140  24.643  27.719  1.00  0.00    -0.200 F 
ATOM     70  C   UNL A   1      40.504  26.217  26.608  1.00  0.00     0.200 A 
ATOM     71  F   UNL A   1      41.883  27.813  25.547  1.00  0.00    -0.200 F 
ATOM     72  F   UNL A   1      40.564  25.425  25.529  1.00  0.00    -0.200 F 
ENDBRANCH  48  62
BRANCH  49  73
ATOM     73  C   UNL A   1      39.486  33.872  36.833  1.00  0.00     0.064 A 
ATOM     74  C   UNL A   1      40.092  35.136  36.869  1.00  0.00     0.173 A 
ATOM     75  C   UNL A   1      38.766  33.463  37.964  1.00  0.00     0.173 A 
ATOM     76  F   UNL A   1      40.806  35.567  35.818  1.00  0.00    -0.203 F 
ATOM     77  C   UNL A   1      40.009  35.944  38.000  1.00  0.00     0.198 A 
ATOM     78  C   UNL A   1      38.656  34.286  39.084  1.00  0.00     0.198 A 
ATOM     79  F   UNL A   1      38.161  32.267  37.980  1.00  0.00    -0.203 F 
ATOM     80  F   UNL A   1      40.645  37.124  38.028  1.00  0.00    -0.200 F 
ATOM     81  C   UNL A   1      39.287  35.521  39.105  1.00  0.00     0.200 A 
ATOM     82  F   UNL A   1      37.942  33.880  40.142  1.00  0.00    -0.200 F 
ATOM     83  F   UNL A   1      39.206  36.298  40.194  1.00  0.00    -0.200 F 
ENDBRANCH  49  73
BRANCH  61  84
ATOM     84  C   UNL A   1      44.113  29.006  34.974  1.00  0.00     0.064 A 
ATOM     85  C   UNL A   1      45.361  29.604  34.741  1.00  0.00     0.173 A 
ATOM     86  C   UNL A   1      44.063  27.917  35.857  1.00  0.00     0.173 A 
ATOM     87  F   UNL A   1      45.468  30.642  33.897  1.00  0.00    -0.203 F 
ATOM     88  C   UNL A   1      46.517  29.102  35.333  1.00  0.00     0.198 A 
ATOM     89  C   UNL A   1      45.214  27.443  36.478  1.00  0.00     0.198 A 
ATOM     90  F   UNL A   1      42.894  27.316  36.125  1.00  0.00    -0.203 F 
ATOM     91  F   UNL A   1      47.707  29.646  35.043  1.00  0.00    -0.200 F 
ATOM     92  C   UNL A   1      46.442  28.026  36.206  1.00  0.00     0.200 A 
ATOM     93  F   UNL A   1      45.136  26.415  37.335  1.00  0.00    -0.200 F 
ATOM     94  F   UNL A   1      47.555  27.545  36.775  1.00  0.00    -0.200 F 
ENDBRANCH  61  84
ENDBRANCH  35  36
ENDBRANCH  27  30
ENDBRANCH  25  26
ENDBRANCH  24  25
ENDBRANCH   1  24
TORSDOF 14
ENDMDL
