MODEL 1
REMARK VINA RESULT:     -14.1      0.000      0.000
REMARK SMILES Cc1cc(F)cc(-n2c(C)nc3cc(C(=O)NCCCCNC(=O)c4ccc(-c5c6nc(c(-c7c(F)c(F)c(F)c(F)c7F)c7ccc([nH]7)c(-c7c(F)c(F)c(F)c(F)c7F)c7nc(c(-c8c(F)c(F)c(F)c(F)c8F)c8ccc5[nH]8)C=C7)C=C6)cc4)ccc32)c1
REMARK SMILES IDX 20 1 19 2 18 3 17 4 15 5 16 6 14 8 8 9 9 10 90 11 10 12
REMARK SMILES IDX 11 13 12 14 89 15 13 16 88 17 7 18 1 19 2 20 3 21 91 22 4 23
REMARK SMILES IDX 5 24 6 25 21 26 22 27 23 28 24 30 25 31 26 32 87 33 27 34
REMARK SMILES IDX 86 35 28 36 29 37 30 38 80 39 31 40 85 41 79 42 81 43 32 44
REMARK SMILES IDX 84 45 78 46 77 47 33 49 65 50 45 51 64 52 46 53 49 54 63 55
REMARK SMILES IDX 82 56 47 57 48 58 62 60 83 61 50 62 34 63 35 64 43 65 36 66
REMARK SMILES IDX 37 67 41 68 44 69 38 70 39 71 42 72 40 73 66 74 67 75 75 76
REMARK SMILES IDX 68 77 69 78 73 79 76 80 70 81 71 82 74 83 72 84 51 85 52 86
REMARK SMILES IDX 60 87 53 88 54 89 58 90 61 91 55 92 56 93 59 94 57 95
REMARK H PARENT 17 7 22 29 81 48 49 59
REMARK Flexibility Score: inf
ROOT
ATOM      1  C   UNL A   1      37.908  21.288  25.386  1.00  0.00     0.023 C 
ENDROOT
BRANCH   1   2
ATOM      2  C   UNL A   1      36.493  21.205  24.826  1.00  0.00     0.023 C 
BRANCH   2   3
ATOM      3  C   UNL A   1      35.478  21.324  25.950  1.00  0.00     0.116 C 
BRANCH   3   4
ATOM      4  N   UNL A   1      34.406  20.383  25.687  1.00  0.00    -0.352 N 
ATOM      5  C   UNL A   1      33.097  20.570  25.317  1.00  0.00     0.251 C 
ATOM      6  O   UNL A   1      32.337  19.624  25.378  1.00  0.00    -0.269 OA
ATOM      7  H   UNL A   1      34.665  19.439  25.793  1.00  0.00     0.163 HD
BRANCH   5   8
ATOM      8  C   UNL A   1      32.635  21.861  24.745  1.00  0.00     0.042 A 
ATOM      9  N   UNL A   1      32.074  25.449  22.821  1.00  0.00    -0.296 N 
ATOM     10  C   UNL A   1      32.586  25.078  21.587  1.00  0.00     0.111 A 
ATOM     11  C   UNL A   1      32.113  24.328  23.631  1.00  0.00     0.073 A 
ATOM     12  C   UNL A   1      32.685  25.955  20.394  1.00  0.00     0.088 C 
ATOM     13  N   UNL A   1      33.072  23.850  21.630  1.00  0.00    -0.233 NA
ATOM     14  C   UNL A   1      32.791  23.378  22.880  1.00  0.00     0.090 A 
ATOM     15  C   UNL A   1      31.581  24.051  24.895  1.00  0.00     0.030 A 
ATOM     16  C   UNL A   1      33.084  22.135  23.445  1.00  0.00     0.044 A 
ATOM     17  C   UNL A   1      31.822  22.779  25.417  1.00  0.00     0.016 A 
BRANCH   9  18
ATOM     18  C   UNL A   1      31.594  26.711  23.231  1.00  0.00     0.051 A 
ATOM     19  C   UNL A   1      28.354  28.712  23.026  1.00  0.00     0.044 C 
ATOM     20  C   UNL A   1      29.781  28.327  23.288  1.00  0.00    -0.046 A 
ATOM     21  C   UNL A   1      30.650  29.236  23.904  1.00  0.00     0.042 A 
ATOM     22  C   UNL A   1      30.268  27.065  22.930  1.00  0.00     0.030 A 
ATOM     23  C   UNL A   1      31.967  28.870  24.181  1.00  0.00     0.125 A 
ATOM     24  F   UNL A   1      32.790  29.762  24.748  1.00  0.00    -0.207 F 
ATOM     25  C   UNL A   1      32.451  27.606  23.867  1.00  0.00     0.066 A 
ENDBRANCH   9  18
ENDBRANCH   5   8
ENDBRANCH   3   4
ENDBRANCH   2   3
ENDBRANCH   1   2
BRANCH   1  26
ATOM     26  C   UNL A   1      38.379  22.673  25.832  1.00  0.00     0.116 C 
BRANCH  26  27
ATOM     27  N   UNL A   1      39.795  22.826  26.125  1.00  0.00    -0.352 N 
ATOM     28  C   UNL A   1      40.530  23.717  26.864  1.00  0.00     0.251 C 
ATOM     29  H   UNL A   1      40.350  22.134  25.699  1.00  0.00     0.163 HD
ATOM     30  O   UNL A   1      41.700  23.428  27.123  1.00  0.00    -0.269 OA
BRANCH  28  31
ATOM     31  C   UNL A   1      40.046  25.075  27.193  1.00  0.00     0.039 A 
ATOM     32  C   UNL A   1      40.414  26.239  26.518  1.00  0.00     0.014 A 
ATOM     33  C   UNL A   1      39.280  25.164  28.362  1.00  0.00     0.014 A 
ATOM     34  C   UNL A   1      40.301  27.466  27.168  1.00  0.00     0.010 A 
ATOM     35  C   UNL A   1      39.108  26.387  28.978  1.00  0.00     0.010 A 
ATOM     36  C   UNL A   1      39.727  27.516  28.440  1.00  0.00    -0.014 A 
BRANCH  36  37
ATOM     37  C   UNL A   1      39.710  28.727  29.248  1.00  0.00     0.031 A 
ATOM     38  C   UNL A   1      38.706  29.772  28.958  1.00  0.00     0.074 A 
ATOM     39  C   UNL A   1      40.624  28.902  30.234  1.00  0.00     0.049 A 
ATOM     40  N   UNL A   1      38.900  31.036  29.125  1.00  0.00    -0.248 NA
ATOM     41  C   UNL A   1      37.402  29.462  28.381  1.00  0.00     0.031 C 
ATOM     42  C   UNL A   1      40.592  29.901  31.292  1.00  0.00     0.029 A 
ATOM     43  N   UNL A   1      41.860  28.256  30.417  1.00  0.00    -0.354 N 
ATOM     44  C   UNL A   1      37.672  31.654  29.011  1.00  0.00     0.074 A 
ATOM     45  C   UNL A   1      36.811  30.663  28.408  1.00  0.00     0.031 C 
ATOM     46  C   UNL A   1      41.809  29.994  31.856  1.00  0.00     0.029 A 
ATOM     47  C   UNL A   1      42.717  29.166  31.085  1.00  0.00     0.049 A 
ATOM     48  H   UNL A   1      42.089  27.341  30.135  1.00  0.00     0.167 HD
ATOM     49  C   UNL A   1      37.477  32.856  29.629  1.00  0.00     0.037 A 
ATOM     50  C   UNL A   1      43.899  29.610  30.549  1.00  0.00     0.037 A 
ATOM     51  C   UNL A   1      38.702  33.293  30.291  1.00  0.00     0.049 A 
ATOM     52  C   UNL A   1      43.923  31.087  30.291  1.00  0.00     0.074 A 
ATOM     53  C   UNL A   1      39.134  33.128  31.599  1.00  0.00     0.029 A 
ATOM     54  N   UNL A   1      39.813  33.669  29.548  1.00  0.00    -0.354 N 
ATOM     55  N   UNL A   1      42.844  31.802  30.176  1.00  0.00    -0.248 NA
ATOM     56  C   UNL A   1      45.144  31.862  30.101  1.00  0.00     0.031 C 
ATOM     57  C   UNL A   1      40.522  33.372  31.634  1.00  0.00     0.029 A 
ATOM     58  C   UNL A   1      40.934  33.701  30.355  1.00  0.00     0.049 A 
ATOM     59  H   UNL A   1      39.802  33.883  28.587  1.00  0.00     0.167 HD
ATOM     60  C   UNL A   1      43.189  33.105  29.946  1.00  0.00     0.074 A 
ATOM     61  C   UNL A   1      44.640  33.093  29.903  1.00  0.00     0.031 C 
ATOM     62  C   UNL A   1      42.239  34.077  29.840  1.00  0.00     0.037 A 
BRANCH  49  63
ATOM     63  C   UNL A   1      36.118  33.435  29.968  1.00  0.00     0.064 A 
ATOM     64  C   UNL A   1      35.311  34.014  28.959  1.00  0.00     0.173 A 
ATOM     65  C   UNL A   1      35.571  33.503  31.262  1.00  0.00     0.173 A 
ATOM     66  F   UNL A   1      35.632  33.927  27.662  1.00  0.00    -0.203 F 
ATOM     67  C   UNL A   1      34.134  34.711  29.236  1.00  0.00     0.198 A 
ATOM     68  C   UNL A   1      34.408  34.232  31.546  1.00  0.00     0.198 A 
ATOM     69  F   UNL A   1      36.115  32.827  32.281  1.00  0.00    -0.203 F 
ATOM     70  F   UNL A   1      33.434  35.260  28.232  1.00  0.00    -0.200 F 
ATOM     71  C   UNL A   1      33.699  34.849  30.536  1.00  0.00     0.200 A 
ATOM     72  F   UNL A   1      33.979  34.329  32.813  1.00  0.00    -0.200 F 
ATOM     73  F   UNL A   1      32.590  35.549  30.808  1.00  0.00    -0.200 F 
ENDBRANCH  49  63
BRANCH  50  74
ATOM     74  C   UNL A   1      44.562  28.624  29.652  1.00  0.00     0.064 A 
ATOM     75  C   UNL A   1      44.411  28.849  28.273  1.00  0.00     0.173 A 
ATOM     76  C   UNL A   1      45.778  28.126  30.117  1.00  0.00     0.173 A 
ATOM     77  F   UNL A   1      43.219  29.219  27.782  1.00  0.00    -0.203 F 
ATOM     78  C   UNL A   1      45.527  28.897  27.448  1.00  0.00     0.198 A 
ATOM     79  C   UNL A   1      46.895  28.278  29.318  1.00  0.00     0.198 A 
ATOM     80  F   UNL A   1      45.938  27.786  31.403  1.00  0.00    -0.203 F 
ATOM     81  F   UNL A   1      45.406  29.272  26.167  1.00  0.00    -0.200 F 
ATOM     82  C   UNL A   1      46.781  28.703  27.999  1.00  0.00     0.200 A 
ATOM     83  F   UNL A   1      48.097  28.130  29.880  1.00  0.00    -0.200 F 
ATOM     84  F   UNL A   1      47.874  28.978  27.277  1.00  0.00    -0.200 F 
ENDBRANCH  50  74
BRANCH  62  85
ATOM     85  C   UNL A   1      42.479  35.503  29.428  1.00  0.00     0.064 A 
ATOM     86  C   UNL A   1      43.225  36.420  30.182  1.00  0.00     0.173 A 
ATOM     87  C   UNL A   1      42.027  35.969  28.169  1.00  0.00     0.173 A 
ATOM     88  F   UNL A   1      43.840  36.054  31.315  1.00  0.00    -0.203 F 
ATOM     89  C   UNL A   1      43.410  37.738  29.763  1.00  0.00     0.198 A 
ATOM     90  C   UNL A   1      42.270  37.265  27.725  1.00  0.00     0.198 A 
ATOM     91  F   UNL A   1      41.355  35.177  27.321  1.00  0.00    -0.203 F 
ATOM     92  F   UNL A   1      44.069  38.597  30.552  1.00  0.00    -0.200 F 
ATOM     93  C   UNL A   1      42.934  38.160  28.535  1.00  0.00     0.200 A 
ATOM     94  F   UNL A   1      41.864  37.634  26.502  1.00  0.00    -0.200 F 
ATOM     95  F   UNL A   1      43.138  39.417  28.124  1.00  0.00    -0.200 F 
ENDBRANCH  62  85
ENDBRANCH  36  37
ENDBRANCH  28  31
ENDBRANCH  26  27
ENDBRANCH   1  26
TORSDOF 12
ENDMDL
MODEL 2
REMARK VINA RESULT:     -14.1      3.612      9.393
REMARK SMILES Cc1cc(F)cc(-n2c(C)nc3cc(C(=O)NCCCCNC(=O)c4ccc(-c5c6nc(c(-c7c(F)c(F)c(F)c(F)c7F)c7ccc([nH]7)c(-c7c(F)c(F)c(F)c(F)c7F)c7nc(c(-c8c(F)c(F)c(F)c(F)c8F)c8ccc5[nH]8)C=C7)C=C6)cc4)ccc32)c1
REMARK SMILES IDX 20 1 19 2 18 3 17 4 15 5 16 6 14 8 8 9 9 10 90 11 10 12
REMARK SMILES IDX 11 13 12 14 89 15 13 16 88 17 7 18 1 19 2 20 3 21 91 22 4 23
REMARK SMILES IDX 5 24 6 25 21 26 22 27 23 28 24 30 25 31 26 32 87 33 27 34
REMARK SMILES IDX 86 35 28 36 29 37 30 38 80 39 31 40 85 41 79 42 81 43 32 44
REMARK SMILES IDX 84 45 78 46 77 47 33 49 65 50 45 51 64 52 46 53 49 54 63 55
REMARK SMILES IDX 82 56 47 57 48 58 62 60 83 61 50 62 34 63 35 64 43 65 36 66
REMARK SMILES IDX 37 67 41 68 44 69 38 70 39 71 42 72 40 73 66 74 67 75 75 76
REMARK SMILES IDX 68 77 69 78 73 79 76 80 70 81 71 82 74 83 72 84 51 85 52 86
REMARK SMILES IDX 60 87 53 88 54 89 58 90 61 91 55 92 56 93 59 94 57 95
REMARK H PARENT 17 7 22 29 81 48 49 59
REMARK Flexibility Score: inf
ROOT
ATOM      1  C   UNL A   1      33.804  28.230  25.115  1.00  0.00     0.023 C 
ENDROOT
BRANCH   1   2
ATOM      2  C   UNL A   1      32.811  29.011  24.264  1.00  0.00     0.023 C 
BRANCH   2   3
ATOM      3  C   UNL A   1      31.405  28.478  24.478  1.00  0.00     0.116 C 
BRANCH   3   4
ATOM      4  N   UNL A   1      30.956  27.884  23.234  1.00  0.00    -0.352 N 
ATOM      5  C   UNL A   1      31.401  26.791  22.531  1.00  0.00     0.251 C 
ATOM      6  O   UNL A   1      30.999  26.630  21.395  1.00  0.00    -0.269 OA
ATOM      7  H   UNL A   1      30.194  28.348  22.818  1.00  0.00     0.163 HD
BRANCH   5   8
ATOM      8  C   UNL A   1      32.260  25.762  23.170  1.00  0.00     0.042 A 
ATOM      9  N   UNL A   1      34.377  23.229  25.618  1.00  0.00    -0.296 N 
ATOM     10  C   UNL A   1      33.355  22.939  26.510  1.00  0.00     0.111 A 
ATOM     11  C   UNL A   1      33.843  24.049  24.641  1.00  0.00     0.073 A 
ATOM     12  C   UNL A   1      33.467  22.046  27.690  1.00  0.00     0.088 C 
ATOM     13  N   UNL A   1      32.273  23.642  26.229  1.00  0.00    -0.233 NA
ATOM     14  C   UNL A   1      32.558  24.330  25.085  1.00  0.00     0.090 A 
ATOM     15  C   UNL A   1      34.335  24.510  23.414  1.00  0.00     0.030 A 
ATOM     16  C   UNL A   1      31.758  25.218  24.361  1.00  0.00     0.044 A 
ATOM     17  C   UNL A   1      33.496  25.339  22.668  1.00  0.00     0.016 A 
BRANCH   9  18
ATOM     18  C   UNL A   1      35.722  22.803  25.652  1.00  0.00     0.051 A 
ATOM     19  C   UNL A   1      39.117  24.220  26.656  1.00  0.00     0.044 C 
ATOM     20  C   UNL A   1      38.052  23.310  26.117  1.00  0.00    -0.046 A 
ATOM     21  C   UNL A   1      38.396  22.052  25.610  1.00  0.00     0.042 A 
ATOM     22  C   UNL A   1      36.705  23.693  26.115  1.00  0.00     0.030 A 
ATOM     23  C   UNL A   1      37.406  21.189  25.141  1.00  0.00     0.125 A 
ATOM     24  F   UNL A   1      37.758  19.999  24.636  1.00  0.00    -0.207 F 
ATOM     25  C   UNL A   1      36.063  21.541  25.170  1.00  0.00     0.066 A 
ENDBRANCH   9  18
ENDBRANCH   5   8
ENDBRANCH   3   4
ENDBRANCH   2   3
ENDBRANCH   1   2
BRANCH   1  26
ATOM     26  C   UNL A   1      34.389  28.968  26.320  1.00  0.00     0.116 C 
BRANCH  26  27
ATOM     27  N   UNL A   1      33.620  30.086  26.846  1.00  0.00    -0.352 N 
ATOM     28  C   UNL A   1      33.939  31.230  27.533  1.00  0.00     0.251 C 
ATOM     29  H   UNL A   1      32.655  30.003  26.669  1.00  0.00     0.163 HD
ATOM     30  O   UNL A   1      33.081  32.110  27.619  1.00  0.00    -0.269 OA
BRANCH  28  31
ATOM     31  C   UNL A   1      35.179  31.367  28.326  1.00  0.00     0.039 A 
ATOM     32  C   UNL A   1      36.068  32.438  28.238  1.00  0.00     0.014 A 
ATOM     33  C   UNL A   1      35.515  30.248  29.098  1.00  0.00     0.014 A 
ATOM     34  C   UNL A   1      37.390  32.259  28.642  1.00  0.00     0.010 A 
ATOM     35  C   UNL A   1      36.807  30.095  29.557  1.00  0.00     0.010 A 
ATOM     36  C   UNL A   1      37.770  31.046  29.219  1.00  0.00    -0.014 A 
BRANCH  36  37
ATOM     37  C   UNL A   1      39.156  30.722  29.526  1.00  0.00     0.031 A 
ATOM     38  C   UNL A   1      39.762  29.513  28.931  1.00  0.00     0.074 A 
ATOM     39  C   UNL A   1      39.868  31.507  30.370  1.00  0.00     0.049 A 
ATOM     40  N   UNL A   1      40.667  28.793  29.503  1.00  0.00    -0.248 NA
ATOM     41  C   UNL A   1      39.331  28.976  27.644  1.00  0.00     0.031 C 
ATOM     42  C   UNL A   1      41.309  31.491  30.578  1.00  0.00     0.029 A 
ATOM     43  N   UNL A   1      39.402  32.434  31.320  1.00  0.00    -0.354 N 
ATOM     44  C   UNL A   1      41.167  27.933  28.547  1.00  0.00     0.074 A 
ATOM     45  C   UNL A   1      40.212  27.984  27.464  1.00  0.00     0.031 C 
ATOM     46  C   UNL A   1      41.604  32.144  31.714  1.00  0.00     0.029 A 
ATOM     47  C   UNL A   1      40.354  32.480  32.368  1.00  0.00     0.049 A 
ATOM     48  H   UNL A   1      38.568  32.955  31.267  1.00  0.00     0.167 HD
ATOM     49  C   UNL A   1      42.432  27.440  28.698  1.00  0.00     0.037 A 
ATOM     50  C   UNL A   1      40.051  32.159  33.667  1.00  0.00     0.037 A 
ATOM     51  C   UNL A   1      43.019  27.920  29.944  1.00  0.00     0.049 A 
ATOM     52  C   UNL A   1      40.799  30.964  34.179  1.00  0.00     0.074 A 
ATOM     53  C   UNL A   1      43.831  29.014  30.201  1.00  0.00     0.029 A 
ATOM     54  N   UNL A   1      42.529  27.489  31.170  1.00  0.00    -0.354 N 
ATOM     55  N   UNL A   1      41.337  30.078  33.394  1.00  0.00    -0.248 NA
ATOM     56  C   UNL A   1      40.963  30.648  35.593  1.00  0.00     0.031 C 
ATOM     57  C   UNL A   1      43.799  29.266  31.588  1.00  0.00     0.029 A 
ATOM     58  C   UNL A   1      42.983  28.318  32.179  1.00  0.00     0.049 A 
ATOM     59  H   UNL A   1      41.944  26.708  31.301  1.00  0.00     0.167 HD
ATOM     60  C   UNL A   1      41.944  29.115  34.152  1.00  0.00     0.074 A 
ATOM     61  C   UNL A   1      41.680  29.513  35.523  1.00  0.00     0.031 C 
ATOM     62  C   UNL A   1      42.634  28.093  33.570  1.00  0.00     0.037 A 
BRANCH  49  63
ATOM     63  C   UNL A   1      43.267  26.866  27.571  1.00  0.00     0.064 A 
ATOM     64  C   UNL A   1      43.520  25.475  27.500  1.00  0.00     0.173 A 
ATOM     65  C   UNL A   1      43.891  27.624  26.564  1.00  0.00     0.173 A 
ATOM     66  F   UNL A   1      42.906  24.604  28.310  1.00  0.00    -0.203 F 
ATOM     67  C   UNL A   1      44.417  24.913  26.590  1.00  0.00     0.198 A 
ATOM     68  C   UNL A   1      44.818  27.067  25.673  1.00  0.00     0.198 A 
ATOM     69  F   UNL A   1      43.588  28.915  26.380  1.00  0.00    -0.203 F 
ATOM     70  F   UNL A   1      44.630  23.589  26.598  1.00  0.00    -0.200 F 
ATOM     71  C   UNL A   1      45.093  25.715  25.697  1.00  0.00     0.200 A 
ATOM     72  F   UNL A   1      45.444  27.855  24.787  1.00  0.00    -0.200 F 
ATOM     73  F   UNL A   1      45.982  25.183  24.847  1.00  0.00    -0.200 F 
ENDBRANCH  49  63
BRANCH  50  74
ATOM     74  C   UNL A   1      38.643  32.452  34.048  1.00  0.00     0.064 A 
ATOM     75  C   UNL A   1      38.203  33.765  33.812  1.00  0.00     0.173 A 
ATOM     76  C   UNL A   1      37.746  31.403  33.852  1.00  0.00     0.173 A 
ATOM     77  F   UNL A   1      39.003  34.802  34.102  1.00  0.00    -0.203 F 
ATOM     78  C   UNL A   1      37.037  33.991  33.091  1.00  0.00     0.198 A 
ATOM     79  C   UNL A   1      36.647  31.626  33.045  1.00  0.00     0.198 A 
ATOM     80  F   UNL A   1      38.077  30.144  34.171  1.00  0.00    -0.203 F 
ATOM     81  F   UNL A   1      36.700  35.234  32.722  1.00  0.00    -0.200 F 
ATOM     82  C   UNL A   1      36.312  32.908  32.628  1.00  0.00     0.200 A 
ATOM     83  F   UNL A   1      35.987  30.566  32.572  1.00  0.00    -0.200 F 
ATOM     84  F   UNL A   1      35.329  33.098  31.739  1.00  0.00    -0.200 F 
ENDBRANCH  50  74
BRANCH  62  85
ATOM     85  C   UNL A   1      43.200  26.895  34.281  1.00  0.00     0.064 A 
ATOM     86  C   UNL A   1      44.570  26.686  34.494  1.00  0.00     0.173 A 
ATOM     87  C   UNL A   1      42.336  25.941  34.873  1.00  0.00     0.173 A 
ATOM     88  F   UNL A   1      45.480  27.597  34.123  1.00  0.00    -0.203 F 
ATOM     89  C   UNL A   1      45.047  25.550  35.149  1.00  0.00     0.198 A 
ATOM     90  C   UNL A   1      42.813  24.844  35.583  1.00  0.00     0.198 A 
ATOM     91  F   UNL A   1      41.001  26.053  34.799  1.00  0.00    -0.203 F 
ATOM     92  F   UNL A   1      46.369  25.360  35.265  1.00  0.00    -0.200 F 
ATOM     93  C   UNL A   1      44.170  24.631  35.695  1.00  0.00     0.200 A 
ATOM     94  F   UNL A   1      41.948  24.003  36.166  1.00  0.00    -0.200 F 
ATOM     95  F   UNL A   1      44.631  23.558  36.348  1.00  0.00    -0.200 F 
ENDBRANCH  62  85
ENDBRANCH  36  37
ENDBRANCH  28  31
ENDBRANCH  26  27
ENDBRANCH   1  26
TORSDOF 12
ENDMDL
MODEL 3
REMARK VINA RESULT:     -14.0      4.162      9.727
REMARK SMILES Cc1cc(F)cc(-n2c(C)nc3cc(C(=O)NCCCCNC(=O)c4ccc(-c5c6nc(c(-c7c(F)c(F)c(F)c(F)c7F)c7ccc([nH]7)c(-c7c(F)c(F)c(F)c(F)c7F)c7nc(c(-c8c(F)c(F)c(F)c(F)c8F)c8ccc5[nH]8)C=C7)C=C6)cc4)ccc32)c1
REMARK SMILES IDX 20 1 19 2 18 3 17 4 15 5 16 6 14 8 8 9 9 10 90 11 10 12
REMARK SMILES IDX 11 13 12 14 89 15 13 16 88 17 7 18 1 19 2 20 3 21 91 22 4 23
REMARK SMILES IDX 5 24 6 25 21 26 22 27 23 28 24 30 25 31 26 32 87 33 27 34
REMARK SMILES IDX 86 35 28 36 29 37 30 38 80 39 31 40 85 41 79 42 81 43 32 44
REMARK SMILES IDX 84 45 78 46 77 47 33 49 65 50 45 51 64 52 46 53 49 54 63 55
REMARK SMILES IDX 82 56 47 57 48 58 62 60 83 61 50 62 34 63 35 64 43 65 36 66
REMARK SMILES IDX 37 67 41 68 44 69 38 70 39 71 42 72 40 73 66 74 67 75 75 76
REMARK SMILES IDX 68 77 69 78 73 79 76 80 70 81 71 82 74 83 72 84 51 85 52 86
REMARK SMILES IDX 60 87 53 88 54 89 58 90 61 91 55 92 56 93 59 94 57 95
REMARK H PARENT 17 7 22 29 81 48 49 59
REMARK Flexibility Score: inf
ROOT
ATOM      1  C   UNL A   1      32.835  33.278  27.801  1.00  0.00     0.023 C 
ENDROOT
BRANCH   1   2
ATOM      2  C   UNL A   1      33.897  32.214  27.555  1.00  0.00     0.023 C 
BRANCH   2   3
ATOM      3  C   UNL A   1      33.260  30.834  27.530  1.00  0.00     0.116 C 
BRANCH   3   4
ATOM      4  N   UNL A   1      32.089  30.896  26.679  1.00  0.00    -0.352 N 
ATOM      5  C   UNL A   1      31.673  30.105  25.636  1.00  0.00     0.251 C 
ATOM      6  O   UNL A   1      30.763  30.500  24.935  1.00  0.00    -0.269 OA
ATOM      7  H   UNL A   1      31.480  31.642  26.886  1.00  0.00     0.163 HD
BRANCH   5   8
ATOM      8  C   UNL A   1      32.237  28.746  25.430  1.00  0.00     0.042 A 
ATOM      9  N   UNL A   1      33.631  24.885  25.629  1.00  0.00    -0.296 N 
ATOM     10  C   UNL A   1      32.576  24.346  26.349  1.00  0.00     0.111 A 
ATOM     11  C   UNL A   1      33.324  26.213  25.391  1.00  0.00     0.073 A 
ATOM     12  C   UNL A   1      32.458  22.929  26.777  1.00  0.00     0.088 C 
ATOM     13  N   UNL A   1      31.714  25.285  26.695  1.00  0.00    -0.233 NA
ATOM     14  C   UNL A   1      32.162  26.437  26.116  1.00  0.00     0.090 A 
ATOM     15  C   UNL A   1      33.910  27.193  24.582  1.00  0.00     0.030 A 
ATOM     16  C   UNL A   1      31.618  27.723  26.164  1.00  0.00     0.044 A 
ATOM     17  C   UNL A   1      33.314  28.455  24.586  1.00  0.00     0.016 A 
BRANCH   9  18
ATOM     18  C   UNL A   1      34.816  24.253  25.197  1.00  0.00     0.051 A 
ATOM     19  C   UNL A   1      38.368  23.718  26.479  1.00  0.00     0.044 C 
ATOM     20  C   UNL A   1      37.153  23.723  25.597  1.00  0.00    -0.046 A 
ATOM     21  C   UNL A   1      37.207  23.136  24.328  1.00  0.00     0.042 A 
ATOM     22  C   UNL A   1      35.953  24.305  26.021  1.00  0.00     0.030 A 
ATOM     23  C   UNL A   1      36.071  23.108  23.519  1.00  0.00     0.125 A 
ATOM     24  F   UNL A   1      36.149  22.565  22.297  1.00  0.00    -0.207 F 
ATOM     25  C   UNL A   1      34.863  23.646  23.944  1.00  0.00     0.066 A 
ENDBRANCH   9  18
ENDBRANCH   5   8
ENDBRANCH   3   4
ENDBRANCH   2   3
ENDBRANCH   1   2
BRANCH   1  26
ATOM     26  C   UNL A   1      33.321  34.587  28.423  1.00  0.00     0.116 C 
BRANCH  26  27
ATOM     27  N   UNL A   1      33.463  34.619  29.870  1.00  0.00    -0.352 N 
ATOM     28  C   UNL A   1      34.445  34.233  30.747  1.00  0.00     0.251 C 
ATOM     29  H   UNL A   1      32.678  35.004  30.322  1.00  0.00     0.163 HD
ATOM     30  O   UNL A   1      34.367  34.625  31.912  1.00  0.00    -0.269 OA
BRANCH  28  31
ATOM     31  C   UNL A   1      35.471  33.224  30.404  1.00  0.00     0.039 A 
ATOM     32  C   UNL A   1      35.563  31.955  30.974  1.00  0.00     0.014 A 
ATOM     33  C   UNL A   1      36.484  33.677  29.551  1.00  0.00     0.014 A 
ATOM     34  C   UNL A   1      36.786  31.287  30.953  1.00  0.00     0.010 A 
ATOM     35  C   UNL A   1      37.676  32.985  29.474  1.00  0.00     0.010 A 
ATOM     36  C   UNL A   1      37.865  31.857  30.275  1.00  0.00    -0.014 A 
BRANCH  36  37
ATOM     37  C   UNL A   1      39.211  31.305  30.332  1.00  0.00     0.031 A 
ATOM     38  C   UNL A   1      39.499  30.037  29.629  1.00  0.00     0.074 A 
ATOM     39  C   UNL A   1      40.176  31.934  31.046  1.00  0.00     0.049 A 
ATOM     40  N   UNL A   1      40.358  29.161  30.028  1.00  0.00    -0.248 NA
ATOM     41  C   UNL A   1      38.772  29.625  28.433  1.00  0.00     0.031 C 
ATOM     42  C   UNL A   1      41.608  31.680  30.998  1.00  0.00     0.029 A 
ATOM     43  N   UNL A   1      40.037  32.888  32.071  1.00  0.00    -0.354 N 
ATOM     44  C   UNL A   1      40.539  28.269  28.992  1.00  0.00     0.074 A 
ATOM     45  C   UNL A   1      39.435  28.512  28.093  1.00  0.00     0.031 C 
ATOM     46  C   UNL A   1      42.197  32.235  32.071  1.00  0.00     0.029 A 
ATOM     47  C   UNL A   1      41.149  32.742  32.936  1.00  0.00     0.049 A 
ATOM     48  H   UNL A   1      39.304  33.537  32.168  1.00  0.00     0.167 HD
ATOM     49  C   UNL A   1      41.713  27.575  28.915  1.00  0.00     0.037 A 
ATOM     50  C   UNL A   1      41.024  32.425  34.265  1.00  0.00     0.037 A 
ATOM     51  C   UNL A   1      42.576  27.908  30.044  1.00  0.00     0.049 A 
ATOM     52  C   UNL A   1      41.643  31.108  34.628  1.00  0.00     0.074 A 
ATOM     53  C   UNL A   1      43.588  28.848  30.164  1.00  0.00     0.029 A 
ATOM     54  N   UNL A   1      42.239  27.516  31.332  1.00  0.00    -0.354 N 
ATOM     55  N   UNL A   1      41.886  30.177  33.753  1.00  0.00    -0.248 NA
ATOM     56  C   UNL A   1      41.992  30.717  35.988  1.00  0.00     0.031 C 
ATOM     57  C   UNL A   1      43.835  29.050  31.537  1.00  0.00     0.029 A 
ATOM     58  C   UNL A   1      42.988  28.223  32.253  1.00  0.00     0.049 A 
ATOM     59  H   UNL A   1      41.564  26.834  31.556  1.00  0.00     0.167 HD
ATOM     60  C   UNL A   1      42.448  29.102  34.384  1.00  0.00     0.074 A 
ATOM     61  C   UNL A   1      42.491  29.485  35.784  1.00  0.00     0.031 C 
ATOM     62  C   UNL A   1      42.850  28.005  33.682  1.00  0.00     0.037 A 
BRANCH  49  63
ATOM     63  C   UNL A   1      42.237  26.917  27.654  1.00  0.00     0.064 A 
ATOM     64  C   UNL A   1      41.922  25.568  27.363  1.00  0.00     0.173 A 
ATOM     65  C   UNL A   1      43.093  27.530  26.722  1.00  0.00     0.173 A 
ATOM     66  F   UNL A   1      41.029  24.880  28.084  1.00  0.00    -0.203 F 
ATOM     67  C   UNL A   1      42.512  24.862  26.312  1.00  0.00     0.198 A 
ATOM     68  C   UNL A   1      43.712  26.814  25.689  1.00  0.00     0.198 A 
ATOM     69  F   UNL A   1      43.318  28.850  26.751  1.00  0.00    -0.203 F 
ATOM     70  F   UNL A   1      42.188  23.576  26.112  1.00  0.00    -0.200 F 
ATOM     71  C   UNL A   1      43.434  25.476  25.495  1.00  0.00     0.200 A 
ATOM     72  F   UNL A   1      44.583  27.434  24.880  1.00  0.00    -0.200 F 
ATOM     73  F   UNL A   1      44.029  24.790  24.509  1.00  0.00    -0.200 F 
ENDBRANCH  49  63
BRANCH  50  74
ATOM     74  C   UNL A   1      39.770  32.926  34.890  1.00  0.00     0.064 A 
ATOM     75  C   UNL A   1      38.809  31.950  35.206  1.00  0.00     0.173 A 
ATOM     76  C   UNL A   1      39.930  34.008  35.753  1.00  0.00     0.173 A 
ATOM     77  F   UNL A   1      38.552  30.959  34.339  1.00  0.00    -0.203 F 
ATOM     78  C   UNL A   1      38.278  31.883  36.488  1.00  0.00     0.198 A 
ATOM     79  C   UNL A   1      39.484  33.878  37.054  1.00  0.00     0.198 A 
ATOM     80  F   UNL A   1      40.748  35.023  35.443  1.00  0.00    -0.203 F 
ATOM     81  F   UNL A   1      37.489  30.860  36.841  1.00  0.00    -0.200 F 
ATOM     82  C   UNL A   1      38.696  32.799  37.437  1.00  0.00     0.200 A 
ATOM     83  F   UNL A   1      39.933  34.745  37.964  1.00  0.00    -0.200 F 
ATOM     84  F   UNL A   1      38.383  32.609  38.725  1.00  0.00    -0.200 F 
ENDBRANCH  50  74
BRANCH  62  85
ATOM     85  C   UNL A   1      43.325  26.706  34.273  1.00  0.00     0.064 A 
ATOM     86  C   UNL A   1      44.675  26.339  34.372  1.00  0.00     0.173 A 
ATOM     87  C   UNL A   1      42.401  25.809  34.864  1.00  0.00     0.173 A 
ATOM     88  F   UNL A   1      45.653  27.172  33.994  1.00  0.00    -0.203 F 
ATOM     89  C   UNL A   1      45.065  25.115  34.917  1.00  0.00     0.198 A 
ATOM     90  C   UNL A   1      42.800  24.621  35.467  1.00  0.00     0.198 A 
ATOM     91  F   UNL A   1      41.086  26.068  34.895  1.00  0.00    -0.203 F 
ATOM     92  F   UNL A   1      46.362  24.777  34.924  1.00  0.00    -0.200 F 
ATOM     93  C   UNL A   1      44.129  24.258  35.466  1.00  0.00     0.200 A 
ATOM     94  F   UNL A   1      41.886  23.837  36.056  1.00  0.00    -0.200 F 
ATOM     95  F   UNL A   1      44.510  23.098  36.014  1.00  0.00    -0.200 F 
ENDBRANCH  62  85
ENDBRANCH  36  37
ENDBRANCH  28  31
ENDBRANCH  26  27
ENDBRANCH   1  26
TORSDOF 12
ENDMDL
