MODEL 1
REMARK VINA RESULT:     -12.4      0.000      0.000
REMARK SMILES CCC[C@@H](C(=O)NCCCCNC(=O)c1ccc(-c2c3nc(c(-c4c(F)c(F)c(F)c(F)c4F)c4ccc([nH]4)c(-c4c(F)c(F)c(F)c(F)c4F)c4nc(c(-c5c(F)c(F)c(F)c(F)c5F)c5ccc2[nH]5)C=C4)C=C3)cc1)n1nc(/C=C/c2ccc(OC)cc2)ccc1=O
REMARK SMILES IDX 8 1 7 2 5 3 6 4 4 6 3 7 2 8 1 9 78 10 79 11 93 12 80 13
REMARK SMILES IDX 92 14 94 15 91 16 81 17 82 18 83 19 84 20 90 21 85 22 89 23
REMARK SMILES IDX 86 24 87 25 88 26 9 27 10 28 11 29 12 30 13 31 14 33 15 34
REMARK SMILES IDX 16 35 77 36 17 37 76 38 18 39 19 40 20 41 70 42 21 43 75 44
REMARK SMILES IDX 69 45 71 46 22 47 74 48 68 49 67 50 23 52 55 53 35 54 54 55
REMARK SMILES IDX 36 56 39 57 53 58 72 59 37 60 38 61 52 63 73 64 40 65 24 66
REMARK SMILES IDX 25 67 33 68 26 69 27 70 31 71 34 72 28 73 29 74 32 75 30 76
REMARK SMILES IDX 56 77 57 78 65 79 58 80 59 81 63 82 66 83 60 84 61 85 64 86
REMARK SMILES IDX 62 87 41 88 42 89 50 90 43 91 44 92 48 93 51 94 45 95 46 96
REMARK SMILES IDX 49 97 47 98
REMARK H PARENT 7 5 12 32 71 51 39 62
REMARK Flexibility Score: inf
ROOT
ATOM      1  C   UNL A   1      32.511  29.687  25.447  1.00  0.00     0.116 C 
ENDROOT
BRANCH   1   2
ATOM      2  N   UNL A   1      33.537  28.678  25.597  1.00  0.00    -0.354 N 
ATOM      3  C   UNL A   1      33.445  27.314  25.652  1.00  0.00     0.245 C 
ATOM      4  O   UNL A   1      34.481  26.730  25.987  1.00  0.00    -0.273 OA
ATOM      5  H   UNL A   1      34.453  29.031  25.672  1.00  0.00     0.163 HD
BRANCH   3   6
ATOM      6  C   UNL A   1      32.127  26.571  25.293  1.00  0.00     0.200 C 
BRANCH   6   7
ATOM      7  C   UNL A   1      31.670  25.514  26.334  1.00  0.00     0.037 C 
BRANCH   7   8
ATOM      8  C   UNL A   1      30.266  24.915  26.289  1.00  0.00    -0.001 C 
ATOM      9  C   UNL A   1      30.157  23.437  26.610  1.00  0.00     0.004 C 
ENDBRANCH   7   8
ENDBRANCH   6   7
BRANCH   6  10
ATOM     10  N   UNL A   1      32.374  25.941  23.955  1.00  0.00    -0.217 N 
ATOM     11  N   UNL A   1      32.734  24.584  23.963  1.00  0.00    -0.170 NA
ATOM     12  C   UNL A   1      32.006  26.606  22.784  1.00  0.00     0.267 A 
ATOM     13  C   UNL A   1      32.866  23.983  22.814  1.00  0.00     0.084 A 
ATOM     14  C   UNL A   1      32.352  25.937  21.525  1.00  0.00     0.075 A 
ATOM     15  O   UNL A   1      31.491  27.718  22.698  1.00  0.00    -0.268 OA
ATOM     16  C   UNL A   1      32.787  24.681  21.513  1.00  0.00     0.036 A 
BRANCH  13  17
ATOM     17  C   UNL A   1      33.046  22.491  22.770  1.00  0.00     0.031 C 
ATOM     18  C   UNL A   1      32.512  21.620  23.644  1.00  0.00     0.010 C 
BRANCH  18  19
ATOM     19  C   UNL A   1      32.799  20.181  23.725  1.00  0.00    -0.025 A 
ATOM     20  C   UNL A   1      33.791  19.744  24.610  1.00  0.00     0.012 A 
ATOM     21  C   UNL A   1      32.236  19.256  22.838  1.00  0.00     0.012 A 
ATOM     22  C   UNL A   1      34.200  18.408  24.615  1.00  0.00     0.047 A 
ATOM     23  C   UNL A   1      32.651  17.916  22.843  1.00  0.00     0.047 A 
ATOM     24  C   UNL A   1      33.636  17.487  23.732  1.00  0.00     0.118 A 
BRANCH  24  25
ATOM     25  O   UNL A   1      34.144  16.221  23.832  1.00  0.00    -0.497 OA
ATOM     26  C   UNL A   1      34.874  15.909  25.009  1.00  0.00     0.278 C 
ENDBRANCH  24  25
ENDBRANCH  18  19
ENDBRANCH  13  17
ENDBRANCH   6  10
ENDBRANCH   3   6
ENDBRANCH   1   2
BRANCH   1  27
ATOM     27  C   UNL A   1      32.122  30.246  26.819  1.00  0.00     0.023 C 
BRANCH  27  28
ATOM     28  C   UNL A   1      31.787  31.731  26.836  1.00  0.00     0.023 C 
BRANCH  28  29
ATOM     29  C   UNL A   1      32.882  32.614  27.414  1.00  0.00     0.116 C 
BRANCH  29  30
ATOM     30  N   UNL A   1      32.463  33.989  27.652  1.00  0.00    -0.352 N 
ATOM     31  C   UNL A   1      32.986  34.906  28.536  1.00  0.00     0.251 C 
ATOM     32  H   UNL A   1      31.705  34.305  27.108  1.00  0.00     0.163 HD
ATOM     33  O   UNL A   1      32.472  36.006  28.678  1.00  0.00    -0.269 OA
BRANCH  31  34
ATOM     34  C   UNL A   1      34.155  34.519  29.351  1.00  0.00     0.039 A 
ATOM     35  C   UNL A   1      33.944  33.998  30.629  1.00  0.00     0.014 A 
ATOM     36  C   UNL A   1      35.443  34.593  28.816  1.00  0.00     0.014 A 
ATOM     37  C   UNL A   1      35.021  33.465  31.338  1.00  0.00     0.010 A 
ATOM     38  C   UNL A   1      36.495  33.979  29.483  1.00  0.00     0.010 A 
ATOM     39  C   UNL A   1      36.295  33.406  30.748  1.00  0.00    -0.014 A 
BRANCH  39  40
ATOM     40  C   UNL A   1      37.438  32.755  31.433  1.00  0.00     0.031 A 
ATOM     41  C   UNL A   1      38.136  31.596  30.779  1.00  0.00     0.074 A 
ATOM     42  C   UNL A   1      37.786  33.145  32.674  1.00  0.00     0.049 A 
ATOM     43  N   UNL A   1      39.079  30.822  31.252  1.00  0.00    -0.248 NA
ATOM     44  C   UNL A   1      37.685  31.234  29.425  1.00  0.00     0.031 C 
ATOM     45  C   UNL A   1      37.142  34.214  33.440  1.00  0.00     0.029 A 
ATOM     46  N   UNL A   1      38.762  32.676  33.517  1.00  0.00    -0.354 N 
ATOM     47  C   UNL A   1      39.314  29.873  30.267  1.00  0.00     0.074 A 
ATOM     48  C   UNL A   1      38.377  30.130  29.196  1.00  0.00     0.031 C 
ATOM     49  C   UNL A   1      37.753  34.333  34.630  1.00  0.00     0.029 A 
ATOM     50  C   UNL A   1      38.809  33.329  34.724  1.00  0.00     0.049 A 
ATOM     51  H   UNL A   1      39.372  31.941  33.279  1.00  0.00     0.167 HD
ATOM     52  C   UNL A   1      40.247  28.892  30.246  1.00  0.00     0.037 A 
ATOM     53  C   UNL A   1      39.612  33.136  35.787  1.00  0.00     0.037 A 
ATOM     54  C   UNL A   1      41.204  28.667  31.294  1.00  0.00     0.049 A 
ATOM     55  C   UNL A   1      40.664  32.062  35.725  1.00  0.00     0.074 A 
ATOM     56  C   UNL A   1      42.233  27.743  31.342  1.00  0.00     0.029 A 
ATOM     57  N   UNL A   1      41.254  29.384  32.482  1.00  0.00    -0.354 N 
ATOM     58  N   UNL A   1      40.920  31.212  34.762  1.00  0.00    -0.248 NA
ATOM     59  C   UNL A   1      41.542  31.927  36.895  1.00  0.00     0.031 C 
ATOM     60  C   UNL A   1      42.886  27.880  32.571  1.00  0.00     0.029 A 
ATOM     61  C   UNL A   1      42.289  28.916  33.273  1.00  0.00     0.049 A 
ATOM     62  H   UNL A   1      40.643  30.116  32.725  1.00  0.00     0.167 HD
ATOM     63  C   UNL A   1      42.003  30.458  35.195  1.00  0.00     0.074 A 
ATOM     64  C   UNL A   1      42.364  30.963  36.504  1.00  0.00     0.031 C 
ATOM     65  C   UNL A   1      42.639  29.440  34.568  1.00  0.00     0.037 A 
BRANCH  52  66
ATOM     66  C   UNL A   1      40.284  28.001  29.039  1.00  0.00     0.064 A 
ATOM     67  C   UNL A   1      39.561  26.800  28.993  1.00  0.00     0.173 A 
ATOM     68  C   UNL A   1      41.035  28.360  27.911  1.00  0.00     0.173 A 
ATOM     69  F   UNL A   1      38.839  26.404  30.053  1.00  0.00    -0.203 F 
ATOM     70  C   UNL A   1      39.614  25.975  27.873  1.00  0.00     0.198 A 
ATOM     71  C   UNL A   1      41.062  27.547  26.780  1.00  0.00     0.198 A 
ATOM     72  F   UNL A   1      41.743  29.500  27.902  1.00  0.00    -0.203 F 
ATOM     73  F   UNL A   1      38.959  24.805  27.873  1.00  0.00    -0.200 F 
ATOM     74  C   UNL A   1      40.359  26.351  26.766  1.00  0.00     0.200 A 
ATOM     75  F   UNL A   1      41.774  27.917  25.707  1.00  0.00    -0.200 F 
ATOM     76  F   UNL A   1      40.407  25.557  25.688  1.00  0.00    -0.200 F 
ENDBRANCH  52  66
BRANCH  53  77
ATOM     77  C   UNL A   1      39.476  34.001  36.988  1.00  0.00     0.064 A 
ATOM     78  C   UNL A   1      40.102  35.254  37.042  1.00  0.00     0.173 A 
ATOM     79  C   UNL A   1      38.725  33.598  38.100  1.00  0.00     0.173 A 
ATOM     80  F   UNL A   1      40.848  35.675  36.010  1.00  0.00    -0.203 F 
ATOM     81  C   UNL A   1      39.998  36.063  38.171  1.00  0.00     0.198 A 
ATOM     82  C   UNL A   1      38.600  34.418  39.220  1.00  0.00     0.198 A 
ATOM     83  F   UNL A   1      38.102  32.410  38.095  1.00  0.00    -0.203 F 
ATOM     84  F   UNL A   1      40.642  37.238  38.214  1.00  0.00    -0.200 F 
ATOM     85  C   UNL A   1      39.243  35.646  39.258  1.00  0.00     0.200 A 
ATOM     86  F   UNL A   1      37.861  34.017  40.263  1.00  0.00    -0.200 F 
ATOM     87  F   UNL A   1      39.141  36.424  40.344  1.00  0.00    -0.200 F 
ENDBRANCH  53  77
BRANCH  65  88
ATOM     88  C   UNL A   1      43.811  28.825  35.273  1.00  0.00     0.064 A 
ATOM     89  C   UNL A   1      43.650  27.761  36.171  1.00  0.00     0.173 A 
ATOM     90  C   UNL A   1      45.113  29.275  35.009  1.00  0.00     0.173 A 
ATOM     91  F   UNL A   1      42.423  27.305  36.466  1.00  0.00    -0.203 F 
ATOM     92  C   UNL A   1      44.751  27.183  36.798  1.00  0.00     0.198 A 
ATOM     93  C   UNL A   1      46.213  28.678  35.617  1.00  0.00     0.198 A 
ATOM     94  F   UNL A   1      45.318  30.287  34.152  1.00  0.00    -0.203 F 
ATOM     95  F   UNL A   1      44.572  26.193  37.683  1.00  0.00    -0.200 F 
ATOM     96  C   UNL A   1      46.031  27.637  36.513  1.00  0.00     0.200 A 
ATOM     97  F   UNL A   1      47.450  29.110  35.333  1.00  0.00    -0.200 F 
ATOM     98  F   UNL A   1      47.090  27.074  37.111  1.00  0.00    -0.200 F 
ENDBRANCH  65  88
ENDBRANCH  39  40
ENDBRANCH  31  34
ENDBRANCH  29  30
ENDBRANCH  28  29
ENDBRANCH  27  28
ENDBRANCH   1  27
TORSDOF 17
ENDMDL
MODEL 2
REMARK VINA RESULT:     -12.3      4.923     11.266
REMARK SMILES CCC[C@@H](C(=O)NCCCCNC(=O)c1ccc(-c2c3nc(c(-c4c(F)c(F)c(F)c(F)c4F)c4ccc([nH]4)c(-c4c(F)c(F)c(F)c(F)c4F)c4nc(c(-c5c(F)c(F)c(F)c(F)c5F)c5ccc2[nH]5)C=C4)C=C3)cc1)n1nc(/C=C/c2ccc(OC)cc2)ccc1=O
REMARK SMILES IDX 8 1 7 2 5 3 6 4 4 6 3 7 2 8 1 9 78 10 79 11 93 12 80 13
REMARK SMILES IDX 92 14 94 15 91 16 81 17 82 18 83 19 84 20 90 21 85 22 89 23
REMARK SMILES IDX 86 24 87 25 88 26 9 27 10 28 11 29 12 30 13 31 14 33 15 34
REMARK SMILES IDX 16 35 77 36 17 37 76 38 18 39 19 40 20 41 70 42 21 43 75 44
REMARK SMILES IDX 69 45 71 46 22 47 74 48 68 49 67 50 23 52 55 53 35 54 54 55
REMARK SMILES IDX 36 56 39 57 53 58 72 59 37 60 38 61 52 63 73 64 40 65 24 66
REMARK SMILES IDX 25 67 33 68 26 69 27 70 31 71 34 72 28 73 29 74 32 75 30 76
REMARK SMILES IDX 56 77 57 78 65 79 58 80 59 81 63 82 66 83 60 84 61 85 64 86
REMARK SMILES IDX 62 87 41 88 42 89 50 90 43 91 44 92 48 93 51 94 45 95 46 96
REMARK SMILES IDX 49 97 47 98
REMARK H PARENT 7 5 12 32 71 51 39 62
REMARK Flexibility Score: inf
ROOT
ATOM      1  C   UNL A   1      33.980  34.932  29.870  1.00  0.00     0.116 C 
ENDROOT
BRANCH   1   2
ATOM      2  N   UNL A   1      33.770  34.044  30.992  1.00  0.00    -0.354 N 
ATOM      3  C   UNL A   1      34.664  33.356  31.764  1.00  0.00     0.245 C 
ATOM      4  O   UNL A   1      34.167  32.519  32.526  1.00  0.00    -0.273 OA
ATOM      5  H   UNL A   1      32.826  33.915  31.242  1.00  0.00     0.163 HD
BRANCH   3   6
ATOM      6  C   UNL A   1      36.192  33.635  31.688  1.00  0.00     0.200 C 
BRANCH   6   7
ATOM      7  C   UNL A   1      36.915  32.985  30.478  1.00  0.00     0.037 C 
BRANCH   7   8
ATOM      8  C   UNL A   1      37.513  33.839  29.362  1.00  0.00    -0.001 C 
ATOM      9  C   UNL A   1      38.863  34.466  29.647  1.00  0.00     0.004 C 
ENDBRANCH   7   8
ENDBRANCH   6   7
BRANCH   6  10
ATOM     10  N   UNL A   1      36.755  33.138  32.986  1.00  0.00    -0.217 N 
ATOM     11  N   UNL A   1      37.586  32.009  32.912  1.00  0.00    -0.170 NA
ATOM     12  C   UNL A   1      36.661  33.919  34.140  1.00  0.00     0.267 A 
ATOM     13  C   UNL A   1      38.165  31.608  34.009  1.00  0.00     0.084 A 
ATOM     14  C   UNL A   1      37.181  33.314  35.373  1.00  0.00     0.075 A 
ATOM     15  O   UNL A   1      36.127  35.020  34.244  1.00  0.00    -0.268 OA
ATOM     16  C   UNL A   1      37.892  32.192  35.339  1.00  0.00     0.036 A 
BRANCH  13  17
ATOM     17  C   UNL A   1      39.220  30.538  33.946  1.00  0.00     0.031 C 
ATOM     18  C   UNL A   1      40.000  30.157  34.972  1.00  0.00     0.010 C 
BRANCH  18  19
ATOM     19  C   UNL A   1      41.143  29.235  34.903  1.00  0.00    -0.025 A 
ATOM     20  C   UNL A   1      41.998  29.144  36.006  1.00  0.00     0.012 A 
ATOM     21  C   UNL A   1      41.498  28.573  33.722  1.00  0.00     0.012 A 
ATOM     22  C   UNL A   1      43.176  28.396  35.932  1.00  0.00     0.047 A 
ATOM     23  C   UNL A   1      42.683  27.827  33.649  1.00  0.00     0.047 A 
ATOM     24  C   UNL A   1      43.527  27.735  34.755  1.00  0.00     0.118 A 
BRANCH  24  25
ATOM     25  O   UNL A   1      44.714  27.059  34.816  1.00  0.00    -0.497 OA
ATOM     26  C   UNL A   1      44.737  25.860  35.579  1.00  0.00     0.278 C 
ENDBRANCH  24  25
ENDBRANCH  18  19
ENDBRANCH  13  17
ENDBRANCH   6  10
ENDBRANCH   3   6
ENDBRANCH   1   2
BRANCH   1  27
ATOM     27  C   UNL A   1      33.040  34.555  28.721  1.00  0.00     0.023 C 
BRANCH  27  28
ATOM     28  C   UNL A   1      33.648  33.638  27.668  1.00  0.00     0.023 C 
BRANCH  28  29
ATOM     29  C   UNL A   1      34.419  32.457  28.237  1.00  0.00     0.116 C 
BRANCH  29  30
ATOM     30  N   UNL A   1      33.874  31.160  27.854  1.00  0.00    -0.352 N 
ATOM     31  C   UNL A   1      34.507  29.938  27.818  1.00  0.00     0.251 C 
ATOM     32  H   UNL A   1      32.926  31.158  27.586  1.00  0.00     0.163 HD
ATOM     33  O   UNL A   1      33.932  28.945  27.396  1.00  0.00    -0.269 OA
BRANCH  31  34
ATOM     34  C   UNL A   1      35.916  29.856  28.253  1.00  0.00     0.039 A 
ATOM     35  C   UNL A   1      36.198  29.435  29.554  1.00  0.00     0.014 A 
ATOM     36  C   UNL A   1      36.949  30.110  27.347  1.00  0.00     0.014 A 
ATOM     37  C   UNL A   1      37.520  29.182  29.920  1.00  0.00     0.010 A 
ATOM     38  C   UNL A   1      38.252  29.770  27.685  1.00  0.00     0.010 A 
ATOM     39  C   UNL A   1      38.551  29.300  28.973  1.00  0.00    -0.014 A 
BRANCH  39  40
ATOM     40  C   UNL A   1      39.952  28.941  29.301  1.00  0.00     0.031 A 
ATOM     41  C   UNL A   1      40.803  29.902  30.082  1.00  0.00     0.074 A 
ATOM     42  C   UNL A   1      40.481  27.799  28.822  1.00  0.00     0.049 A 
ATOM     43  N   UNL A   1      42.076  29.830  30.379  1.00  0.00    -0.248 NA
ATOM     44  C   UNL A   1      40.144  31.128  30.561  1.00  0.00     0.031 C 
ATOM     45  C   UNL A   1      39.775  26.817  27.997  1.00  0.00     0.029 A 
ATOM     46  N   UNL A   1      41.744  27.278  28.949  1.00  0.00    -0.354 N 
ATOM     47  C   UNL A   1      42.371  31.007  31.052  1.00  0.00     0.074 A 
ATOM     48  C   UNL A   1      41.162  31.801  31.071  1.00  0.00     0.031 C 
ATOM     49  C   UNL A   1      40.607  25.803  27.710  1.00  0.00     0.029 A 
ATOM     50  C   UNL A   1      41.913  26.078  28.302  1.00  0.00     0.049 A 
ATOM     51  H   UNL A   1      42.461  27.721  29.457  1.00  0.00     0.167 HD
ATOM     52  C   UNL A   1      43.538  31.379  31.629  1.00  0.00     0.037 A 
ATOM     53  C   UNL A   1      43.001  25.292  28.197  1.00  0.00     0.037 A 
ATOM     54  C   UNL A   1      44.724  30.568  31.645  1.00  0.00     0.049 A 
ATOM     55  C   UNL A   1      44.276  25.712  28.876  1.00  0.00     0.074 A 
ATOM     56  C   UNL A   1      45.938  30.823  32.258  1.00  0.00     0.029 A 
ATOM     57  N   UNL A   1      44.842  29.333  31.021  1.00  0.00    -0.354 N 
ATOM     58  N   UNL A   1      44.525  26.797  29.567  1.00  0.00    -0.248 NA
ATOM     59  C   UNL A   1      45.417  24.793  28.768  1.00  0.00     0.031 C 
ATOM     60  C   UNL A   1      46.800  29.758  31.979  1.00  0.00     0.029 A 
ATOM     61  C   UNL A   1      46.111  28.820  31.227  1.00  0.00     0.049 A 
ATOM     62  H   UNL A   1      44.128  28.889  30.509  1.00  0.00     0.167 HD
ATOM     63  C   UNL A   1      45.841  26.682  29.996  1.00  0.00     0.074 A 
ATOM     64  C   UNL A   1      46.332  25.413  29.500  1.00  0.00     0.031 C 
ATOM     65  C   UNL A   1      46.576  27.549  30.733  1.00  0.00     0.037 A 
BRANCH  52  66
ATOM     66  C   UNL A   1      43.576  32.718  32.305  1.00  0.00     0.064 A 
ATOM     67  C   UNL A   1      43.911  33.885  31.601  1.00  0.00     0.173 A 
ATOM     68  C   UNL A   1      43.260  32.840  33.666  1.00  0.00     0.173 A 
ATOM     69  F   UNL A   1      44.237  33.819  30.301  1.00  0.00    -0.203 F 
ATOM     70  C   UNL A   1      43.957  35.119  32.242  1.00  0.00     0.198 A 
ATOM     71  C   UNL A   1      43.278  34.081  34.297  1.00  0.00     0.198 A 
ATOM     72  F   UNL A   1      42.932  31.755  34.385  1.00  0.00    -0.203 F 
ATOM     73  F   UNL A   1      44.332  36.213  31.562  1.00  0.00    -0.200 F 
ATOM     74  C   UNL A   1      43.635  35.218  33.587  1.00  0.00     0.200 A 
ATOM     75  F   UNL A   1      42.956  34.177  35.594  1.00  0.00    -0.200 F 
ATOM     76  F   UNL A   1      43.677  36.408  34.201  1.00  0.00    -0.200 F 
ENDBRANCH  52  66
BRANCH  53  77
ATOM     77  C   UNL A   1      42.922  24.012  27.447  1.00  0.00     0.064 A 
ATOM     78  C   UNL A   1      42.535  22.827  28.089  1.00  0.00     0.173 A 
ATOM     79  C   UNL A   1      43.232  23.942  26.082  1.00  0.00     0.173 A 
ATOM     80  F   UNL A   1      42.249  22.841  29.400  1.00  0.00    -0.203 F 
ATOM     81  C   UNL A   1      42.480  21.619  27.400  1.00  0.00     0.198 A 
ATOM     82  C   UNL A   1      43.151  22.738  25.386  1.00  0.00     0.198 A 
ATOM     83  F   UNL A   1      43.601  25.049  25.420  1.00  0.00    -0.203 F 
ATOM     84  F   UNL A   1      42.148  20.494  28.049  1.00  0.00    -0.200 F 
ATOM     85  C   UNL A   1      42.783  21.576  26.047  1.00  0.00     0.200 A 
ATOM     86  F   UNL A   1      43.434  22.702  24.077  1.00  0.00    -0.200 F 
ATOM     87  F   UNL A   1      42.728  20.413  25.383  1.00  0.00    -0.200 F 
ENDBRANCH  53  77
BRANCH  65  88
ATOM     88  C   UNL A   1      47.978  27.142  31.076  1.00  0.00     0.064 A 
ATOM     89  C   UNL A   1      48.256  26.334  32.187  1.00  0.00     0.173 A 
ATOM     90  C   UNL A   1      49.048  27.529  30.256  1.00  0.00     0.173 A 
ATOM     91  F   UNL A   1      47.267  25.951  33.008  1.00  0.00    -0.203 F 
ATOM     92  C   UNL A   1      49.561  25.943  32.476  1.00  0.00     0.198 A 
ATOM     93  C   UNL A   1      50.348  27.115  30.534  1.00  0.00     0.198 A 
ATOM     94  F   UNL A   1      48.831  28.298  29.179  1.00  0.00    -0.203 F 
ATOM     95  F   UNL A   1      49.810  25.202  33.565  1.00  0.00    -0.200 F 
ATOM     96  C   UNL A   1      50.603  26.327  31.645  1.00  0.00     0.200 A 
ATOM     97  F   UNL A   1      51.352  27.477  29.724  1.00  0.00    -0.200 F 
ATOM     98  F   UNL A   1      51.857  25.944  31.922  1.00  0.00    -0.200 F 
ENDBRANCH  65  88
ENDBRANCH  39  40
ENDBRANCH  31  34
ENDBRANCH  29  30
ENDBRANCH  28  29
ENDBRANCH  27  28
ENDBRANCH   1  27
TORSDOF 17
ENDMDL
MODEL 3
REMARK VINA RESULT:     -12.3      0.637      7.321
REMARK SMILES CCC[C@@H](C(=O)NCCCCNC(=O)c1ccc(-c2c3nc(c(-c4c(F)c(F)c(F)c(F)c4F)c4ccc([nH]4)c(-c4c(F)c(F)c(F)c(F)c4F)c4nc(c(-c5c(F)c(F)c(F)c(F)c5F)c5ccc2[nH]5)C=C4)C=C3)cc1)n1nc(/C=C/c2ccc(OC)cc2)ccc1=O
REMARK SMILES IDX 8 1 7 2 5 3 6 4 4 6 3 7 2 8 1 9 78 10 79 11 93 12 80 13
REMARK SMILES IDX 92 14 94 15 91 16 81 17 82 18 83 19 84 20 90 21 85 22 89 23
REMARK SMILES IDX 86 24 87 25 88 26 9 27 10 28 11 29 12 30 13 31 14 33 15 34
REMARK SMILES IDX 16 35 77 36 17 37 76 38 18 39 19 40 20 41 70 42 21 43 75 44
REMARK SMILES IDX 69 45 71 46 22 47 74 48 68 49 67 50 23 52 55 53 35 54 54 55
REMARK SMILES IDX 36 56 39 57 53 58 72 59 37 60 38 61 52 63 73 64 40 65 24 66
REMARK SMILES IDX 25 67 33 68 26 69 27 70 31 71 34 72 28 73 29 74 32 75 30 76
REMARK SMILES IDX 56 77 57 78 65 79 58 80 59 81 63 82 66 83 60 84 61 85 64 86
REMARK SMILES IDX 62 87 41 88 42 89 50 90 43 91 44 92 48 93 51 94 45 95 46 96
REMARK SMILES IDX 49 97 47 98
REMARK H PARENT 7 5 12 32 71 51 39 62
REMARK Flexibility Score: inf
ROOT
ATOM      1  C   UNL A   1      31.785  29.984  25.410  1.00  0.00     0.116 C 
ENDROOT
BRANCH   1   2
ATOM      2  N   UNL A   1      32.969  29.164  25.284  1.00  0.00    -0.354 N 
ATOM      3  C   UNL A   1      33.108  27.806  25.198  1.00  0.00     0.245 C 
ATOM      4  O   UNL A   1      34.267  27.389  25.300  1.00  0.00    -0.273 OA
ATOM      5  H   UNL A   1      33.815  29.666  25.254  1.00  0.00     0.163 HD
BRANCH   3   6
ATOM      6  C   UNL A   1      31.885  26.874  24.969  1.00  0.00     0.200 C 
BRANCH   6   7
ATOM      7  C   UNL A   1      31.505  25.984  26.183  1.00  0.00     0.037 C 
BRANCH   7   8
ATOM      8  C   UNL A   1      30.248  25.118  26.166  1.00  0.00    -0.001 C 
ATOM      9  C   UNL A   1      30.430  23.663  26.552  1.00  0.00     0.004 C 
ENDBRANCH   7   8
ENDBRANCH   6   7
BRANCH   6  10
ATOM     10  N   UNL A   1      32.237  26.038  23.775  1.00  0.00    -0.217 N 
ATOM     11  N   UNL A   1      32.690  24.736  24.038  1.00  0.00    -0.170 NA
ATOM     12  C   UNL A   1      31.879  26.456  22.491  1.00  0.00     0.267 A 
ATOM     13  C   UNL A   1      32.917  23.953  23.020  1.00  0.00     0.084 A 
ATOM     14  C   UNL A   1      32.329  25.603  21.385  1.00  0.00     0.075 A 
ATOM     15  O   UNL A   1      31.292  27.493  22.190  1.00  0.00    -0.268 OA
ATOM     16  C   UNL A   1      32.850  24.402  21.614  1.00  0.00     0.036 A 
BRANCH  13  17
ATOM     17  C   UNL A   1      33.201  22.495  23.251  1.00  0.00     0.031 C 
ATOM     18  C   UNL A   1      32.280  21.564  23.554  1.00  0.00     0.010 C 
BRANCH  18  19
ATOM     19  C   UNL A   1      32.544  20.171  23.943  1.00  0.00    -0.025 A 
ATOM     20  C   UNL A   1      32.455  19.174  22.966  1.00  0.00     0.012 A 
ATOM     21  C   UNL A   1      32.719  19.789  25.278  1.00  0.00     0.012 A 
ATOM     22  C   UNL A   1      32.552  17.825  23.317  1.00  0.00     0.047 A 
ATOM     23  C   UNL A   1      32.812  18.434  25.628  1.00  0.00     0.047 A 
ATOM     24  C   UNL A   1      32.728  17.446  24.648  1.00  0.00     0.118 A 
BRANCH  24  25
ATOM     25  O   UNL A   1      32.786  16.095  24.851  1.00  0.00    -0.497 OA
ATOM     26  C   UNL A   1      34.056  15.543  25.171  1.00  0.00     0.278 C 
ENDBRANCH  24  25
ENDBRANCH  18  19
ENDBRANCH  13  17
ENDBRANCH   6  10
ENDBRANCH   3   6
ENDBRANCH   1   2
BRANCH   1  27
ATOM     27  C   UNL A   1      31.738  30.626  26.801  1.00  0.00     0.023 C 
BRANCH  27  28
ATOM     28  C   UNL A   1      31.548  32.137  26.805  1.00  0.00     0.023 C 
BRANCH  28  29
ATOM     29  C   UNL A   1      32.728  32.915  27.367  1.00  0.00     0.116 C 
BRANCH  29  30
ATOM     30  N   UNL A   1      32.410  34.293  27.717  1.00  0.00    -0.352 N 
ATOM     31  C   UNL A   1      33.009  35.103  28.655  1.00  0.00     0.251 C 
ATOM     32  H   UNL A   1      31.666  34.700  27.215  1.00  0.00     0.163 HD
ATOM     33  O   UNL A   1      32.575  36.221  28.891  1.00  0.00    -0.269 OA
BRANCH  31  34
ATOM     34  C   UNL A   1      34.162  34.576  29.414  1.00  0.00     0.039 A 
ATOM     35  C   UNL A   1      33.930  33.910  30.619  1.00  0.00     0.014 A 
ATOM     36  C   UNL A   1      35.452  34.667  28.888  1.00  0.00     0.014 A 
ATOM     37  C   UNL A   1      34.986  33.255  31.254  1.00  0.00     0.010 A 
ATOM     38  C   UNL A   1      36.481  33.938  29.471  1.00  0.00     0.010 A 
ATOM     39  C   UNL A   1      36.257  33.222  30.658  1.00  0.00    -0.014 A 
BRANCH  39  40
ATOM     40  C   UNL A   1      37.374  32.451  31.254  1.00  0.00     0.031 A 
ATOM     41  C   UNL A   1      37.879  32.808  32.623  1.00  0.00     0.074 A 
ATOM     42  C   UNL A   1      37.989  31.495  30.532  1.00  0.00     0.049 A 
ATOM     43  N   UNL A   1      38.909  32.335  33.277  1.00  0.00    -0.248 NA
ATOM     44  C   UNL A   1      37.151  33.870  33.338  1.00  0.00     0.031 C 
ATOM     45  C   UNL A   1      37.633  31.102  29.167  1.00  0.00     0.029 A 
ATOM     46  N   UNL A   1      39.055  30.688  30.841  1.00  0.00    -0.354 N 
ATOM     47  C   UNL A   1      38.965  33.055  34.462  1.00  0.00     0.074 A 
ATOM     48  C   UNL A   1      37.903  34.037  34.414  1.00  0.00     0.031 C 
ATOM     49  C   UNL A   1      38.451  30.115  28.765  1.00  0.00     0.029 A 
ATOM     50  C   UNL A   1      39.409  29.829  29.829  1.00  0.00     0.049 A 
ATOM     51  H   UNL A   1      39.522  30.721  31.707  1.00  0.00     0.167 HD
ATOM     52  C   UNL A   1      39.808  32.893  35.509  1.00  0.00     0.037 A 
ATOM     53  C   UNL A   1      40.397  28.917  29.768  1.00  0.00     0.037 A 
ATOM     54  C   UNL A   1      40.834  31.889  35.571  1.00  0.00     0.049 A 
ATOM     55  C   UNL A   1      41.299  28.733  30.959  1.00  0.00     0.074 A 
ATOM     56  C   UNL A   1      41.698  31.598  36.611  1.00  0.00     0.029 A 
ATOM     57  N   UNL A   1      41.129  31.002  34.545  1.00  0.00    -0.354 N 
ATOM     58  N   UNL A   1      41.301  29.376  32.100  1.00  0.00    -0.248 NA
ATOM     59  C   UNL A   1      42.329  27.691  30.854  1.00  0.00     0.031 C 
ATOM     60  C   UNL A   1      42.537  30.556  36.204  1.00  0.00     0.029 A 
ATOM     61  C   UNL A   1      42.169  30.170  34.925  1.00  0.00     0.049 A 
ATOM     62  H   UNL A   1      40.667  30.969  33.676  1.00  0.00     0.167 HD
ATOM     63  C   UNL A   1      42.312  28.802  32.859  1.00  0.00     0.074 A 
ATOM     64  C   UNL A   1      42.892  27.749  32.052  1.00  0.00     0.031 C 
ATOM     65  C   UNL A   1      42.724  29.120  34.110  1.00  0.00     0.037 A 
BRANCH  52  66
ATOM     66  C   UNL A   1      39.638  33.817  36.680  1.00  0.00     0.064 A 
ATOM     67  C   UNL A   1      40.262  35.073  36.718  1.00  0.00     0.173 A 
ATOM     68  C   UNL A   1      38.831  33.452  37.766  1.00  0.00     0.173 A 
ATOM     69  F   UNL A   1      41.058  35.463  35.710  1.00  0.00    -0.203 F 
ATOM     70  C   UNL A   1      40.110  35.916  37.815  1.00  0.00     0.198 A 
ATOM     71  C   UNL A   1      38.656  34.310  38.849  1.00  0.00     0.198 A 
ATOM     72  F   UNL A   1      38.210  32.262  37.779  1.00  0.00    -0.203 F 
ATOM     73  F   UNL A   1      40.760  37.088  37.853  1.00  0.00    -0.200 F 
ATOM     74  C   UNL A   1      39.302  35.538  38.876  1.00  0.00     0.200 A 
ATOM     75  F   UNL A   1      37.867  33.947  39.869  1.00  0.00    -0.200 F 
ATOM     76  F   UNL A   1      39.154  36.351  39.930  1.00  0.00    -0.200 F 
ENDBRANCH  52  66
BRANCH  53  77
ATOM     77  C   UNL A   1      40.564  28.083  28.550  1.00  0.00     0.064 A 
ATOM     78  C   UNL A   1      39.939  26.832  28.446  1.00  0.00     0.173 A 
ATOM     79  C   UNL A   1      41.346  28.513  27.470  1.00  0.00     0.173 A 
ATOM     80  F   UNL A   1      39.197  26.369  29.463  1.00  0.00    -0.203 F 
ATOM     81  C   UNL A   1      40.108  26.035  27.317  1.00  0.00     0.198 A 
ATOM     82  C   UNL A   1      41.494  27.727  26.329  1.00  0.00     0.198 A 
ATOM     83  F   UNL A   1      41.959  29.706  27.517  1.00  0.00    -0.203 F 
ATOM     84  F   UNL A   1      39.534  24.824  27.262  1.00  0.00    -0.200 F 
ATOM     85  C   UNL A   1      40.881  26.485  26.257  1.00  0.00     0.200 A 
ATOM     86  F   UNL A   1      42.232  28.169  25.302  1.00  0.00    -0.200 F 
ATOM     87  F   UNL A   1      41.041  25.718  25.169  1.00  0.00    -0.200 F 
ENDBRANCH  53  77
BRANCH  65  88
ATOM     88  C   UNL A   1      43.833  28.300  34.697  1.00  0.00     0.064 A 
ATOM     89  C   UNL A   1      45.174  28.695  34.590  1.00  0.00     0.173 A 
ATOM     90  C   UNL A   1      43.546  27.129  35.414  1.00  0.00     0.173 A 
ATOM     91  F   UNL A   1      45.499  29.800  33.902  1.00  0.00    -0.203 F 
ATOM     92  C   UNL A   1      46.190  27.936  35.163  1.00  0.00     0.198 A 
ATOM     93  C   UNL A   1      44.562  26.386  36.008  1.00  0.00     0.198 A 
ATOM     94  F   UNL A   1      42.278  26.712  35.549  1.00  0.00    -0.203 F 
ATOM     95  F   UNL A   1      47.468  28.312  35.016  1.00  0.00    -0.200 F 
ATOM     96  C   UNL A   1      45.883  26.787  35.878  1.00  0.00     0.200 A 
ATOM     97  F   UNL A   1      44.263  25.283  36.708  1.00  0.00    -0.200 F 
ATOM     98  F   UNL A   1      46.862  26.062  36.435  1.00  0.00    -0.200 F 
ENDBRANCH  65  88
ENDBRANCH  39  40
ENDBRANCH  31  34
ENDBRANCH  29  30
ENDBRANCH  28  29
ENDBRANCH  27  28
ENDBRANCH   1  27
TORSDOF 17
ENDMDL
