MODEL 1
REMARK VINA RESULT:     -11.9      0.000      0.000
REMARK SMILES CC[C@](C)(C(=O)NCCCCNC(=O)c1ccc(-c2c3nc(c(-c4c(F)c(F)c(F)c(F)c4F)c4ccc([nH]4)c(-c4c(F)c(F)c(F)c(F)c4F)c4nc(c(-c5c(F)c(F)c(F)c(F)c5F)c5ccc2[nH]5)C=C4)C=C3)cc1)n1nnnc1-c1ccco1
REMARK SMILES IDX 9 1 8 2 7 3 5 4 6 5 3 7 4 8 2 9 1 10 78 11 79 12 82 13 80 14
REMARK SMILES IDX 81 15 83 16 84 17 87 18 85 19 86 20 10 21 11 22 12 23 13 24
REMARK SMILES IDX 14 26 15 27 16 28 77 29 17 30 76 31 18 32 19 33 20 34 70 35
REMARK SMILES IDX 21 36 75 37 69 38 71 39 22 40 74 41 68 42 67 43 23 45 55 46
REMARK SMILES IDX 35 47 54 48 36 49 39 50 53 51 72 52 37 53 38 54 52 56 73 57
REMARK SMILES IDX 40 58 24 59 25 60 33 61 26 62 27 63 31 64 34 65 28 66 29 67
REMARK SMILES IDX 32 68 30 69 56 70 57 71 65 72 58 73 59 74 63 75 66 76 60 77
REMARK SMILES IDX 61 78 64 79 62 80 41 81 42 82 50 83 43 84 44 85 48 86 51 87
REMARK SMILES IDX 45 88 46 89 49 90 47 91
REMARK H PARENT 7 6 12 25 71 44 39 55
REMARK Flexibility Score: inf
ROOT
ATOM      1  C   UNL A   1      31.755  30.519  26.863  1.00  0.00     0.023 C 
ENDROOT
BRANCH   1   2
ATOM      2  C   UNL A   1      32.316  29.928  25.572  1.00  0.00     0.116 C 
BRANCH   2   3
ATOM      3  N   UNL A   1      31.288  29.777  24.548  1.00  0.00    -0.354 N 
ATOM      4  C   UNL A   1      31.078  28.801  23.597  1.00  0.00     0.247 C 
ATOM      5  O   UNL A   1      30.228  29.077  22.750  1.00  0.00    -0.272 OA
ATOM      6  H   UNL A   1      30.624  30.504  24.534  1.00  0.00     0.163 HD
BRANCH   4   7
ATOM      7  C   UNL A   1      31.910  27.476  23.616  1.00  0.00     0.142 C 
ATOM      8  C   UNL A   1      31.563  26.789  22.271  1.00  0.00     0.048 C 
BRANCH   7   9
ATOM      9  C   UNL A   1      33.402  27.922  23.800  1.00  0.00     0.037 C 
ATOM     10  C   UNL A   1      34.119  28.482  22.585  1.00  0.00     0.007 C 
ENDBRANCH   7   9
BRANCH   7  11
ATOM     11  N   UNL A   1      31.563  26.611  24.771  1.00  0.00    -0.207 N 
ATOM     12  N   UNL A   1      30.637  27.029  25.669  1.00  0.00    -0.044 NA
ATOM     13  C   UNL A   1      32.222  25.525  25.328  1.00  0.00     0.218 A 
ATOM     14  N   UNL A   1      30.649  26.146  26.652  1.00  0.00    -0.023 NA
ATOM     15  N   UNL A   1      31.637  25.222  26.468  1.00  0.00    -0.105 NA
BRANCH  13  16
ATOM     16  C   UNL A   1      33.378  24.841  24.842  1.00  0.00     0.172 A 
ATOM     17  C   UNL A   1      34.657  24.801  25.374  1.00  0.00     0.054 A 
ATOM     18  O   UNL A   1      33.368  24.086  23.694  1.00  0.00    -0.461 OA
ATOM     19  C   UNL A   1      35.472  24.082  24.467  1.00  0.00     0.043 A 
ATOM     20  C   UNL A   1      34.632  23.646  23.474  1.00  0.00     0.196 A 
ENDBRANCH  13  16
ENDBRANCH   7  11
ENDBRANCH   4   7
ENDBRANCH   2   3
ENDBRANCH   1   2
BRANCH   1  21
ATOM     21  C   UNL A   1      31.567  32.032  26.832  1.00  0.00     0.023 C 
BRANCH  21  22
ATOM     22  C   UNL A   1      32.790  32.839  27.248  1.00  0.00     0.116 C 
BRANCH  22  23
ATOM     23  N   UNL A   1      32.470  34.206  27.629  1.00  0.00    -0.352 N 
ATOM     24  C   UNL A   1      33.017  34.983  28.622  1.00  0.00     0.251 C 
ATOM     25  H   UNL A   1      31.760  34.636  27.100  1.00  0.00     0.163 HD
ATOM     26  O   UNL A   1      32.527  36.071  28.890  1.00  0.00    -0.269 OA
BRANCH  24  27
ATOM     27  C   UNL A   1      34.176  34.481  29.390  1.00  0.00     0.039 A 
ATOM     28  C   UNL A   1      33.946  33.882  30.631  1.00  0.00     0.014 A 
ATOM     29  C   UNL A   1      35.476  34.577  28.886  1.00  0.00     0.014 A 
ATOM     30  C   UNL A   1      35.011  33.316  31.331  1.00  0.00     0.010 A 
ATOM     31  C   UNL A   1      36.523  33.938  29.544  1.00  0.00     0.010 A 
ATOM     32  C   UNL A   1      36.302  33.300  30.773  1.00  0.00    -0.014 A 
BRANCH  32  33
ATOM     33  C   UNL A   1      37.413  32.591  31.458  1.00  0.00     0.031 A 
ATOM     34  C   UNL A   1      38.096  31.423  30.803  1.00  0.00     0.074 A 
ATOM     35  C   UNL A   1      37.784  32.984  32.693  1.00  0.00     0.049 A 
ATOM     36  N   UNL A   1      39.078  30.681  31.253  1.00  0.00    -0.248 NA
ATOM     37  C   UNL A   1      37.599  31.016  29.479  1.00  0.00     0.031 C 
ATOM     38  C   UNL A   1      37.157  34.065  33.459  1.00  0.00     0.029 A 
ATOM     39  N   UNL A   1      38.773  32.523  33.524  1.00  0.00    -0.354 N 
ATOM     40  C   UNL A   1      39.316  29.730  30.269  1.00  0.00     0.074 A 
ATOM     41  C   UNL A   1      38.335  29.943  29.228  1.00  0.00     0.031 C 
ATOM     42  C   UNL A   1      37.797  34.204  34.630  1.00  0.00     0.029 A 
ATOM     43  C   UNL A   1      38.852  33.199  34.717  1.00  0.00     0.049 A 
ATOM     44  H   UNL A   1      39.371  31.777  33.287  1.00  0.00     0.167 HD
ATOM     45  C   UNL A   1      40.285  28.784  30.225  1.00  0.00     0.037 A 
ATOM     46  C   UNL A   1      39.678  33.024  35.767  1.00  0.00     0.037 A 
ATOM     47  C   UNL A   1      41.267  28.580  31.260  1.00  0.00     0.049 A 
ATOM     48  C   UNL A   1      40.734  31.954  35.693  1.00  0.00     0.074 A 
ATOM     49  C   UNL A   1      42.313  27.674  31.288  1.00  0.00     0.029 A 
ATOM     50  N   UNL A   1      41.319  29.289  32.450  1.00  0.00    -0.354 N 
ATOM     51  N   UNL A   1      40.997  31.112  34.724  1.00  0.00    -0.248 NA
ATOM     52  C   UNL A   1      41.617  31.818  36.860  1.00  0.00     0.031 C 
ATOM     53  C   UNL A   1      42.968  27.801  32.518  1.00  0.00     0.029 A 
ATOM     54  C   UNL A   1      42.369  28.826  33.230  1.00  0.00     0.049 A 
ATOM     55  H   UNL A   1      40.704  30.015  32.704  1.00  0.00     0.167 HD
ATOM     56  C   UNL A   1      42.089  30.367  35.150  1.00  0.00     0.074 A 
ATOM     57  C   UNL A   1      42.458  30.879  36.453  1.00  0.00     0.031 C 
ATOM     58  C   UNL A   1      42.725  29.347  34.525  1.00  0.00     0.037 A 
BRANCH  45  59
ATOM     59  C   UNL A   1      40.346  27.904  29.011  1.00  0.00     0.064 A 
ATOM     60  C   UNL A   1      41.134  28.243  27.899  1.00  0.00     0.173 A 
ATOM     61  C   UNL A   1      39.667  26.676  28.981  1.00  0.00     0.173 A 
ATOM     62  F   UNL A   1      41.795  29.410  27.872  1.00  0.00    -0.203 F 
ATOM     63  C   UNL A   1      41.225  27.396  26.799  1.00  0.00     0.198 A 
ATOM     64  C   UNL A   1      39.785  25.817  27.891  1.00  0.00     0.198 A 
ATOM     65  F   UNL A   1      38.904  26.300  30.018  1.00  0.00    -0.203 F 
ATOM     66  F   UNL A   1      41.952  27.760  25.733  1.00  0.00    -0.200 F 
ATOM     67  C   UNL A   1      40.560  26.180  26.799  1.00  0.00     0.200 A 
ATOM     68  F   UNL A   1      39.153  24.635  27.899  1.00  0.00    -0.200 F 
ATOM     69  F   UNL A   1      40.662  25.358  25.746  1.00  0.00    -0.200 F 
ENDBRANCH  45  59
BRANCH  46  70
ATOM     70  C   UNL A   1      39.552  33.884  36.975  1.00  0.00     0.064 A 
ATOM     71  C   UNL A   1      38.794  33.473  38.081  1.00  0.00     0.173 A 
ATOM     72  C   UNL A   1      40.152  35.151  37.033  1.00  0.00     0.173 A 
ATOM     73  F   UNL A   1      38.183  32.278  38.067  1.00  0.00    -0.203 F 
ATOM     74  C   UNL A   1      38.608  34.310  39.179  1.00  0.00     0.198 A 
ATOM     75  C   UNL A   1      39.997  35.972  38.148  1.00  0.00     0.198 A 
ATOM     76  F   UNL A   1      40.895  35.590  36.007  1.00  0.00    -0.203 F 
ATOM     77  F   UNL A   1      37.822  33.919  40.192  1.00  0.00    -0.200 F 
ATOM     78  C   UNL A   1      39.213  35.557  39.213  1.00  0.00     0.200 A 
ATOM     79  F   UNL A   1      40.598  37.169  38.184  1.00  0.00    -0.200 F 
ATOM     80  F   UNL A   1      39.030  36.364  40.267  1.00  0.00    -0.200 F 
ENDBRANCH  46  70
BRANCH  58  81
ATOM     81  C   UNL A   1      43.904  28.740  35.233  1.00  0.00     0.064 A 
ATOM     82  C   UNL A   1      43.754  27.686  36.147  1.00  0.00     0.173 A 
ATOM     83  C   UNL A   1      45.202  29.216  34.989  1.00  0.00     0.173 A 
ATOM     84  F   UNL A   1      42.534  27.203  36.427  1.00  0.00    -0.203 F 
ATOM     85  C   UNL A   1      44.852  27.162  36.823  1.00  0.00     0.198 A 
ATOM     86  C   UNL A   1      46.302  28.664  35.638  1.00  0.00     0.198 A 
ATOM     87  F   UNL A   1      45.403  30.215  34.116  1.00  0.00    -0.203 F 
ATOM     88  F   UNL A   1      44.676  26.204  37.743  1.00  0.00    -0.200 F 
ATOM     89  C   UNL A   1      46.125  27.647  36.564  1.00  0.00     0.200 A 
ATOM     90  F   UNL A   1      47.533  29.121  35.373  1.00  0.00    -0.200 F 
ATOM     91  F   UNL A   1      47.182  27.142  37.216  1.00  0.00    -0.200 F 
ENDBRANCH  58  81
ENDBRANCH  32  33
ENDBRANCH  24  27
ENDBRANCH  22  23
ENDBRANCH  21  22
ENDBRANCH   1  21
TORSDOF 14
ENDMDL
MODEL 2
REMARK VINA RESULT:     -11.9      5.791     11.304
REMARK SMILES CC[C@](C)(C(=O)NCCCCNC(=O)c1ccc(-c2c3nc(c(-c4c(F)c(F)c(F)c(F)c4F)c4ccc([nH]4)c(-c4c(F)c(F)c(F)c(F)c4F)c4nc(c(-c5c(F)c(F)c(F)c(F)c5F)c5ccc2[nH]5)C=C4)C=C3)cc1)n1nnnc1-c1ccco1
REMARK SMILES IDX 9 1 8 2 7 3 5 4 6 5 3 7 4 8 2 9 1 10 78 11 79 12 82 13 80 14
REMARK SMILES IDX 81 15 83 16 84 17 87 18 85 19 86 20 10 21 11 22 12 23 13 24
REMARK SMILES IDX 14 26 15 27 16 28 77 29 17 30 76 31 18 32 19 33 20 34 70 35
REMARK SMILES IDX 21 36 75 37 69 38 71 39 22 40 74 41 68 42 67 43 23 45 55 46
REMARK SMILES IDX 35 47 54 48 36 49 39 50 53 51 72 52 37 53 38 54 52 56 73 57
REMARK SMILES IDX 40 58 24 59 25 60 33 61 26 62 27 63 31 64 34 65 28 66 29 67
REMARK SMILES IDX 32 68 30 69 56 70 57 71 65 72 58 73 59 74 63 75 66 76 60 77
REMARK SMILES IDX 61 78 64 79 62 80 41 81 42 82 50 83 43 84 44 85 48 86 51 87
REMARK SMILES IDX 45 88 46 89 49 90 47 91
REMARK H PARENT 7 6 12 25 71 44 39 55
REMARK Flexibility Score: inf
ROOT
ATOM      1  C   UNL A   1      37.212  21.125  24.638  1.00  0.00     0.023 C 
ENDROOT
BRANCH   1   2
ATOM      2  C   UNL A   1      36.053  21.356  25.604  1.00  0.00     0.116 C 
BRANCH   2   3
ATOM      3  N   UNL A   1      34.900  20.522  25.284  1.00  0.00    -0.354 N 
ATOM      4  C   UNL A   1      33.550  20.801  25.245  1.00  0.00     0.247 C 
ATOM      5  O   UNL A   1      32.821  19.816  25.132  1.00  0.00    -0.272 OA
ATOM      6  H   UNL A   1      35.127  19.593  25.053  1.00  0.00     0.163 HD
BRANCH   4   7
ATOM      7  C   UNL A   1      33.035  22.273  25.378  1.00  0.00     0.142 C 
ATOM      8  C   UNL A   1      31.499  22.127  25.519  1.00  0.00     0.048 C 
BRANCH   7   9
ATOM      9  C   UNL A   1      33.790  22.870  26.616  1.00  0.00     0.037 C 
ATOM     10  C   UNL A   1      33.307  22.457  27.994  1.00  0.00     0.007 C 
ENDBRANCH   7   9
BRANCH   7  11
ATOM     11  N   UNL A   1      33.395  23.101  24.200  1.00  0.00    -0.207 N 
ATOM     12  N   UNL A   1      34.053  22.538  23.158  1.00  0.00    -0.044 NA
ATOM     13  C   UNL A   1      33.463  24.478  24.040  1.00  0.00     0.218 A 
ATOM     14  N   UNL A   1      34.374  23.528  22.343  1.00  0.00    -0.023 NA
ATOM     15  N   UNL A   1      34.035  24.735  22.882  1.00  0.00    -0.105 NA
BRANCH  13  16
ATOM     16  C   UNL A   1      33.060  25.501  24.953  1.00  0.00     0.172 A 
ATOM     17  C   UNL A   1      33.807  26.542  25.481  1.00  0.00     0.054 A 
ATOM     18  O   UNL A   1      31.789  25.581  25.467  1.00  0.00    -0.461 OA
ATOM     19  C   UNL A   1      32.990  27.215  26.422  1.00  0.00     0.043 A 
ATOM     20  C   UNL A   1      31.763  26.606  26.355  1.00  0.00     0.196 A 
ENDBRANCH  13  16
ENDBRANCH   7  11
ENDBRANCH   4   7
ENDBRANCH   2   3
ENDBRANCH   1   2
BRANCH   1  21
ATOM     21  C   UNL A   1      38.085  19.921  24.978  1.00  0.00     0.023 C 
BRANCH  21  22
ATOM     22  C   UNL A   1      39.259  20.222  25.901  1.00  0.00     0.116 C 
BRANCH  22  23
ATOM     23  N   UNL A   1      40.247  19.155  25.934  1.00  0.00    -0.352 N 
ATOM     24  C   UNL A   1      41.609  19.234  26.097  1.00  0.00     0.251 C 
ATOM     25  H   UNL A   1      39.888  18.244  25.825  1.00  0.00     0.163 HD
ATOM     26  O   UNL A   1      42.303  18.237  25.962  1.00  0.00    -0.269 OA
BRANCH  24  27
ATOM     27  C   UNL A   1      42.235  20.540  26.397  1.00  0.00     0.039 A 
ATOM     28  C   UNL A   1      42.725  21.305  25.337  1.00  0.00     0.014 A 
ATOM     29  C   UNL A   1      42.320  21.018  27.708  1.00  0.00     0.014 A 
ATOM     30  C   UNL A   1      43.233  22.580  25.584  1.00  0.00     0.010 A 
ATOM     31  C   UNL A   1      42.749  22.322  27.943  1.00  0.00     0.010 A 
ATOM     32  C   UNL A   1      43.209  23.118  26.884  1.00  0.00    -0.014 A 
BRANCH  32  33
ATOM     33  C   UNL A   1      43.635  24.519  27.131  1.00  0.00     0.031 A 
ATOM     34  C   UNL A   1      42.657  25.536  27.649  1.00  0.00     0.074 A 
ATOM     35  C   UNL A   1      44.904  24.880  26.854  1.00  0.00     0.049 A 
ATOM     36  N   UNL A   1      42.849  26.804  27.918  1.00  0.00    -0.248 NA
ATOM     37  C   UNL A   1      41.276  25.081  27.874  1.00  0.00     0.031 C 
ATOM     38  C   UNL A   1      45.929  24.000  26.290  1.00  0.00     0.029 A 
ATOM     39  N   UNL A   1      45.549  26.082  27.006  1.00  0.00    -0.354 N 
ATOM     40  C   UNL A   1      41.621  27.291  28.346  1.00  0.00     0.074 A 
ATOM     41  C   UNL A   1      40.674  26.203  28.239  1.00  0.00     0.031 C 
ATOM     42  C   UNL A   1      47.080  24.679  26.174  1.00  0.00     0.029 A 
ATOM     43  C   UNL A   1      46.866  26.054  26.617  1.00  0.00     0.049 A 
ATOM     44  H   UNL A   1      45.109  26.888  27.360  1.00  0.00     0.167 HD
ATOM     45  C   UNL A   1      41.318  28.525  28.814  1.00  0.00     0.037 A 
ATOM     46  C   UNL A   1      47.796  27.028  26.613  1.00  0.00     0.037 A 
ATOM     47  C   UNL A   1      42.266  29.605  28.929  1.00  0.00     0.049 A 
ATOM     48  C   UNL A   1      47.423  28.393  27.125  1.00  0.00     0.074 A 
ATOM     49  C   UNL A   1      42.064  30.880  29.429  1.00  0.00     0.029 A 
ATOM     50  N   UNL A   1      43.593  29.537  28.532  1.00  0.00    -0.354 N 
ATOM     51  N   UNL A   1      46.278  28.819  27.599  1.00  0.00    -0.248 NA
ATOM     52  C   UNL A   1      48.481  29.414  27.111  1.00  0.00     0.031 C 
ATOM     53  C   UNL A   1      43.256  31.598  29.289  1.00  0.00     0.029 A 
ATOM     54  C   UNL A   1      44.217  30.755  28.758  1.00  0.00     0.049 A 
ATOM     55  H   UNL A   1      44.028  28.741  28.149  1.00  0.00     0.167 HD
ATOM     56  C   UNL A   1      46.483  30.143  27.965  1.00  0.00     0.074 A 
ATOM     57  C   UNL A   1      47.872  30.440  27.685  1.00  0.00     0.031 C 
ATOM     58  C   UNL A   1      45.601  31.035  28.477  1.00  0.00     0.037 A 
BRANCH  45  59
ATOM     59  C   UNL A   1      39.906  28.777  29.258  1.00  0.00     0.064 A 
ATOM     60  C   UNL A   1      38.930  29.244  28.363  1.00  0.00     0.173 A 
ATOM     61  C   UNL A   1      39.504  28.487  30.571  1.00  0.00     0.173 A 
ATOM     62  F   UNL A   1      39.262  29.548  27.100  1.00  0.00    -0.203 F 
ATOM     63  C   UNL A   1      37.611  29.426  28.771  1.00  0.00     0.198 A 
ATOM     64  C   UNL A   1      38.178  28.641  30.966  1.00  0.00     0.198 A 
ATOM     65  F   UNL A   1      40.395  28.033  31.465  1.00  0.00    -0.203 F 
ATOM     66  F   UNL A   1      36.706  29.911  27.909  1.00  0.00    -0.200 F 
ATOM     67  C   UNL A   1      37.234  29.115  30.068  1.00  0.00     0.200 A 
ATOM     68  F   UNL A   1      37.812  28.326  32.217  1.00  0.00    -0.200 F 
ATOM     69  F   UNL A   1      35.961  29.275  30.454  1.00  0.00    -0.200 F 
ENDBRANCH  45  59
BRANCH  46  70
ATOM     70  C   UNL A   1      49.172  26.753  26.117  1.00  0.00     0.064 A 
ATOM     71  C   UNL A   1      49.525  27.005  24.784  1.00  0.00     0.173 A 
ATOM     72  C   UNL A   1      50.150  26.195  26.955  1.00  0.00     0.173 A 
ATOM     73  F   UNL A   1      48.621  27.520  23.937  1.00  0.00    -0.203 F 
ATOM     74  C   UNL A   1      50.789  26.672  24.297  1.00  0.00     0.198 A 
ATOM     75  C   UNL A   1      51.424  25.898  26.477  1.00  0.00     0.198 A 
ATOM     76  F   UNL A   1      49.868  25.942  28.241  1.00  0.00    -0.203 F 
ATOM     77  F   UNL A   1      51.076  26.860  23.002  1.00  0.00    -0.200 F 
ATOM     78  C   UNL A   1      51.737  26.123  25.145  1.00  0.00     0.200 A 
ATOM     79  F   UNL A   1      52.344  25.384  27.304  1.00  0.00    -0.200 F 
ATOM     80  F   UNL A   1      52.951  25.799  24.676  1.00  0.00    -0.200 F 
ENDBRANCH  46  70
BRANCH  58  81
ATOM     81  C   UNL A   1      46.125  32.407  28.796  1.00  0.00     0.064 A 
ATOM     82  C   UNL A   1      46.087  33.450  27.857  1.00  0.00     0.173 A 
ATOM     83  C   UNL A   1      46.668  32.685  30.061  1.00  0.00     0.173 A 
ATOM     84  F   UNL A   1      45.591  33.234  26.629  1.00  0.00    -0.203 F 
ATOM     85  C   UNL A   1      46.612  34.704  28.157  1.00  0.00     0.198 A 
ATOM     86  C   UNL A   1      47.157  33.950  30.370  1.00  0.00     0.198 A 
ATOM     87  F   UNL A   1      46.720  31.727  31.000  1.00  0.00    -0.203 F 
ATOM     88  F   UNL A   1      46.627  35.662  27.220  1.00  0.00    -0.200 F 
ATOM     89  C   UNL A   1      47.141  34.955  29.414  1.00  0.00     0.200 A 
ATOM     90  F   UNL A   1      47.651  34.196  31.590  1.00  0.00    -0.200 F 
ATOM     91  F   UNL A   1      47.646  36.162  29.700  1.00  0.00    -0.200 F 
ENDBRANCH  58  81
ENDBRANCH  32  33
ENDBRANCH  24  27
ENDBRANCH  22  23
ENDBRANCH  21  22
ENDBRANCH   1  21
TORSDOF 14
ENDMDL
MODEL 3
REMARK VINA RESULT:     -11.8      5.781     11.246
REMARK SMILES CC[C@](C)(C(=O)NCCCCNC(=O)c1ccc(-c2c3nc(c(-c4c(F)c(F)c(F)c(F)c4F)c4ccc([nH]4)c(-c4c(F)c(F)c(F)c(F)c4F)c4nc(c(-c5c(F)c(F)c(F)c(F)c5F)c5ccc2[nH]5)C=C4)C=C3)cc1)n1nnnc1-c1ccco1
REMARK SMILES IDX 9 1 8 2 7 3 5 4 6 5 3 7 4 8 2 9 1 10 78 11 79 12 82 13 80 14
REMARK SMILES IDX 81 15 83 16 84 17 87 18 85 19 86 20 10 21 11 22 12 23 13 24
REMARK SMILES IDX 14 26 15 27 16 28 77 29 17 30 76 31 18 32 19 33 20 34 70 35
REMARK SMILES IDX 21 36 75 37 69 38 71 39 22 40 74 41 68 42 67 43 23 45 55 46
REMARK SMILES IDX 35 47 54 48 36 49 39 50 53 51 72 52 37 53 38 54 52 56 73 57
REMARK SMILES IDX 40 58 24 59 25 60 33 61 26 62 27 63 31 64 34 65 28 66 29 67
REMARK SMILES IDX 32 68 30 69 56 70 57 71 65 72 58 73 59 74 63 75 66 76 60 77
REMARK SMILES IDX 61 78 64 79 62 80 41 81 42 82 50 83 43 84 44 85 48 86 51 87
REMARK SMILES IDX 45 88 46 89 49 90 47 91
REMARK H PARENT 7 6 12 25 71 44 39 55
REMARK Flexibility Score: inf
ROOT
ATOM      1  C   UNL A   1      37.359  21.043  24.631  1.00  0.00     0.023 C 
ENDROOT
BRANCH   1   2
ATOM      2  C   UNL A   1      36.182  21.347  25.554  1.00  0.00     0.116 C 
BRANCH   2   3
ATOM      3  N   UNL A   1      35.040  20.482  25.287  1.00  0.00    -0.354 N 
ATOM      4  C   UNL A   1      33.684  20.731  25.276  1.00  0.00     0.247 C 
ATOM      5  O   UNL A   1      32.973  19.727  25.209  1.00  0.00    -0.272 OA
ATOM      6  H   UNL A   1      35.281  19.551  25.075  1.00  0.00     0.163 HD
BRANCH   4   7
ATOM      7  C   UNL A   1      33.141  22.194  25.383  1.00  0.00     0.142 C 
ATOM      8  C   UNL A   1      31.607  22.021  25.529  1.00  0.00     0.048 C 
BRANCH   7   9
ATOM      9  C   UNL A   1      33.885  22.828  26.608  1.00  0.00     0.037 C 
ATOM     10  C   UNL A   1      33.425  22.416  27.994  1.00  0.00     0.007 C 
ENDBRANCH   7   9
BRANCH   7  11
ATOM     11  N   UNL A   1      33.483  23.008  24.190  1.00  0.00    -0.207 N 
ATOM     12  N   UNL A   1      34.151  22.439  23.157  1.00  0.00    -0.044 NA
ATOM     13  C   UNL A   1      33.522  24.383  24.004  1.00  0.00     0.218 A 
ATOM     14  N   UNL A   1      34.451  23.420  22.323  1.00  0.00    -0.023 NA
ATOM     15  N   UNL A   1      34.089  24.629  22.841  1.00  0.00    -0.105 NA
BRANCH  13  16
ATOM     16  C   UNL A   1      33.100  25.414  24.898  1.00  0.00     0.172 A 
ATOM     17  C   UNL A   1      33.865  26.357  25.565  1.00  0.00     0.054 A 
ATOM     18  O   UNL A   1      31.785  25.609  25.240  1.00  0.00    -0.461 OA
ATOM     19  C   UNL A   1      32.997  27.082  26.416  1.00  0.00     0.043 A 
ATOM     20  C   UNL A   1      31.737  26.605  26.160  1.00  0.00     0.196 A 
ENDBRANCH  13  16
ENDBRANCH   7  11
ENDBRANCH   4   7
ENDBRANCH   2   3
ENDBRANCH   1   2
BRANCH   1  21
ATOM     21  C   UNL A   1      38.171  19.815  25.030  1.00  0.00     0.023 C 
BRANCH  21  22
ATOM     22  C   UNL A   1      39.346  20.097  25.958  1.00  0.00     0.116 C 
BRANCH  22  23
ATOM     23  N   UNL A   1      40.358  19.053  25.931  1.00  0.00    -0.352 N 
ATOM     24  C   UNL A   1      41.722  19.159  26.062  1.00  0.00     0.251 C 
ATOM     25  H   UNL A   1      40.017  18.138  25.802  1.00  0.00     0.163 HD
ATOM     26  O   UNL A   1      42.435  18.183  25.877  1.00  0.00    -0.269 OA
BRANCH  24  27
ATOM     27  C   UNL A   1      42.325  20.469  26.390  1.00  0.00     0.039 A 
ATOM     28  C   UNL A   1      42.822  21.254  25.347  1.00  0.00     0.014 A 
ATOM     29  C   UNL A   1      42.383  20.931  27.708  1.00  0.00     0.014 A 
ATOM     30  C   UNL A   1      43.309  22.533  25.620  1.00  0.00     0.010 A 
ATOM     31  C   UNL A   1      42.790  22.237  27.967  1.00  0.00     0.010 A 
ATOM     32  C   UNL A   1      43.256  23.052  26.926  1.00  0.00    -0.014 A 
BRANCH  32  33
ATOM     33  C   UNL A   1      43.660  24.456  27.198  1.00  0.00     0.031 A 
ATOM     34  C   UNL A   1      42.653  25.463  27.679  1.00  0.00     0.074 A 
ATOM     35  C   UNL A   1      44.937  24.829  26.977  1.00  0.00     0.049 A 
ATOM     36  N   UNL A   1      42.822  26.731  27.962  1.00  0.00    -0.248 NA
ATOM     37  C   UNL A   1      41.267  24.995  27.842  1.00  0.00     0.031 C 
ATOM     38  C   UNL A   1      45.993  23.960  26.453  1.00  0.00     0.029 A 
ATOM     39  N   UNL A   1      45.564  26.035  27.162  1.00  0.00    -0.354 N 
ATOM     40  C   UNL A   1      41.573  27.205  28.339  1.00  0.00     0.074 A 
ATOM     41  C   UNL A   1      40.641  26.110  28.187  1.00  0.00     0.031 C 
ATOM     42  C   UNL A   1      47.141  24.649  26.390  1.00  0.00     0.029 A 
ATOM     43  C   UNL A   1      46.897  26.020  26.830  1.00  0.00     0.049 A 
ATOM     44  H   UNL A   1      45.103  26.836  27.502  1.00  0.00     0.167 HD
ATOM     45  C   UNL A   1      41.240  28.434  28.801  1.00  0.00     0.037 A 
ATOM     46  C   UNL A   1      47.818  27.001  26.871  1.00  0.00     0.037 A 
ATOM     47  C   UNL A   1      42.173  29.521  28.961  1.00  0.00     0.049 A 
ATOM     48  C   UNL A   1      47.413  28.361  27.373  1.00  0.00     0.074 A 
ATOM     49  C   UNL A   1      41.939  30.791  29.459  1.00  0.00     0.029 A 
ATOM     50  N   UNL A   1      43.516  29.465  28.622  1.00  0.00    -0.354 N 
ATOM     51  N   UNL A   1      46.245  28.774  27.801  1.00  0.00    -0.248 NA
ATOM     52  C   UNL A   1      48.461  29.390  27.410  1.00  0.00     0.031 C 
ATOM     53  C   UNL A   1      43.130  31.520  29.373  1.00  0.00     0.029 A 
ATOM     54  C   UNL A   1      44.120  30.687  28.880  1.00  0.00     0.049 A 
ATOM     55  H   UNL A   1      43.974  28.676  28.253  1.00  0.00     0.167 HD
ATOM     56  C   UNL A   1      46.423  30.098  28.181  1.00  0.00     0.074 A 
ATOM     57  C   UNL A   1      47.820  30.408  27.963  1.00  0.00     0.031 C 
ATOM     58  C   UNL A   1      45.513  30.981  28.659  1.00  0.00     0.037 A 
BRANCH  45  59
ATOM     59  C   UNL A   1      39.808  28.672  29.185  1.00  0.00     0.064 A 
ATOM     60  C   UNL A   1      39.352  28.440  30.492  1.00  0.00     0.173 A 
ATOM     61  C   UNL A   1      38.896  29.202  28.258  1.00  0.00     0.173 A 
ATOM     62  F   UNL A   1      40.179  27.924  31.414  1.00  0.00    -0.203 F 
ATOM     63  C   UNL A   1      38.035  28.711  30.851  1.00  0.00     0.198 A 
ATOM     64  C   UNL A   1      37.588  29.501  28.629  1.00  0.00     0.198 A 
ATOM     65  F   UNL A   1      39.281  29.447  26.996  1.00  0.00    -0.203 F 
ATOM     66  F   UNL A   1      37.613  28.444  32.095  1.00  0.00    -0.200 F 
ATOM     67  C   UNL A   1      37.157  29.251  29.924  1.00  0.00     0.200 A 
ATOM     68  F   UNL A   1      36.745  30.036  27.736  1.00  0.00    -0.200 F 
ATOM     69  F   UNL A   1      35.894  29.528  30.276  1.00  0.00    -0.200 F 
ENDBRANCH  45  59
BRANCH  46  70
ATOM     70  C   UNL A   1      49.216  26.740  26.433  1.00  0.00     0.064 A 
ATOM     71  C   UNL A   1      49.603  26.921  25.097  1.00  0.00     0.173 A 
ATOM     72  C   UNL A   1      50.184  26.266  27.331  1.00  0.00     0.173 A 
ATOM     73  F   UNL A   1      48.710  27.353  24.194  1.00  0.00    -0.203 F 
ATOM     74  C   UNL A   1      50.890  26.599  24.669  1.00  0.00     0.198 A 
ATOM     75  C   UNL A   1      51.481  25.981  26.910  1.00  0.00     0.198 A 
ATOM     76  F   UNL A   1      49.871  26.084  28.622  1.00  0.00    -0.203 F 
ATOM     77  F   UNL A   1      51.211  26.716  23.373  1.00  0.00    -0.200 F 
ATOM     78  C   UNL A   1      51.828  26.134  25.577  1.00  0.00     0.200 A 
ATOM     79  F   UNL A   1      52.390  25.549  27.794  1.00  0.00    -0.200 F 
ATOM     80  F   UNL A   1      53.064  25.821  25.164  1.00  0.00    -0.200 F 
ENDBRANCH  46  70
BRANCH  58  81
ATOM     81  C   UNL A   1      46.011  32.355  29.008  1.00  0.00     0.064 A 
ATOM     82  C   UNL A   1      46.511  32.659  30.284  1.00  0.00     0.173 A 
ATOM     83  C   UNL A   1      45.995  33.381  28.050  1.00  0.00     0.173 A 
ATOM     84  F   UNL A   1      46.536  31.717  31.240  1.00  0.00    -0.203 F 
ATOM     85  C   UNL A   1      46.932  33.946  30.601  1.00  0.00     0.198 A 
ATOM     86  C   UNL A   1      46.453  34.658  28.359  1.00  0.00     0.198 A 
ATOM     87  F   UNL A   1      45.537  33.144  26.811  1.00  0.00    -0.203 F 
ATOM     88  F   UNL A   1      47.339  34.228  31.846  1.00  0.00    -0.200 F 
ATOM     89  C   UNL A   1      46.909  34.944  29.638  1.00  0.00     0.200 A 
ATOM     90  F   UNL A   1      46.446  35.616  27.422  1.00  0.00    -0.200 F 
ATOM     91  F   UNL A   1      47.314  36.183  29.945  1.00  0.00    -0.200 F 
ENDBRANCH  58  81
ENDBRANCH  32  33
ENDBRANCH  24  27
ENDBRANCH  22  23
ENDBRANCH  21  22
ENDBRANCH   1  21
TORSDOF 14
ENDMDL
