MODEL 1
REMARK VINA RESULT:     -12.1      0.000      0.000
REMARK SMILES O=C(NCCCCNC(=O)c1cc(-c2ccn(C(F)F)c(=O)c2)ccc1O)c1ccc(-c2c3nc(c(-c4c(F)c(F)c(F)c(F)c4F)c4ccc([nH]4)c(-c4c(F)c(F)c(F)c(F)c4F)c4nc(c(-c5c(F)c(F)c(F)c(F)c5F)c5ccc2[nH]5)C=C4)C=C3)cc1
REMARK SMILES IDX 5 1 4 2 3 3 1 4 2 5 28 7 29 8 90 9 30 10 89 11 31 12 32 13
REMARK SMILES IDX 33 14 83 15 34 16 88 17 82 18 84 19 35 20 87 21 81 22 80 23
REMARK SMILES IDX 36 25 68 26 48 27 67 28 49 29 52 30 66 31 85 32 50 33 51 34
REMARK SMILES IDX 65 36 86 37 53 38 37 39 38 40 46 41 39 42 40 43 44 44 47 45
REMARK SMILES IDX 41 46 42 47 45 48 43 49 69 50 70 51 78 52 71 53 72 54 76 55
REMARK SMILES IDX 79 56 73 57 74 58 77 59 75 60 54 61 55 62 63 63 56 64 57 65
REMARK SMILES IDX 61 66 64 67 58 68 59 69 62 70 60 71 6 72 7 73 8 74 9 75
REMARK SMILES IDX 10 77 11 78 12 79 26 80 13 81 25 82 24 83 27 84 14 86 15 87
REMARK SMILES IDX 23 88 16 89 21 90 17 91 22 92 18 93 19 94 20 95
REMARK H PARENT 3 6 84 24 52 35 8 76 27 85
REMARK Flexibility Score: inf
ROOT
ATOM      1  C   UNL A   1      33.491  27.371  26.218  1.00  0.00     0.023 C 
ENDROOT
BRANCH   1   2
ATOM      2  C   UNL A   1      34.325  28.547  25.729  1.00  0.00     0.116 C 
BRANCH   2   3
ATOM      3  N   UNL A   1      33.881  29.821  26.274  1.00  0.00    -0.352 N 
ATOM      4  O   UNL A   1      33.789  31.540  27.727  1.00  0.00    -0.269 OA
ATOM      5  C   UNL A   1      34.395  30.552  27.316  1.00  0.00     0.251 C 
ATOM      6  H   UNL A   1      33.096  30.216  25.830  1.00  0.00     0.163 HD
BRANCH   5   7
ATOM      7  C   UNL A   1      35.664  30.150  27.958  1.00  0.00     0.039 A 
ATOM      8  C   UNL A   1      36.870  30.447  27.316  1.00  0.00     0.014 A 
ATOM      9  C   UNL A   1      35.673  29.460  29.172  1.00  0.00     0.014 A 
ATOM     10  C   UNL A   1      38.081  30.082  27.910  1.00  0.00     0.010 A 
ATOM     11  C   UNL A   1      36.879  29.190  29.811  1.00  0.00     0.010 A 
ATOM     12  C   UNL A   1      38.097  29.465  29.171  1.00  0.00    -0.014 A 
BRANCH  12  13
ATOM     13  C   UNL A   1      39.368  29.023  29.799  1.00  0.00     0.031 A 
ATOM     14  C   UNL A   1      39.864  29.721  31.039  1.00  0.00     0.074 A 
ATOM     15  C   UNL A   1      40.087  28.022  29.254  1.00  0.00     0.049 A 
ATOM     16  N   UNL A   1      40.975  29.534  31.708  1.00  0.00    -0.248 NA
ATOM     17  C   UNL A   1      39.015  30.793  31.587  1.00  0.00     0.031 C 
ATOM     18  C   UNL A   1      39.730  27.289  28.039  1.00  0.00     0.029 A 
ATOM     19  N   UNL A   1      41.270  27.449  29.651  1.00  0.00    -0.354 N 
ATOM     20  C   UNL A   1      40.959  30.469  32.734  1.00  0.00     0.074 A 
ATOM     21  C   UNL A   1      39.768  31.268  32.568  1.00  0.00     0.031 C 
ATOM     22  C   UNL A   1      40.655  26.343  27.809  1.00  0.00     0.029 A 
ATOM     23  C   UNL A   1      41.692  26.428  28.833  1.00  0.00     0.049 A 
ATOM     24  H   UNL A   1      41.769  27.741  30.448  1.00  0.00     0.167 HD
ATOM     25  C   UNL A   1      41.842  30.624  33.747  1.00  0.00     0.037 A 
ATOM     26  C   UNL A   1      42.795  25.655  28.899  1.00  0.00     0.037 A 
ATOM     27  C   UNL A   1      42.998  29.793  33.943  1.00  0.00     0.049 A 
ATOM     28  C   UNL A   1      43.768  25.860  30.031  1.00  0.00     0.074 A 
ATOM     29  C   UNL A   1      43.916  29.830  34.977  1.00  0.00     0.029 A 
ATOM     30  N   UNL A   1      43.388  28.770  33.092  1.00  0.00    -0.354 N 
ATOM     31  N   UNL A   1      43.709  26.708  31.030  1.00  0.00    -0.248 NA
ATOM     32  C   UNL A   1      44.961  25.000  30.049  1.00  0.00     0.031 C 
ATOM     33  C   UNL A   1      44.892  28.866  34.725  1.00  0.00     0.029 A 
ATOM     34  C   UNL A   1      44.552  28.188  33.566  1.00  0.00     0.049 A 
ATOM     35  H   UNL A   1      42.912  28.500  32.275  1.00  0.00     0.167 HD
ATOM     36  C   UNL A   1      44.837  26.468  31.803  1.00  0.00     0.074 A 
ATOM     37  C   UNL A   1      45.555  25.382  31.171  1.00  0.00     0.031 C 
ATOM     38  C   UNL A   1      45.244  27.095  32.933  1.00  0.00     0.037 A 
BRANCH  25  39
ATOM     39  C   UNL A   1      41.587  31.710  34.750  1.00  0.00     0.064 A 
ATOM     40  C   UNL A   1      42.185  32.973  34.632  1.00  0.00     0.173 A 
ATOM     41  C   UNL A   1      40.657  31.517  35.784  1.00  0.00     0.173 A 
ATOM     42  F   UNL A   1      43.090  33.203  33.669  1.00  0.00    -0.203 F 
ATOM     43  C   UNL A   1      41.868  34.001  35.514  1.00  0.00     0.198 A 
ATOM     44  C   UNL A   1      40.319  32.558  36.645  1.00  0.00     0.198 A 
ATOM     45  F   UNL A   1      40.054  30.329  35.939  1.00  0.00    -0.203 F 
ATOM     46  F   UNL A   1      42.471  35.192  35.397  1.00  0.00    -0.200 F 
ATOM     47  C   UNL A   1      40.924  33.797  36.510  1.00  0.00     0.200 A 
ATOM     48  F   UNL A   1      39.396  32.364  37.597  1.00  0.00    -0.200 F 
ATOM     49  F   UNL A   1      40.597  34.797  37.340  1.00  0.00    -0.200 F 
ENDBRANCH  25  39
BRANCH  26  50
ATOM     50  C   UNL A   1      43.026  24.599  27.877  1.00  0.00     0.064 A 
ATOM     51  C   UNL A   1      42.647  23.270  28.112  1.00  0.00     0.173 A 
ATOM     52  C   UNL A   1      43.633  24.894  26.646  1.00  0.00     0.173 A 
ATOM     53  F   UNL A   1      42.084  22.932  29.282  1.00  0.00    -0.203 F 
ATOM     54  C   UNL A   1      42.882  22.274  27.166  1.00  0.00     0.198 A 
ATOM     55  C   UNL A   1      43.838  23.903  25.688  1.00  0.00     0.198 A 
ATOM     56  F   UNL A   1      44.014  26.148  26.368  1.00  0.00    -0.203 F 
ATOM     57  F   UNL A   1      42.552  21.004  27.438  1.00  0.00    -0.200 F 
ATOM     58  C   UNL A   1      43.470  22.593  25.951  1.00  0.00     0.200 A 
ATOM     59  F   UNL A   1      44.392  24.218  24.509  1.00  0.00    -0.200 F 
ATOM     60  F   UNL A   1      43.689  21.636  25.040  1.00  0.00    -0.200 F 
ENDBRANCH  26  50
BRANCH  38  61
ATOM     61  C   UNL A   1      46.511  26.622  33.585  1.00  0.00     0.064 A 
ATOM     62  C   UNL A   1      47.748  27.211  33.291  1.00  0.00     0.173 A 
ATOM     63  C   UNL A   1      46.468  25.646  34.593  1.00  0.00     0.173 A 
ATOM     64  F   UNL A   1      47.840  28.142  32.330  1.00  0.00    -0.203 F 
ATOM     65  C   UNL A   1      48.898  26.836  33.978  1.00  0.00     0.198 A 
ATOM     66  C   UNL A   1      47.615  25.296  35.299  1.00  0.00     0.198 A 
ATOM     67  F   UNL A   1      45.305  25.061  34.920  1.00  0.00    -0.203 F 
ATOM     68  F   UNL A   1      50.076  27.395  33.664  1.00  0.00    -0.200 F 
ATOM     69  C   UNL A   1      48.829  25.890  34.990  1.00  0.00     0.200 A 
ATOM     70  F   UNL A   1      47.541  24.398  36.291  1.00  0.00    -0.200 F 
ATOM     71  F   UNL A   1      49.933  25.551  35.670  1.00  0.00    -0.200 F 
ENDBRANCH  38  61
ENDBRANCH  12  13
ENDBRANCH   5   7
ENDBRANCH   2   3
ENDBRANCH   1   2
BRANCH   1  72
ATOM     72  C   UNL A   1      32.002  27.659  26.384  1.00  0.00     0.023 C 
BRANCH  72  73
ATOM     73  C   UNL A   1      31.072  26.636  25.742  1.00  0.00     0.116 C 
BRANCH  73  74
ATOM     74  N   UNL A   1      30.739  25.541  26.638  1.00  0.00    -0.352 N 
ATOM     75  C   UNL A   1      31.116  24.223  26.540  1.00  0.00     0.255 C 
ATOM     76  H   UNL A   1      30.173  25.772  27.410  1.00  0.00     0.163 HD
ATOM     77  O   UNL A   1      30.699  23.394  27.344  1.00  0.00    -0.269 OA
BRANCH  75  78
ATOM     78  C   UNL A   1      31.955  23.791  25.406  1.00  0.00     0.082 A 
ATOM     79  C   UNL A   1      33.307  23.533  25.669  1.00  0.00     0.026 A 
ATOM     80  C   UNL A   1      31.432  23.603  24.120  1.00  0.00     0.128 A 
ATOM     81  C   UNL A   1      34.123  23.024  24.655  1.00  0.00    -0.017 A 
ATOM     82  C   UNL A   1      32.239  23.085  23.111  1.00  0.00     0.047 A 
ATOM     83  C   UNL A   1      33.575  22.786  23.384  1.00  0.00     0.012 A 
BRANCH  80  84
ATOM     84  O   UNL A   1      30.124  23.894  23.852  1.00  0.00    -0.507 OA
ATOM     85  H   UNL A   1      29.822  24.780  23.899  1.00  0.00     0.293 HD
ENDBRANCH  80  84
BRANCH  81  86
ATOM     86  C   UNL A   1      35.548  22.719  24.877  1.00  0.00    -0.011 A 
ATOM     87  C   UNL A   1      36.090  21.393  24.655  1.00  0.00     0.027 A 
ATOM     88  C   UNL A   1      36.344  23.674  25.387  1.00  0.00     0.080 A 
ATOM     89  C   UNL A   1      37.341  21.098  25.027  1.00  0.00     0.095 A 
ATOM     90  C   UNL A   1      37.749  23.368  25.781  1.00  0.00     0.255 A 
ATOM     91  N   UNL A   1      38.155  22.055  25.599  1.00  0.00    -0.258 N 
ATOM     92  O   UNL A   1      38.432  24.268  26.259  1.00  0.00    -0.269 OA
BRANCH  91  93
ATOM     93  C   UNL A   1      39.469  21.704  26.074  1.00  0.00     0.451 C 
ATOM     94  F   UNL A   1      39.613  21.986  27.391  1.00  0.00    -0.185 F 
ATOM     95  F   UNL A   1      39.705  20.381  25.897  1.00  0.00    -0.185 F 
ENDBRANCH  91  93
ENDBRANCH  81  86
ENDBRANCH  75  78
ENDBRANCH  73  74
ENDBRANCH  72  73
ENDBRANCH   1  72
TORSDOF 14
ENDMDL
MODEL 2
REMARK VINA RESULT:     -12.1      1.287      2.222
REMARK SMILES O=C(NCCCCNC(=O)c1cc(-c2ccn(C(F)F)c(=O)c2)ccc1O)c1ccc(-c2c3nc(c(-c4c(F)c(F)c(F)c(F)c4F)c4ccc([nH]4)c(-c4c(F)c(F)c(F)c(F)c4F)c4nc(c(-c5c(F)c(F)c(F)c(F)c5F)c5ccc2[nH]5)C=C4)C=C3)cc1
REMARK SMILES IDX 5 1 4 2 3 3 1 4 2 5 28 7 29 8 90 9 30 10 89 11 31 12 32 13
REMARK SMILES IDX 33 14 83 15 34 16 88 17 82 18 84 19 35 20 87 21 81 22 80 23
REMARK SMILES IDX 36 25 68 26 48 27 67 28 49 29 52 30 66 31 85 32 50 33 51 34
REMARK SMILES IDX 65 36 86 37 53 38 37 39 38 40 46 41 39 42 40 43 44 44 47 45
REMARK SMILES IDX 41 46 42 47 45 48 43 49 69 50 70 51 78 52 71 53 72 54 76 55
REMARK SMILES IDX 79 56 73 57 74 58 77 59 75 60 54 61 55 62 63 63 56 64 57 65
REMARK SMILES IDX 61 66 64 67 58 68 59 69 62 70 60 71 6 72 7 73 8 74 9 75
REMARK SMILES IDX 10 77 11 78 12 79 26 80 13 81 25 82 24 83 27 84 14 86 15 87
REMARK SMILES IDX 23 88 16 89 21 90 17 91 22 92 18 93 19 94 20 95
REMARK H PARENT 3 6 84 24 52 35 8 76 27 85
REMARK Flexibility Score: inf
ROOT
ATOM      1  C   UNL A   1      33.313  27.608  25.683  1.00  0.00     0.023 C 
ENDROOT
BRANCH   1   2
ATOM      2  C   UNL A   1      33.884  28.914  25.147  1.00  0.00     0.116 C 
BRANCH   2   3
ATOM      3  N   UNL A   1      33.232  30.088  25.707  1.00  0.00    -0.352 N 
ATOM      4  O   UNL A   1      32.760  31.671  27.240  1.00  0.00    -0.269 OA
ATOM      5  C   UNL A   1      33.521  30.786  26.853  1.00  0.00     0.251 C 
ATOM      6  H   UNL A   1      32.471  30.434  25.186  1.00  0.00     0.163 HD
BRANCH   5   7
ATOM      7  C   UNL A   1      34.736  30.469  27.635  1.00  0.00     0.039 A 
ATOM      8  C   UNL A   1      35.800  31.375  27.626  1.00  0.00     0.014 A 
ATOM      9  C   UNL A   1      34.842  29.276  28.353  1.00  0.00     0.014 A 
ATOM     10  C   UNL A   1      36.953  31.098  28.365  1.00  0.00     0.010 A 
ATOM     11  C   UNL A   1      35.946  29.050  29.169  1.00  0.00     0.010 A 
ATOM     12  C   UNL A   1      37.030  29.940  29.157  1.00  0.00    -0.014 A 
BRANCH  12  13
ATOM     13  C   UNL A   1      38.264  29.600  29.910  1.00  0.00     0.031 A 
ATOM     14  C   UNL A   1      38.478  30.182  31.283  1.00  0.00     0.074 A 
ATOM     15  C   UNL A   1      39.197  28.796  29.364  1.00  0.00     0.049 A 
ATOM     16  N   UNL A   1      39.508  30.062  32.082  1.00  0.00    -0.248 NA
ATOM     17  C   UNL A   1      37.406  31.037  31.821  1.00  0.00     0.031 C 
ATOM     18  C   UNL A   1      39.121  28.195  28.031  1.00  0.00     0.029 A 
ATOM     19  N   UNL A   1      40.395  28.346  29.862  1.00  0.00    -0.354 N 
ATOM     20  C   UNL A   1      39.212  30.834  33.198  1.00  0.00     0.074 A 
ATOM     21  C   UNL A   1      37.940  31.472  32.952  1.00  0.00     0.031 C 
ATOM     22  C   UNL A   1      40.207  27.430  27.831  1.00  0.00     0.029 A 
ATOM     23  C   UNL A   1      41.076  27.518  29.001  1.00  0.00     0.049 A 
ATOM     24  H   UNL A   1      40.734  28.592  30.753  1.00  0.00     0.167 HD
ATOM     25  C   UNL A   1      39.921  30.971  34.342  1.00  0.00     0.037 A 
ATOM     26  C   UNL A   1      42.270  26.907  29.139  1.00  0.00     0.037 A 
ATOM     27  C   UNL A   1      41.159  30.292  34.608  1.00  0.00     0.049 A 
ATOM     28  C   UNL A   1      43.044  27.089  30.419  1.00  0.00     0.074 A 
ATOM     29  C   UNL A   1      41.919  30.315  35.764  1.00  0.00     0.029 A 
ATOM     30  N   UNL A   1      41.814  29.463  33.710  1.00  0.00    -0.354 N 
ATOM     31  N   UNL A   1      42.722  27.773  31.490  1.00  0.00    -0.248 NA
ATOM     32  C   UNL A   1      44.347  26.412  30.512  1.00  0.00     0.031 C 
ATOM     33  C   UNL A   1      43.060  29.543  35.549  1.00  0.00     0.029 A 
ATOM     34  C   UNL A   1      42.985  28.991  34.280  1.00  0.00     0.049 A 
ATOM     35  H   UNL A   1      41.496  29.244  32.805  1.00  0.00     0.167 HD
ATOM     36  C   UNL A   1      43.765  27.589  32.390  1.00  0.00     0.074 A 
ATOM     37  C   UNL A   1      44.723  26.714  31.748  1.00  0.00     0.031 C 
ATOM     38  C   UNL A   1      43.918  28.105  33.633  1.00  0.00     0.037 A 
BRANCH  25  39
ATOM     39  C   UNL A   1      39.368  31.859  35.417  1.00  0.00     0.064 A 
ATOM     40  C   UNL A   1      38.540  31.356  36.431  1.00  0.00     0.173 A 
ATOM     41  C   UNL A   1      39.752  33.208  35.490  1.00  0.00     0.173 A 
ATOM     42  F   UNL A   1      38.134  30.078  36.398  1.00  0.00    -0.203 F 
ATOM     43  C   UNL A   1      38.112  32.169  37.476  1.00  0.00     0.198 A 
ATOM     44  C   UNL A   1      39.347  34.010  36.554  1.00  0.00     0.198 A 
ATOM     45  F   UNL A   1      40.546  33.738  34.548  1.00  0.00    -0.203 F 
ATOM     46  F   UNL A   1      37.301  31.673  38.420  1.00  0.00    -0.200 F 
ATOM     47  C   UNL A   1      38.527  33.491  37.544  1.00  0.00     0.200 A 
ATOM     48  F   UNL A   1      39.762  35.282  36.627  1.00  0.00    -0.200 F 
ATOM     49  F   UNL A   1      38.139  34.264  38.566  1.00  0.00    -0.200 F 
ENDBRANCH  25  39
BRANCH  26  50
ATOM     50  C   UNL A   1      42.797  26.047  28.045  1.00  0.00     0.064 A 
ATOM     51  C   UNL A   1      42.518  24.673  28.009  1.00  0.00     0.173 A 
ATOM     52  C   UNL A   1      43.590  26.577  27.017  1.00  0.00     0.173 A 
ATOM     53  F   UNL A   1      41.782  24.114  28.982  1.00  0.00    -0.203 F 
ATOM     54  C   UNL A   1      43.028  23.860  26.999  1.00  0.00     0.198 A 
ATOM     55  C   UNL A   1      44.073  25.768  25.989  1.00  0.00     0.198 A 
ATOM     56  F   UNL A   1      43.887  27.884  27.001  1.00  0.00    -0.203 F 
ATOM     57  F   UNL A   1      42.784  22.543  27.016  1.00  0.00    -0.200 F 
ATOM     58  C   UNL A   1      43.798  24.409  25.985  1.00  0.00     0.200 A 
ATOM     59  F   UNL A   1      44.804  26.306  25.003  1.00  0.00    -0.200 F 
ATOM     60  F   UNL A   1      44.281  23.628  25.010  1.00  0.00    -0.200 F 
ENDBRANCH  26  50
BRANCH  38  61
ATOM     61  C   UNL A   1      45.149  27.730  34.405  1.00  0.00     0.064 A 
ATOM     62  C   UNL A   1      45.189  26.578  35.201  1.00  0.00     0.173 A 
ATOM     63  C   UNL A   1      46.332  28.471  34.258  1.00  0.00     0.173 A 
ATOM     64  F   UNL A   1      44.082  25.842  35.379  1.00  0.00    -0.203 F 
ATOM     65  C   UNL A   1      46.367  26.183  35.828  1.00  0.00     0.198 A 
ATOM     66  C   UNL A   1      47.516  28.056  34.861  1.00  0.00     0.198 A 
ATOM     67  F   UNL A   1      46.349  29.575  33.496  1.00  0.00    -0.203 F 
ATOM     68  F   UNL A   1      46.377  25.091  36.605  1.00  0.00    -0.200 F 
ATOM     69  C   UNL A   1      47.532  26.914  35.647  1.00  0.00     0.200 A 
ATOM     70  F   UNL A   1      48.644  28.752  34.665  1.00  0.00    -0.200 F 
ATOM     71  F   UNL A   1      48.672  26.516  36.228  1.00  0.00    -0.200 F 
ENDBRANCH  38  61
ENDBRANCH  12  13
ENDBRANCH   5   7
ENDBRANCH   2   3
ENDBRANCH   1   2
BRANCH   1  72
ATOM     72  C   UNL A   1      31.842  27.663  26.083  1.00  0.00     0.023 C 
BRANCH  72  73
ATOM     73  C   UNL A   1      30.981  26.535  25.527  1.00  0.00     0.116 C 
BRANCH  73  74
ATOM     74  N   UNL A   1      30.732  25.485  26.501  1.00  0.00    -0.352 N 
ATOM     75  C   UNL A   1      31.212  24.198  26.500  1.00  0.00     0.255 C 
ATOM     76  H   UNL A   1      30.147  25.727  27.255  1.00  0.00     0.163 HD
ATOM     77  O   UNL A   1      30.860  23.400  27.363  1.00  0.00    -0.269 OA
BRANCH  75  78
ATOM     78  C   UNL A   1      32.087  23.752  25.398  1.00  0.00     0.082 A 
ATOM     79  C   UNL A   1      33.445  23.564  25.692  1.00  0.00     0.026 A 
ATOM     80  C   UNL A   1      31.594  23.483  24.115  1.00  0.00     0.128 A 
ATOM     81  C   UNL A   1      34.298  23.045  24.714  1.00  0.00    -0.017 A 
ATOM     82  C   UNL A   1      32.438  22.955  23.143  1.00  0.00     0.047 A 
ATOM     83  C   UNL A   1      33.781  22.727  23.448  1.00  0.00     0.012 A 
BRANCH  80  84
ATOM     84  O   UNL A   1      30.279  23.705  23.816  1.00  0.00    -0.507 OA
ATOM     85  H   UNL A   1      29.643  23.033  23.965  1.00  0.00     0.293 HD
ENDBRANCH  80  84
BRANCH  81  86
ATOM     86  C   UNL A   1      35.731  22.812  24.971  1.00  0.00    -0.011 A 
ATOM     87  C   UNL A   1      36.357  21.532  24.704  1.00  0.00     0.027 A 
ATOM     88  C   UNL A   1      36.453  23.785  25.553  1.00  0.00     0.080 A 
ATOM     89  C   UNL A   1      37.611  21.292  25.105  1.00  0.00     0.095 A 
ATOM     90  C   UNL A   1      37.860  23.541  25.979  1.00  0.00     0.255 A 
ATOM     91  N   UNL A   1      38.348  22.265  25.749  1.00  0.00    -0.258 N 
ATOM     92  O   UNL A   1      38.473  24.455  26.522  1.00  0.00    -0.269 OA
BRANCH  91  93
ATOM     93  C   UNL A   1      39.665  21.967  26.252  1.00  0.00     0.451 C 
ATOM     94  F   UNL A   1      39.730  22.118  27.596  1.00  0.00    -0.185 F 
ATOM     95  F   UNL A   1      40.015  20.692  25.952  1.00  0.00    -0.185 F 
ENDBRANCH  91  93
ENDBRANCH  81  86
ENDBRANCH  75  78
ENDBRANCH  73  74
ENDBRANCH  72  73
ENDBRANCH   1  72
TORSDOF 14
ENDMDL
MODEL 3
REMARK VINA RESULT:     -12.1      1.169      1.751
REMARK SMILES O=C(NCCCCNC(=O)c1cc(-c2ccn(C(F)F)c(=O)c2)ccc1O)c1ccc(-c2c3nc(c(-c4c(F)c(F)c(F)c(F)c4F)c4ccc([nH]4)c(-c4c(F)c(F)c(F)c(F)c4F)c4nc(c(-c5c(F)c(F)c(F)c(F)c5F)c5ccc2[nH]5)C=C4)C=C3)cc1
REMARK SMILES IDX 5 1 4 2 3 3 1 4 2 5 28 7 29 8 90 9 30 10 89 11 31 12 32 13
REMARK SMILES IDX 33 14 83 15 34 16 88 17 82 18 84 19 35 20 87 21 81 22 80 23
REMARK SMILES IDX 36 25 68 26 48 27 67 28 49 29 52 30 66 31 85 32 50 33 51 34
REMARK SMILES IDX 65 36 86 37 53 38 37 39 38 40 46 41 39 42 40 43 44 44 47 45
REMARK SMILES IDX 41 46 42 47 45 48 43 49 69 50 70 51 78 52 71 53 72 54 76 55
REMARK SMILES IDX 79 56 73 57 74 58 77 59 75 60 54 61 55 62 63 63 56 64 57 65
REMARK SMILES IDX 61 66 64 67 58 68 59 69 62 70 60 71 6 72 7 73 8 74 9 75
REMARK SMILES IDX 10 77 11 78 12 79 26 80 13 81 25 82 24 83 27 84 14 86 15 87
REMARK SMILES IDX 23 88 16 89 21 90 17 91 22 92 18 93 19 94 20 95
REMARK H PARENT 3 6 84 24 52 35 8 76 27 85
REMARK Flexibility Score: inf
ROOT
ATOM      1  C   UNL A   1      33.374  27.614  25.836  1.00  0.00     0.023 C 
ENDROOT
BRANCH   1   2
ATOM      2  C   UNL A   1      33.973  28.889  25.260  1.00  0.00     0.116 C 
BRANCH   2   3
ATOM      3  N   UNL A   1      33.370  30.095  25.807  1.00  0.00    -0.352 N 
ATOM      4  O   UNL A   1      32.980  31.724  27.314  1.00  0.00    -0.269 OA
ATOM      5  C   UNL A   1      33.705  30.808  26.931  1.00  0.00     0.251 C 
ATOM      6  H   UNL A   1      32.608  30.452  25.296  1.00  0.00     0.163 HD
BRANCH   5   7
ATOM      7  C   UNL A   1      34.927  30.471  27.693  1.00  0.00     0.039 A 
ATOM      8  C   UNL A   1      36.024  31.334  27.626  1.00  0.00     0.014 A 
ATOM      9  C   UNL A   1      35.006  29.299  28.450  1.00  0.00     0.014 A 
ATOM     10  C   UNL A   1      37.185  31.037  28.346  1.00  0.00     0.010 A 
ATOM     11  C   UNL A   1      36.121  29.059  29.246  1.00  0.00     0.010 A 
ATOM     12  C   UNL A   1      37.238  29.905  29.175  1.00  0.00    -0.014 A 
BRANCH  12  13
ATOM     13  C   UNL A   1      38.477  29.543  29.910  1.00  0.00     0.031 A 
ATOM     14  C   UNL A   1      38.746  30.157  31.258  1.00  0.00     0.074 A 
ATOM     15  C   UNL A   1      39.368  28.690  29.366  1.00  0.00     0.049 A 
ATOM     16  N   UNL A   1      39.791  30.025  32.037  1.00  0.00    -0.248 NA
ATOM     17  C   UNL A   1      37.718  31.066  31.796  1.00  0.00     0.031 C 
ATOM     18  C   UNL A   1      39.237  28.052  28.055  1.00  0.00     0.029 A 
ATOM     19  N   UNL A   1      40.561  28.212  29.850  1.00  0.00    -0.354 N 
ATOM     20  C   UNL A   1      39.550  30.840  33.134  1.00  0.00     0.074 A 
ATOM     21  C   UNL A   1      38.295  31.516  32.900  1.00  0.00     0.031 C 
ATOM     22  C   UNL A   1      40.290  27.243  27.853  1.00  0.00     0.029 A 
ATOM     23  C   UNL A   1      41.191  27.335  28.998  1.00  0.00     0.049 A 
ATOM     24  H   UNL A   1      40.930  28.472  30.724  1.00  0.00     0.167 HD
ATOM     25  C   UNL A   1      40.291  30.984  34.257  1.00  0.00     0.037 A 
ATOM     26  C   UNL A   1      42.365  26.685  29.127  1.00  0.00     0.037 A 
ATOM     27  C   UNL A   1      41.510  30.269  34.514  1.00  0.00     0.049 A 
ATOM     28  C   UNL A   1      43.176  26.876  30.383  1.00  0.00     0.074 A 
ATOM     29  C   UNL A   1      42.298  30.299  35.651  1.00  0.00     0.029 A 
ATOM     30  N   UNL A   1      42.113  29.391  33.627  1.00  0.00    -0.354 N 
ATOM     31  N   UNL A   1      42.906  27.603  31.440  1.00  0.00    -0.248 NA
ATOM     32  C   UNL A   1      44.456  26.156  30.466  1.00  0.00     0.031 C 
ATOM     33  C   UNL A   1      43.406  29.480  35.433  1.00  0.00     0.029 A 
ATOM     34  C   UNL A   1      43.280  28.894  34.183  1.00  0.00     0.049 A 
ATOM     35  H   UNL A   1      41.765  29.156  32.737  1.00  0.00     0.167 HD
ATOM     36  C   UNL A   1      43.963  27.409  32.319  1.00  0.00     0.074 A 
ATOM     37  C   UNL A   1      44.873  26.481  31.682  1.00  0.00     0.031 C 
ATOM     38  C   UNL A   1      44.165  27.956  33.542  1.00  0.00     0.037 A 
BRANCH  25  39
ATOM     39  C   UNL A   1      39.797  31.924  35.317  1.00  0.00     0.064 A 
ATOM     40  C   UNL A   1      40.196  33.269  35.347  1.00  0.00     0.173 A 
ATOM     41  C   UNL A   1      38.839  31.501  36.251  1.00  0.00     0.173 A 
ATOM     42  F   UNL A   1      41.119  33.719  34.484  1.00  0.00    -0.203 F 
ATOM     43  C   UNL A   1      39.658  34.154  36.277  1.00  0.00     0.198 A 
ATOM     44  C   UNL A   1      38.281  32.397  37.159  1.00  0.00     0.198 A 
ATOM     45  F   UNL A   1      38.421  30.227  36.262  1.00  0.00    -0.203 F 
ATOM     46  F   UNL A   1      40.073  35.428  36.303  1.00  0.00    -0.200 F 
ATOM     47  C   UNL A   1      38.691  33.721  37.172  1.00  0.00     0.200 A 
ATOM     48  F   UNL A   1      37.335  31.981  38.013  1.00  0.00    -0.200 F 
ATOM     49  F   UNL A   1      38.153  34.581  38.046  1.00  0.00    -0.200 F 
ENDBRANCH  25  39
BRANCH  26  50
ATOM     50  C   UNL A   1      42.833  25.774  28.048  1.00  0.00     0.064 A 
ATOM     51  C   UNL A   1      43.545  26.267  26.945  1.00  0.00     0.173 A 
ATOM     52  C   UNL A   1      42.579  24.395  28.094  1.00  0.00     0.173 A 
ATOM     53  F   UNL A   1      43.794  27.581  26.843  1.00  0.00    -0.203 F 
ATOM     54  C   UNL A   1      43.966  25.421  25.921  1.00  0.00     0.198 A 
ATOM     55  C   UNL A   1      43.029  23.545  27.085  1.00  0.00     0.198 A 
ATOM     56  F   UNL A   1      41.904  23.869  29.126  1.00  0.00    -0.203 F 
ATOM     57  F   UNL A   1      44.602  25.927  24.856  1.00  0.00    -0.200 F 
ATOM     58  C   UNL A   1      43.716  24.059  25.996  1.00  0.00     0.200 A 
ATOM     59  F   UNL A   1      42.798  22.227  27.169  1.00  0.00    -0.200 F 
ATOM     60  F   UNL A   1      44.127  23.245  25.015  1.00  0.00    -0.200 F 
ENDBRANCH  26  50
BRANCH  38  61
ATOM     61  C   UNL A   1      45.400  27.559  34.296  1.00  0.00     0.064 A 
ATOM     62  C   UNL A   1      46.574  28.321  34.227  1.00  0.00     0.173 A 
ATOM     63  C   UNL A   1      45.372  26.470  35.181  1.00  0.00     0.173 A 
ATOM     64  F   UNL A   1      46.653  29.366  33.389  1.00  0.00    -0.203 F 
ATOM     65  C   UNL A   1      47.679  28.003  35.011  1.00  0.00     0.198 A 
ATOM     66  C   UNL A   1      46.468  26.175  35.987  1.00  0.00     0.198 A 
ATOM     67  F   UNL A   1      44.267  25.717  35.294  1.00  0.00    -0.203 F 
ATOM     68  F   UNL A   1      48.801  28.730  34.911  1.00  0.00    -0.200 F 
ATOM     69  C   UNL A   1      47.621  26.940  35.900  1.00  0.00     0.200 A 
ATOM     70  F   UNL A   1      46.400  25.161  36.861  1.00  0.00    -0.200 F 
ATOM     71  F   UNL A   1      48.675  26.653  36.676  1.00  0.00    -0.200 F 
ENDBRANCH  38  61
ENDBRANCH  12  13
ENDBRANCH   5   7
ENDBRANCH   2   3
ENDBRANCH   1   2
BRANCH   1  72
ATOM     72  C   UNL A   1      31.882  27.683  26.145  1.00  0.00     0.023 C 
BRANCH  72  73
ATOM     73  C   UNL A   1      31.047  26.558  25.544  1.00  0.00     0.116 C 
BRANCH  73  74
ATOM     74  N   UNL A   1      30.759  25.501  26.498  1.00  0.00    -0.352 N 
ATOM     75  C   UNL A   1      31.205  24.202  26.482  1.00  0.00     0.255 C 
ATOM     76  H   UNL A   1      30.171  25.746  27.249  1.00  0.00     0.163 HD
ATOM     77  O   UNL A   1      30.822  23.399  27.328  1.00  0.00    -0.269 OA
BRANCH  75  78
ATOM     78  C   UNL A   1      32.082  23.750  25.384  1.00  0.00     0.082 A 
ATOM     79  C   UNL A   1      33.438  23.560  25.681  1.00  0.00     0.026 A 
ATOM     80  C   UNL A   1      31.590  23.478  24.100  1.00  0.00     0.128 A 
ATOM     81  C   UNL A   1      34.292  23.036  24.706  1.00  0.00    -0.017 A 
ATOM     82  C   UNL A   1      32.435  22.945  23.131  1.00  0.00     0.047 A 
ATOM     83  C   UNL A   1      33.777  22.715  23.440  1.00  0.00     0.012 A 
BRANCH  80  84
ATOM     84  O   UNL A   1      30.277  23.702  23.798  1.00  0.00    -0.507 OA
ATOM     85  H   UNL A   1      29.760  24.266  24.340  1.00  0.00     0.293 HD
ENDBRANCH  80  84
BRANCH  81  86
ATOM     86  C   UNL A   1      35.723  22.801  24.966  1.00  0.00    -0.011 A 
ATOM     87  C   UNL A   1      36.344  21.514  24.719  1.00  0.00     0.027 A 
ATOM     88  C   UNL A   1      36.450  23.779  25.534  1.00  0.00     0.080 A 
ATOM     89  C   UNL A   1      37.597  21.274  25.123  1.00  0.00     0.095 A 
ATOM     90  C   UNL A   1      37.856  23.535  25.965  1.00  0.00     0.255 A 
ATOM     91  N   UNL A   1      38.339  22.253  25.753  1.00  0.00    -0.258 N 
ATOM     92  O   UNL A   1      38.473  24.454  26.494  1.00  0.00    -0.269 OA
BRANCH  91  93
ATOM     93  C   UNL A   1      39.655  21.957  26.260  1.00  0.00     0.451 C 
ATOM     94  F   UNL A   1      39.761  22.264  27.575  1.00  0.00    -0.185 F 
ATOM     95  F   UNL A   1      39.941  20.642  26.109  1.00  0.00    -0.185 F 
ENDBRANCH  91  93
ENDBRANCH  81  86
ENDBRANCH  75  78
ENDBRANCH  73  74
ENDBRANCH  72  73
ENDBRANCH   1  72
TORSDOF 14
ENDMDL
