MODEL 1
REMARK VINA RESULT:     -11.4      0.000      0.000
REMARK SMILES O=C(NCCCCNC(=O)c1ccc(N2CNC(c3ccccc3)=[NH+]C2=S)cc1)c1ccc(-c2c3nc(c(-c4c(F)c(F)c(F)c(F)c4F)c4ccc([nH]4)c(-c4c(F)c(F)c(F)c(F)c4F)c4nc(c(-c5c(F)c(F)c(F)c(F)c5F)c5ccc2[nH]5)C=C4)C=C3)cc1
REMARK SMILES IDX 5 1 4 2 3 3 1 4 2 5 30 7 31 8 92 9 32 10 91 11 33 12 34 13
REMARK SMILES IDX 35 14 85 15 36 16 90 17 84 18 86 19 37 20 89 21 83 22 82 23
REMARK SMILES IDX 38 25 70 26 50 27 69 28 51 29 54 30 68 31 87 32 52 33 53 34
REMARK SMILES IDX 67 36 88 37 55 38 39 39 40 40 48 41 41 42 42 43 46 44 49 45
REMARK SMILES IDX 43 46 44 47 47 48 45 49 71 50 72 51 80 52 73 53 74 54 78 55
REMARK SMILES IDX 81 56 75 57 76 58 79 59 77 60 56 61 57 62 65 63 58 64 59 65
REMARK SMILES IDX 63 66 66 67 60 68 61 69 64 70 62 71 6 72 7 73 8 74 9 75
REMARK SMILES IDX 10 77 11 78 12 79 29 80 13 81 28 82 14 83 15 84 16 85 26 86
REMARK SMILES IDX 17 87 25 88 27 89 18 90 19 93 20 94 24 95 21 96 23 97 22 98
REMARK H PARENT 3 6 86 24 54 35 8 76 17 91 25 92
REMARK Flexibility Score: inf
ROOT
ATOM      1  C   UNL A   1      31.442  32.082  26.856  1.00  0.00     0.023 C 
ENDROOT
BRANCH   1   2
ATOM      2  C   UNL A   1      32.722  32.869  27.102  1.00  0.00     0.116 C 
BRANCH   2   3
ATOM      3  N   UNL A   1      32.477  34.203  27.626  1.00  0.00    -0.352 N 
ATOM      4  O   UNL A   1      32.643  35.931  29.069  1.00  0.00    -0.269 OA
ATOM      5  C   UNL A   1      33.073  34.848  28.684  1.00  0.00     0.251 C 
ATOM      6  H   UNL A   1      31.784  34.720  27.156  1.00  0.00     0.163 HD
BRANCH   5   7
ATOM      7  C   UNL A   1      34.220  34.225  29.378  1.00  0.00     0.039 A 
ATOM      8  C   UNL A   1      35.532  34.500  28.983  1.00  0.00     0.014 A 
ATOM      9  C   UNL A   1      33.977  33.357  30.446  1.00  0.00     0.014 A 
ATOM     10  C   UNL A   1      36.587  33.799  29.557  1.00  0.00     0.010 A 
ATOM     11  C   UNL A   1      35.045  32.719  31.080  1.00  0.00     0.010 A 
ATOM     12  C   UNL A   1      36.357  32.911  30.620  1.00  0.00    -0.014 A 
BRANCH  12  13
ATOM     13  C   UNL A   1      37.510  32.247  31.279  1.00  0.00     0.031 A 
ATOM     14  C   UNL A   1      38.231  31.105  30.622  1.00  0.00     0.074 A 
ATOM     15  C   UNL A   1      37.905  32.693  32.486  1.00  0.00     0.049 A 
ATOM     16  N   UNL A   1      39.248  30.409  31.065  1.00  0.00    -0.248 NA
ATOM     17  C   UNL A   1      37.742  30.680  29.304  1.00  0.00     0.031 C 
ATOM     18  C   UNL A   1      37.266  33.780  33.229  1.00  0.00     0.029 A 
ATOM     19  N   UNL A   1      38.934  32.293  33.300  1.00  0.00    -0.354 N 
ATOM     20  C   UNL A   1      39.510  29.454  30.092  1.00  0.00     0.074 A 
ATOM     21  C   UNL A   1      38.528  29.643  29.045  1.00  0.00     0.031 C 
ATOM     22  C   UNL A   1      37.930  33.979  34.376  1.00  0.00     0.029 A 
ATOM     23  C   UNL A   1      39.004  32.996  34.476  1.00  0.00     0.049 A 
ATOM     24  H   UNL A   1      39.561  31.572  33.063  1.00  0.00     0.167 HD
ATOM     25  C   UNL A   1      40.485  28.513  30.075  1.00  0.00     0.037 A 
ATOM     26  C   UNL A   1      39.822  32.851  35.534  1.00  0.00     0.037 A 
ATOM     27  C   UNL A   1      41.467  28.343  31.115  1.00  0.00     0.049 A 
ATOM     28  C   UNL A   1      40.885  31.792  35.495  1.00  0.00     0.074 A 
ATOM     29  C   UNL A   1      42.531  27.457  31.162  1.00  0.00     0.029 A 
ATOM     30  N   UNL A   1      41.500  29.067  32.299  1.00  0.00    -0.354 N 
ATOM     31  N   UNL A   1      41.155  30.930  34.546  1.00  0.00    -0.248 NA
ATOM     32  C   UNL A   1      41.756  31.686  36.673  1.00  0.00     0.031 C 
ATOM     33  C   UNL A   1      43.175  27.610  32.396  1.00  0.00     0.029 A 
ATOM     34  C   UNL A   1      42.546  28.627  33.096  1.00  0.00     0.049 A 
ATOM     35  H   UNL A   1      40.873  29.788  32.538  1.00  0.00     0.167 HD
ATOM     36  C   UNL A   1      42.232  30.185  35.003  1.00  0.00     0.074 A 
ATOM     37  C   UNL A   1      42.580  30.712  36.307  1.00  0.00     0.031 C 
ATOM     38  C   UNL A   1      42.873  29.156  34.397  1.00  0.00     0.037 A 
BRANCH  25  39
ATOM     39  C   UNL A   1      40.525  27.573  28.902  1.00  0.00     0.064 A 
ATOM     40  C   UNL A   1      39.723  26.425  28.845  1.00  0.00     0.173 A 
ATOM     41  C   UNL A   1      41.353  27.849  27.802  1.00  0.00     0.173 A 
ATOM     42  F   UNL A   1      38.920  26.110  29.873  1.00  0.00    -0.203 F 
ATOM     43  C   UNL A   1      39.769  25.572  27.744  1.00  0.00     0.198 A 
ATOM     44  C   UNL A   1      41.375  27.010  26.691  1.00  0.00     0.198 A 
ATOM     45  F   UNL A   1      42.134  28.940  27.800  1.00  0.00    -0.203 F 
ATOM     46  F   UNL A   1      39.027  24.456  27.733  1.00  0.00    -0.200 F 
ATOM     47  C   UNL A   1      40.590  25.868  26.667  1.00  0.00     0.200 A 
ATOM     48  F   UNL A   1      42.160  27.305  25.646  1.00  0.00    -0.200 F 
ATOM     49  F   UNL A   1      40.629  25.049  25.606  1.00  0.00    -0.200 F 
ENDBRANCH  25  39
BRANCH  26  50
ATOM     50  C   UNL A   1      39.646  33.733  36.715  1.00  0.00     0.064 A 
ATOM     51  C   UNL A   1      40.257  34.991  36.777  1.00  0.00     0.173 A 
ATOM     52  C   UNL A   1      38.824  33.349  37.786  1.00  0.00     0.173 A 
ATOM     53  F   UNL A   1      41.062  35.394  35.785  1.00  0.00    -0.203 F 
ATOM     54  C   UNL A   1      40.056  35.832  37.870  1.00  0.00     0.198 A 
ATOM     55  C   UNL A   1      38.602  34.201  38.864  1.00  0.00     0.198 A 
ATOM     56  F   UNL A   1      38.211  32.156  37.767  1.00  0.00    -0.203 F 
ATOM     57  F   UNL A   1      40.673  37.020  37.920  1.00  0.00    -0.200 F 
ATOM     58  C   UNL A   1      39.221  35.440  38.907  1.00  0.00     0.200 A 
ATOM     59  F   UNL A   1      37.779  33.827  39.853  1.00  0.00    -0.200 F 
ATOM     60  F   UNL A   1      39.016  36.257  39.950  1.00  0.00    -0.200 F 
ENDBRANCH  26  50
BRANCH  38  61
ATOM     61  C   UNL A   1      44.025  28.541  35.135  1.00  0.00     0.064 A 
ATOM     62  C   UNL A   1      45.327  29.048  35.016  1.00  0.00     0.173 A 
ATOM     63  C   UNL A   1      43.818  27.454  35.997  1.00  0.00     0.173 A 
ATOM     64  F   UNL A   1      45.578  30.075  34.189  1.00  0.00    -0.203 F 
ATOM     65  C   UNL A   1      46.385  28.475  35.716  1.00  0.00     0.198 A 
ATOM     66  C   UNL A   1      44.874  26.901  36.718  1.00  0.00     0.198 A 
ATOM     67  F   UNL A   1      42.591  26.933  36.149  1.00  0.00    -0.203 F 
ATOM     68  F   UNL A   1      47.628  28.948  35.553  1.00  0.00    -0.200 F 
ATOM     69  C   UNL A   1      46.156  27.408  36.571  1.00  0.00     0.200 A 
ATOM     70  F   UNL A   1      44.650  25.876  37.552  1.00  0.00    -0.200 F 
ATOM     71  F   UNL A   1      47.175  26.862  37.250  1.00  0.00    -0.200 F 
ENDBRANCH  38  61
ENDBRANCH  12  13
ENDBRANCH   5   7
ENDBRANCH   2   3
ENDBRANCH   1   2
BRANCH   1  72
ATOM     72  C   UNL A   1      31.595  30.562  26.876  1.00  0.00     0.023 C 
BRANCH  72  73
ATOM     73  C   UNL A   1      32.093  29.936  25.576  1.00  0.00     0.116 C 
BRANCH  73  74
ATOM     74  N   UNL A   1      31.130  30.047  24.490  1.00  0.00    -0.352 N 
ATOM     75  C   UNL A   1      30.647  29.062  23.662  1.00  0.00     0.251 C 
ATOM     76  H   UNL A   1      30.777  30.950  24.326  1.00  0.00     0.163 HD
ATOM     77  O   UNL A   1      29.923  29.341  22.713  1.00  0.00    -0.269 OA
BRANCH  75  78
ATOM     78  C   UNL A   1      31.027  27.660  23.914  1.00  0.00     0.040 A 
ATOM     79  C   UNL A   1      30.033  26.742  24.255  1.00  0.00     0.017 A 
ATOM     80  C   UNL A   1      32.356  27.251  23.787  1.00  0.00     0.017 A 
ATOM     81  C   UNL A   1      30.357  25.388  24.362  1.00  0.00     0.044 A 
ATOM     82  C   UNL A   1      32.676  25.898  23.897  1.00  0.00     0.044 A 
ATOM     83  C   UNL A   1      31.670  24.948  24.135  1.00  0.00     0.103 A 
BRANCH  83  84
ATOM     84  N   UNL A   1      31.984  23.555  24.136  1.00  0.00    -0.219 N 
ATOM     85  C   UNL A   1      31.652  22.810  22.947  1.00  0.00     0.405 C 
ATOM     86  C   UNL A   1      32.326  22.831  25.295  1.00  0.00     0.297 C 
ATOM     87  N   UNL A   1      32.487  21.656  22.850  1.00  0.00    -0.274 N 
ATOM     88  N   UNL A   1      32.663  21.504  25.163  1.00  0.00    -0.236 N 
ATOM     89  S   UNL A   1      32.283  23.459  26.875  1.00  0.00    -0.005 S 
ATOM     90  C   UNL A   1      32.783  20.976  23.992  1.00  0.00     0.229 C 
ATOM     91  H   UNL A   1      32.839  21.360  21.981  1.00  0.00     0.260 HD
ATOM     92  H   UNL A   1      32.814  20.955  25.966  1.00  0.00     0.268 HD
BRANCH  90  93
ATOM     93  C   UNL A   1      33.226  19.558  23.909  1.00  0.00     0.047 A 
ATOM     94  C   UNL A   1      32.502  18.662  23.114  1.00  0.00     0.015 A 
ATOM     95  C   UNL A   1      34.343  19.119  24.626  1.00  0.00     0.015 A 
ATOM     96  C   UNL A   1      32.903  17.328  23.028  1.00  0.00     0.001 A 
ATOM     97  C   UNL A   1      34.733  17.781  24.545  1.00  0.00     0.001 A 
ATOM     98  C   UNL A   1      34.016  16.889  23.744  1.00  0.00     0.000 A 
ENDBRANCH  90  93
ENDBRANCH  83  84
ENDBRANCH  75  78
ENDBRANCH  73  74
ENDBRANCH  72  73
ENDBRANCH   1  72
TORSDOF 13
ENDMDL
MODEL 2
REMARK VINA RESULT:     -11.4      5.174     11.012
REMARK SMILES O=C(NCCCCNC(=O)c1ccc(N2CNC(c3ccccc3)=[NH+]C2=S)cc1)c1ccc(-c2c3nc(c(-c4c(F)c(F)c(F)c(F)c4F)c4ccc([nH]4)c(-c4c(F)c(F)c(F)c(F)c4F)c4nc(c(-c5c(F)c(F)c(F)c(F)c5F)c5ccc2[nH]5)C=C4)C=C3)cc1
REMARK SMILES IDX 5 1 4 2 3 3 1 4 2 5 30 7 31 8 92 9 32 10 91 11 33 12 34 13
REMARK SMILES IDX 35 14 85 15 36 16 90 17 84 18 86 19 37 20 89 21 83 22 82 23
REMARK SMILES IDX 38 25 70 26 50 27 69 28 51 29 54 30 68 31 87 32 52 33 53 34
REMARK SMILES IDX 67 36 88 37 55 38 39 39 40 40 48 41 41 42 42 43 46 44 49 45
REMARK SMILES IDX 43 46 44 47 47 48 45 49 71 50 72 51 80 52 73 53 74 54 78 55
REMARK SMILES IDX 81 56 75 57 76 58 79 59 77 60 56 61 57 62 65 63 58 64 59 65
REMARK SMILES IDX 63 66 66 67 60 68 61 69 64 70 62 71 6 72 7 73 8 74 9 75
REMARK SMILES IDX 10 77 11 78 12 79 29 80 13 81 28 82 14 83 15 84 16 85 26 86
REMARK SMILES IDX 17 87 25 88 27 89 18 90 19 93 20 94 24 95 21 96 23 97 22 98
REMARK H PARENT 3 6 86 24 54 35 8 76 17 91 25 92
REMARK Flexibility Score: inf
ROOT
ATOM      1  C   UNL A   1      34.570  33.732  28.708  1.00  0.00     0.023 C 
ENDROOT
BRANCH   1   2
ATOM      2  C   UNL A   1      34.671  32.365  29.371  1.00  0.00     0.116 C 
BRANCH   2   3
ATOM      3  N   UNL A   1      34.084  31.301  28.571  1.00  0.00    -0.352 N 
ATOM      4  O   UNL A   1      34.050  29.468  27.254  1.00  0.00    -0.269 OA
ATOM      5  C   UNL A   1      34.682  30.195  28.016  1.00  0.00     0.251 C 
ATOM      6  H   UNL A   1      33.117  31.384  28.405  1.00  0.00     0.163 HD
BRANCH   5   7
ATOM      7  C   UNL A   1      36.098  29.894  28.312  1.00  0.00     0.039 A 
ATOM      8  C   UNL A   1      37.100  30.168  27.377  1.00  0.00     0.014 A 
ATOM      9  C   UNL A   1      36.429  29.333  29.549  1.00  0.00     0.014 A 
ATOM     10  C   UNL A   1      38.404  29.752  27.619  1.00  0.00     0.010 A 
ATOM     11  C   UNL A   1      37.756  28.993  29.825  1.00  0.00     0.010 A 
ATOM     12  C   UNL A   1      38.749  29.171  28.851  1.00  0.00    -0.014 A 
BRANCH  12  13
ATOM     13  C   UNL A   1      40.166  28.822  29.121  1.00  0.00     0.031 A 
ATOM     14  C   UNL A   1      41.076  29.765  29.852  1.00  0.00     0.074 A 
ATOM     15  C   UNL A   1      40.626  27.629  28.698  1.00  0.00     0.049 A 
ATOM     16  N   UNL A   1      42.341  29.619  30.161  1.00  0.00    -0.248 NA
ATOM     17  C   UNL A   1      40.498  31.045  30.286  1.00  0.00     0.031 C 
ATOM     18  C   UNL A   1      39.839  26.641  27.958  1.00  0.00     0.029 A 
ATOM     19  N   UNL A   1      41.859  27.043  28.828  1.00  0.00    -0.354 N 
ATOM     20  C   UNL A   1      42.715  30.790  30.805  1.00  0.00     0.074 A 
ATOM     21  C   UNL A   1      41.550  31.650  30.822  1.00  0.00     0.031 C 
ATOM     22  C   UNL A   1      40.599  25.562  27.721  1.00  0.00     0.029 A 
ATOM     23  C   UNL A   1      41.940  25.807  28.240  1.00  0.00     0.049 A 
ATOM     24  H   UNL A   1      42.613  27.469  29.297  1.00  0.00     0.167 HD
ATOM     25  C   UNL A   1      43.919  31.112  31.338  1.00  0.00     0.037 A 
ATOM     26  C   UNL A   1      42.984  24.969  28.106  1.00  0.00     0.037 A 
ATOM     27  C   UNL A   1      45.068  30.244  31.329  1.00  0.00     0.049 A 
ATOM     28  C   UNL A   1      44.310  25.355  28.694  1.00  0.00     0.074 A 
ATOM     29  C   UNL A   1      46.314  30.454  31.895  1.00  0.00     0.029 A 
ATOM     30  N   UNL A   1      45.116  29.000  30.715  1.00  0.00    -0.354 N 
ATOM     31  N   UNL A   1      44.637  26.443  29.347  1.00  0.00    -0.248 NA
ATOM     32  C   UNL A   1      45.412  24.398  28.527  1.00  0.00     0.031 C 
ATOM     33  C   UNL A   1      47.131  29.362  31.578  1.00  0.00     0.029 A 
ATOM     34  C   UNL A   1      46.379  28.447  30.859  1.00  0.00     0.049 A 
ATOM     35  H   UNL A   1      44.363  28.573  30.244  1.00  0.00     0.167 HD
ATOM     36  C   UNL A   1      45.976  26.300  29.679  1.00  0.00     0.074 A 
ATOM     37  C   UNL A   1      46.396  25.009  29.173  1.00  0.00     0.031 C 
ATOM     38  C   UNL A   1      46.784  27.163  30.341  1.00  0.00     0.037 A 
BRANCH  25  39
ATOM     39  C   UNL A   1      44.065  32.474  31.957  1.00  0.00     0.064 A 
ATOM     40  C   UNL A   1      44.484  33.585  31.211  1.00  0.00     0.173 A 
ATOM     41  C   UNL A   1      43.743  32.676  33.309  1.00  0.00     0.173 A 
ATOM     42  F   UNL A   1      44.812  33.446  29.918  1.00  0.00    -0.203 F 
ATOM     43  C   UNL A   1      44.604  34.842  31.803  1.00  0.00     0.198 A 
ATOM     44  C   UNL A   1      43.836  33.938  33.889  1.00  0.00     0.198 A 
ATOM     45  F   UNL A   1      43.328  31.649  34.066  1.00  0.00    -0.203 F 
ATOM     46  F   UNL A   1      45.050  35.879  31.081  1.00  0.00    -0.200 F 
ATOM     47  C   UNL A   1      44.275  35.018  33.138  1.00  0.00     0.200 A 
ATOM     48  F   UNL A   1      43.506  34.109  35.176  1.00  0.00    -0.200 F 
ATOM     49  F   UNL A   1      44.386  36.228  33.704  1.00  0.00    -0.200 F 
ENDBRANCH  25  39
BRANCH  26  50
ATOM     50  C   UNL A   1      42.802  23.691  27.372  1.00  0.00     0.064 A 
ATOM     51  C   UNL A   1      43.186  23.565  26.032  1.00  0.00     0.173 A 
ATOM     52  C   UNL A   1      42.278  22.559  28.014  1.00  0.00     0.173 A 
ATOM     53  F   UNL A   1      43.677  24.624  25.373  1.00  0.00    -0.203 F 
ATOM     54  C   UNL A   1      43.050  22.352  25.358  1.00  0.00     0.198 A 
ATOM     55  C   UNL A   1      42.169  21.341  27.349  1.00  0.00     0.198 A 
ATOM     56  F   UNL A   1      41.904  22.630  29.300  1.00  0.00    -0.203 F 
ATOM     57  F   UNL A   1      43.399  22.263  24.068  1.00  0.00    -0.200 F 
ATOM     58  C   UNL A   1      42.550  21.240  26.021  1.00  0.00     0.200 A 
ATOM     59  F   UNL A   1      41.705  20.264  27.998  1.00  0.00    -0.200 F 
ATOM     60  F   UNL A   1      42.435  20.070  25.376  1.00  0.00    -0.200 F 
ENDBRANCH  26  50
BRANCH  38  61
ATOM     61  C   UNL A   1      48.203  26.731  30.569  1.00  0.00     0.064 A 
ATOM     62  C   UNL A   1      49.233  27.110  29.697  1.00  0.00     0.173 A 
ATOM     63  C   UNL A   1      48.539  25.959  31.691  1.00  0.00     0.173 A 
ATOM     64  F   UNL A   1      48.958  27.833  28.600  1.00  0.00    -0.203 F 
ATOM     65  C   UNL A   1      50.547  26.712  29.928  1.00  0.00     0.198 A 
ATOM     66  C   UNL A   1      49.859  25.587  31.934  1.00  0.00     0.198 A 
ATOM     67  F   UNL A   1      47.590  25.574  32.557  1.00  0.00    -0.203 F 
ATOM     68  F   UNL A   1      51.510  27.048  29.057  1.00  0.00    -0.200 F 
ATOM     69  C   UNL A   1      50.860  25.958  31.049  1.00  0.00     0.200 A 
ATOM     70  F   UNL A   1      50.161  24.867  33.023  1.00  0.00    -0.200 F 
ATOM     71  F   UNL A   1      52.127  25.582  31.272  1.00  0.00    -0.200 F 
ENDBRANCH  38  61
ENDBRANCH  12  13
ENDBRANCH   5   7
ENDBRANCH   2   3
ENDBRANCH   1   2
BRANCH   1  72
ATOM     72  C   UNL A   1      33.348  34.560  29.102  1.00  0.00     0.023 C 
BRANCH  72  73
ATOM     73  C   UNL A   1      33.638  36.001  29.516  1.00  0.00     0.116 C 
BRANCH  73  74
ATOM     74  N   UNL A   1      32.723  36.489  30.538  1.00  0.00    -0.352 N 
ATOM     75  C   UNL A   1      32.661  36.157  31.870  1.00  0.00     0.251 C 
ATOM     76  H   UNL A   1      32.058  37.148  30.234  1.00  0.00     0.163 HD
ATOM     77  O   UNL A   1      31.751  36.572  32.577  1.00  0.00    -0.269 OA
BRANCH  75  78
ATOM     78  C   UNL A   1      33.695  35.273  32.439  1.00  0.00     0.040 A 
ATOM     79  C   UNL A   1      33.334  33.991  32.854  1.00  0.00     0.017 A 
ATOM     80  C   UNL A   1      35.020  35.702  32.535  1.00  0.00     0.017 A 
ATOM     81  C   UNL A   1      34.326  33.099  33.267  1.00  0.00     0.044 A 
ATOM     82  C   UNL A   1      36.008  34.809  32.950  1.00  0.00     0.044 A 
ATOM     83  C   UNL A   1      35.676  33.483  33.270  1.00  0.00     0.103 A 
BRANCH  83  84
ATOM     84  N   UNL A   1      36.702  32.542  33.585  1.00  0.00    -0.219 N 
ATOM     85  C   UNL A   1      36.824  31.394  32.720  1.00  0.00     0.405 C 
ATOM     86  C   UNL A   1      37.395  32.521  34.812  1.00  0.00     0.297 C 
ATOM     87  N   UNL A   1      38.154  30.880  32.784  1.00  0.00    -0.274 N 
ATOM     88  N   UNL A   1      38.403  31.601  34.980  1.00  0.00    -0.236 N 
ATOM     89  S   UNL A   1      37.026  33.509  36.147  1.00  0.00    -0.005 S 
ATOM     90  C   UNL A   1      38.784  30.864  33.991  1.00  0.00     0.229 C 
ATOM     91  H   UNL A   1      38.604  30.545  31.976  1.00  0.00     0.260 HD
ATOM     92  H   UNL A   1      38.837  31.504  35.858  1.00  0.00     0.268 HD
BRANCH  90  93
ATOM     93  C   UNL A   1      39.931  29.943  34.210  1.00  0.00     0.047 A 
ATOM     94  C   UNL A   1      40.233  28.984  33.236  1.00  0.00     0.015 A 
ATOM     95  C   UNL A   1      40.693  30.022  35.379  1.00  0.00     0.015 A 
ATOM     96  C   UNL A   1      41.304  28.111  33.428  1.00  0.00     0.001 A 
ATOM     97  C   UNL A   1      41.757  29.138  35.572  1.00  0.00     0.001 A 
ATOM     98  C   UNL A   1      42.063  28.188  34.595  1.00  0.00     0.000 A 
ENDBRANCH  90  93
ENDBRANCH  83  84
ENDBRANCH  75  78
ENDBRANCH  73  74
ENDBRANCH  72  73
ENDBRANCH   1  72
TORSDOF 13
ENDMDL
MODEL 3
REMARK VINA RESULT:     -11.4      1.218      7.389
REMARK SMILES O=C(NCCCCNC(=O)c1ccc(N2CNC(c3ccccc3)=[NH+]C2=S)cc1)c1ccc(-c2c3nc(c(-c4c(F)c(F)c(F)c(F)c4F)c4ccc([nH]4)c(-c4c(F)c(F)c(F)c(F)c4F)c4nc(c(-c5c(F)c(F)c(F)c(F)c5F)c5ccc2[nH]5)C=C4)C=C3)cc1
REMARK SMILES IDX 5 1 4 2 3 3 1 4 2 5 30 7 31 8 92 9 32 10 91 11 33 12 34 13
REMARK SMILES IDX 35 14 85 15 36 16 90 17 84 18 86 19 37 20 89 21 83 22 82 23
REMARK SMILES IDX 38 25 70 26 50 27 69 28 51 29 54 30 68 31 87 32 52 33 53 34
REMARK SMILES IDX 67 36 88 37 55 38 39 39 40 40 48 41 41 42 42 43 46 44 49 45
REMARK SMILES IDX 43 46 44 47 47 48 45 49 71 50 72 51 80 52 73 53 74 54 78 55
REMARK SMILES IDX 81 56 75 57 76 58 79 59 77 60 56 61 57 62 65 63 58 64 59 65
REMARK SMILES IDX 63 66 66 67 60 68 61 69 64 70 62 71 6 72 7 73 8 74 9 75
REMARK SMILES IDX 10 77 11 78 12 79 29 80 13 81 28 82 14 83 15 84 16 85 26 86
REMARK SMILES IDX 17 87 25 88 27 89 18 90 19 93 20 94 24 95 21 96 23 97 22 98
REMARK H PARENT 3 6 86 24 54 35 8 76 17 91 25 92
REMARK Flexibility Score: inf
ROOT
ATOM      1  C   UNL A   1      31.548  31.550  26.734  1.00  0.00     0.023 C 
ENDROOT
BRANCH   1   2
ATOM      2  C   UNL A   1      32.784  32.433  26.842  1.00  0.00     0.116 C 
BRANCH   2   3
ATOM      3  N   UNL A   1      32.492  33.757  27.371  1.00  0.00    -0.352 N 
ATOM      4  O   UNL A   1      32.602  35.487  28.816  1.00  0.00    -0.269 OA
ATOM      5  C   UNL A   1      33.071  34.422  28.426  1.00  0.00     0.251 C 
ATOM      6  H   UNL A   1      31.777  34.248  26.905  1.00  0.00     0.163 HD
BRANCH   5   7
ATOM      7  C   UNL A   1      34.244  33.841  29.112  1.00  0.00     0.039 A 
ATOM      8  C   UNL A   1      35.541  34.230  28.767  1.00  0.00     0.014 A 
ATOM      9  C   UNL A   1      34.042  32.896  30.121  1.00  0.00     0.014 A 
ATOM     10  C   UNL A   1      36.632  33.573  29.325  1.00  0.00     0.010 A 
ATOM     11  C   UNL A   1      35.140  32.298  30.744  1.00  0.00     0.010 A 
ATOM     12  C   UNL A   1      36.444  32.609  30.330  1.00  0.00    -0.014 A 
BRANCH  12  13
ATOM     13  C   UNL A   1      37.627  31.990  30.978  1.00  0.00     0.031 A 
ATOM     14  C   UNL A   1      38.069  32.404  32.351  1.00  0.00     0.074 A 
ATOM     15  C   UNL A   1      38.303  31.039  30.307  1.00  0.00     0.049 A 
ATOM     16  N   UNL A   1      39.086  31.972  33.056  1.00  0.00    -0.248 NA
ATOM     17  C   UNL A   1      37.277  33.445  33.019  1.00  0.00     0.031 C 
ATOM     18  C   UNL A   1      37.979  30.572  28.958  1.00  0.00     0.029 A 
ATOM     19  N   UNL A   1      39.397  30.292  30.663  1.00  0.00    -0.354 N 
ATOM     20  C   UNL A   1      39.067  32.699  34.238  1.00  0.00     0.074 A 
ATOM     21  C   UNL A   1      37.953  33.619  34.147  1.00  0.00     0.031 C 
ATOM     22  C   UNL A   1      38.837  29.603  28.609  1.00  0.00     0.029 A 
ATOM     23  C   UNL A   1      39.806  29.422  29.685  1.00  0.00     0.049 A 
ATOM     24  H   UNL A   1      39.846  30.374  31.536  1.00  0.00     0.167 HD
ATOM     25  C   UNL A   1      39.901  32.600  35.302  1.00  0.00     0.037 A 
ATOM     26  C   UNL A   1      40.860  28.587  29.643  1.00  0.00     0.037 A 
ATOM     27  C   UNL A   1      40.998  31.670  35.389  1.00  0.00     0.049 A 
ATOM     28  C   UNL A   1      41.776  28.505  30.828  1.00  0.00     0.074 A 
ATOM     29  C   UNL A   1      41.863  31.451  36.449  1.00  0.00     0.029 A 
ATOM     30  N   UNL A   1      41.388  30.808  34.373  1.00  0.00    -0.354 N 
ATOM     31  N   UNL A   1      41.716  29.160  31.962  1.00  0.00    -0.248 NA
ATOM     32  C   UNL A   1      42.903  27.570  30.731  1.00  0.00     0.031 C 
ATOM     33  C   UNL A   1      42.808  30.497  36.054  1.00  0.00     0.029 A 
ATOM     34  C   UNL A   1      42.501  30.081  34.768  1.00  0.00     0.049 A 
ATOM     35  H   UNL A   1      40.942  30.727  33.499  1.00  0.00     0.167 HD
ATOM     36  C   UNL A   1      42.788  28.711  32.718  1.00  0.00     0.074 A 
ATOM     37  C   UNL A   1      43.471  27.712  31.922  1.00  0.00     0.031 C 
ATOM     38  C   UNL A   1      43.174  29.096  33.959  1.00  0.00     0.037 A 
BRANCH  25  39
ATOM     39  C   UNL A   1      39.675  33.538  36.454  1.00  0.00     0.064 A 
ATOM     40  C   UNL A   1      40.265  34.810  36.500  1.00  0.00     0.173 A 
ATOM     41  C   UNL A   1      38.824  33.173  37.510  1.00  0.00     0.173 A 
ATOM     42  F   UNL A   1      41.093  35.206  35.521  1.00  0.00    -0.203 F 
ATOM     43  C   UNL A   1      40.035  35.669  37.573  1.00  0.00     0.198 A 
ATOM     44  C   UNL A   1      38.574  34.045  38.566  1.00  0.00     0.198 A 
ATOM     45  F   UNL A   1      38.226  31.972  37.512  1.00  0.00    -0.203 F 
ATOM     46  F   UNL A   1      40.646  36.861  37.617  1.00  0.00    -0.200 F 
ATOM     47  C   UNL A   1      39.186  35.288  38.601  1.00  0.00     0.200 A 
ATOM     48  F   UNL A   1      37.743  33.680  39.552  1.00  0.00    -0.200 F 
ATOM     49  F   UNL A   1      38.962  36.118  39.630  1.00  0.00    -0.200 F 
ENDBRANCH  25  39
BRANCH  26  50
ATOM     50  C   UNL A   1      41.096  27.777  28.420  1.00  0.00     0.064 A 
ATOM     51  C   UNL A   1      40.452  26.549  28.229  1.00  0.00     0.173 A 
ATOM     52  C   UNL A   1      41.939  28.242  27.399  1.00  0.00     0.173 A 
ATOM     53  F   UNL A   1      39.650  26.058  29.184  1.00  0.00    -0.203 F 
ATOM     54  C   UNL A   1      40.647  25.811  27.063  1.00  0.00     0.198 A 
ATOM     55  C   UNL A   1      42.110  27.519  26.222  1.00  0.00     0.198 A 
ATOM     56  F   UNL A   1      42.571  29.417  27.534  1.00  0.00    -0.203 F 
ATOM     57  F   UNL A   1      40.041  24.625  26.915  1.00  0.00    -0.200 F 
ATOM     58  C   UNL A   1      41.467  26.302  26.057  1.00  0.00     0.200 A 
ATOM     59  F   UNL A   1      42.888  28.005  25.246  1.00  0.00    -0.200 F 
ATOM     60  F   UNL A   1      41.640  25.599  24.929  1.00  0.00    -0.200 F 
ENDBRANCH  26  50
BRANCH  38  61
ATOM     61  C   UNL A   1      44.383  28.421  34.537  1.00  0.00     0.064 A 
ATOM     62  C   UNL A   1      45.665  28.972  34.403  1.00  0.00     0.173 A 
ATOM     63  C   UNL A   1      44.252  27.228  35.264  1.00  0.00     0.173 A 
ATOM     64  F   UNL A   1      45.844  30.102  33.701  1.00  0.00    -0.203 F 
ATOM     65  C   UNL A   1      46.776  28.342  34.956  1.00  0.00     0.198 A 
ATOM     66  C   UNL A   1      45.361  26.615  35.840  1.00  0.00     0.198 A 
ATOM     67  F   UNL A   1      43.046  26.662  35.424  1.00  0.00    -0.203 F 
ATOM     68  F   UNL A   1      47.998  28.862  34.776  1.00  0.00    -0.200 F 
ATOM     69  C   UNL A   1      46.623  27.169  35.679  1.00  0.00     0.200 A 
ATOM     70  F   UNL A   1      45.210  25.487  36.548  1.00  0.00    -0.200 F 
ATOM     71  F   UNL A   1      47.693  26.567  36.216  1.00  0.00    -0.200 F 
ENDBRANCH  38  61
ENDBRANCH  12  13
ENDBRANCH   5   7
ENDBRANCH   2   3
ENDBRANCH   1   2
BRANCH   1  72
ATOM     72  C   UNL A   1      31.803  30.050  26.865  1.00  0.00     0.023 C 
BRANCH  72  73
ATOM     73  C   UNL A   1      31.591  29.234  25.592  1.00  0.00     0.116 C 
BRANCH  73  74
ATOM     74  N   UNL A   1      32.580  29.523  24.565  1.00  0.00    -0.352 N 
ATOM     75  C   UNL A   1      33.440  28.659  23.929  1.00  0.00     0.251 C 
ATOM     76  H   UNL A   1      32.643  30.465  24.287  1.00  0.00     0.163 HD
ATOM     77  O   UNL A   1      34.299  29.082  23.164  1.00  0.00    -0.269 OA
BRANCH  75  78
ATOM     78  C   UNL A   1      33.332  27.213  24.193  1.00  0.00     0.040 A 
ATOM     79  C   UNL A   1      32.877  26.373  23.176  1.00  0.00     0.017 A 
ATOM     80  C   UNL A   1      33.705  26.688  25.432  1.00  0.00     0.017 A 
ATOM     81  C   UNL A   1      32.899  24.989  23.367  1.00  0.00     0.044 A 
ATOM     82  C   UNL A   1      33.723  25.306  25.619  1.00  0.00     0.044 A 
ATOM     83  C   UNL A   1      33.370  24.442  24.570  1.00  0.00     0.103 A 
BRANCH  83  84
ATOM     84  N   UNL A   1      33.497  23.029  24.729  1.00  0.00    -0.219 N 
ATOM     85  C   UNL A   1      32.492  22.369  25.527  1.00  0.00     0.405 C 
ATOM     86  C   UNL A   1      34.661  22.306  24.402  1.00  0.00     0.297 C 
ATOM     87  N   UNL A   1      32.401  20.996  25.148  1.00  0.00    -0.274 N 
ATOM     88  N   UNL A   1      34.646  20.939  24.547  1.00  0.00    -0.236 N 
ATOM     89  S   UNL A   1      36.128  23.010  23.907  1.00  0.00    -0.005 S 
ATOM     90  C   UNL A   1      33.550  20.329  24.854  1.00  0.00     0.229 C 
ATOM     91  H   UNL A   1      31.529  20.543  25.102  1.00  0.00     0.260 HD
ATOM     92  H   UNL A   1      35.474  20.422  24.416  1.00  0.00     0.268 HD
BRANCH  90  93
ATOM     93  C   UNL A   1      33.576  18.842  24.920  1.00  0.00     0.047 A 
ATOM     94  C   UNL A   1      32.593  18.174  25.659  1.00  0.00     0.015 A 
ATOM     95  C   UNL A   1      34.576  18.119  24.263  1.00  0.00     0.015 A 
ATOM     96  C   UNL A   1      32.604  16.781  25.732  1.00  0.00     0.001 A 
ATOM     97  C   UNL A   1      34.589  16.725  24.349  1.00  0.00     0.001 A 
ATOM     98  C   UNL A   1      33.603  16.059  25.080  1.00  0.00     0.000 A 
ENDBRANCH  90  93
ENDBRANCH  83  84
ENDBRANCH  75  78
ENDBRANCH  73  74
ENDBRANCH  72  73
ENDBRANCH   1  72
TORSDOF 13
ENDMDL
