MODEL 1
REMARK VINA RESULT:     -13.0      0.000      0.000
REMARK SMILES Cc1c(Cl)cccc1-c1cccc(Cl)c1C(=O)NCCCCNC(=O)c1ccc(-c2c3nc(c(-c4c(F)c(F)c(F)c(F)c4F)c4ccc([nH]4)c(-c4c(F)c(F)c(F)c(F)c4F)c4nc(c(-c5c(F)c(F)c(F)c(F)c5F)c5ccc2[nH]5)C=C4)C=C3)cc1
REMARK SMILES IDX 21 1 20 2 19 3 18 4 16 5 17 6 15 8 9 9 10 10 11 11 13 12
REMARK SMILES IDX 12 13 14 14 8 15 1 16 2 17 3 18 4 19 5 20 7 21 6 22 22 23
REMARK SMILES IDX 23 24 24 25 25 27 26 28 27 29 88 30 28 31 87 32 29 33 30 34
REMARK SMILES IDX 31 35 81 36 32 37 86 38 80 39 82 40 33 41 85 42 79 43 78 44
REMARK SMILES IDX 34 46 66 47 46 48 65 49 47 50 50 51 64 52 83 53 48 54 49 55
REMARK SMILES IDX 63 57 84 58 51 59 35 60 36 61 44 62 37 63 38 64 42 65 45 66
REMARK SMILES IDX 39 67 40 68 43 69 41 70 67 71 68 72 76 73 69 74 70 75 74 76
REMARK SMILES IDX 77 77 71 78 72 79 75 80 73 81 52 82 53 83 61 84 54 85 55 86
REMARK SMILES IDX 59 87 62 88 56 89 57 90 60 91 58 92
REMARK H PARENT 18 7 23 26 82 45 50 56
REMARK Flexibility Score: inf
ROOT
ATOM      1  C   UNL A   1      31.605  28.813  25.753  1.00  0.00     0.023 C 
ENDROOT
BRANCH   1   2
ATOM      2  C   UNL A   1      31.514  27.877  26.962  1.00  0.00     0.023 C 
BRANCH   2   3
ATOM      3  C   UNL A   1      32.184  26.516  26.829  1.00  0.00     0.116 C 
BRANCH   3   4
ATOM      4  N   UNL A   1      31.307  25.415  26.517  1.00  0.00    -0.352 N 
ATOM      5  C   UNL A   1      31.189  24.719  25.337  1.00  0.00     0.253 C 
ATOM      6  O   UNL A   1      30.614  23.631  25.360  1.00  0.00    -0.269 OA
ATOM      7  H   UNL A   1      30.714  25.122  27.246  1.00  0.00     0.163 HD
BRANCH   5   8
ATOM      8  C   UNL A   1      31.687  25.232  24.032  1.00  0.00     0.066 A 
ATOM      9  C   UNL A   1      32.900  24.808  23.427  1.00  0.00    -0.004 A 
ATOM     10  C   UNL A   1      33.180  25.250  22.112  1.00  0.00     0.009 A 
ATOM     11  C   UNL A   1      32.306  26.072  21.406  1.00  0.00     0.002 A 
ATOM     12  C   UNL A   1      30.813  26.074  23.306  1.00  0.00     0.054 A 
ATOM     13  C   UNL A   1      31.125  26.487  22.006  1.00  0.00     0.021 A 
ATOM     14  Cl  UNL A   1      29.332  26.694  23.963  1.00  0.00    -0.083 Cl
BRANCH   9  15
ATOM     15  C   UNL A   1      33.934  23.971  24.078  1.00  0.00    -0.013 A 
ATOM     16  C   UNL A   1      32.945  21.768  23.246  1.00  0.00     0.046 C 
ATOM     17  C   UNL A   1      33.955  22.557  24.043  1.00  0.00    -0.025 A 
ATOM     18  C   UNL A   1      34.933  21.878  24.806  1.00  0.00     0.044 A 
ATOM     19  Cl  UNL A   1      34.958  20.152  24.922  1.00  0.00    -0.084 Cl
ATOM     20  C   UNL A   1      35.905  22.573  25.532  1.00  0.00     0.021 A 
ATOM     21  C   UNL A   1      34.954  24.648  24.793  1.00  0.00     0.009 A 
ATOM     22  C   UNL A   1      35.927  23.961  25.516  1.00  0.00     0.002 A 
ENDBRANCH   9  15
ENDBRANCH   5   8
ENDBRANCH   3   4
ENDBRANCH   2   3
ENDBRANCH   1   2
BRANCH   1  23
ATOM     23  C   UNL A   1      32.719  29.861  25.735  1.00  0.00     0.116 C 
BRANCH  23  24
ATOM     24  N   UNL A   1      32.430  31.076  26.481  1.00  0.00    -0.352 N 
ATOM     25  C   UNL A   1      33.218  31.826  27.326  1.00  0.00     0.251 C 
ATOM     26  H   UNL A   1      31.515  31.422  26.363  1.00  0.00     0.163 HD
ATOM     27  O   UNL A   1      32.763  32.847  27.836  1.00  0.00    -0.269 OA
BRANCH  25  28
ATOM     28  C   UNL A   1      34.579  31.371  27.692  1.00  0.00     0.039 A 
ATOM     29  C   UNL A   1      35.577  32.338  27.862  1.00  0.00     0.014 A 
ATOM     30  C   UNL A   1      34.870  30.026  27.921  1.00  0.00     0.014 A 
ATOM     31  C   UNL A   1      36.815  31.974  28.399  1.00  0.00     0.010 A 
ATOM     32  C   UNL A   1      36.076  29.675  28.529  1.00  0.00     0.010 A 
ATOM     33  C   UNL A   1      37.043  30.651  28.811  1.00  0.00    -0.014 A 
BRANCH  33  34
ATOM     34  C   UNL A   1      38.240  30.288  29.617  1.00  0.00     0.031 A 
ATOM     35  C   UNL A   1      39.252  29.310  29.098  1.00  0.00     0.074 A 
ATOM     36  C   UNL A   1      38.355  30.765  30.875  1.00  0.00     0.049 A 
ATOM     37  N   UNL A   1      40.284  28.782  29.708  1.00  0.00    -0.248 NA
ATOM     38  C   UNL A   1      39.066  28.841  27.717  1.00  0.00     0.031 C 
ATOM     39  C   UNL A   1      37.411  31.677  31.524  1.00  0.00     0.029 A 
ATOM     40  N   UNL A   1      39.303  30.531  31.842  1.00  0.00    -0.354 N 
ATOM     41  C   UNL A   1      40.854  27.902  28.798  1.00  0.00     0.074 A 
ATOM     42  C   UNL A   1      40.033  27.941  27.606  1.00  0.00     0.031 C 
ATOM     43  C   UNL A   1      37.835  31.939  32.770  1.00  0.00     0.029 A 
ATOM     44  C   UNL A   1      39.055  31.181  33.026  1.00  0.00     0.049 A 
ATOM     45  H   UNL A   1      40.086  29.951  31.699  1.00  0.00     0.167 HD
ATOM     46  C   UNL A   1      41.967  27.144  28.939  1.00  0.00     0.037 A 
ATOM     47  C   UNL A   1      39.726  31.161  34.194  1.00  0.00     0.037 A 
ATOM     48  C   UNL A   1      42.801  27.128  30.113  1.00  0.00     0.049 A 
ATOM     49  C   UNL A   1      40.966  30.320  34.319  1.00  0.00     0.074 A 
ATOM     50  C   UNL A   1      43.987  26.445  30.320  1.00  0.00     0.029 A 
ATOM     51  N   UNL A   1      42.534  27.828  31.280  1.00  0.00    -0.354 N 
ATOM     52  N   UNL A   1      41.529  29.542  33.429  1.00  0.00    -0.248 NA
ATOM     53  C   UNL A   1      41.662  30.354  35.614  1.00  0.00     0.031 C 
ATOM     54  C   UNL A   1      44.422  26.705  31.624  1.00  0.00     0.029 A 
ATOM     55  C   UNL A   1      43.526  27.579  32.217  1.00  0.00     0.049 A 
ATOM     56  H   UNL A   1      41.756  28.414  31.422  1.00  0.00     0.167 HD
ATOM     57  C   UNL A   1      42.655  29.013  34.042  1.00  0.00     0.074 A 
ATOM     58  C   UNL A   1      42.704  29.568  35.379  1.00  0.00     0.031 C 
ATOM     59  C   UNL A   1      43.566  28.144  33.541  1.00  0.00     0.037 A 
BRANCH  46  60
ATOM     60  C   UNL A   1      42.354  26.265  27.787  1.00  0.00     0.064 A 
ATOM     61  C   UNL A   1      43.320  26.666  26.851  1.00  0.00     0.173 A 
ATOM     62  C   UNL A   1      41.779  24.994  27.634  1.00  0.00     0.173 A 
ATOM     63  F   UNL A   1      43.890  27.876  26.948  1.00  0.00    -0.203 F 
ATOM     64  C   UNL A   1      43.674  25.839  25.788  1.00  0.00     0.198 A 
ATOM     65  C   UNL A   1      42.156  24.159  26.586  1.00  0.00     0.198 A 
ATOM     66  F   UNL A   1      40.858  24.559  28.506  1.00  0.00    -0.203 F 
ATOM     67  F   UNL A   1      44.565  26.262  24.882  1.00  0.00    -0.200 F 
ATOM     68  C   UNL A   1      43.097  24.585  25.660  1.00  0.00     0.200 A 
ATOM     69  F   UNL A   1      41.607  22.942  26.469  1.00  0.00    -0.200 F 
ATOM     70  F   UNL A   1      43.443  23.788  24.640  1.00  0.00    -0.200 F 
ENDBRANCH  46  60
BRANCH  47  71
ATOM     71  C   UNL A   1      39.249  31.982  35.336  1.00  0.00     0.064 A 
ATOM     72  C   UNL A   1      39.592  33.337  35.435  1.00  0.00     0.173 A 
ATOM     73  C   UNL A   1      38.444  31.435  36.346  1.00  0.00     0.173 A 
ATOM     74  F   UNL A   1      40.377  33.898  34.505  1.00  0.00    -0.203 F 
ATOM     75  C   UNL A   1      39.161  34.111  36.511  1.00  0.00     0.198 A 
ATOM     76  C   UNL A   1      37.994  32.217  37.408  1.00  0.00     0.198 A 
ATOM     77  F   UNL A   1      38.086  30.143  36.294  1.00  0.00    -0.203 F 
ATOM     78  F   UNL A   1      39.536  35.395  36.602  1.00  0.00    -0.200 F 
ATOM     79  C   UNL A   1      38.359  33.552  37.493  1.00  0.00     0.200 A 
ATOM     80  F   UNL A   1      37.208  31.676  38.350  1.00  0.00    -0.200 F 
ATOM     81  F   UNL A   1      37.941  34.299  38.525  1.00  0.00    -0.200 F 
ENDBRANCH  47  71
BRANCH  59  82
ATOM     82  C   UNL A   1      44.710  27.761  34.430  1.00  0.00     0.064 A 
ATOM     83  C   UNL A   1      44.653  26.625  35.250  1.00  0.00     0.173 A 
ATOM     84  C   UNL A   1      45.892  28.516  34.431  1.00  0.00     0.173 A 
ATOM     85  F   UNL A   1      43.537  25.882  35.297  1.00  0.00    -0.203 F 
ATOM     86  C   UNL A   1      45.734  26.267  36.051  1.00  0.00     0.198 A 
ATOM     87  C   UNL A   1      46.980  28.142  35.214  1.00  0.00     0.198 A 
ATOM     88  F   UNL A   1      45.996  29.610  33.662  1.00  0.00    -0.203 F 
ATOM     89  F   UNL A   1      45.646  25.198  36.855  1.00  0.00    -0.200 F 
ATOM     90  C   UNL A   1      46.898  27.021  36.027  1.00  0.00     0.200 A 
ATOM     91  F   UNL A   1      48.108  28.866  35.185  1.00  0.00    -0.200 F 
ATOM     92  F   UNL A   1      47.941  26.671  36.794  1.00  0.00    -0.200 F 
ENDBRANCH  59  82
ENDBRANCH  33  34
ENDBRANCH  25  28
ENDBRANCH  23  24
ENDBRANCH   1  23
TORSDOF 12
ENDMDL
MODEL 2
REMARK VINA RESULT:     -12.9      0.267      1.978
REMARK SMILES Cc1c(Cl)cccc1-c1cccc(Cl)c1C(=O)NCCCCNC(=O)c1ccc(-c2c3nc(c(-c4c(F)c(F)c(F)c(F)c4F)c4ccc([nH]4)c(-c4c(F)c(F)c(F)c(F)c4F)c4nc(c(-c5c(F)c(F)c(F)c(F)c5F)c5ccc2[nH]5)C=C4)C=C3)cc1
REMARK SMILES IDX 21 1 20 2 19 3 18 4 16 5 17 6 15 8 9 9 10 10 11 11 13 12
REMARK SMILES IDX 12 13 14 14 8 15 1 16 2 17 3 18 4 19 5 20 7 21 6 22 22 23
REMARK SMILES IDX 23 24 24 25 25 27 26 28 27 29 88 30 28 31 87 32 29 33 30 34
REMARK SMILES IDX 31 35 81 36 32 37 86 38 80 39 82 40 33 41 85 42 79 43 78 44
REMARK SMILES IDX 34 46 66 47 46 48 65 49 47 50 50 51 64 52 83 53 48 54 49 55
REMARK SMILES IDX 63 57 84 58 51 59 35 60 36 61 44 62 37 63 38 64 42 65 45 66
REMARK SMILES IDX 39 67 40 68 43 69 41 70 67 71 68 72 76 73 69 74 70 75 74 76
REMARK SMILES IDX 77 77 71 78 72 79 75 80 73 81 52 82 53 83 61 84 54 85 55 86
REMARK SMILES IDX 59 87 62 88 56 89 57 90 60 91 58 92
REMARK H PARENT 18 7 23 26 82 45 50 56
REMARK Flexibility Score: inf
ROOT
ATOM      1  C   UNL A   1      31.614  29.003  26.127  1.00  0.00     0.023 C 
ENDROOT
BRANCH   1   2
ATOM      2  C   UNL A   1      31.834  27.948  27.214  1.00  0.00     0.023 C 
BRANCH   2   3
ATOM      3  C   UNL A   1      32.425  26.617  26.769  1.00  0.00     0.116 C 
BRANCH   3   4
ATOM      4  N   UNL A   1      31.474  25.567  26.503  1.00  0.00    -0.352 N 
ATOM      5  C   UNL A   1      31.298  24.839  25.350  1.00  0.00     0.253 C 
ATOM      6  O   UNL A   1      30.652  23.794  25.416  1.00  0.00    -0.269 OA
ATOM      7  H   UNL A   1      30.868  25.342  27.245  1.00  0.00     0.163 HD
BRANCH   5   8
ATOM      8  C   UNL A   1      31.819  25.269  24.023  1.00  0.00     0.066 A 
ATOM      9  C   UNL A   1      32.986  24.731  23.420  1.00  0.00    -0.004 A 
ATOM     10  C   UNL A   1      33.284  25.108  22.088  1.00  0.00     0.009 A 
ATOM     11  C   UNL A   1      32.469  25.976  21.366  1.00  0.00     0.002 A 
ATOM     12  C   UNL A   1      31.006  26.156  23.281  1.00  0.00     0.054 A 
ATOM     13  C   UNL A   1      31.333  26.502  21.965  1.00  0.00     0.021 A 
ATOM     14  Cl  UNL A   1      29.588  26.912  23.933  1.00  0.00    -0.083 Cl
BRANCH   9  15
ATOM     15  C   UNL A   1      33.958  23.834  24.086  1.00  0.00    -0.013 A 
ATOM     16  C   UNL A   1      32.817  21.693  23.291  1.00  0.00     0.046 C 
ATOM     17  C   UNL A   1      33.880  22.422  24.076  1.00  0.00    -0.025 A 
ATOM     18  C   UNL A   1      34.807  21.689  24.851  1.00  0.00     0.044 A 
ATOM     19  Cl  UNL A   1      34.711  19.967  24.996  1.00  0.00    -0.084 Cl
ATOM     20  C   UNL A   1      35.825  22.326  25.567  1.00  0.00     0.021 A 
ATOM     21  C   UNL A   1      35.023  24.450  24.792  1.00  0.00     0.009 A 
ATOM     22  C   UNL A   1      35.945  23.708  25.527  1.00  0.00     0.002 A 
ENDBRANCH   9  15
ENDBRANCH   5   8
ENDBRANCH   3   4
ENDBRANCH   2   3
ENDBRANCH   1   2
BRANCH   1  23
ATOM     23  C   UNL A   1      32.696  30.063  25.921  1.00  0.00     0.116 C 
BRANCH  23  24
ATOM     24  N   UNL A   1      32.464  31.321  26.614  1.00  0.00    -0.352 N 
ATOM     25  C   UNL A   1      33.288  32.072  27.422  1.00  0.00     0.251 C 
ATOM     26  H   UNL A   1      31.565  31.701  26.484  1.00  0.00     0.163 HD
ATOM     27  O   UNL A   1      32.880  33.133  27.889  1.00  0.00    -0.269 OA
BRANCH  25  28
ATOM     28  C   UNL A   1      34.631  31.575  27.804  1.00  0.00     0.039 A 
ATOM     29  C   UNL A   1      35.652  32.511  27.998  1.00  0.00     0.014 A 
ATOM     30  C   UNL A   1      34.880  30.220  28.022  1.00  0.00     0.014 A 
ATOM     31  C   UNL A   1      36.872  32.107  28.549  1.00  0.00     0.010 A 
ATOM     32  C   UNL A   1      36.066  29.829  28.644  1.00  0.00     0.010 A 
ATOM     33  C   UNL A   1      37.057  30.775  28.950  1.00  0.00    -0.014 A 
BRANCH  33  34
ATOM     34  C   UNL A   1      38.231  30.370  29.770  1.00  0.00     0.031 A 
ATOM     35  C   UNL A   1      39.233  29.383  29.247  1.00  0.00     0.074 A 
ATOM     36  C   UNL A   1      38.331  30.815  31.041  1.00  0.00     0.049 A 
ATOM     37  N   UNL A   1      40.242  28.821  29.864  1.00  0.00    -0.248 NA
ATOM     38  C   UNL A   1      39.064  28.949  27.853  1.00  0.00     0.031 C 
ATOM     39  C   UNL A   1      37.394  31.731  31.692  1.00  0.00     0.029 A 
ATOM     40  N   UNL A   1      39.256  30.541  32.018  1.00  0.00    -0.354 N 
ATOM     41  C   UNL A   1      40.811  27.951  28.945  1.00  0.00     0.074 A 
ATOM     42  C   UNL A   1      40.015  28.033  27.739  1.00  0.00     0.031 C 
ATOM     43  C   UNL A   1      37.799  31.957  32.952  1.00  0.00     0.029 A 
ATOM     44  C   UNL A   1      38.999  31.169  33.213  1.00  0.00     0.049 A 
ATOM     45  H   UNL A   1      40.030  29.949  31.877  1.00  0.00     0.167 HD
ATOM     46  C   UNL A   1      41.907  27.167  29.089  1.00  0.00     0.037 A 
ATOM     47  C   UNL A   1      39.647  31.109  34.392  1.00  0.00     0.037 A 
ATOM     48  C   UNL A   1      42.718  27.107  30.277  1.00  0.00     0.049 A 
ATOM     49  C   UNL A   1      40.868  30.240  34.521  1.00  0.00     0.074 A 
ATOM     50  C   UNL A   1      43.886  26.396  30.490  1.00  0.00     0.029 A 
ATOM     51  N   UNL A   1      42.444  27.786  31.455  1.00  0.00    -0.354 N 
ATOM     52  N   UNL A   1      41.432  29.472  33.623  1.00  0.00    -0.248 NA
ATOM     53  C   UNL A   1      41.539  30.232  35.828  1.00  0.00     0.031 C 
ATOM     54  C   UNL A   1      44.301  26.618  31.808  1.00  0.00     0.029 A 
ATOM     55  C   UNL A   1      43.412  27.497  32.404  1.00  0.00     0.049 A 
ATOM     56  H   UNL A   1      41.675  28.385  31.596  1.00  0.00     0.167 HD
ATOM     57  C   UNL A   1      42.536  28.907  34.245  1.00  0.00     0.074 A 
ATOM     58  C   UNL A   1      42.570  29.430  35.595  1.00  0.00     0.031 C 
ATOM     59  C   UNL A   1      43.438  28.031  33.741  1.00  0.00     0.037 A 
BRANCH  46  60
ATOM     60  C   UNL A   1      42.298  26.307  27.924  1.00  0.00     0.064 A 
ATOM     61  C   UNL A   1      41.712  25.049  27.712  1.00  0.00     0.173 A 
ATOM     62  C   UNL A   1      43.243  26.757  26.990  1.00  0.00     0.173 A 
ATOM     63  F   UNL A   1      40.811  24.571  28.581  1.00  0.00    -0.203 F 
ATOM     64  C   UNL A   1      42.080  24.262  26.623  1.00  0.00     0.198 A 
ATOM     65  C   UNL A   1      43.588  25.979  25.888  1.00  0.00     0.198 A 
ATOM     66  F   UNL A   1      43.827  27.955  27.141  1.00  0.00    -0.203 F 
ATOM     67  F   UNL A   1      41.541  23.046  26.466  1.00  0.00    -0.200 F 
ATOM     68  C   UNL A   1      43.013  24.729  25.710  1.00  0.00     0.200 A 
ATOM     69  F   UNL A   1      44.481  26.435  25.000  1.00  0.00    -0.200 F 
ATOM     70  F   UNL A   1      43.362  23.973  24.661  1.00  0.00    -0.200 F 
ENDBRANCH  46  60
BRANCH  47  71
ATOM     71  C   UNL A   1      39.165  31.914  35.543  1.00  0.00     0.064 A 
ATOM     72  C   UNL A   1      38.314  31.350  36.504  1.00  0.00     0.173 A 
ATOM     73  C   UNL A   1      39.541  33.255  35.709  1.00  0.00     0.173 A 
ATOM     74  F   UNL A   1      37.910  30.078  36.375  1.00  0.00    -0.203 F 
ATOM     75  C   UNL A   1      37.845  32.101  37.579  1.00  0.00     0.198 A 
ATOM     76  C   UNL A   1      39.090  33.997  36.799  1.00  0.00     0.198 A 
ATOM     77  F   UNL A   1      40.356  33.838  34.818  1.00  0.00    -0.203 F 
ATOM     78  F   UNL A   1      37.001  31.549  38.463  1.00  0.00    -0.200 F 
ATOM     79  C   UNL A   1      38.238  33.422  37.729  1.00  0.00     0.200 A 
ATOM     80  F   UNL A   1      39.481  35.271  36.946  1.00  0.00    -0.200 F 
ATOM     81  F   UNL A   1      37.789  34.143  38.766  1.00  0.00    -0.200 F 
ENDBRANCH  47  71
BRANCH  59  82
ATOM     82  C   UNL A   1      44.558  27.605  34.642  1.00  0.00     0.064 A 
ATOM     83  C   UNL A   1      45.748  28.340  34.732  1.00  0.00     0.173 A 
ATOM     84  C   UNL A   1      44.421  26.470  35.456  1.00  0.00     0.173 A 
ATOM     85  F   UNL A   1      45.933  29.422  33.960  1.00  0.00    -0.203 F 
ATOM     86  C   UNL A   1      46.769  27.946  35.593  1.00  0.00     0.198 A 
ATOM     87  C   UNL A   1      45.432  26.092  36.333  1.00  0.00     0.198 A 
ATOM     88  F   UNL A   1      43.299  25.736  35.408  1.00  0.00    -0.203 F 
ATOM     89  F   UNL A   1      47.913  28.641  35.637  1.00  0.00    -0.200 F 
ATOM     90  C   UNL A   1      46.607  26.828  36.398  1.00  0.00     0.200 A 
ATOM     91  F   UNL A   1      45.273  25.017  37.117  1.00  0.00    -0.200 F 
ATOM     92  F   UNL A   1      47.588  26.453  37.232  1.00  0.00    -0.200 F 
ENDBRANCH  59  82
ENDBRANCH  33  34
ENDBRANCH  25  28
ENDBRANCH  23  24
ENDBRANCH   1  23
TORSDOF 12
ENDMDL
MODEL 3
REMARK VINA RESULT:     -12.8      1.182      2.717
REMARK SMILES Cc1c(Cl)cccc1-c1cccc(Cl)c1C(=O)NCCCCNC(=O)c1ccc(-c2c3nc(c(-c4c(F)c(F)c(F)c(F)c4F)c4ccc([nH]4)c(-c4c(F)c(F)c(F)c(F)c4F)c4nc(c(-c5c(F)c(F)c(F)c(F)c5F)c5ccc2[nH]5)C=C4)C=C3)cc1
REMARK SMILES IDX 21 1 20 2 19 3 18 4 16 5 17 6 15 8 9 9 10 10 11 11 13 12
REMARK SMILES IDX 12 13 14 14 8 15 1 16 2 17 3 18 4 19 5 20 7 21 6 22 22 23
REMARK SMILES IDX 23 24 24 25 25 27 26 28 27 29 88 30 28 31 87 32 29 33 30 34
REMARK SMILES IDX 31 35 81 36 32 37 86 38 80 39 82 40 33 41 85 42 79 43 78 44
REMARK SMILES IDX 34 46 66 47 46 48 65 49 47 50 50 51 64 52 83 53 48 54 49 55
REMARK SMILES IDX 63 57 84 58 51 59 35 60 36 61 44 62 37 63 38 64 42 65 45 66
REMARK SMILES IDX 39 67 40 68 43 69 41 70 67 71 68 72 76 73 69 74 70 75 74 76
REMARK SMILES IDX 77 77 71 78 72 79 75 80 73 81 52 82 53 83 61 84 54 85 55 86
REMARK SMILES IDX 59 87 62 88 56 89 57 90 60 91 58 92
REMARK H PARENT 18 7 23 26 82 45 50 56
REMARK Flexibility Score: inf
ROOT
ATOM      1  C   UNL A   1      32.542  30.016  25.577  1.00  0.00     0.023 C 
ENDROOT
BRANCH   1   2
ATOM      2  C   UNL A   1      33.613  28.948  25.340  1.00  0.00     0.023 C 
BRANCH   2   3
ATOM      3  C   UNL A   1      33.479  27.654  26.130  1.00  0.00     0.116 C 
BRANCH   3   4
ATOM      4  N   UNL A   1      32.139  27.299  26.526  1.00  0.00    -0.352 N 
ATOM      5  C   UNL A   1      31.367  26.244  26.097  1.00  0.00     0.253 C 
ATOM      6  O   UNL A   1      30.383  25.935  26.767  1.00  0.00    -0.269 OA
ATOM      7  H   UNL A   1      31.720  27.890  27.192  1.00  0.00     0.163 HD
BRANCH   5   8
ATOM      8  C   UNL A   1      31.643  25.485  24.847  1.00  0.00     0.066 A 
ATOM      9  C   UNL A   1      31.384  25.987  23.545  1.00  0.00    -0.004 A 
ATOM     10  C   UNL A   1      31.840  25.233  22.436  1.00  0.00     0.009 A 
ATOM     11  C   UNL A   1      32.530  24.034  22.591  1.00  0.00     0.002 A 
ATOM     12  C   UNL A   1      32.337  24.262  24.988  1.00  0.00     0.054 A 
ATOM     13  C   UNL A   1      32.774  23.547  23.867  1.00  0.00     0.021 A 
ATOM     14  Cl  UNL A   1      32.662  23.529  26.527  1.00  0.00    -0.083 Cl
BRANCH   9  15
ATOM     15  C   UNL A   1      30.628  27.222  23.238  1.00  0.00    -0.013 A 
ATOM     16  C   UNL A   1      28.400  26.293  24.069  1.00  0.00     0.046 C 
ATOM     17  C   UNL A   1      29.236  27.377  23.433  1.00  0.00    -0.025 A 
ATOM     18  C   UNL A   1      28.619  28.568  22.988  1.00  0.00     0.044 A 
ATOM     19  Cl  UNL A   1      26.905  28.792  23.074  1.00  0.00    -0.084 Cl
ATOM     20  C   UNL A   1      29.363  29.608  22.422  1.00  0.00     0.021 A 
ATOM     21  C   UNL A   1      31.361  28.308  22.695  1.00  0.00     0.009 A 
ATOM     22  C   UNL A   1      30.739  29.486  22.288  1.00  0.00     0.002 A 
ENDBRANCH   9  15
ENDBRANCH   5   8
ENDBRANCH   3   4
ENDBRANCH   2   3
ENDBRANCH   1   2
BRANCH   1  23
ATOM     23  C   UNL A   1      32.276  30.465  27.015  1.00  0.00     0.116 C 
BRANCH  23  24
ATOM     24  N   UNL A   1      32.366  31.900  27.236  1.00  0.00    -0.352 N 
ATOM     25  C   UNL A   1      33.428  32.691  27.613  1.00  0.00     0.251 C 
ATOM     26  H   UNL A   1      31.524  32.390  27.091  1.00  0.00     0.163 HD
ATOM     27  O   UNL A   1      33.276  33.906  27.716  1.00  0.00    -0.269 OA
BRANCH  25  28
ATOM     28  C   UNL A   1      34.730  32.085  27.977  1.00  0.00     0.039 A 
ATOM     29  C   UNL A   1      35.853  32.918  28.043  1.00  0.00     0.014 A 
ATOM     30  C   UNL A   1      34.849  30.734  28.303  1.00  0.00     0.014 A 
ATOM     31  C   UNL A   1      37.051  32.431  28.573  1.00  0.00     0.010 A 
ATOM     32  C   UNL A   1      36.019  30.269  28.903  1.00  0.00     0.010 A 
ATOM     33  C   UNL A   1      37.118  31.124  29.081  1.00  0.00    -0.014 A 
BRANCH  33  34
ATOM     34  C   UNL A   1      38.285  30.664  29.881  1.00  0.00     0.031 A 
ATOM     35  C   UNL A   1      39.261  29.671  29.320  1.00  0.00     0.074 A 
ATOM     36  C   UNL A   1      38.402  31.064  31.165  1.00  0.00     0.049 A 
ATOM     37  N   UNL A   1      40.259  29.065  29.913  1.00  0.00    -0.248 NA
ATOM     38  C   UNL A   1      39.075  29.288  27.913  1.00  0.00     0.031 C 
ATOM     39  C   UNL A   1      37.490  31.980  31.851  1.00  0.00     0.029 A 
ATOM     40  N   UNL A   1      39.324  30.735  32.128  1.00  0.00    -0.354 N 
ATOM     41  C   UNL A   1      40.803  28.213  28.962  1.00  0.00     0.074 A 
ATOM     42  C   UNL A   1      40.003  28.354  27.763  1.00  0.00     0.031 C 
ATOM     43  C   UNL A   1      37.906  32.154  33.116  1.00  0.00     0.029 A 
ATOM     44  C   UNL A   1      39.088  31.329  33.345  1.00  0.00     0.049 A 
ATOM     45  H   UNL A   1      40.083  30.130  31.963  1.00  0.00     0.167 HD
ATOM     46  C   UNL A   1      41.880  27.398  29.074  1.00  0.00     0.037 A 
ATOM     47  C   UNL A   1      39.739  31.214  34.517  1.00  0.00     0.037 A 
ATOM     48  C   UNL A   1      42.695  27.280  30.255  1.00  0.00     0.049 A 
ATOM     49  C   UNL A   1      40.939  30.313  34.611  1.00  0.00     0.074 A 
ATOM     50  C   UNL A   1      43.846  26.534  30.438  1.00  0.00     0.029 A 
ATOM     51  N   UNL A   1      42.442  27.925  31.456  1.00  0.00    -0.354 N 
ATOM     52  N   UNL A   1      41.480  29.561  33.685  1.00  0.00    -0.248 NA
ATOM     53  C   UNL A   1      41.616  30.244  35.914  1.00  0.00     0.031 C 
ATOM     54  C   UNL A   1      44.272  26.702  31.760  1.00  0.00     0.029 A 
ATOM     55  C   UNL A   1      43.407  27.581  32.390  1.00  0.00     0.049 A 
ATOM     56  H   UNL A   1      41.688  28.537  31.621  1.00  0.00     0.167 HD
ATOM     57  C   UNL A   1      42.573  28.949  34.282  1.00  0.00     0.074 A 
ATOM     58  C   UNL A   1      42.626  29.426  35.648  1.00  0.00     0.031 C 
ATOM     59  C   UNL A   1      43.452  28.070  33.744  1.00  0.00     0.037 A 
BRANCH  46  60
ATOM     60  C   UNL A   1      42.245  26.569  27.879  1.00  0.00     0.064 A 
ATOM     61  C   UNL A   1      43.196  27.007  26.945  1.00  0.00     0.173 A 
ATOM     62  C   UNL A   1      41.664  25.306  27.682  1.00  0.00     0.173 A 
ATOM     63  F   UNL A   1      43.771  28.210  27.083  1.00  0.00    -0.203 F 
ATOM     64  C   UNL A   1      43.530  26.225  25.842  1.00  0.00     0.198 A 
ATOM     65  C   UNL A   1      42.022  24.515  26.594  1.00  0.00     0.198 A 
ATOM     66  F   UNL A   1      40.756  24.836  28.551  1.00  0.00    -0.203 F 
ATOM     67  F   UNL A   1      44.407  26.684  24.939  1.00  0.00    -0.200 F 
ATOM     68  C   UNL A   1      42.947  24.978  25.671  1.00  0.00     0.200 A 
ATOM     69  F   UNL A   1      41.467  23.306  26.435  1.00  0.00    -0.200 F 
ATOM     70  F   UNL A   1      43.274  24.225  24.612  1.00  0.00    -0.200 F 
ENDBRANCH  46  60
BRANCH  47  71
ATOM     71  C   UNL A   1      39.282  31.991  35.697  1.00  0.00     0.064 A 
ATOM     72  C   UNL A   1      39.754  33.291  35.925  1.00  0.00     0.173 A 
ATOM     73  C   UNL A   1      38.368  31.456  36.618  1.00  0.00     0.173 A 
ATOM     74  F   UNL A   1      40.645  33.836  35.084  1.00  0.00    -0.203 F 
ATOM     75  C   UNL A   1      39.341  34.022  37.037  1.00  0.00     0.198 A 
ATOM     76  C   UNL A   1      37.938  32.198  37.716  1.00  0.00     0.198 A 
ATOM     77  F   UNL A   1      37.885  30.217  36.441  1.00  0.00    -0.203 F 
ATOM     78  F   UNL A   1      39.838  35.248  37.253  1.00  0.00    -0.200 F 
ATOM     79  C   UNL A   1      38.430  33.476  37.929  1.00  0.00     0.200 A 
ATOM     80  F   UNL A   1      37.048  31.672  38.570  1.00  0.00    -0.200 F 
ATOM     81  F   UNL A   1      38.031  34.182  38.997  1.00  0.00    -0.200 F 
ENDBRANCH  47  71
BRANCH  59  82
ATOM     82  C   UNL A   1      44.565  27.587  34.625  1.00  0.00     0.064 A 
ATOM     83  C   UNL A   1      44.446  26.411  35.380  1.00  0.00     0.173 A 
ATOM     84  C   UNL A   1      45.779  28.287  34.682  1.00  0.00     0.173 A 
ATOM     85  F   UNL A   1      43.297  25.718  35.371  1.00  0.00    -0.203 F 
ATOM     86  C   UNL A   1      45.498  25.961  36.173  1.00  0.00     0.198 A 
ATOM     87  C   UNL A   1      46.838  27.822  35.457  1.00  0.00     0.198 A 
ATOM     88  F   UNL A   1      45.943  29.415  33.976  1.00  0.00    -0.203 F 
ATOM     89  F   UNL A   1      45.351  24.855  36.915  1.00  0.00    -0.200 F 
ATOM     90  C   UNL A   1      46.695  26.662  36.205  1.00  0.00     0.200 A 
ATOM     91  F   UNL A   1      47.997  28.495  35.481  1.00  0.00    -0.200 F 
ATOM     92  F   UNL A   1      47.709  26.224  36.963  1.00  0.00    -0.200 F 
ENDBRANCH  59  82
ENDBRANCH  33  34
ENDBRANCH  25  28
ENDBRANCH  23  24
ENDBRANCH   1  23
TORSDOF 12
ENDMDL
