MODEL 1
REMARK VINA RESULT:     -13.4      0.000      0.000
REMARK SMILES Cc1cc2c(c(C)c1Cl)C=C(C(=O)NCCCCNC(=O)c1ccc(-c3c4nc(c(-c5c(F)c(F)c(F)c(F)c5F)c5ccc([nH]5)c(-c5c(F)c(F)c(F)c(F)c5F)c5nc(c(-c6c(F)c(F)c(F)c(F)c6F)c6ccc3[nH]6)C=C5)C=C4)cc1)[C@@H](C(F)(F)F)O2
REMARK SMILES IDX 17 1 16 2 15 3 14 4 12 5 13 6 11 8 1 9 2 10 3 11 8 12 4 13
REMARK SMILES IDX 6 14 9 15 5 16 90 17 7 18 10 19 85 20 86 21 87 22 88 23
REMARK SMILES IDX 89 24 18 25 19 26 20 27 21 29 22 30 23 31 84 32 24 33 83 34
REMARK SMILES IDX 25 35 26 36 27 37 77 38 28 39 82 40 76 41 78 42 29 43 81 44
REMARK SMILES IDX 75 45 74 46 30 48 62 49 42 50 61 51 43 52 46 53 60 54 79 55
REMARK SMILES IDX 44 56 45 57 59 59 80 60 47 61 31 62 32 63 40 64 33 65 34 66
REMARK SMILES IDX 38 67 41 68 35 69 36 70 39 71 37 72 63 73 64 74 72 75 65 76
REMARK SMILES IDX 66 77 70 78 73 79 67 80 68 81 71 82 69 83 48 84 49 85 57 86
REMARK SMILES IDX 50 87 51 88 55 89 58 90 52 91 53 92 56 93 54 94
REMARK H PARENT 14 7 19 28 78 47 46 58
REMARK Flexibility Score: inf
ROOT
ATOM      1  C   UNL A   1      31.611  32.246  26.835  1.00  0.00     0.023 C 
ENDROOT
BRANCH   1   2
ATOM      2  C   UNL A   1      31.790  30.727  26.888  1.00  0.00     0.023 C 
BRANCH   2   3
ATOM      3  C   UNL A   1      32.128  30.092  25.543  1.00  0.00     0.116 C 
BRANCH   3   4
ATOM      4  N   UNL A   1      30.986  30.079  24.648  1.00  0.00    -0.352 N 
ATOM      5  C   UNL A   1      30.439  29.222  23.754  1.00  0.00     0.251 C 
ATOM      6  O   UNL A   1      29.428  29.641  23.182  1.00  0.00    -0.270 OA
ATOM      7  H   UNL A   1      30.471  30.917  24.707  1.00  0.00     0.163 HD
BRANCH   5   8
ATOM      8  C   UNL A   1      30.959  27.860  23.432  1.00  0.00     0.067 C 
ATOM      9  C   UNL A   1      32.428  21.522  23.050  1.00  0.00     0.046 C 
ATOM     10  C   UNL A   1      31.948  22.896  23.435  1.00  0.00    -0.028 A 
ATOM     11  C   UNL A   1      32.134  23.946  22.532  1.00  0.00     0.052 A 
ATOM     12  C   UNL A   1      31.305  23.158  24.662  1.00  0.00     0.047 A 
ATOM     13  C   UNL A   1      31.699  25.229  22.843  1.00  0.00     0.128 A 
ATOM     14  C   UNL A   1      30.857  24.462  24.991  1.00  0.00    -0.021 A 
ATOM     15  Cl  UNL A   1      31.057  21.833  25.761  1.00  0.00    -0.084 Cl
ATOM     16  C   UNL A   1      31.053  25.504  24.052  1.00  0.00     0.022 A 
ATOM     17  O   UNL A   1      31.905  26.168  21.874  1.00  0.00    -0.475 OA
ATOM     18  C   UNL A   1      30.167  24.759  26.301  1.00  0.00     0.047 C 
ATOM     19  C   UNL A   1      30.568  26.873  24.260  1.00  0.00     0.026 C 
ATOM     20  C   UNL A   1      31.893  27.555  22.298  1.00  0.00     0.314 C 
BRANCH  20  21
ATOM     21  C   UNL A   1      33.336  28.020  22.573  1.00  0.00     0.429 C 
ATOM     22  F   UNL A   1      34.167  27.586  21.592  1.00  0.00    -0.167 F 
ATOM     23  F   UNL A   1      33.448  29.370  22.597  1.00  0.00    -0.167 F 
ATOM     24  F   UNL A   1      33.819  27.562  23.749  1.00  0.00    -0.167 F 
ENDBRANCH  20  21
ENDBRANCH   5   8
ENDBRANCH   3   4
ENDBRANCH   2   3
ENDBRANCH   1   2
BRANCH   1  25
ATOM     25  C   UNL A   1      32.783  33.062  27.378  1.00  0.00     0.116 C 
BRANCH  25  26
ATOM     26  N   UNL A   1      32.420  34.411  27.792  1.00  0.00    -0.352 N 
ATOM     27  C   UNL A   1      33.007  35.186  28.761  1.00  0.00     0.251 C 
ATOM     28  H   UNL A   1      31.659  34.817  27.316  1.00  0.00     0.163 HD
ATOM     29  O   UNL A   1      32.551  36.286  29.054  1.00  0.00    -0.269 OA
BRANCH  27  30
ATOM     30  C   UNL A   1      34.175  34.649  29.483  1.00  0.00     0.039 A 
ATOM     31  C   UNL A   1      33.971  34.014  30.710  1.00  0.00     0.014 A 
ATOM     32  C   UNL A   1      35.447  34.708  28.906  1.00  0.00     0.014 A 
ATOM     33  C   UNL A   1      35.039  33.367  31.328  1.00  0.00     0.010 A 
ATOM     34  C   UNL A   1      36.496  34.013  29.495  1.00  0.00     0.010 A 
ATOM     35  C   UNL A   1      36.298  33.330  30.706  1.00  0.00    -0.014 A 
BRANCH  35  36
ATOM     36  C   UNL A   1      37.422  32.578  31.308  1.00  0.00     0.031 A 
ATOM     37  C   UNL A   1      37.913  32.937  32.678  1.00  0.00     0.074 A 
ATOM     38  C   UNL A   1      38.034  31.613  30.594  1.00  0.00     0.049 A 
ATOM     39  N   UNL A   1      38.917  32.440  33.352  1.00  0.00    -0.248 NA
ATOM     40  C   UNL A   1      37.195  34.017  33.374  1.00  0.00     0.031 C 
ATOM     41  C   UNL A   1      37.669  31.207  29.237  1.00  0.00     0.029 A 
ATOM     42  N   UNL A   1      39.091  30.800  30.914  1.00  0.00    -0.354 N 
ATOM     43  C   UNL A   1      38.955  33.149  34.544  1.00  0.00     0.074 A 
ATOM     44  C   UNL A   1      37.910  34.146  34.481  1.00  0.00     0.031 C 
ATOM     45  C   UNL A   1      38.470  30.200  28.850  1.00  0.00     0.029 A 
ATOM     46  C   UNL A   1      39.422  29.912  29.920  1.00  0.00     0.049 A 
ATOM     47  H   UNL A   1      39.569  30.849  31.772  1.00  0.00     0.167 HD
ATOM     48  C   UNL A   1      39.774  32.965  35.606  1.00  0.00     0.037 A 
ATOM     49  C   UNL A   1      40.382  28.969  29.882  1.00  0.00     0.037 A 
ATOM     50  C   UNL A   1      40.793  31.954  35.677  1.00  0.00     0.049 A 
ATOM     51  C   UNL A   1      41.280  28.788  31.073  1.00  0.00     0.074 A 
ATOM     52  C   UNL A   1      41.642  31.656  36.728  1.00  0.00     0.029 A 
ATOM     53  N   UNL A   1      41.098  31.072  34.650  1.00  0.00    -0.354 N 
ATOM     54  N   UNL A   1      41.279  29.434  32.213  1.00  0.00    -0.248 NA
ATOM     55  C   UNL A   1      42.315  27.748  30.972  1.00  0.00     0.031 C 
ATOM     56  C   UNL A   1      42.481  30.610  36.328  1.00  0.00     0.029 A 
ATOM     57  C   UNL A   1      42.132  30.235  35.039  1.00  0.00     0.049 A 
ATOM     58  H   UNL A   1      40.647  31.044  33.776  1.00  0.00     0.167 HD
ATOM     59  C   UNL A   1      42.295  28.870  32.972  1.00  0.00     0.074 A 
ATOM     60  C   UNL A   1      42.885  27.820  32.168  1.00  0.00     0.031 C 
ATOM     61  C   UNL A   1      42.702  29.195  34.223  1.00  0.00     0.037 A 
BRANCH  48  62
ATOM     62  C   UNL A   1      39.584  33.869  36.787  1.00  0.00     0.064 A 
ATOM     63  C   UNL A   1      38.797  33.482  37.882  1.00  0.00     0.173 A 
ATOM     64  C   UNL A   1      40.217  35.119  36.839  1.00  0.00     0.173 A 
ATOM     65  F   UNL A   1      38.160  32.301  37.870  1.00  0.00    -0.203 F 
ATOM     66  C   UNL A   1      38.633  34.323  38.978  1.00  0.00     0.198 A 
ATOM     67  C   UNL A   1      40.070  35.948  37.947  1.00  0.00     0.198 A 
ATOM     68  F   UNL A   1      40.980  35.534  35.817  1.00  0.00    -0.203 F 
ATOM     69  F   UNL A   1      37.842  33.950  39.994  1.00  0.00    -0.200 F 
ATOM     70  C   UNL A   1      39.274  35.552  39.013  1.00  0.00     0.200 A 
ATOM     71  F   UNL A   1      40.696  37.133  37.985  1.00  0.00    -0.200 F 
ATOM     72  F   UNL A   1      39.118  36.361  40.071  1.00  0.00    -0.200 F 
ENDBRANCH  48  62
BRANCH  49  73
ATOM     73  C   UNL A   1      40.506  28.095  28.689  1.00  0.00     0.064 A 
ATOM     74  C   UNL A   1      39.831  26.868  28.631  1.00  0.00     0.173 A 
ATOM     75  C   UNL A   1      41.276  28.472  27.579  1.00  0.00     0.173 A 
ATOM     76  F   UNL A   1      39.099  26.458  29.677  1.00  0.00    -0.203 F 
ATOM     77  C   UNL A   1      39.925  26.047  27.510  1.00  0.00     0.198 A 
ATOM     78  C   UNL A   1      41.353  27.659  26.450  1.00  0.00     0.198 A 
ATOM     79  F   UNL A   1      41.936  29.640  27.585  1.00  0.00    -0.203 F 
ATOM     80  F   UNL A   1      39.291  24.867  27.491  1.00  0.00    -0.200 F 
ATOM     81  C   UNL A   1      40.681  26.446  26.418  1.00  0.00     0.200 A 
ATOM     82  F   UNL A   1      42.074  28.053  25.392  1.00  0.00    -0.200 F 
ATOM     83  F   UNL A   1      40.764  25.661  25.335  1.00  0.00    -0.200 F 
ENDBRANCH  49  73
BRANCH  61  84
ATOM     84  C   UNL A   1      43.831  28.403  34.809  1.00  0.00     0.064 A 
ATOM     85  C   UNL A   1      45.158  28.842  34.704  1.00  0.00     0.173 A 
ATOM     86  C   UNL A   1      43.575  27.237  35.545  1.00  0.00     0.173 A 
ATOM     87  F   UNL A   1      45.452  29.944  33.998  1.00  0.00    -0.203 F 
ATOM     88  C   UNL A   1      46.192  28.134  35.312  1.00  0.00     0.198 A 
ATOM     89  C   UNL A   1      44.609  26.546  36.169  1.00  0.00     0.198 A 
ATOM     90  F   UNL A   1      42.320  26.783  35.677  1.00  0.00    -0.203 F 
ATOM     91  F   UNL A   1      47.457  28.556  35.179  1.00  0.00    -0.200 F 
ATOM     92  C   UNL A   1      45.915  26.994  36.050  1.00  0.00     0.200 A 
ATOM     93  F   UNL A   1      44.339  25.450  36.892  1.00  0.00    -0.200 F 
ATOM     94  F   UNL A   1      46.911  26.323  36.647  1.00  0.00    -0.200 F 
ENDBRANCH  61  84
ENDBRANCH  35  36
ENDBRANCH  27  30
ENDBRANCH  25  26
ENDBRANCH   1  25
TORSDOF 12
ENDMDL
MODEL 2
REMARK VINA RESULT:     -13.4      3.996      8.710
REMARK SMILES Cc1cc2c(c(C)c1Cl)C=C(C(=O)NCCCCNC(=O)c1ccc(-c3c4nc(c(-c5c(F)c(F)c(F)c(F)c5F)c5ccc([nH]5)c(-c5c(F)c(F)c(F)c(F)c5F)c5nc(c(-c6c(F)c(F)c(F)c(F)c6F)c6ccc3[nH]6)C=C5)C=C4)cc1)[C@@H](C(F)(F)F)O2
REMARK SMILES IDX 17 1 16 2 15 3 14 4 12 5 13 6 11 8 1 9 2 10 3 11 8 12 4 13
REMARK SMILES IDX 6 14 9 15 5 16 90 17 7 18 10 19 85 20 86 21 87 22 88 23
REMARK SMILES IDX 89 24 18 25 19 26 20 27 21 29 22 30 23 31 84 32 24 33 83 34
REMARK SMILES IDX 25 35 26 36 27 37 77 38 28 39 82 40 76 41 78 42 29 43 81 44
REMARK SMILES IDX 75 45 74 46 30 48 62 49 42 50 61 51 43 52 46 53 60 54 79 55
REMARK SMILES IDX 44 56 45 57 59 59 80 60 47 61 31 62 32 63 40 64 33 65 34 66
REMARK SMILES IDX 38 67 41 68 35 69 36 70 39 71 37 72 63 73 64 74 72 75 65 76
REMARK SMILES IDX 66 77 70 78 73 79 67 80 68 81 71 82 69 83 48 84 49 85 57 86
REMARK SMILES IDX 50 87 51 88 55 89 58 90 52 91 53 92 56 93 54 94
REMARK H PARENT 14 7 19 28 78 47 46 58
REMARK Flexibility Score: inf
ROOT
ATOM      1  C   UNL A   1      35.588  23.264  25.863  1.00  0.00     0.023 C 
ENDROOT
BRANCH   1   2
ATOM      2  C   UNL A   1      34.423  24.240  25.680  1.00  0.00     0.023 C 
BRANCH   2   3
ATOM      3  C   UNL A   1      33.375  23.777  24.672  1.00  0.00     0.116 C 
BRANCH   3   4
ATOM      4  N   UNL A   1      33.590  24.362  23.362  1.00  0.00    -0.352 N 
ATOM      5  C   UNL A   1      33.350  25.549  22.757  1.00  0.00     0.251 C 
ATOM      6  O   UNL A   1      33.702  25.612  21.575  1.00  0.00    -0.270 OA
ATOM      7  H   UNL A   1      34.027  23.727  22.749  1.00  0.00     0.163 HD
BRANCH   5   8
ATOM      8  C   UNL A   1      32.714  26.737  23.402  1.00  0.00     0.067 C 
ATOM      9  C   UNL A   1      31.173  32.107  26.757  1.00  0.00     0.046 C 
ATOM     10  C   UNL A   1      31.811  30.875  26.173  1.00  0.00    -0.028 A 
ATOM     11  C   UNL A   1      31.166  30.225  25.117  1.00  0.00     0.052 A 
ATOM     12  C   UNL A   1      33.041  30.366  26.636  1.00  0.00     0.047 A 
ATOM     13  C   UNL A   1      31.723  29.088  24.543  1.00  0.00     0.128 A 
ATOM     14  C   UNL A   1      33.620  29.209  26.059  1.00  0.00    -0.021 A 
ATOM     15  Cl  UNL A   1      33.843  31.205  27.931  1.00  0.00    -0.084 Cl
ATOM     16  C   UNL A   1      32.946  28.576  24.986  1.00  0.00     0.022 A 
ATOM     17  O   UNL A   1      31.022  28.556  23.500  1.00  0.00    -0.475 OA
ATOM     18  C   UNL A   1      34.936  28.649  26.545  1.00  0.00     0.047 C 
ATOM     19  C   UNL A   1      33.488  27.415  24.271  1.00  0.00     0.026 C 
ATOM     20  C   UNL A   1      31.297  27.170  23.171  1.00  0.00     0.314 C 
BRANCH  20  21
ATOM     21  C   UNL A   1      30.273  26.262  23.876  1.00  0.00     0.429 C 
ATOM     22  F   UNL A   1      29.032  26.807  23.809  1.00  0.00    -0.167 F 
ATOM     23  F   UNL A   1      30.182  25.040  23.299  1.00  0.00    -0.167 F 
ATOM     24  F   UNL A   1      30.561  26.063  25.181  1.00  0.00    -0.167 F 
ENDBRANCH  20  21
ENDBRANCH   5   8
ENDBRANCH   3   4
ENDBRANCH   2   3
ENDBRANCH   1   2
BRANCH   1  25
ATOM     25  C   UNL A   1      36.938  23.750  25.341  1.00  0.00     0.116 C 
BRANCH  25  26
ATOM     26  N   UNL A   1      38.029  22.810  25.560  1.00  0.00    -0.352 N 
ATOM     27  C   UNL A   1      39.207  23.021  26.234  1.00  0.00     0.251 C 
ATOM     28  H   UNL A   1      37.906  21.911  25.178  1.00  0.00     0.163 HD
ATOM     29  O   UNL A   1      40.072  22.154  26.282  1.00  0.00    -0.269 OA
BRANCH  27  30
ATOM     30  C   UNL A   1      39.434  24.335  26.861  1.00  0.00     0.039 A 
ATOM     31  C   UNL A   1      39.035  24.524  28.186  1.00  0.00     0.014 A 
ATOM     32  C   UNL A   1      40.108  25.342  26.163  1.00  0.00     0.014 A 
ATOM     33  C   UNL A   1      39.381  25.705  28.841  1.00  0.00     0.010 A 
ATOM     34  C   UNL A   1      40.502  26.492  26.835  1.00  0.00     0.010 A 
ATOM     35  C   UNL A   1      40.149  26.678  28.181  1.00  0.00    -0.014 A 
BRANCH  35  36
ATOM     36  C   UNL A   1      40.596  27.902  28.886  1.00  0.00     0.031 A 
ATOM     37  C   UNL A   1      42.022  28.032  29.327  1.00  0.00     0.074 A 
ATOM     38  C   UNL A   1      39.701  28.866  29.176  1.00  0.00     0.049 A 
ATOM     39  N   UNL A   1      42.593  28.993  30.005  1.00  0.00    -0.248 NA
ATOM     40  C   UNL A   1      42.923  26.920  28.981  1.00  0.00     0.031 C 
ATOM     41  C   UNL A   1      38.278  28.828  28.833  1.00  0.00     0.029 A 
ATOM     42  N   UNL A   1      39.857  30.063  29.826  1.00  0.00    -0.354 N 
ATOM     43  C   UNL A   1      43.913  28.600  30.173  1.00  0.00     0.074 A 
ATOM     44  C   UNL A   1      44.048  27.291  29.574  1.00  0.00     0.031 C 
ATOM     45  C   UNL A   1      37.697  29.966  29.249  1.00  0.00     0.029 A 
ATOM     46  C   UNL A   1      38.699  30.796  29.913  1.00  0.00     0.049 A 
ATOM     47  H   UNL A   1      40.716  30.368  30.196  1.00  0.00     0.167 HD
ATOM     48  C   UNL A   1      44.927  29.285  30.753  1.00  0.00     0.037 A 
ATOM     49  C   UNL A   1      38.475  32.004  30.464  1.00  0.00     0.037 A 
ATOM     50  C   UNL A   1      44.795  30.597  31.321  1.00  0.00     0.049 A 
ATOM     51  C   UNL A   1      39.617  32.741  31.105  1.00  0.00     0.074 A 
ATOM     52  C   UNL A   1      45.774  31.395  31.889  1.00  0.00     0.029 A 
ATOM     53  N   UNL A   1      43.606  31.309  31.391  1.00  0.00    -0.354 N 
ATOM     54  N   UNL A   1      40.872  32.381  31.219  1.00  0.00    -0.248 NA
ATOM     55  C   UNL A   1      39.313  34.053  31.696  1.00  0.00     0.031 C 
ATOM     56  C   UNL A   1      45.172  32.579  32.327  1.00  0.00     0.029 A 
ATOM     57  C   UNL A   1      43.825  32.533  32.003  1.00  0.00     0.049 A 
ATOM     58  H   UNL A   1      42.737  30.992  31.055  1.00  0.00     0.167 HD
ATOM     59  C   UNL A   1      41.511  33.423  31.875  1.00  0.00     0.074 A 
ATOM     60  C   UNL A   1      40.508  34.438  32.124  1.00  0.00     0.031 C 
ATOM     61  C   UNL A   1      42.811  33.529  32.239  1.00  0.00     0.037 A 
BRANCH  48  62
ATOM     62  C   UNL A   1      46.273  28.627  30.782  1.00  0.00     0.064 A 
ATOM     63  C   UNL A   1      46.663  27.813  31.856  1.00  0.00     0.173 A 
ATOM     64  C   UNL A   1      47.169  28.783  29.715  1.00  0.00     0.173 A 
ATOM     65  F   UNL A   1      45.846  27.646  32.907  1.00  0.00    -0.203 F 
ATOM     66  C   UNL A   1      47.911  27.199  31.872  1.00  0.00     0.198 A 
ATOM     67  C   UNL A   1      48.407  28.148  29.722  1.00  0.00     0.198 A 
ATOM     68  F   UNL A   1      46.842  29.550  28.664  1.00  0.00    -0.203 F 
ATOM     69  F   UNL A   1      48.280  26.461  32.928  1.00  0.00    -0.200 F 
ATOM     70  C   UNL A   1      48.780  27.361  30.803  1.00  0.00     0.200 A 
ATOM     71  F   UNL A   1      49.243  28.297  28.685  1.00  0.00    -0.200 F 
ATOM     72  F   UNL A   1      49.980  26.765  30.817  1.00  0.00    -0.200 F 
ENDBRANCH  48  62
BRANCH  49  73
ATOM     73  C   UNL A   1      37.121  32.608  30.387  1.00  0.00     0.064 A 
ATOM     74  C   UNL A   1      36.170  32.353  31.384  1.00  0.00     0.173 A 
ATOM     75  C   UNL A   1      36.758  33.464  29.338  1.00  0.00     0.173 A 
ATOM     76  F   UNL A   1      36.468  31.525  32.396  1.00  0.00    -0.203 F 
ATOM     77  C   UNL A   1      34.902  32.928  31.332  1.00  0.00     0.198 A 
ATOM     78  C   UNL A   1      35.496  34.055  29.298  1.00  0.00     0.198 A 
ATOM     79  F   UNL A   1      37.637  33.742  28.363  1.00  0.00    -0.203 F 
ATOM     80  F   UNL A   1      34.003  32.648  32.284  1.00  0.00    -0.200 F 
ATOM     81  C   UNL A   1      34.569  33.783  30.293  1.00  0.00     0.200 A 
ATOM     82  F   UNL A   1      35.182  34.890  28.299  1.00  0.00    -0.200 F 
ATOM     83  F   UNL A   1      33.352  34.344  30.248  1.00  0.00    -0.200 F 
ENDBRANCH  49  73
BRANCH  61  84
ATOM     84  C   UNL A   1      43.234  34.787  32.934  1.00  0.00     0.064 A 
ATOM     85  C   UNL A   1      43.609  35.927  32.210  1.00  0.00     0.173 A 
ATOM     86  C   UNL A   1      43.192  34.875  34.333  1.00  0.00     0.173 A 
ATOM     87  F   UNL A   1      43.678  35.885  30.871  1.00  0.00    -0.203 F 
ATOM     88  C   UNL A   1      43.935  37.112  32.865  1.00  0.00     0.198 A 
ATOM     89  C   UNL A   1      43.496  36.068  34.982  1.00  0.00     0.198 A 
ATOM     90  F   UNL A   1      42.833  33.812  35.067  1.00  0.00    -0.203 F 
ATOM     91  F   UNL A   1      44.315  38.184  32.156  1.00  0.00    -0.200 F 
ATOM     92  C   UNL A   1      43.869  37.183  34.249  1.00  0.00     0.200 A 
ATOM     93  F   UNL A   1      43.421  36.140  36.318  1.00  0.00    -0.200 F 
ATOM     94  F   UNL A   1      44.167  38.330  34.875  1.00  0.00    -0.200 F 
ENDBRANCH  61  84
ENDBRANCH  35  36
ENDBRANCH  27  30
ENDBRANCH  25  26
ENDBRANCH   1  25
TORSDOF 12
ENDMDL
MODEL 3
REMARK VINA RESULT:     -13.4      1.551      2.218
REMARK SMILES Cc1cc2c(c(C)c1Cl)C=C(C(=O)NCCCCNC(=O)c1ccc(-c3c4nc(c(-c5c(F)c(F)c(F)c(F)c5F)c5ccc([nH]5)c(-c5c(F)c(F)c(F)c(F)c5F)c5nc(c(-c6c(F)c(F)c(F)c(F)c6F)c6ccc3[nH]6)C=C5)C=C4)cc1)[C@@H](C(F)(F)F)O2
REMARK SMILES IDX 17 1 16 2 15 3 14 4 12 5 13 6 11 8 1 9 2 10 3 11 8 12 4 13
REMARK SMILES IDX 6 14 9 15 5 16 90 17 7 18 10 19 85 20 86 21 87 22 88 23
REMARK SMILES IDX 89 24 18 25 19 26 20 27 21 29 22 30 23 31 84 32 24 33 83 34
REMARK SMILES IDX 25 35 26 36 27 37 77 38 28 39 82 40 76 41 78 42 29 43 81 44
REMARK SMILES IDX 75 45 74 46 30 48 62 49 42 50 61 51 43 52 46 53 60 54 79 55
REMARK SMILES IDX 44 56 45 57 59 59 80 60 47 61 31 62 32 63 40 64 33 65 34 66
REMARK SMILES IDX 38 67 41 68 35 69 36 70 39 71 37 72 63 73 64 74 72 75 65 76
REMARK SMILES IDX 66 77 70 78 73 79 67 80 68 81 71 82 69 83 48 84 49 85 57 86
REMARK SMILES IDX 50 87 51 88 55 89 58 90 52 91 53 92 56 93 54 94
REMARK H PARENT 14 7 19 28 78 47 46 58
REMARK Flexibility Score: inf
ROOT
ATOM      1  C   UNL A   1      31.585  31.976  26.819  1.00  0.00     0.023 C 
ENDROOT
BRANCH   1   2
ATOM      2  C   UNL A   1      31.864  30.476  26.701  1.00  0.00     0.023 C 
BRANCH   2   3
ATOM      3  C   UNL A   1      33.242  30.141  26.138  1.00  0.00     0.116 C 
BRANCH   3   4
ATOM      4  N   UNL A   1      33.166  29.670  24.768  1.00  0.00    -0.352 N 
ATOM      5  C   UNL A   1      33.024  28.481  24.137  1.00  0.00     0.251 C 
ATOM      6  O   UNL A   1      33.021  28.544  22.903  1.00  0.00    -0.270 OA
ATOM      7  H   UNL A   1      33.235  30.414  24.126  1.00  0.00     0.163 HD
BRANCH   5   8
ATOM      8  C   UNL A   1      32.878  27.156  24.809  1.00  0.00     0.067 C 
ATOM      9  C   UNL A   1      33.462  21.123  27.202  1.00  0.00     0.046 C 
ATOM     10  C   UNL A   1      33.594  22.425  26.458  1.00  0.00    -0.028 A 
ATOM     11  C   UNL A   1      32.745  23.480  26.803  1.00  0.00     0.052 A 
ATOM     12  C   UNL A   1      34.553  22.626  25.444  1.00  0.00     0.047 A 
ATOM     13  C   UNL A   1      32.837  24.703  26.147  1.00  0.00     0.128 A 
ATOM     14  C   UNL A   1      34.658  23.867  24.770  1.00  0.00    -0.021 A 
ATOM     15  Cl  UNL A   1      35.620  21.310  25.050  1.00  0.00    -0.084 Cl
ATOM     16  C   UNL A   1      33.787  24.919  25.145  1.00  0.00     0.022 A 
ATOM     17  O   UNL A   1      31.979  25.669  26.588  1.00  0.00    -0.475 OA
ATOM     18  C   UNL A   1      35.678  24.097  23.680  1.00  0.00     0.047 C 
ATOM     19  C   UNL A   1      33.856  26.264  24.562  1.00  0.00     0.026 C 
ATOM     20  C   UNL A   1      31.719  26.770  25.680  1.00  0.00     0.314 C 
BRANCH  20  21
ATOM     21  C   UNL A   1      30.438  26.482  24.876  1.00  0.00     0.429 C 
ATOM     22  F   UNL A   1      29.497  25.917  25.672  1.00  0.00    -0.167 F 
ATOM     23  F   UNL A   1      29.881  27.608  24.369  1.00  0.00    -0.167 F 
ATOM     24  F   UNL A   1      30.650  25.644  23.837  1.00  0.00    -0.167 F 
ENDBRANCH  20  21
ENDBRANCH   5   8
ENDBRANCH   3   4
ENDBRANCH   2   3
ENDBRANCH   1   2
BRANCH   1  25
ATOM     25  C   UNL A   1      32.771  32.830  27.267  1.00  0.00     0.116 C 
BRANCH  25  26
ATOM     26  N   UNL A   1      32.408  34.185  27.658  1.00  0.00    -0.352 N 
ATOM     27  C   UNL A   1      32.994  34.976  28.616  1.00  0.00     0.251 C 
ATOM     28  H   UNL A   1      31.647  34.583  27.177  1.00  0.00     0.163 HD
ATOM     29  O   UNL A   1      32.538  36.079  28.891  1.00  0.00    -0.269 OA
BRANCH  27  30
ATOM     30  C   UNL A   1      34.162  34.450  29.346  1.00  0.00     0.039 A 
ATOM     31  C   UNL A   1      33.949  33.733  30.525  1.00  0.00     0.014 A 
ATOM     32  C   UNL A   1      35.448  34.604  28.820  1.00  0.00     0.014 A 
ATOM     33  C   UNL A   1      35.027  33.100  31.142  1.00  0.00     0.010 A 
ATOM     34  C   UNL A   1      36.510  33.924  29.404  1.00  0.00     0.010 A 
ATOM     35  C   UNL A   1      36.306  33.160  30.564  1.00  0.00    -0.014 A 
BRANCH  35  36
ATOM     36  C   UNL A   1      37.445  32.426  31.160  1.00  0.00     0.031 A 
ATOM     37  C   UNL A   1      37.935  32.790  32.529  1.00  0.00     0.074 A 
ATOM     38  C   UNL A   1      38.071  31.473  30.442  1.00  0.00     0.049 A 
ATOM     39  N   UNL A   1      38.949  32.308  33.199  1.00  0.00    -0.248 NA
ATOM     40  C   UNL A   1      37.200  33.855  33.230  1.00  0.00     0.031 C 
ATOM     41  C   UNL A   1      37.708  31.064  29.084  1.00  0.00     0.029 A 
ATOM     42  N   UNL A   1      39.143  30.678  30.756  1.00  0.00    -0.354 N 
ATOM     43  C   UNL A   1      38.979  33.015  34.392  1.00  0.00     0.074 A 
ATOM     44  C   UNL A   1      37.917  33.994  34.335  1.00  0.00     0.031 C 
ATOM     45  C   UNL A   1      38.525  30.072  28.693  1.00  0.00     0.029 A 
ATOM     46  C   UNL A   1      39.485  29.798  29.759  1.00  0.00     0.049 A 
ATOM     47  H   UNL A   1      39.623  30.733  31.613  1.00  0.00     0.167 HD
ATOM     48  C   UNL A   1      39.805  32.843  35.451  1.00  0.00     0.037 A 
ATOM     49  C   UNL A   1      40.461  28.872  29.715  1.00  0.00     0.037 A 
ATOM     50  C   UNL A   1      40.841  31.850  35.516  1.00  0.00     0.049 A 
ATOM     51  C   UNL A   1      41.367  28.704  30.902  1.00  0.00     0.074 A 
ATOM     52  C   UNL A   1      41.699  31.563  36.563  1.00  0.00     0.029 A 
ATOM     53  N   UNL A   1      41.158  30.975  34.486  1.00  0.00    -0.354 N 
ATOM     54  N   UNL A   1      41.359  29.346  32.045  1.00  0.00    -0.248 NA
ATOM     55  C   UNL A   1      42.419  27.682  30.796  1.00  0.00     0.031 C 
ATOM     56  C   UNL A   1      42.554  30.533  36.157  1.00  0.00     0.029 A 
ATOM     57  C   UNL A   1      42.207  30.156  34.869  1.00  0.00     0.049 A 
ATOM     58  H   UNL A   1      40.704  30.941  33.613  1.00  0.00     0.167 HD
ATOM     59  C   UNL A   1      42.386  28.798  32.799  1.00  0.00     0.074 A 
ATOM     60  C   UNL A   1      42.992  27.760  31.990  1.00  0.00     0.031 C 
ATOM     61  C   UNL A   1      42.793  29.127  34.048  1.00  0.00     0.037 A 
BRANCH  48  62
ATOM     62  C   UNL A   1      39.603  33.741  36.634  1.00  0.00     0.064 A 
ATOM     63  C   UNL A   1      40.194  35.012  36.692  1.00  0.00     0.173 A 
ATOM     64  C   UNL A   1      38.790  33.343  37.704  1.00  0.00     0.173 A 
ATOM     65  F   UNL A   1      40.994  35.430  35.699  1.00  0.00    -0.203 F 
ATOM     66  C   UNL A   1      39.996  35.844  37.790  1.00  0.00     0.198 A 
ATOM     67  C   UNL A   1      38.573  34.187  38.790  1.00  0.00     0.198 A 
ATOM     68  F   UNL A   1      38.202  32.137  37.695  1.00  0.00    -0.203 F 
ATOM     69  F   UNL A   1      40.604  37.036  37.844  1.00  0.00    -0.200 F 
ATOM     70  C   UNL A   1      39.181  35.434  38.835  1.00  0.00     0.200 A 
ATOM     71  F   UNL A   1      37.779  33.794  39.795  1.00  0.00    -0.200 F 
ATOM     72  F   UNL A   1      38.986  36.237  39.890  1.00  0.00    -0.200 F 
ENDBRANCH  48  62
BRANCH  49  73
ATOM     73  C   UNL A   1      40.597  28.003  28.519  1.00  0.00     0.064 A 
ATOM     74  C   UNL A   1      39.939  26.766  28.460  1.00  0.00     0.173 A 
ATOM     75  C   UNL A   1      41.359  28.394  27.410  1.00  0.00     0.173 A 
ATOM     76  F   UNL A   1      39.215  26.343  29.506  1.00  0.00    -0.203 F 
ATOM     77  C   UNL A   1      40.044  25.949  27.336  1.00  0.00     0.198 A 
ATOM     78  C   UNL A   1      41.446  27.585  26.278  1.00  0.00     0.198 A 
ATOM     79  F   UNL A   1      42.002  29.571  27.418  1.00  0.00    -0.203 F 
ATOM     80  F   UNL A   1      39.427  24.761  27.315  1.00  0.00    -0.200 F 
ATOM     81  C   UNL A   1      40.792  26.363  26.244  1.00  0.00     0.200 A 
ATOM     82  F   UNL A   1      42.159  27.993  25.220  1.00  0.00    -0.200 F 
ATOM     83  F   UNL A   1      40.885  25.582  25.159  1.00  0.00    -0.200 F 
ENDBRANCH  49  73
BRANCH  61  84
ATOM     84  C   UNL A   1      43.936  28.353  34.629  1.00  0.00     0.064 A 
ATOM     85  C   UNL A   1      45.255  28.817  34.525  1.00  0.00     0.173 A 
ATOM     86  C   UNL A   1      43.703  27.179  35.358  1.00  0.00     0.173 A 
ATOM     87  F   UNL A   1      45.527  29.929  33.825  1.00  0.00    -0.203 F 
ATOM     88  C   UNL A   1      46.303  28.126  35.127  1.00  0.00     0.198 A 
ATOM     89  C   UNL A   1      44.751  26.503  35.977  1.00  0.00     0.198 A 
ATOM     90  F   UNL A   1      42.457  26.701  35.490  1.00  0.00    -0.203 F 
ATOM     91  F   UNL A   1      47.560  28.573  34.996  1.00  0.00    -0.200 F 
ATOM     92  C   UNL A   1      46.049  26.976  35.860  1.00  0.00     0.200 A 
ATOM     93  F   UNL A   1      44.503  25.399  36.695  1.00  0.00    -0.200 F 
ATOM     94  F   UNL A   1      47.058  26.322  36.452  1.00  0.00    -0.200 F 
ENDBRANCH  61  84
ENDBRANCH  35  36
ENDBRANCH  27  30
ENDBRANCH  25  26
ENDBRANCH   1  25
TORSDOF 12
ENDMDL
