MODEL 1
REMARK VINA RESULT:     -11.9      0.000      0.000
REMARK SMILES CCN(C(=O)c1ccccc1C(=O)NCCCCNC(=O)c1ccc(-c2c3nc(c(-c4c(F)c(F)c(F)c(F)c4F)c4ccc([nH]4)c(-c4c(F)c(F)c(F)c(F)c4F)c4nc(c(-c5c(F)c(F)c(F)c(F)c5F)c5ccc2[nH]5)C=C4)C=C3)cc1)[C@H](CCO)c1ccccc1
REMARK SMILES IDX 12 1 13 2 14 3 11 5 6 6 7 7 8 8 10 9 9 10 4 11 5 12 3 13
REMARK SMILES IDX 2 14 1 15 85 16 89 17 90 18 94 19 91 20 93 21 92 22 86 23
REMARK SMILES IDX 87 24 88 25 15 27 16 28 17 29 18 30 19 31 20 32 21 34 22 35
REMARK SMILES IDX 23 36 84 37 24 38 83 39 25 40 26 41 27 42 77 43 28 44 82 45
REMARK SMILES IDX 76 46 78 47 29 48 81 49 75 50 74 51 30 53 62 54 42 55 61 56
REMARK SMILES IDX 43 57 46 58 60 59 79 60 44 61 45 62 59 64 80 65 47 66 31 67
REMARK SMILES IDX 32 68 40 69 33 70 34 71 38 72 41 73 35 74 36 75 39 76 37 77
REMARK SMILES IDX 63 78 64 79 72 80 65 81 66 82 70 83 73 84 67 85 68 86 71 87
REMARK SMILES IDX 69 88 48 89 49 90 57 91 50 92 51 93 55 94 58 95 52 96 53 97
REMARK SMILES IDX 56 98 54 99
REMARK H PARENT 14 4 88 26 19 33 78 52 46 63
REMARK Flexibility Score: inf
ROOT
ATOM      1  C   UNL A   1      33.130  28.703  24.537  1.00  0.00     0.252 C 
ATOM      2  O   UNL A   1      34.008  28.527  23.683  1.00  0.00    -0.269 OA
ATOM      3  N   UNL A   1      33.553  29.338  25.692  1.00  0.00    -0.352 N 
ATOM      4  H   UNL A   1      34.526  29.484  25.737  1.00  0.00     0.163 HD
ENDROOT
BRANCH   1   5
ATOM      5  C   UNL A   1      31.767  28.151  24.208  1.00  0.00     0.052 A 
ATOM      6  C   UNL A   1      31.143  26.991  24.677  1.00  0.00     0.052 A 
ATOM      7  C   UNL A   1      29.821  26.646  24.306  1.00  0.00     0.014 A 
ATOM      8  C   UNL A   1      29.066  27.488  23.501  1.00  0.00     0.001 A 
ATOM      9  C   UNL A   1      30.961  28.993  23.404  1.00  0.00     0.014 A 
ATOM     10  C   UNL A   1      29.636  28.670  23.056  1.00  0.00     0.001 A 
BRANCH   6  11
ATOM     11  C   UNL A   1      31.791  25.977  25.491  1.00  0.00     0.255 C 
ATOM     12  O   UNL A   1      31.819  26.301  26.674  1.00  0.00    -0.269 OA
BRANCH  11  13
ATOM     13  N   UNL A   1      32.354  24.839  24.897  1.00  0.00    -0.332 N 
BRANCH  13  14
ATOM     14  C   UNL A   1      31.951  23.493  25.367  1.00  0.00     0.117 C 
ATOM     15  C   UNL A   1      32.281  23.129  26.809  1.00  0.00     0.027 C 
ENDBRANCH  13  14
BRANCH  13  16
ATOM     16  C   UNL A   1      33.450  24.956  23.884  1.00  0.00     0.118 C 
BRANCH  16  17
ATOM     17  C   UNL A   1      34.730  24.138  24.206  1.00  0.00    -0.025 A 
ATOM     18  C   UNL A   1      35.474  24.342  25.384  1.00  0.00     0.006 A 
ATOM     19  C   UNL A   1      35.269  23.228  23.292  1.00  0.00     0.006 A 
ATOM     20  C   UNL A   1      36.694  23.720  25.649  1.00  0.00     0.000 A 
ATOM     21  C   UNL A   1      36.489  22.578  23.555  1.00  0.00     0.000 A 
ATOM     22  C   UNL A   1      37.204  22.829  24.726  1.00  0.00     0.000 A 
ENDBRANCH  16  17
BRANCH  16  23
ATOM     23  C   UNL A   1      33.003  24.776  22.395  1.00  0.00     0.058 C 
BRANCH  23  24
ATOM     24  C   UNL A   1      32.901  25.969  21.441  1.00  0.00     0.158 C 
BRANCH  24  25
ATOM     25  O   UNL A   1      31.576  26.197  20.994  1.00  0.00    -0.396 OA
ATOM     26  H   UNL A   1      31.482  25.877  20.083  1.00  0.00     0.210 HD
ENDBRANCH  24  25
ENDBRANCH  23  24
ENDBRANCH  16  23
ENDBRANCH  13  16
ENDBRANCH  11  13
ENDBRANCH   6  11
ENDBRANCH   1   5
BRANCH   3  27
ATOM     27  C   UNL A   1      32.830  29.827  26.845  1.00  0.00     0.116 C 
BRANCH  27  28
ATOM     28  C   UNL A   1      31.524  30.620  26.633  1.00  0.00     0.023 C 
BRANCH  28  29
ATOM     29  C   UNL A   1      31.403  32.149  26.830  1.00  0.00     0.023 C 
BRANCH  29  30
ATOM     30  C   UNL A   1      32.567  33.165  26.876  1.00  0.00     0.116 C 
BRANCH  30  31
ATOM     31  N   UNL A   1      32.702  34.094  27.983  1.00  0.00    -0.352 N 
ATOM     32  C   UNL A   1      33.809  34.317  28.798  1.00  0.00     0.251 C 
ATOM     33  H   UNL A   1      31.907  34.639  28.183  1.00  0.00     0.163 HD
ATOM     34  O   UNL A   1      33.840  35.238  29.597  1.00  0.00    -0.269 OA
BRANCH  32  35
ATOM     35  C   UNL A   1      34.905  33.320  28.827  1.00  0.00     0.039 A 
ATOM     36  C   UNL A   1      36.202  33.821  28.667  1.00  0.00     0.014 A 
ATOM     37  C   UNL A   1      34.704  31.981  29.152  1.00  0.00     0.014 A 
ATOM     38  C   UNL A   1      37.293  33.039  29.037  1.00  0.00     0.010 A 
ATOM     39  C   UNL A   1      35.787  31.217  29.578  1.00  0.00     0.010 A 
ATOM     40  C   UNL A   1      37.077  31.772  29.595  1.00  0.00    -0.014 A 
BRANCH  40  41
ATOM     41  C   UNL A   1      38.164  31.099  30.346  1.00  0.00     0.031 A 
ATOM     42  C   UNL A   1      38.438  31.439  31.775  1.00  0.00     0.074 A 
ATOM     43  C   UNL A   1      38.949  30.223  29.684  1.00  0.00     0.049 A 
ATOM     44  N   UNL A   1      39.365  30.970  32.571  1.00  0.00    -0.248 NA
ATOM     45  C   UNL A   1      37.573  32.458  32.387  1.00  0.00     0.031 C 
ATOM     46  C   UNL A   1      38.813  29.868  28.269  1.00  0.00     0.029 A 
ATOM     47  N   UNL A   1      40.017  29.474  30.108  1.00  0.00    -0.354 N 
ATOM     48  C   UNL A   1      39.192  31.629  33.778  1.00  0.00     0.074 A 
ATOM     49  C   UNL A   1      38.111  32.574  33.593  1.00  0.00     0.031 C 
ATOM     50  C   UNL A   1      39.740  28.953  27.949  1.00  0.00     0.029 A 
ATOM     51  C   UNL A   1      40.556  28.676  29.126  1.00  0.00     0.049 A 
ATOM     52  H   UNL A   1      40.366  29.504  31.028  1.00  0.00     0.167 HD
ATOM     53  C   UNL A   1      39.860  31.441  34.941  1.00  0.00     0.037 A 
ATOM     54  C   UNL A   1      41.590  27.816  29.172  1.00  0.00     0.037 A 
ATOM     55  C   UNL A   1      40.935  30.497  35.111  1.00  0.00     0.049 A 
ATOM     56  C   UNL A   1      42.310  27.624  30.478  1.00  0.00     0.074 A 
ATOM     57  C   UNL A   1      41.666  30.214  36.251  1.00  0.00     0.029 A 
ATOM     58  N   UNL A   1      41.432  29.682  34.104  1.00  0.00    -0.354 N 
ATOM     59  N   UNL A   1      42.092  28.204  31.634  1.00  0.00    -0.248 NA
ATOM     60  C   UNL A   1      43.411  26.652  30.492  1.00  0.00     0.031 C 
ATOM     61  C   UNL A   1      42.625  29.247  35.926  1.00  0.00     0.029 A 
ATOM     62  C   UNL A   1      42.466  28.900  34.594  1.00  0.00     0.049 A 
ATOM     63  H   UNL A   1      41.101  29.662  33.176  1.00  0.00     0.167 HD
ATOM     64  C   UNL A   1      43.007  27.650  32.517  1.00  0.00     0.074 A 
ATOM     65  C   UNL A   1      43.772  26.674  31.767  1.00  0.00     0.031 C 
ATOM     66  C   UNL A   1      43.202  27.926  33.829  1.00  0.00     0.037 A 
BRANCH  53  67
ATOM     67  C   UNL A   1      39.433  32.265  36.118  1.00  0.00     0.064 A 
ATOM     68  C   UNL A   1      40.045  33.496  36.404  1.00  0.00     0.173 A 
ATOM     69  C   UNL A   1      38.397  31.836  36.960  1.00  0.00     0.173 A 
ATOM     70  F   UNL A   1      41.050  33.944  35.638  1.00  0.00    -0.203 F 
ATOM     71  C   UNL A   1      39.655  34.251  37.508  1.00  0.00     0.198 A 
ATOM     72  C   UNL A   1      37.991  32.607  38.046  1.00  0.00     0.198 A 
ATOM     73  F   UNL A   1      37.778  30.669  36.729  1.00  0.00    -0.203 F 
ATOM     74  F   UNL A   1      40.290  35.396  37.790  1.00  0.00    -0.200 F 
ATOM     75  C   UNL A   1      38.626  33.809  38.324  1.00  0.00     0.200 A 
ATOM     76  F   UNL A   1      36.991  32.183  38.830  1.00  0.00    -0.200 F 
ATOM     77  F   UNL A   1      38.253  34.535  39.386  1.00  0.00    -0.200 F 
ENDBRANCH  53  67
BRANCH  54  78
ATOM     78  C   UNL A   1      41.982  27.047  27.962  1.00  0.00     0.064 A 
ATOM     79  C   UNL A   1      42.904  27.570  27.044  1.00  0.00     0.173 A 
ATOM     80  C   UNL A   1      41.439  25.783  27.690  1.00  0.00     0.173 A 
ATOM     81  F   UNL A   1      43.439  28.783  27.251  1.00  0.00    -0.203 F 
ATOM     82  C   UNL A   1      43.246  26.872  25.887  1.00  0.00     0.198 A 
ATOM     83  C   UNL A   1      41.804  25.073  26.547  1.00  0.00     0.198 A 
ATOM     84  F   UNL A   1      40.561  25.232  28.541  1.00  0.00    -0.203 F 
ATOM     85  F   UNL A   1      44.091  27.419  25.003  1.00  0.00    -0.200 F 
ATOM     86  C   UNL A   1      42.699  25.622  25.642  1.00  0.00     0.200 A 
ATOM     87  F   UNL A   1      41.282  23.859  26.321  1.00  0.00    -0.200 F 
ATOM     88  F   UNL A   1      43.027  24.951  24.529  1.00  0.00    -0.200 F 
ENDBRANCH  54  78
BRANCH  66  89
ATOM     89  C   UNL A   1      44.260  27.137  34.541  1.00  0.00     0.064 A 
ATOM     90  C   UNL A   1      45.576  27.609  34.651  1.00  0.00     0.173 A 
ATOM     91  C   UNL A   1      43.943  25.914  35.150  1.00  0.00     0.173 A 
ATOM     92  F   UNL A   1      45.929  28.765  34.071  1.00  0.00    -0.203 F 
ATOM     93  C   UNL A   1      46.543  26.872  35.328  1.00  0.00     0.198 A 
ATOM     94  C   UNL A   1      44.907  25.193  35.847  1.00  0.00     0.198 A 
ATOM     95  F   UNL A   1      42.697  25.424  35.074  1.00  0.00    -0.203 F 
ATOM     96  F   UNL A   1      47.806  27.318  35.383  1.00  0.00    -0.200 F 
ATOM     97  C   UNL A   1      46.207  25.668  35.931  1.00  0.00     0.200 A 
ATOM     98  F   UNL A   1      44.578  24.036  36.439  1.00  0.00    -0.200 F 
ATOM     99  F   UNL A   1      47.139  24.963  36.586  1.00  0.00    -0.200 F 
ENDBRANCH  66  89
ENDBRANCH  40  41
ENDBRANCH  32  35
ENDBRANCH  30  31
ENDBRANCH  29  30
ENDBRANCH  28  29
ENDBRANCH  27  28
ENDBRANCH   3  27
TORSDOF 19
ENDMDL
MODEL 2
REMARK VINA RESULT:     -11.8      4.425     10.142
REMARK SMILES CCN(C(=O)c1ccccc1C(=O)NCCCCNC(=O)c1ccc(-c2c3nc(c(-c4c(F)c(F)c(F)c(F)c4F)c4ccc([nH]4)c(-c4c(F)c(F)c(F)c(F)c4F)c4nc(c(-c5c(F)c(F)c(F)c(F)c5F)c5ccc2[nH]5)C=C4)C=C3)cc1)[C@H](CCO)c1ccccc1
REMARK SMILES IDX 12 1 13 2 14 3 11 5 6 6 7 7 8 8 10 9 9 10 4 11 5 12 3 13
REMARK SMILES IDX 2 14 1 15 85 16 89 17 90 18 94 19 91 20 93 21 92 22 86 23
REMARK SMILES IDX 87 24 88 25 15 27 16 28 17 29 18 30 19 31 20 32 21 34 22 35
REMARK SMILES IDX 23 36 84 37 24 38 83 39 25 40 26 41 27 42 77 43 28 44 82 45
REMARK SMILES IDX 76 46 78 47 29 48 81 49 75 50 74 51 30 53 62 54 42 55 61 56
REMARK SMILES IDX 43 57 46 58 60 59 79 60 44 61 45 62 59 64 80 65 47 66 31 67
REMARK SMILES IDX 32 68 40 69 33 70 34 71 38 72 41 73 35 74 36 75 39 76 37 77
REMARK SMILES IDX 63 78 64 79 72 80 65 81 66 82 70 83 73 84 67 85 68 86 71 87
REMARK SMILES IDX 69 88 48 89 49 90 57 91 50 92 51 93 55 94 58 95 52 96 53 97
REMARK SMILES IDX 56 98 54 99
REMARK H PARENT 14 4 88 26 19 33 78 52 46 63
REMARK Flexibility Score: inf
ROOT
ATOM      1  C   UNL A   1      34.399  22.688  25.922  1.00  0.00     0.252 C 
ATOM      2  O   UNL A   1      33.976  22.573  27.079  1.00  0.00    -0.269 OA
ATOM      3  N   UNL A   1      35.556  23.437  25.792  1.00  0.00    -0.352 N 
ATOM      4  H   UNL A   1      35.849  23.873  26.624  1.00  0.00     0.163 HD
ENDROOT
BRANCH   1   5
ATOM      5  C   UNL A   1      33.562  22.047  24.845  1.00  0.00     0.052 A 
ATOM      6  C   UNL A   1      33.006  22.619  23.697  1.00  0.00     0.052 A 
ATOM      7  C   UNL A   1      32.286  21.852  22.749  1.00  0.00     0.014 A 
ATOM      8  C   UNL A   1      32.157  20.478  22.896  1.00  0.00     0.001 A 
ATOM      9  C   UNL A   1      33.426  20.642  24.953  1.00  0.00     0.014 A 
ATOM     10  C   UNL A   1      32.737  19.870  23.999  1.00  0.00     0.001 A 
BRANCH   6  11
ATOM     11  C   UNL A   1      33.006  24.041  23.400  1.00  0.00     0.255 C 
ATOM     12  O   UNL A   1      33.926  24.342  22.646  1.00  0.00    -0.269 OA
BRANCH  11  13
ATOM     13  N   UNL A   1      32.078  24.897  24.010  1.00  0.00    -0.332 N 
BRANCH  13  14
ATOM     14  C   UNL A   1      31.300  25.844  23.177  1.00  0.00     0.117 C 
ATOM     15  C   UNL A   1      32.048  27.031  22.585  1.00  0.00     0.027 C 
ENDBRANCH  13  14
BRANCH  13  16
ATOM     16  C   UNL A   1      31.949  24.964  25.500  1.00  0.00     0.118 C 
BRANCH  16  17
ATOM     17  C   UNL A   1      32.376  26.315  26.134  1.00  0.00    -0.025 A 
ATOM     18  C   UNL A   1      31.456  27.166  26.776  1.00  0.00     0.006 A 
ATOM     19  C   UNL A   1      33.678  26.806  26.009  1.00  0.00     0.006 A 
ATOM     20  C   UNL A   1      31.774  28.441  27.244  1.00  0.00     0.000 A 
ATOM     21  C   UNL A   1      34.019  28.083  26.494  1.00  0.00     0.000 A 
ATOM     22  C   UNL A   1      33.068  28.901  27.103  1.00  0.00     0.000 A 
ENDBRANCH  16  17
BRANCH  16  23
ATOM     23  C   UNL A   1      30.584  24.456  26.074  1.00  0.00     0.058 C 
BRANCH  23  24
ATOM     24  C   UNL A   1      30.316  22.966  26.299  1.00  0.00     0.158 C 
BRANCH  24  25
ATOM     25  O   UNL A   1      29.978  22.670  27.642  1.00  0.00    -0.396 OA
ATOM     26  H   UNL A   1      29.354  23.335  27.973  1.00  0.00     0.210 HD
ENDBRANCH  24  25
ENDBRANCH  23  24
ENDBRANCH  16  23
ENDBRANCH  13  16
ENDBRANCH  11  13
ENDBRANCH   6  11
ENDBRANCH   1   5
BRANCH   3  27
ATOM     27  C   UNL A   1      36.414  23.698  24.657  1.00  0.00     0.116 C 
BRANCH  27  28
ATOM     28  C   UNL A   1      37.028  22.508  23.890  1.00  0.00     0.023 C 
BRANCH  28  29
ATOM     29  C   UNL A   1      37.156  21.081  24.473  1.00  0.00     0.023 C 
BRANCH  29  30
ATOM     30  C   UNL A   1      37.942  20.673  25.740  1.00  0.00     0.116 C 
BRANCH  30  31
ATOM     31  N   UNL A   1      39.310  20.197  25.646  1.00  0.00    -0.352 N 
ATOM     32  C   UNL A   1      40.438  20.664  26.318  1.00  0.00     0.251 C 
ATOM     33  H   UNL A   1      39.461  19.446  25.028  1.00  0.00     0.163 HD
ATOM     34  O   UNL A   1      41.504  20.074  26.263  1.00  0.00    -0.269 OA
BRANCH  32  35
ATOM     35  C   UNL A   1      40.398  21.992  26.972  1.00  0.00     0.039 A 
ATOM     36  C   UNL A   1      41.293  22.189  28.031  1.00  0.00     0.014 A 
ATOM     37  C   UNL A   1      39.642  23.056  26.485  1.00  0.00     0.014 A 
ATOM     38  C   UNL A   1      41.583  23.482  28.457  1.00  0.00     0.010 A 
ATOM     39  C   UNL A   1      39.972  24.354  26.867  1.00  0.00     0.010 A 
ATOM     40  C   UNL A   1      41.000  24.573  27.799  1.00  0.00    -0.014 A 
BRANCH  40  41
ATOM     41  C   UNL A   1      41.578  25.929  27.959  1.00  0.00     0.031 A 
ATOM     42  C   UNL A   1      42.950  26.246  27.458  1.00  0.00     0.074 A 
ATOM     43  C   UNL A   1      40.862  26.852  28.636  1.00  0.00     0.049 A 
ATOM     44  N   UNL A   1      43.619  27.367  27.541  1.00  0.00    -0.248 NA
ATOM     45  C   UNL A   1      43.679  25.153  26.797  1.00  0.00     0.031 C 
ATOM     46  C   UNL A   1      39.540  26.628  29.228  1.00  0.00     0.029 A 
ATOM     47  N   UNL A   1      41.142  28.159  28.944  1.00  0.00    -0.354 N 
ATOM     48  C   UNL A   1      44.842  27.121  26.938  1.00  0.00     0.074 A 
ATOM     49  C   UNL A   1      44.848  25.726  26.548  1.00  0.00     0.031 C 
ATOM     50  C   UNL A   1      39.113  27.763  29.802  1.00  0.00     0.029 A 
ATOM     51  C   UNL A   1      40.140  28.787  29.646  1.00  0.00     0.049 A 
ATOM     52  H   UNL A   1      41.981  28.606  28.689  1.00  0.00     0.167 HD
ATOM     53  C   UNL A   1      45.856  27.989  26.710  1.00  0.00     0.037 A 
ATOM     54  C   UNL A   1      40.059  30.048  30.109  1.00  0.00     0.037 A 
ATOM     55  C   UNL A   1      45.838  29.373  27.103  1.00  0.00     0.049 A 
ATOM     56  C   UNL A   1      41.198  30.990  29.836  1.00  0.00     0.074 A 
ATOM     57  C   UNL A   1      46.804  30.343  26.904  1.00  0.00     0.029 A 
ATOM     58  N   UNL A   1      44.793  29.984  27.783  1.00  0.00    -0.354 N 
ATOM     59  N   UNL A   1      42.324  30.763  29.202  1.00  0.00    -0.248 NA
ATOM     60  C   UNL A   1      41.054  32.366  30.331  1.00  0.00     0.031 C 
ATOM     61  C   UNL A   1      46.356  31.534  27.487  1.00  0.00     0.029 A 
ATOM     62  C   UNL A   1      45.094  31.316  28.017  1.00  0.00     0.049 A 
ATOM     63  H   UNL A   1      43.960  29.537  28.060  1.00  0.00     0.167 HD
ATOM     64  C   UNL A   1      43.009  31.969  29.198  1.00  0.00     0.074 A 
ATOM     65  C   UNL A   1      42.164  32.931  29.877  1.00  0.00     0.031 C 
ATOM     66  C   UNL A   1      44.229  32.256  28.683  1.00  0.00     0.037 A 
BRANCH  53  67
ATOM     67  C   UNL A   1      47.060  27.461  25.988  1.00  0.00     0.064 A 
ATOM     68  C   UNL A   1      47.178  27.571  24.593  1.00  0.00     0.173 A 
ATOM     69  C   UNL A   1      48.112  26.854  26.689  1.00  0.00     0.173 A 
ATOM     70  F   UNL A   1      46.192  28.130  23.875  1.00  0.00    -0.203 F 
ATOM     71  C   UNL A   1      48.290  27.066  23.925  1.00  0.00     0.198 A 
ATOM     72  C   UNL A   1      49.236  26.375  26.021  1.00  0.00     0.198 A 
ATOM     73  F   UNL A   1      48.051  26.727  28.022  1.00  0.00    -0.203 F 
ATOM     74  F   UNL A   1      48.355  27.136  22.589  1.00  0.00    -0.200 F 
ATOM     75  C   UNL A   1      49.320  26.473  24.639  1.00  0.00     0.200 A 
ATOM     76  F   UNL A   1      50.234  25.810  26.712  1.00  0.00    -0.200 F 
ATOM     77  F   UNL A   1      50.389  25.987  23.996  1.00  0.00    -0.200 F 
ENDBRANCH  53  67
BRANCH  54  78
ATOM     78  C   UNL A   1      38.848  30.503  30.841  1.00  0.00     0.064 A 
ATOM     79  C   UNL A   1      37.736  31.005  30.150  1.00  0.00     0.173 A 
ATOM     80  C   UNL A   1      38.779  30.459  32.241  1.00  0.00     0.173 A 
ATOM     81  F   UNL A   1      37.759  31.083  28.811  1.00  0.00    -0.203 F 
ATOM     82  C   UNL A   1      36.613  31.471  30.832  1.00  0.00     0.198 A 
ATOM     83  C   UNL A   1      37.645  30.899  32.921  1.00  0.00     0.198 A 
ATOM     84  F   UNL A   1      39.812  29.979  32.950  1.00  0.00    -0.203 F 
ATOM     85  F   UNL A   1      35.585  31.992  30.148  1.00  0.00    -0.200 F 
ATOM     86  C   UNL A   1      36.566  31.414  32.216  1.00  0.00     0.200 A 
ATOM     87  F   UNL A   1      37.599  30.830  34.258  1.00  0.00    -0.200 F 
ATOM     88  F   UNL A   1      35.487  31.863  32.872  1.00  0.00    -0.200 F 
ENDBRANCH  54  78
BRANCH  66  89
ATOM     89  C   UNL A   1      44.704  33.673  28.806  1.00  0.00     0.064 A 
ATOM     90  C   UNL A   1      44.421  34.629  27.820  1.00  0.00     0.173 A 
ATOM     91  C   UNL A   1      45.418  34.086  29.940  1.00  0.00     0.173 A 
ATOM     92  F   UNL A   1      43.755  34.276  26.710  1.00  0.00    -0.203 F 
ATOM     93  C   UNL A   1      44.856  35.943  27.955  1.00  0.00     0.198 A 
ATOM     94  C   UNL A   1      45.829  35.407  30.084  1.00  0.00     0.198 A 
ATOM     95  F   UNL A   1      45.710  33.208  30.912  1.00  0.00    -0.203 F 
ATOM     96  F   UNL A   1      44.614  36.831  26.980  1.00  0.00    -0.200 F 
ATOM     97  C   UNL A   1      45.554  36.334  29.090  1.00  0.00     0.200 A 
ATOM     98  F   UNL A   1      46.493  35.784  31.185  1.00  0.00    -0.200 F 
ATOM     99  F   UNL A   1      45.968  37.601  29.220  1.00  0.00    -0.200 F 
ENDBRANCH  66  89
ENDBRANCH  40  41
ENDBRANCH  32  35
ENDBRANCH  30  31
ENDBRANCH  29  30
ENDBRANCH  28  29
ENDBRANCH  27  28
ENDBRANCH   3  27
TORSDOF 19
ENDMDL
MODEL 3
REMARK VINA RESULT:     -11.6      1.685      7.401
REMARK SMILES CCN(C(=O)c1ccccc1C(=O)NCCCCNC(=O)c1ccc(-c2c3nc(c(-c4c(F)c(F)c(F)c(F)c4F)c4ccc([nH]4)c(-c4c(F)c(F)c(F)c(F)c4F)c4nc(c(-c5c(F)c(F)c(F)c(F)c5F)c5ccc2[nH]5)C=C4)C=C3)cc1)[C@H](CCO)c1ccccc1
REMARK SMILES IDX 12 1 13 2 14 3 11 5 6 6 7 7 8 8 10 9 9 10 4 11 5 12 3 13
REMARK SMILES IDX 2 14 1 15 85 16 89 17 90 18 94 19 91 20 93 21 92 22 86 23
REMARK SMILES IDX 87 24 88 25 15 27 16 28 17 29 18 30 19 31 20 32 21 34 22 35
REMARK SMILES IDX 23 36 84 37 24 38 83 39 25 40 26 41 27 42 77 43 28 44 82 45
REMARK SMILES IDX 76 46 78 47 29 48 81 49 75 50 74 51 30 53 62 54 42 55 61 56
REMARK SMILES IDX 43 57 46 58 60 59 79 60 44 61 45 62 59 64 80 65 47 66 31 67
REMARK SMILES IDX 32 68 40 69 33 70 34 71 38 72 41 73 35 74 36 75 39 76 37 77
REMARK SMILES IDX 63 78 64 79 72 80 65 81 66 82 70 83 73 84 67 85 68 86 71 87
REMARK SMILES IDX 69 88 48 89 49 90 57 91 50 92 51 93 55 94 58 95 52 96 53 97
REMARK SMILES IDX 56 98 54 99
REMARK H PARENT 14 4 88 26 19 33 78 52 46 63
REMARK Flexibility Score: inf
ROOT
ATOM      1  C   UNL A   1      33.596  28.622  23.859  1.00  0.00     0.252 C 
ATOM      2  O   UNL A   1      34.109  29.224  22.907  1.00  0.00    -0.269 OA
ATOM      3  N   UNL A   1      34.325  28.654  25.036  1.00  0.00    -0.352 N 
ATOM      4  H   UNL A   1      35.214  29.068  24.947  1.00  0.00     0.163 HD
ENDROOT
BRANCH   1   5
ATOM      5  C   UNL A   1      32.300  27.910  23.570  1.00  0.00     0.052 A 
ATOM      6  C   UNL A   1      32.083  26.578  23.204  1.00  0.00     0.052 A 
ATOM      7  C   UNL A   1      30.781  26.051  23.024  1.00  0.00     0.014 A 
ATOM      8  C   UNL A   1      29.659  26.830  23.268  1.00  0.00     0.001 A 
ATOM      9  C   UNL A   1      31.133  28.669  23.827  1.00  0.00     0.014 A 
ATOM     10  C   UNL A   1      29.837  28.142  23.679  1.00  0.00     0.001 A 
BRANCH   6  11
ATOM     11  C   UNL A   1      33.133  25.633  22.870  1.00  0.00     0.255 C 
ATOM     12  O   UNL A   1      33.611  25.864  21.764  1.00  0.00    -0.269 OA
BRANCH  11  13
ATOM     13  N   UNL A   1      33.439  24.572  23.733  1.00  0.00    -0.332 N 
BRANCH  13  14
ATOM     14  C   UNL A   1      33.780  24.855  25.148  1.00  0.00     0.117 C 
ATOM     15  C   UNL A   1      32.724  24.536  26.198  1.00  0.00     0.027 C 
ENDBRANCH  13  14
BRANCH  13  16
ATOM     16  C   UNL A   1      33.553  23.168  23.226  1.00  0.00     0.118 C 
BRANCH  16  17
ATOM     17  C   UNL A   1      34.785  22.381  23.748  1.00  0.00    -0.025 A 
ATOM     18  C   UNL A   1      34.662  21.303  24.645  1.00  0.00     0.006 A 
ATOM     19  C   UNL A   1      36.091  22.769  23.434  1.00  0.00     0.006 A 
ATOM     20  C   UNL A   1      35.748  20.654  25.234  1.00  0.00     0.000 A 
ATOM     21  C   UNL A   1      37.197  22.112  24.005  1.00  0.00     0.000 A 
ATOM     22  C   UNL A   1      37.026  21.063  24.909  1.00  0.00     0.000 A 
ENDBRANCH  16  17
BRANCH  16  23
ATOM     23  C   UNL A   1      32.240  22.319  23.313  1.00  0.00     0.058 C 
BRANCH  23  24
ATOM     24  C   UNL A   1      32.109  20.974  22.596  1.00  0.00     0.158 C 
BRANCH  24  25
ATOM     25  O   UNL A   1      31.685  21.111  21.251  1.00  0.00    -0.396 OA
ATOM     26  H   UNL A   1      31.078  21.865  21.179  1.00  0.00     0.210 HD
ENDBRANCH  24  25
ENDBRANCH  23  24
ENDBRANCH  16  23
ENDBRANCH  13  16
ENDBRANCH  11  13
ENDBRANCH   6  11
ENDBRANCH   1   5
BRANCH   3  27
ATOM     27  C   UNL A   1      34.022  28.191  26.372  1.00  0.00     0.116 C 
BRANCH  27  28
ATOM     28  C   UNL A   1      33.297  29.140  27.349  1.00  0.00     0.023 C 
BRANCH  28  29
ATOM     29  C   UNL A   1      32.879  30.586  26.996  1.00  0.00     0.023 C 
BRANCH  29  30
ATOM     30  C   UNL A   1      33.532  31.885  27.520  1.00  0.00     0.116 C 
BRANCH  30  31
ATOM     31  N   UNL A   1      32.739  33.083  27.737  1.00  0.00    -0.352 N 
ATOM     32  C   UNL A   1      33.115  34.268  28.364  1.00  0.00     0.251 C 
ATOM     33  H   UNL A   1      31.817  33.052  27.395  1.00  0.00     0.163 HD
ATOM     34  O   UNL A   1      32.399  35.256  28.344  1.00  0.00    -0.269 OA
BRANCH  32  35
ATOM     35  C   UNL A   1      34.323  34.289  29.220  1.00  0.00     0.039 A 
ATOM     36  C   UNL A   1      34.136  33.952  30.566  1.00  0.00     0.014 A 
ATOM     37  C   UNL A   1      35.608  34.472  28.714  1.00  0.00     0.014 A 
ATOM     38  C   UNL A   1      35.232  33.594  31.345  1.00  0.00     0.010 A 
ATOM     39  C   UNL A   1      36.701  34.059  29.472  1.00  0.00     0.010 A 
ATOM     40  C   UNL A   1      36.507  33.544  30.764  1.00  0.00    -0.014 A 
BRANCH  40  41
ATOM     41  C   UNL A   1      37.599  32.804  31.439  1.00  0.00     0.031 A 
ATOM     42  C   UNL A   1      38.254  31.631  30.784  1.00  0.00     0.074 A 
ATOM     43  C   UNL A   1      37.938  33.170  32.693  1.00  0.00     0.049 A 
ATOM     44  N   UNL A   1      39.201  30.854  31.244  1.00  0.00    -0.248 NA
ATOM     45  C   UNL A   1      37.766  31.265  29.447  1.00  0.00     0.031 C 
ATOM     46  C   UNL A   1      37.316  34.258  33.453  1.00  0.00     0.029 A 
ATOM     47  N   UNL A   1      38.884  32.670  33.552  1.00  0.00    -0.354 N 
ATOM     48  C   UNL A   1      39.429  29.913  30.251  1.00  0.00     0.074 A 
ATOM     49  C   UNL A   1      38.480  30.178  29.191  1.00  0.00     0.031 C 
ATOM     50  C   UNL A   1      37.912  34.361  34.651  1.00  0.00     0.029 A 
ATOM     51  C   UNL A   1      38.939  33.331  34.757  1.00  0.00     0.049 A 
ATOM     52  H   UNL A   1      39.468  31.910  33.328  1.00  0.00     0.167 HD
ATOM     53  C   UNL A   1      40.364  28.934  30.221  1.00  0.00     0.037 A 
ATOM     54  C   UNL A   1      39.731  33.128  35.826  1.00  0.00     0.037 A 
ATOM     55  C   UNL A   1      41.303  28.680  31.283  1.00  0.00     0.049 A 
ATOM     56  C   UNL A   1      40.763  32.037  35.761  1.00  0.00     0.074 A 
ATOM     57  C   UNL A   1      42.303  27.727  31.346  1.00  0.00     0.029 A 
ATOM     58  N   UNL A   1      41.352  29.390  32.475  1.00  0.00    -0.354 N 
ATOM     59  N   UNL A   1      41.016  31.195  34.787  1.00  0.00    -0.248 NA
ATOM     60  C   UNL A   1      41.628  31.871  36.937  1.00  0.00     0.031 C 
ATOM     61  C   UNL A   1      42.939  27.841  32.587  1.00  0.00     0.029 A 
ATOM     62  C   UNL A   1      42.361  28.890  33.283  1.00  0.00     0.049 A 
ATOM     63  H   UNL A   1      40.757  30.138  32.713  1.00  0.00     0.167 HD
ATOM     64  C   UNL A   1      42.083  30.421  35.219  1.00  0.00     0.074 A 
ATOM     65  C   UNL A   1      42.442  30.905  36.537  1.00  0.00     0.031 C 
ATOM     66  C   UNL A   1      42.707  29.399  34.586  1.00  0.00     0.037 A 
BRANCH  53  67
ATOM     67  C   UNL A   1      40.421  28.078  28.991  1.00  0.00     0.064 A 
ATOM     68  C   UNL A   1      41.186  28.458  27.876  1.00  0.00     0.173 A 
ATOM     69  C   UNL A   1      39.722  26.865  28.924  1.00  0.00     0.173 A 
ATOM     70  F   UNL A   1      41.862  29.617  27.884  1.00  0.00    -0.203 F 
ATOM     71  C   UNL A   1      41.224  27.669  26.730  1.00  0.00     0.198 A 
ATOM     72  C   UNL A   1      39.784  26.064  27.786  1.00  0.00     0.198 A 
ATOM     73  F   UNL A   1      38.979  26.455  29.962  1.00  0.00    -0.203 F 
ATOM     74  F   UNL A   1      41.919  28.078  25.660  1.00  0.00    -0.200 F 
ATOM     75  C   UNL A   1      40.527  26.471  26.687  1.00  0.00     0.200 A 
ATOM     76  F   UNL A   1      39.118  24.903  27.749  1.00  0.00    -0.200 F 
ATOM     77  F   UNL A   1      40.563  25.712  25.584  1.00  0.00    -0.200 F 
ENDBRANCH  53  67
BRANCH  54  78
ATOM     78  C   UNL A   1      39.608  33.994  37.027  1.00  0.00     0.064 A 
ATOM     79  C   UNL A   1      38.831  33.596  38.125  1.00  0.00     0.173 A 
ATOM     80  C   UNL A   1      40.250  35.239  37.102  1.00  0.00     0.173 A 
ATOM     81  F   UNL A   1      38.184  32.421  38.096  1.00  0.00    -0.203 F 
ATOM     82  C   UNL A   1      38.679  34.421  39.239  1.00  0.00     0.198 A 
ATOM     83  C   UNL A   1      40.120  36.050  38.227  1.00  0.00     0.198 A 
ATOM     84  F   UNL A   1      41.012  35.663  36.083  1.00  0.00    -0.203 F 
ATOM     85  F   UNL A   1      37.891  34.036  40.252  1.00  0.00    -0.200 F 
ATOM     86  C   UNL A   1      39.327  35.645  39.291  1.00  0.00     0.200 A 
ATOM     87  F   UNL A   1      40.758  37.228  38.279  1.00  0.00    -0.200 F 
ATOM     88  F   UNL A   1      39.179  36.439  40.361  1.00  0.00    -0.200 F 
ENDBRANCH  54  78
BRANCH  66  89
ATOM     89  C   UNL A   1      43.862  28.761  35.298  1.00  0.00     0.064 A 
ATOM     90  C   UNL A   1      45.179  29.202  35.100  1.00  0.00     0.173 A 
ATOM     91  C   UNL A   1      43.644  27.723  36.214  1.00  0.00     0.173 A 
ATOM     92  F   UNL A   1      45.438  30.181  34.221  1.00  0.00    -0.203 F 
ATOM     93  C   UNL A   1      46.239  28.609  35.779  1.00  0.00     0.198 A 
ATOM     94  C   UNL A   1      44.703  27.150  36.910  1.00  0.00     0.198 A 
ATOM     95  F   UNL A   1      42.402  27.269  36.440  1.00  0.00    -0.203 F 
ATOM     96  F   UNL A   1      47.494  29.014  35.542  1.00  0.00    -0.200 F 
ATOM     97  C   UNL A   1      46.000  27.588  36.688  1.00  0.00     0.200 A 
ATOM     98  F   UNL A   1      44.470  26.172  37.797  1.00  0.00    -0.200 F 
ATOM     99  F   UNL A   1      47.022  27.023  37.345  1.00  0.00    -0.200 F 
ENDBRANCH  66  89
ENDBRANCH  40  41
ENDBRANCH  32  35
ENDBRANCH  30  31
ENDBRANCH  29  30
ENDBRANCH  28  29
ENDBRANCH  27  28
ENDBRANCH   3  27
TORSDOF 19
ENDMDL
