MODEL 1
REMARK VINA RESULT:     -12.0      0.000      0.000
REMARK SMILES C[C@@H]1CC(=O)N(CC(C)(C)C(=O)NCCCCNC(=O)c2ccc(-c3c4nc(c(-c5c(F)c(F)c(F)c(F)c5F)c5ccc([nH]5)c(-c5c(F)c(F)c(F)c(F)c5F)c5nc(c(-c6c(F)c(F)c(F)c(F)c6F)c6ccc3[nH]6)C=C5)C=C4)cc2)C1
REMARK SMILES IDX 15 1 14 2 13 3 11 4 12 5 8 7 9 8 10 9 7 10 6 11 1 12 2 13
REMARK SMILES IDX 3 14 84 15 4 16 5 17 16 18 17 19 18 20 19 21 20 23 21 24
REMARK SMILES IDX 22 25 83 26 23 27 82 28 24 29 25 30 26 31 76 32 27 33 81 34
REMARK SMILES IDX 75 35 77 36 28 37 80 38 74 39 73 40 29 42 61 43 41 44 60 45
REMARK SMILES IDX 42 46 45 47 59 48 78 49 43 50 44 51 58 53 79 54 46 55 30 56
REMARK SMILES IDX 31 57 39 58 32 59 33 60 37 61 40 62 34 63 35 64 38 65 36 66
REMARK SMILES IDX 62 67 63 68 71 69 64 70 65 71 69 72 72 73 66 74 67 75 70 76
REMARK SMILES IDX 68 77 47 78 48 79 56 80 49 81 50 82 54 83 57 84 51 85 52 86
REMARK SMILES IDX 55 87 53 88
REMARK H PARENT 13 6 18 22 77 41 45 52
REMARK Flexibility Score: inf
ROOT
ATOM      1  C   UNL A   1      31.813  30.457  26.847  1.00  0.00     0.023 C 
ENDROOT
BRANCH   1   2
ATOM      2  C   UNL A   1      32.726  29.919  25.749  1.00  0.00     0.116 C 
BRANCH   2   3
ATOM      3  N   UNL A   1      32.029  29.810  24.487  1.00  0.00    -0.356 N 
ATOM      4  C   UNL A   1      31.611  28.745  23.751  1.00  0.00     0.227 C 
ATOM      5  O   UNL A   1      31.120  29.045  22.661  1.00  0.00    -0.274 OA
ATOM      6  H   UNL A   1      31.816  30.679  24.078  1.00  0.00     0.163 HD
BRANCH   4   7
ATOM      7  C   UNL A   1      31.760  27.285  24.232  1.00  0.00     0.061 C 
ATOM      8  C   UNL A   1      31.000  27.036  25.548  1.00  0.00     0.023 C 
ATOM      9  C   UNL A   1      33.256  26.973  24.431  1.00  0.00     0.023 C 
BRANCH   7  10
ATOM     10  C   UNL A   1      31.242  26.292  23.133  1.00  0.00     0.135 C 
BRANCH  10  11
ATOM     11  N   UNL A   1      31.985  25.049  22.971  1.00  0.00    -0.341 N 
ATOM     12  C   UNL A   1      32.648  21.490  23.600  1.00  0.00     0.010 C 
ATOM     13  C   UNL A   1      32.253  22.769  22.893  1.00  0.00     0.015 C 
ATOM     14  C   UNL A   1      33.361  23.393  22.042  1.00  0.00     0.105 C 
ATOM     15  C   UNL A   1      31.897  23.902  23.838  1.00  0.00     0.123 C 
ATOM     16  C   UNL A   1      32.946  24.845  21.982  1.00  0.00     0.222 C 
ATOM     17  O   UNL A   1      33.424  25.685  21.227  1.00  0.00    -0.275 OA
ENDBRANCH  10  11
ENDBRANCH   7  10
ENDBRANCH   4   7
ENDBRANCH   2   3
ENDBRANCH   1   2
BRANCH   1  18
ATOM     18  C   UNL A   1      31.604  31.971  26.823  1.00  0.00     0.023 C 
BRANCH  18  19
ATOM     19  C   UNL A   1      32.802  32.798  27.277  1.00  0.00     0.116 C 
BRANCH  19  20
ATOM     20  N   UNL A   1      32.451  34.167  27.628  1.00  0.00    -0.352 N 
ATOM     21  C   UNL A   1      32.991  34.981  28.593  1.00  0.00     0.251 C 
ATOM     22  H   UNL A   1      31.723  34.565  27.098  1.00  0.00     0.163 HD
ATOM     23  O   UNL A   1      32.486  36.071  28.840  1.00  0.00    -0.269 OA
BRANCH  21  24
ATOM     24  C   UNL A   1      34.166  34.519  29.358  1.00  0.00     0.039 A 
ATOM     25  C   UNL A   1      33.971  33.956  30.621  1.00  0.00     0.014 A 
ATOM     26  C   UNL A   1      35.451  34.609  28.815  1.00  0.00     0.014 A 
ATOM     27  C   UNL A   1      35.056  33.412  31.308  1.00  0.00     0.010 A 
ATOM     28  C   UNL A   1      36.516  33.995  29.463  1.00  0.00     0.010 A 
ATOM     29  C   UNL A   1      36.330  33.389  30.716  1.00  0.00    -0.014 A 
BRANCH  29  30
ATOM     30  C   UNL A   1      37.480  32.731  31.386  1.00  0.00     0.031 A 
ATOM     31  C   UNL A   1      38.175  31.574  30.727  1.00  0.00     0.074 A 
ATOM     32  C   UNL A   1      37.853  33.133  32.618  1.00  0.00     0.049 A 
ATOM     33  N   UNL A   1      39.145  30.821  31.182  1.00  0.00    -0.248 NA
ATOM     34  C   UNL A   1      37.696  31.191  29.390  1.00  0.00     0.031 C 
ATOM     35  C   UNL A   1      37.222  34.208  33.384  1.00  0.00     0.029 A 
ATOM     36  N   UNL A   1      38.843  32.671  33.448  1.00  0.00    -0.354 N 
ATOM     37  C   UNL A   1      39.383  29.875  30.195  1.00  0.00     0.074 A 
ATOM     38  C   UNL A   1      38.416  30.106  29.145  1.00  0.00     0.031 C 
ATOM     39  C   UNL A   1      37.853  34.339  34.562  1.00  0.00     0.029 A 
ATOM     40  C   UNL A   1      38.905  33.330  34.652  1.00  0.00     0.049 A 
ATOM     41  H   UNL A   1      39.453  31.937  33.204  1.00  0.00     0.167 HD
ATOM     42  C   UNL A   1      40.339  28.916  30.157  1.00  0.00     0.037 A 
ATOM     43  C   UNL A   1      39.711  33.136  35.713  1.00  0.00     0.037 A 
ATOM     44  C   UNL A   1      41.309  28.700  31.197  1.00  0.00     0.049 A 
ATOM     45  C   UNL A   1      40.757  32.056  35.649  1.00  0.00     0.074 A 
ATOM     46  C   UNL A   1      42.351  27.791  31.230  1.00  0.00     0.029 A 
ATOM     47  N   UNL A   1      41.354  29.403  32.393  1.00  0.00    -0.354 N 
ATOM     48  N   UNL A   1      41.020  31.213  34.680  1.00  0.00    -0.248 NA
ATOM     49  C   UNL A   1      41.627  31.906  36.825  1.00  0.00     0.031 C 
ATOM     50  C   UNL A   1      42.996  27.908  32.466  1.00  0.00     0.029 A 
ATOM     51  C   UNL A   1      42.392  28.931  33.180  1.00  0.00     0.049 A 
ATOM     52  H   UNL A   1      40.739  30.129  32.645  1.00  0.00     0.167 HD
ATOM     53  C   UNL A   1      42.099  30.454  35.116  1.00  0.00     0.074 A 
ATOM     54  C   UNL A   1      42.453  30.948  36.430  1.00  0.00     0.031 C 
ATOM     55  C   UNL A   1      42.737  29.439  34.484  1.00  0.00     0.037 A 
BRANCH  42  56
ATOM     56  C   UNL A   1      40.384  28.031  28.944  1.00  0.00     0.064 A 
ATOM     57  C   UNL A   1      41.141  28.373  27.812  1.00  0.00     0.173 A 
ATOM     58  C   UNL A   1      39.691  26.811  28.924  1.00  0.00     0.173 A 
ATOM     59  F   UNL A   1      41.813  29.533  27.774  1.00  0.00    -0.203 F 
ATOM     60  C   UNL A   1      41.175  27.543  26.694  1.00  0.00     0.198 A 
ATOM     61  C   UNL A   1      39.755  25.968  27.817  1.00  0.00     0.198 A 
ATOM     62  F   UNL A   1      38.957  26.432  29.981  1.00  0.00    -0.203 F 
ATOM     63  F   UNL A   1      41.860  27.918  25.605  1.00  0.00    -0.200 F 
ATOM     64  C   UNL A   1      40.489  26.339  26.701  1.00  0.00     0.200 A 
ATOM     65  F   UNL A   1      39.103  24.798  27.831  1.00  0.00    -0.200 F 
ATOM     66  F   UNL A   1      40.529  25.537  25.627  1.00  0.00    -0.200 F 
ENDBRANCH  42  56
BRANCH  43  67
ATOM     67  C   UNL A   1      39.572  33.993  36.920  1.00  0.00     0.064 A 
ATOM     68  C   UNL A   1      38.806  33.574  38.018  1.00  0.00     0.173 A 
ATOM     69  C   UNL A   1      40.190  35.249  36.998  1.00  0.00     0.173 A 
ATOM     70  F   UNL A   1      38.179  32.390  37.983  1.00  0.00    -0.203 F 
ATOM     71  C   UNL A   1      38.646  34.389  39.137  1.00  0.00     0.198 A 
ATOM     72  C   UNL A   1      40.056  36.050  38.131  1.00  0.00     0.198 A 
ATOM     73  F   UNL A   1      40.939  35.695  35.978  1.00  0.00    -0.203 F 
ATOM     74  F   UNL A   1      37.869  33.985  40.150  1.00  0.00    -0.200 F 
ATOM     75  C   UNL A   1      39.276  35.624  39.195  1.00  0.00     0.200 A 
ATOM     76  F   UNL A   1      40.679  37.235  38.189  1.00  0.00    -0.200 F 
ATOM     77  F   UNL A   1      39.125  36.405  40.273  1.00  0.00    -0.200 F 
ENDBRANCH  43  67
BRANCH  55  78
ATOM     78  C   UNL A   1      43.910  28.818  35.187  1.00  0.00     0.064 A 
ATOM     79  C   UNL A   1      45.217  29.292  35.004  1.00  0.00     0.173 A 
ATOM     80  C   UNL A   1      43.715  27.761  36.091  1.00  0.00     0.173 A 
ATOM     81  F   UNL A   1      45.457  30.290  34.140  1.00  0.00    -0.203 F 
ATOM     82  C   UNL A   1      46.289  28.713  35.677  1.00  0.00     0.198 A 
ATOM     83  C   UNL A   1      44.786  27.207  36.787  1.00  0.00     0.198 A 
ATOM     84  F   UNL A   1      42.484  27.276  36.310  1.00  0.00    -0.203 F 
ATOM     85  F   UNL A   1      47.536  29.148  35.447  1.00  0.00    -0.200 F 
ATOM     86  C   UNL A   1      46.072  27.678  36.574  1.00  0.00     0.200 A 
ATOM     87  F   UNL A   1      44.571  26.218  37.665  1.00  0.00    -0.200 F 
ATOM     88  F   UNL A   1      47.104  27.128  37.228  1.00  0.00    -0.200 F 
ENDBRANCH  55  78
ENDBRANCH  29  30
ENDBRANCH  21  24
ENDBRANCH  19  20
ENDBRANCH  18  19
ENDBRANCH   1  18
TORSDOF 13
ENDMDL
MODEL 2
REMARK VINA RESULT:     -12.0      1.401      2.279
REMARK SMILES C[C@@H]1CC(=O)N(CC(C)(C)C(=O)NCCCCNC(=O)c2ccc(-c3c4nc(c(-c5c(F)c(F)c(F)c(F)c5F)c5ccc([nH]5)c(-c5c(F)c(F)c(F)c(F)c5F)c5nc(c(-c6c(F)c(F)c(F)c(F)c6F)c6ccc3[nH]6)C=C5)C=C4)cc2)C1
REMARK SMILES IDX 15 1 14 2 13 3 11 4 12 5 8 7 9 8 10 9 7 10 6 11 1 12 2 13
REMARK SMILES IDX 3 14 84 15 4 16 5 17 16 18 17 19 18 20 19 21 20 23 21 24
REMARK SMILES IDX 22 25 83 26 23 27 82 28 24 29 25 30 26 31 76 32 27 33 81 34
REMARK SMILES IDX 75 35 77 36 28 37 80 38 74 39 73 40 29 42 61 43 41 44 60 45
REMARK SMILES IDX 42 46 45 47 59 48 78 49 43 50 44 51 58 53 79 54 46 55 30 56
REMARK SMILES IDX 31 57 39 58 32 59 33 60 37 61 40 62 34 63 35 64 38 65 36 66
REMARK SMILES IDX 62 67 63 68 71 69 64 70 65 71 69 72 72 73 66 74 67 75 70 76
REMARK SMILES IDX 68 77 47 78 48 79 56 80 49 81 50 82 54 83 57 84 51 85 52 86
REMARK SMILES IDX 55 87 53 88
REMARK H PARENT 13 6 18 22 77 41 45 52
REMARK Flexibility Score: inf
ROOT
ATOM      1  C   UNL A   1      31.791  30.580  26.254  1.00  0.00     0.023 C 
ENDROOT
BRANCH   1   2
ATOM      2  C   UNL A   1      32.331  29.529  27.220  1.00  0.00     0.116 C 
BRANCH   2   3
ATOM      3  N   UNL A   1      31.519  28.332  27.208  1.00  0.00    -0.356 N 
ATOM      4  C   UNL A   1      31.532  27.213  26.435  1.00  0.00     0.227 C 
ATOM      5  O   UNL A   1      30.612  26.427  26.666  1.00  0.00    -0.274 OA
ATOM      6  H   UNL A   1      30.815  28.326  27.897  1.00  0.00     0.163 HD
BRANCH   4   7
ATOM      7  C   UNL A   1      32.599  26.961  25.346  1.00  0.00     0.061 C 
ATOM      8  C   UNL A   1      34.023  27.221  25.870  1.00  0.00     0.023 C 
ATOM      9  C   UNL A   1      32.313  27.883  24.144  1.00  0.00     0.023 C 
BRANCH   7  10
ATOM     10  C   UNL A   1      32.497  25.490  24.812  1.00  0.00     0.135 C 
BRANCH  10  11
ATOM     11  N   UNL A   1      33.491  24.544  25.305  1.00  0.00    -0.341 N 
ATOM     12  C   UNL A   1      36.857  23.083  25.485  1.00  0.00     0.010 C 
ATOM     13  C   UNL A   1      35.602  23.836  25.871  1.00  0.00     0.015 C 
ATOM     14  C   UNL A   1      34.604  23.024  26.701  1.00  0.00     0.105 C 
ATOM     15  C   UNL A   1      34.759  24.261  24.682  1.00  0.00     0.123 C 
ATOM     16  C   UNL A   1      33.297  23.730  26.420  1.00  0.00     0.222 C 
ATOM     17  O   UNL A   1      32.254  23.558  27.040  1.00  0.00    -0.275 OA
ENDBRANCH  10  11
ENDBRANCH   7  10
ENDBRANCH   4   7
ENDBRANCH   2   3
ENDBRANCH   1   2
BRANCH   1  18
ATOM     18  C   UNL A   1      31.482  31.936  26.889  1.00  0.00     0.023 C 
BRANCH  18  19
ATOM     19  C   UNL A   1      32.701  32.743  27.320  1.00  0.00     0.116 C 
BRANCH  19  20
ATOM     20  N   UNL A   1      32.387  34.131  27.629  1.00  0.00    -0.352 N 
ATOM     21  C   UNL A   1      32.961  34.964  28.558  1.00  0.00     0.251 C 
ATOM     22  H   UNL A   1      31.661  34.528  27.096  1.00  0.00     0.163 HD
ATOM     23  O   UNL A   1      32.485  36.074  28.774  1.00  0.00    -0.269 OA
BRANCH  21  24
ATOM     24  C   UNL A   1      34.135  34.500  29.323  1.00  0.00     0.039 A 
ATOM     25  C   UNL A   1      33.939  33.940  30.587  1.00  0.00     0.014 A 
ATOM     26  C   UNL A   1      35.419  34.585  28.778  1.00  0.00     0.014 A 
ATOM     27  C   UNL A   1      35.024  33.394  31.274  1.00  0.00     0.010 A 
ATOM     28  C   UNL A   1      36.484  33.969  29.426  1.00  0.00     0.010 A 
ATOM     29  C   UNL A   1      36.297  33.366  30.680  1.00  0.00    -0.014 A 
BRANCH  29  30
ATOM     30  C   UNL A   1      37.446  32.706  31.350  1.00  0.00     0.031 A 
ATOM     31  C   UNL A   1      38.146  31.554  30.686  1.00  0.00     0.074 A 
ATOM     32  C   UNL A   1      37.814  33.100  32.585  1.00  0.00     0.049 A 
ATOM     33  N   UNL A   1      39.115  30.801  31.139  1.00  0.00    -0.248 NA
ATOM     34  C   UNL A   1      37.673  31.179  29.344  1.00  0.00     0.031 C 
ATOM     35  C   UNL A   1      37.178  34.169  33.356  1.00  0.00     0.029 A 
ATOM     36  N   UNL A   1      38.802  32.635  33.416  1.00  0.00    -0.354 N 
ATOM     37  C   UNL A   1      39.359  29.862  30.147  1.00  0.00     0.074 A 
ATOM     38  C   UNL A   1      38.396  30.098  29.095  1.00  0.00     0.031 C 
ATOM     39  C   UNL A   1      37.804  34.294  34.537  1.00  0.00     0.029 A 
ATOM     40  C   UNL A   1      38.858  33.286  34.624  1.00  0.00     0.049 A 
ATOM     41  H   UNL A   1      39.414  31.904  33.170  1.00  0.00     0.167 HD
ATOM     42  C   UNL A   1      40.317  28.905  30.106  1.00  0.00     0.037 A 
ATOM     43  C   UNL A   1      39.661  33.087  35.688  1.00  0.00     0.037 A 
ATOM     44  C   UNL A   1      41.284  28.684  31.148  1.00  0.00     0.049 A 
ATOM     45  C   UNL A   1      40.710  32.010  35.620  1.00  0.00     0.074 A 
ATOM     46  C   UNL A   1      42.328  27.777  31.178  1.00  0.00     0.029 A 
ATOM     47  N   UNL A   1      41.323  29.379  32.348  1.00  0.00    -0.354 N 
ATOM     48  N   UNL A   1      40.978  31.173  34.647  1.00  0.00    -0.248 NA
ATOM     49  C   UNL A   1      41.575  31.854  36.798  1.00  0.00     0.031 C 
ATOM     50  C   UNL A   1      42.968  27.887  32.418  1.00  0.00     0.029 A 
ATOM     51  C   UNL A   1      42.360  28.904  33.136  1.00  0.00     0.049 A 
ATOM     52  H   UNL A   1      40.706  30.102  32.603  1.00  0.00     0.167 HD
ATOM     53  C   UNL A   1      42.056  30.414  35.081  1.00  0.00     0.074 A 
ATOM     54  C   UNL A   1      42.404  30.900  36.399  1.00  0.00     0.031 C 
ATOM     55  C   UNL A   1      42.699  29.404  34.445  1.00  0.00     0.037 A 
BRANCH  42  56
ATOM     56  C   UNL A   1      40.369  28.028  28.887  1.00  0.00     0.064 A 
ATOM     57  C   UNL A   1      39.663  26.816  28.823  1.00  0.00     0.173 A 
ATOM     58  C   UNL A   1      41.106  28.417  27.758  1.00  0.00     0.173 A 
ATOM     59  F   UNL A   1      38.954  26.391  29.879  1.00  0.00    -0.203 F 
ATOM     60  C   UNL A   1      39.720  26.012  27.687  1.00  0.00     0.198 A 
ATOM     61  C   UNL A   1      41.132  27.626  26.612  1.00  0.00     0.198 A 
ATOM     62  F   UNL A   1      41.794  29.568  27.763  1.00  0.00    -0.203 F 
ATOM     63  F   UNL A   1      39.082  24.833  27.672  1.00  0.00    -0.200 F 
ATOM     64  C   UNL A   1      40.448  26.421  26.581  1.00  0.00     0.200 A 
ATOM     65  F   UNL A   1      41.824  28.030  25.538  1.00  0.00    -0.200 F 
ATOM     66  F   UNL A   1      40.494  25.650  25.485  1.00  0.00    -0.200 F 
ENDBRANCH  42  56
BRANCH  43  67
ATOM     67  C   UNL A   1      39.515  33.936  36.899  1.00  0.00     0.064 A 
ATOM     68  C   UNL A   1      38.750  33.506  37.993  1.00  0.00     0.173 A 
ATOM     69  C   UNL A   1      40.128  35.194  36.987  1.00  0.00     0.173 A 
ATOM     70  F   UNL A   1      38.128  32.319  37.950  1.00  0.00    -0.203 F 
ATOM     71  C   UNL A   1      38.584  34.314  39.117  1.00  0.00     0.198 A 
ATOM     72  C   UNL A   1      39.987  35.987  38.125  1.00  0.00     0.198 A 
ATOM     73  F   UNL A   1      40.876  35.650  35.970  1.00  0.00    -0.203 F 
ATOM     74  F   UNL A   1      37.808  33.899  40.127  1.00  0.00    -0.200 F 
ATOM     75  C   UNL A   1      39.208  35.550  39.184  1.00  0.00     0.200 A 
ATOM     76  F   UNL A   1      40.605  37.175  38.191  1.00  0.00    -0.200 F 
ATOM     77  F   UNL A   1      39.052  36.324  40.267  1.00  0.00    -0.200 F 
ENDBRANCH  43  67
BRANCH  55  78
ATOM     78  C   UNL A   1      43.870  28.781  35.148  1.00  0.00     0.064 A 
ATOM     79  C   UNL A   1      43.724  27.656  35.972  1.00  0.00     0.173 A 
ATOM     80  C   UNL A   1      45.164  29.294  34.961  1.00  0.00     0.173 A 
ATOM     81  F   UNL A   1      42.507  27.137  36.195  1.00  0.00    -0.203 F 
ATOM     82  C   UNL A   1      44.824  27.084  36.604  1.00  0.00     0.198 A 
ATOM     83  C   UNL A   1      46.266  28.699  35.568  1.00  0.00     0.198 A 
ATOM     84  F   UNL A   1      45.361  30.364  34.177  1.00  0.00    -0.203 F 
ATOM     85  F   UNL A   1      44.654  26.040  37.428  1.00  0.00    -0.200 F 
ATOM     86  C   UNL A   1      46.095  27.599  36.395  1.00  0.00     0.200 A 
ATOM     87  F   UNL A   1      47.494  29.189  35.352  1.00  0.00    -0.200 F 
ATOM     88  F   UNL A   1      47.154  27.042  36.997  1.00  0.00    -0.200 F 
ENDBRANCH  55  78
ENDBRANCH  29  30
ENDBRANCH  21  24
ENDBRANCH  19  20
ENDBRANCH  18  19
ENDBRANCH   1  18
TORSDOF 13
ENDMDL
MODEL 3
REMARK VINA RESULT:     -11.9      6.041     11.524
REMARK SMILES C[C@@H]1CC(=O)N(CC(C)(C)C(=O)NCCCCNC(=O)c2ccc(-c3c4nc(c(-c5c(F)c(F)c(F)c(F)c5F)c5ccc([nH]5)c(-c5c(F)c(F)c(F)c(F)c5F)c5nc(c(-c6c(F)c(F)c(F)c(F)c6F)c6ccc3[nH]6)C=C5)C=C4)cc2)C1
REMARK SMILES IDX 15 1 14 2 13 3 11 4 12 5 8 7 9 8 10 9 7 10 6 11 1 12 2 13
REMARK SMILES IDX 3 14 84 15 4 16 5 17 16 18 17 19 18 20 19 21 20 23 21 24
REMARK SMILES IDX 22 25 83 26 23 27 82 28 24 29 25 30 26 31 76 32 27 33 81 34
REMARK SMILES IDX 75 35 77 36 28 37 80 38 74 39 73 40 29 42 61 43 41 44 60 45
REMARK SMILES IDX 42 46 45 47 59 48 78 49 43 50 44 51 58 53 79 54 46 55 30 56
REMARK SMILES IDX 31 57 39 58 32 59 33 60 37 61 40 62 34 63 35 64 38 65 36 66
REMARK SMILES IDX 62 67 63 68 71 69 64 70 65 71 69 72 72 73 66 74 67 75 70 76
REMARK SMILES IDX 68 77 47 78 48 79 56 80 49 81 50 82 54 83 57 84 51 85 52 86
REMARK SMILES IDX 55 87 53 88
REMARK H PARENT 13 6 18 22 77 41 45 52
REMARK Flexibility Score: inf
ROOT
ATOM      1  C   UNL A   1      37.332  20.961  24.547  1.00  0.00     0.023 C 
ENDROOT
BRANCH   1   2
ATOM      2  C   UNL A   1      36.394  21.538  25.604  1.00  0.00     0.116 C 
BRANCH   2   3
ATOM      3  N   UNL A   1      35.167  20.778  25.696  1.00  0.00    -0.356 N 
ATOM      4  C   UNL A   1      33.863  21.099  25.484  1.00  0.00     0.227 C 
ATOM      5  O   UNL A   1      33.069  20.196  25.752  1.00  0.00    -0.274 OA
ATOM      6  H   UNL A   1      35.303  19.842  25.968  1.00  0.00     0.163 HD
BRANCH   4   7
ATOM      7  C   UNL A   1      33.416  22.486  24.970  1.00  0.00     0.061 C 
ATOM      8  C   UNL A   1      34.020  22.808  23.591  1.00  0.00     0.023 C 
ATOM      9  C   UNL A   1      33.847  23.560  25.988  1.00  0.00     0.023 C 
BRANCH   7  10
ATOM     10  C   UNL A   1      31.851  22.558  24.886  1.00  0.00     0.135 C 
BRANCH  10  11
ATOM     11  N   UNL A   1      31.250  23.882  24.992  1.00  0.00    -0.341 N 
ATOM     12  C   UNL A   1      30.006  27.064  23.641  1.00  0.00     0.010 C 
ATOM     13  C   UNL A   1      30.027  25.687  24.267  1.00  0.00     0.015 C 
ATOM     14  C   UNL A   1      29.984  25.684  25.797  1.00  0.00     0.105 C 
ATOM     15  C   UNL A   1      31.298  24.907  23.981  1.00  0.00     0.123 C 
ATOM     16  C   UNL A   1      30.608  24.350  26.138  1.00  0.00     0.222 C 
ATOM     17  O   UNL A   1      30.589  23.824  27.244  1.00  0.00    -0.275 OA
ENDBRANCH  10  11
ENDBRANCH   7  10
ENDBRANCH   4   7
ENDBRANCH   2   3
ENDBRANCH   1   2
BRANCH   1  18
ATOM     18  C   UNL A   1      38.150  19.754  25.006  1.00  0.00     0.023 C 
BRANCH  18  19
ATOM     19  C   UNL A   1      39.363  20.083  25.869  1.00  0.00     0.116 C 
BRANCH  19  20
ATOM     20  N   UNL A   1      40.341  19.005  25.914  1.00  0.00    -0.352 N 
ATOM     21  C   UNL A   1      41.701  19.076  26.096  1.00  0.00     0.251 C 
ATOM     22  H   UNL A   1      39.977  18.099  25.796  1.00  0.00     0.163 HD
ATOM     23  O   UNL A   1      42.395  18.071  25.979  1.00  0.00    -0.269 OA
BRANCH  21  24
ATOM     24  C   UNL A   1      42.327  20.378  26.400  1.00  0.00     0.039 A 
ATOM     25  C   UNL A   1      42.949  21.084  25.369  1.00  0.00     0.014 A 
ATOM     26  C   UNL A   1      42.268  20.913  27.690  1.00  0.00     0.014 A 
ATOM     27  C   UNL A   1      43.446  22.365  25.614  1.00  0.00     0.010 A 
ATOM     28  C   UNL A   1      42.688  22.219  27.912  1.00  0.00     0.010 A 
ATOM     29  C   UNL A   1      43.281  22.959  26.876  1.00  0.00    -0.014 A 
BRANCH  29  30
ATOM     30  C   UNL A   1      43.715  24.356  27.133  1.00  0.00     0.031 A 
ATOM     31  C   UNL A   1      42.727  25.372  27.632  1.00  0.00     0.074 A 
ATOM     32  C   UNL A   1      44.981  24.723  26.853  1.00  0.00     0.049 A 
ATOM     33  N   UNL A   1      42.892  26.654  27.843  1.00  0.00    -0.248 NA
ATOM     34  C   UNL A   1      41.363  24.891  27.899  1.00  0.00     0.031 C 
ATOM     35  C   UNL A   1      46.017  23.841  26.314  1.00  0.00     0.029 A 
ATOM     36  N   UNL A   1      45.606  25.939  26.967  1.00  0.00    -0.354 N 
ATOM     37  C   UNL A   1      41.655  27.130  28.257  1.00  0.00     0.074 A 
ATOM     38  C   UNL A   1      40.734  26.016  28.207  1.00  0.00     0.031 C 
ATOM     39  C   UNL A   1      47.155  24.539  26.165  1.00  0.00     0.029 A 
ATOM     40  C   UNL A   1      46.917  25.925  26.557  1.00  0.00     0.049 A 
ATOM     41  H   UNL A   1      45.158  26.745  27.311  1.00  0.00     0.167 HD
ATOM     42  C   UNL A   1      41.325  28.377  28.667  1.00  0.00     0.037 A 
ATOM     43  C   UNL A   1      47.823  26.920  26.494  1.00  0.00     0.037 A 
ATOM     44  C   UNL A   1      42.249  29.479  28.731  1.00  0.00     0.049 A 
ATOM     45  C   UNL A   1      47.427  28.300  26.945  1.00  0.00     0.074 A 
ATOM     46  C   UNL A   1      42.025  30.767  29.183  1.00  0.00     0.029 A 
ATOM     47  N   UNL A   1      43.575  29.420  28.329  1.00  0.00    -0.354 N 
ATOM     48  N   UNL A   1      46.273  28.723  27.402  1.00  0.00    -0.248 NA
ATOM     49  C   UNL A   1      48.462  29.341  26.879  1.00  0.00     0.031 C 
ATOM     50  C   UNL A   1      43.202  31.503  29.006  1.00  0.00     0.029 A 
ATOM     51  C   UNL A   1      44.176  30.658  28.499  1.00  0.00     0.049 A 
ATOM     52  H   UNL A   1      44.023  28.619  27.974  1.00  0.00     0.167 HD
ATOM     53  C   UNL A   1      46.450  30.067  27.704  1.00  0.00     0.074 A 
ATOM     54  C   UNL A   1      47.828  30.385  27.395  1.00  0.00     0.031 C 
ATOM     55  C   UNL A   1      45.552  30.957  28.194  1.00  0.00     0.037 A 
BRANCH  42  56
ATOM     56  C   UNL A   1      39.901  28.615  29.086  1.00  0.00     0.064 A 
ATOM     57  C   UNL A   1      39.478  28.405  30.408  1.00  0.00     0.173 A 
ATOM     58  C   UNL A   1      38.956  29.090  28.164  1.00  0.00     0.173 A 
ATOM     59  F   UNL A   1      40.338  27.940  31.326  1.00  0.00    -0.203 F 
ATOM     60  C   UNL A   1      38.156  28.630  30.783  1.00  0.00     0.198 A 
ATOM     61  C   UNL A   1      37.643  29.346  28.550  1.00  0.00     0.198 A 
ATOM     62  F   UNL A   1      39.308  29.314  26.888  1.00  0.00    -0.203 F 
ATOM     63  F   UNL A   1      37.764  28.369  32.037  1.00  0.00    -0.200 F 
ATOM     64  C   UNL A   1      37.242  29.106  29.856  1.00  0.00     0.200 A 
ATOM     65  F   UNL A   1      36.764  29.820  27.657  1.00  0.00    -0.200 F 
ATOM     66  F   UNL A   1      35.971  29.330  30.220  1.00  0.00    -0.200 F 
ENDBRANCH  42  56
BRANCH  43  67
ATOM     67  C   UNL A   1      49.198  26.644  25.999  1.00  0.00     0.064 A 
ATOM     68  C   UNL A   1      50.170  26.089  26.844  1.00  0.00     0.173 A 
ATOM     69  C   UNL A   1      49.572  26.937  24.680  1.00  0.00     0.173 A 
ATOM     70  F   UNL A   1      49.866  25.810  28.119  1.00  0.00    -0.203 F 
ATOM     71  C   UNL A   1      51.469  25.859  26.393  1.00  0.00     0.198 A 
ATOM     72  C   UNL A   1      50.862  26.678  24.222  1.00  0.00     0.198 A 
ATOM     73  F   UNL A   1      48.678  27.464  23.829  1.00  0.00    -0.203 F 
ATOM     74  F   UNL A   1      52.390  25.374  27.236  1.00  0.00    -0.200 F 
ATOM     75  C   UNL A   1      51.812  26.149  25.082  1.00  0.00     0.200 A 
ATOM     76  F   UNL A   1      51.184  26.944  22.948  1.00  0.00    -0.200 F 
ATOM     77  F   UNL A   1      53.060  25.924  24.648  1.00  0.00    -0.200 F 
ENDBRANCH  43  67
BRANCH  55  78
ATOM     78  C   UNL A   1      46.040  32.351  28.462  1.00  0.00     0.064 A 
ATOM     79  C   UNL A   1      45.936  33.367  27.501  1.00  0.00     0.173 A 
ATOM     80  C   UNL A   1      46.581  32.684  29.714  1.00  0.00     0.173 A 
ATOM     81  F   UNL A   1      45.440  33.097  26.284  1.00  0.00    -0.203 F 
ATOM     82  C   UNL A   1      46.380  34.658  27.774  1.00  0.00     0.198 A 
ATOM     83  C   UNL A   1      46.993  33.984  29.994  1.00  0.00     0.198 A 
ATOM     84  F   UNL A   1      46.695  31.751  30.671  1.00  0.00    -0.203 F 
ATOM     85  F   UNL A   1      46.318  35.601  26.823  1.00  0.00    -0.200 F 
ATOM     86  C   UNL A   1      46.900  34.968  29.022  1.00  0.00     0.200 A 
ATOM     87  F   UNL A   1      47.480  34.284  31.205  1.00  0.00    -0.200 F 
ATOM     88  F   UNL A   1      47.319  36.213  29.286  1.00  0.00    -0.200 F 
ENDBRANCH  55  78
ENDBRANCH  29  30
ENDBRANCH  21  24
ENDBRANCH  19  20
ENDBRANCH  18  19
ENDBRANCH   1  18
TORSDOF 13
ENDMDL
