MODEL 1
REMARK VINA RESULT:     -12.1      0.000      0.000
REMARK SMILES C[C@H]([NH2+]Cc1ccc(F)c(F)c1)[C@H](C)C(=O)NCCCCNC(=O)c1ccc(-c2c3nc(c(-c4c(F)c(F)c(F)c(F)c4F)c4ccc([nH]4)c(-c4c(F)c(F)c(F)c(F)c4F)c4nc(c(-c5c(F)c(F)c(F)c(F)c5F)c5ccc2[nH]5)C=C4)C=C3)cc1
REMARK SMILES IDX 18 1 17 2 15 3 16 4 13 6 14 7 2 8 1 9 3 10 4 13 5 14 6 15
REMARK SMILES IDX 12 16 7 17 10 18 8 19 11 20 9 21 19 22 20 23 21 24 22 25
REMARK SMILES IDX 23 26 24 28 25 29 26 30 87 31 27 32 86 33 28 34 29 35 30 36
REMARK SMILES IDX 80 37 31 38 85 39 79 40 81 41 32 42 84 43 78 44 77 45 33 47
REMARK SMILES IDX 65 48 45 49 64 50 46 51 49 52 63 53 82 54 47 55 48 56 62 58
REMARK SMILES IDX 83 59 50 60 34 61 35 62 43 63 36 64 37 65 41 66 44 67 38 68
REMARK SMILES IDX 39 69 42 70 40 71 66 72 67 73 75 74 68 75 69 76 73 77 76 78
REMARK SMILES IDX 70 79 71 80 74 81 72 82 51 83 52 84 60 85 53 86 54 87 58 88
REMARK SMILES IDX 61 89 55 90 56 91 59 92 57 93
REMARK H PARENT 17 5 3 11 3 12 22 27 81 46 49 57
REMARK Flexibility Score: inf
ROOT
ATOM      1  C   UNL A   1      37.278  21.986  24.614  1.00  0.00     0.116 C 
ENDROOT
BRANCH   1   2
ATOM      2  N   UNL A   1      36.490  22.476  23.503  1.00  0.00    -0.356 N 
ATOM      3  C   UNL A   1      35.266  23.062  23.480  1.00  0.00     0.228 C 
ATOM      4  O   UNL A   1      34.872  23.480  22.385  1.00  0.00    -0.275 OA
ATOM      5  H   UNL A   1      36.911  22.369  22.621  1.00  0.00     0.163 HD
BRANCH   3   6
ATOM      6  C   UNL A   1      34.385  23.207  24.717  1.00  0.00     0.133 C 
ATOM      7  C   UNL A   1      34.837  24.398  25.577  1.00  0.00     0.024 C 
BRANCH   6   8
ATOM      8  C   UNL A   1      32.834  23.137  24.545  1.00  0.00     0.191 C 
ATOM      9  C   UNL A   1      32.127  23.624  25.821  1.00  0.00     0.076 C 
BRANCH   8  10
ATOM     10  N   UNL A   1      32.196  21.903  24.071  1.00  0.00    -0.340 N 
ATOM     11  H   UNL A   1      32.699  21.599  23.237  1.00  0.00     0.346 HD
ATOM     12  H   UNL A   1      31.220  22.154  23.918  1.00  0.00     0.346 HD
BRANCH  10  13
ATOM     13  C   UNL A   1      32.157  20.776  24.997  1.00  0.00     0.297 C 
BRANCH  13  14
ATOM     14  C   UNL A   1      32.741  19.530  24.357  1.00  0.00     0.009 A 
ATOM     15  C   UNL A   1      32.154  18.975  23.205  1.00  0.00     0.013 A 
ATOM     16  C   UNL A   1      33.889  18.921  24.893  1.00  0.00     0.052 A 
ATOM     17  C   UNL A   1      32.714  17.849  22.591  1.00  0.00     0.043 A 
ATOM     18  C   UNL A   1      34.437  17.798  24.278  1.00  0.00     0.159 A 
ATOM     19  C   UNL A   1      33.859  17.274  23.130  1.00  0.00     0.158 A 
ATOM     20  F   UNL A   1      35.524  17.221  24.808  1.00  0.00    -0.204 F 
ATOM     21  F   UNL A   1      34.389  16.193  22.541  1.00  0.00    -0.204 F 
ENDBRANCH  13  14
ENDBRANCH  10  13
ENDBRANCH   8  10
ENDBRANCH   6   8
ENDBRANCH   3   6
ENDBRANCH   1   2
BRANCH   1  22
ATOM     22  C   UNL A   1      36.913  20.559  25.006  1.00  0.00     0.023 C 
BRANCH  22  23
ATOM     23  C   UNL A   1      38.090  19.579  24.994  1.00  0.00     0.023 C 
BRANCH  23  24
ATOM     24  C   UNL A   1      39.320  20.016  25.787  1.00  0.00     0.116 C 
BRANCH  24  25
ATOM     25  N   UNL A   1      40.356  18.997  25.843  1.00  0.00    -0.352 N 
ATOM     26  C   UNL A   1      41.714  19.129  26.032  1.00  0.00     0.251 C 
ATOM     27  H   UNL A   1      40.039  18.073  25.726  1.00  0.00     0.163 HD
ATOM     28  O   UNL A   1      42.448  18.160  25.909  1.00  0.00    -0.269 OA
BRANCH  26  29
ATOM     29  C   UNL A   1      42.290  20.456  26.347  1.00  0.00     0.039 A 
ATOM     30  C   UNL A   1      42.842  21.215  25.315  1.00  0.00     0.014 A 
ATOM     31  C   UNL A   1      42.281  20.954  27.651  1.00  0.00     0.014 A 
ATOM     32  C   UNL A   1      43.305  22.507  25.578  1.00  0.00     0.010 A 
ATOM     33  C   UNL A   1      42.667  22.269  27.899  1.00  0.00     0.010 A 
ATOM     34  C   UNL A   1      43.176  23.064  26.864  1.00  0.00    -0.014 A 
BRANCH  34  35
ATOM     35  C   UNL A   1      43.543  24.481  27.122  1.00  0.00     0.031 A 
ATOM     36  C   UNL A   1      44.942  24.972  26.870  1.00  0.00     0.074 A 
ATOM     37  C   UNL A   1      42.620  25.322  27.632  1.00  0.00     0.049 A 
ATOM     38  N   UNL A   1      45.442  26.169  27.055  1.00  0.00    -0.248 NA
ATOM     39  C   UNL A   1      45.911  23.989  26.364  1.00  0.00     0.031 C 
ATOM     40  C   UNL A   1      41.244  24.956  27.972  1.00  0.00     0.029 A 
ATOM     41  N   UNL A   1      42.698  26.654  27.956  1.00  0.00    -0.354 N 
ATOM     42  C   UNL A   1      46.779  26.080  26.691  1.00  0.00     0.074 A 
ATOM     43  C   UNL A   1      47.028  24.702  26.330  1.00  0.00     0.031 C 
ATOM     44  C   UNL A   1      40.596  26.043  28.417  1.00  0.00     0.029 A 
ATOM     45  C   UNL A   1      41.519  27.175  28.433  1.00  0.00     0.049 A 
ATOM     46  H   UNL A   1      43.521  27.186  27.855  1.00  0.00     0.167 HD
ATOM     47  C   UNL A   1      47.707  27.065  26.637  1.00  0.00     0.037 A 
ATOM     48  C   UNL A   1      41.213  28.424  28.836  1.00  0.00     0.037 A 
ATOM     49  C   UNL A   1      47.452  28.440  26.977  1.00  0.00     0.049 A 
ATOM     50  C   UNL A   1      42.265  29.497  28.781  1.00  0.00     0.074 A 
ATOM     51  C   UNL A   1      48.316  29.519  26.898  1.00  0.00     0.029 A 
ATOM     52  N   UNL A   1      46.248  28.926  27.463  1.00  0.00    -0.354 N 
ATOM     53  N   UNL A   1      43.507  29.414  28.370  1.00  0.00    -0.248 NA
ATOM     54  C   UNL A   1      41.873  30.837  29.240  1.00  0.00     0.031 C 
ATOM     55  C   UNL A   1      47.650  30.649  27.382  1.00  0.00     0.029 A 
ATOM     56  C   UNL A   1      46.354  30.285  27.712  1.00  0.00     0.049 A 
ATOM     57  H   UNL A   1      45.437  28.387  27.609  1.00  0.00     0.167 HD
ATOM     58  C   UNL A   1      44.039  30.689  28.501  1.00  0.00     0.074 A 
ATOM     59  C   UNL A   1      42.981  31.533  29.016  1.00  0.00     0.031 C 
ATOM     60  C   UNL A   1      45.293  31.118  28.222  1.00  0.00     0.037 A 
BRANCH  47  61
ATOM     61  C   UNL A   1      49.086  26.701  26.172  1.00  0.00     0.064 A 
ATOM     62  C   UNL A   1      50.048  26.238  27.083  1.00  0.00     0.173 A 
ATOM     63  C   UNL A   1      49.480  26.883  24.838  1.00  0.00     0.173 A 
ATOM     64  F   UNL A   1      49.727  26.055  28.372  1.00  0.00    -0.203 F 
ATOM     65  C   UNL A   1      51.355  25.982  26.676  1.00  0.00     0.198 A 
ATOM     66  C   UNL A   1      50.781  26.599  24.429  1.00  0.00     0.198 A 
ATOM     67  F   UNL A   1      48.597  27.317  23.927  1.00  0.00    -0.203 F 
ATOM     68  F   UNL A   1      52.267  25.574  27.571  1.00  0.00    -0.200 F 
ATOM     69  C   UNL A   1      51.720  26.159  25.350  1.00  0.00     0.200 A 
ATOM     70  F   UNL A   1      51.124  26.751  23.142  1.00  0.00    -0.200 F 
ATOM     71  F   UNL A   1      52.975  25.905  24.959  1.00  0.00    -0.200 F 
ENDBRANCH  47  61
BRANCH  48  72
ATOM     72  C   UNL A   1      39.831  28.728  29.289  1.00  0.00     0.064 A 
ATOM     73  C   UNL A   1      39.434  28.526  30.620  1.00  0.00     0.173 A 
ATOM     74  C   UNL A   1      38.866  29.194  28.386  1.00  0.00     0.173 A 
ATOM     75  F   UNL A   1      40.319  28.078  31.524  1.00  0.00    -0.203 F 
ATOM     76  C   UNL A   1      38.121  28.758  31.023  1.00  0.00     0.198 A 
ATOM     77  C   UNL A   1      37.559  29.450  28.795  1.00  0.00     0.198 A 
ATOM     78  F   UNL A   1      39.202  29.421  27.107  1.00  0.00    -0.203 F 
ATOM     79  F   UNL A   1      37.760  28.520  32.291  1.00  0.00    -0.200 F 
ATOM     80  C   UNL A   1      37.185  29.222  30.111  1.00  0.00     0.200 A 
ATOM     81  F   UNL A   1      36.664  29.921  27.916  1.00  0.00    -0.200 F 
ATOM     82  F   UNL A   1      35.924  29.452  30.501  1.00  0.00    -0.200 F 
ENDBRANCH  48  72
BRANCH  60  83
ATOM     83  C   UNL A   1      45.604  32.569  28.448  1.00  0.00     0.064 A 
ATOM     84  C   UNL A   1      45.406  33.506  27.423  1.00  0.00     0.173 A 
ATOM     85  C   UNL A   1      46.177  33.016  29.647  1.00  0.00     0.173 A 
ATOM     86  F   UNL A   1      44.868  33.128  26.254  1.00  0.00    -0.203 F 
ATOM     87  C   UNL A   1      45.791  34.835  27.583  1.00  0.00     0.198 A 
ATOM     88  C   UNL A   1      46.534  34.351  29.815  1.00  0.00     0.198 A 
ATOM     89  F   UNL A   1      46.374  32.161  30.662  1.00  0.00    -0.203 F 
ATOM     90  F   UNL A   1      45.629  35.705  26.576  1.00  0.00    -0.200 F 
ATOM     91  C   UNL A   1      46.352  35.257  28.780  1.00  0.00     0.200 A 
ATOM     92  F   UNL A   1      47.054  34.763  30.979  1.00  0.00    -0.200 F 
ATOM     93  F   UNL A   1      46.716  36.537  28.935  1.00  0.00    -0.200 F 
ENDBRANCH  60  83
ENDBRANCH  34  35
ENDBRANCH  26  29
ENDBRANCH  24  25
ENDBRANCH  23  24
ENDBRANCH  22  23
ENDBRANCH   1  22
TORSDOF 15
ENDMDL
MODEL 2
REMARK VINA RESULT:     -12.1      0.784      7.442
REMARK SMILES C[C@H]([NH2+]Cc1ccc(F)c(F)c1)[C@H](C)C(=O)NCCCCNC(=O)c1ccc(-c2c3nc(c(-c4c(F)c(F)c(F)c(F)c4F)c4ccc([nH]4)c(-c4c(F)c(F)c(F)c(F)c4F)c4nc(c(-c5c(F)c(F)c(F)c(F)c5F)c5ccc2[nH]5)C=C4)C=C3)cc1
REMARK SMILES IDX 18 1 17 2 15 3 16 4 13 6 14 7 2 8 1 9 3 10 4 13 5 14 6 15
REMARK SMILES IDX 12 16 7 17 10 18 8 19 11 20 9 21 19 22 20 23 21 24 22 25
REMARK SMILES IDX 23 26 24 28 25 29 26 30 87 31 27 32 86 33 28 34 29 35 30 36
REMARK SMILES IDX 80 37 31 38 85 39 79 40 81 41 32 42 84 43 78 44 77 45 33 47
REMARK SMILES IDX 65 48 45 49 64 50 46 51 49 52 63 53 82 54 47 55 48 56 62 58
REMARK SMILES IDX 83 59 50 60 34 61 35 62 43 63 36 64 37 65 41 66 44 67 38 68
REMARK SMILES IDX 39 69 42 70 40 71 66 72 67 73 75 74 68 75 69 76 73 77 76 78
REMARK SMILES IDX 70 79 71 80 74 81 72 82 51 83 52 84 60 85 53 86 54 87 58 88
REMARK SMILES IDX 61 89 55 90 56 91 59 92 57 93
REMARK H PARENT 17 5 3 11 3 12 22 27 81 46 49 57
REMARK Flexibility Score: inf
ROOT
ATOM      1  C   UNL A   1      36.850  22.040  25.336  1.00  0.00     0.116 C 
ENDROOT
BRANCH   1   2
ATOM      2  N   UNL A   1      36.040  22.332  26.500  1.00  0.00    -0.356 N 
ATOM      3  C   UNL A   1      34.819  22.916  26.601  1.00  0.00     0.228 C 
ATOM      4  O   UNL A   1      34.311  22.947  27.727  1.00  0.00    -0.275 OA
ATOM      5  H   UNL A   1      36.439  22.062  27.357  1.00  0.00     0.163 HD
BRANCH   3   6
ATOM      6  C   UNL A   1      34.082  23.524  25.411  1.00  0.00     0.133 C 
ATOM      7  C   UNL A   1      34.711  24.865  25.002  1.00  0.00     0.024 C 
BRANCH   6   8
ATOM      8  C   UNL A   1      33.753  22.610  24.187  1.00  0.00     0.191 C 
ATOM      9  C   UNL A   1      34.123  23.315  22.872  1.00  0.00     0.076 C 
BRANCH   8  10
ATOM     10  N   UNL A   1      32.427  21.994  24.058  1.00  0.00    -0.340 N 
ATOM     11  H   UNL A   1      32.315  21.707  23.086  1.00  0.00     0.346 HD
ATOM     12  H   UNL A   1      31.773  22.709  24.374  1.00  0.00     0.346 HD
BRANCH  10  13
ATOM     13  C   UNL A   1      32.149  20.831  24.896  1.00  0.00     0.297 C 
BRANCH  13  14
ATOM     14  C   UNL A   1      32.738  19.573  24.285  1.00  0.00     0.009 A 
ATOM     15  C   UNL A   1      32.155  18.989  23.145  1.00  0.00     0.013 A 
ATOM     16  C   UNL A   1      33.887  18.981  24.837  1.00  0.00     0.052 A 
ATOM     17  C   UNL A   1      32.720  17.852  22.559  1.00  0.00     0.043 A 
ATOM     18  C   UNL A   1      34.440  17.846  24.249  1.00  0.00     0.159 A 
ATOM     19  C   UNL A   1      33.867  17.293  23.112  1.00  0.00     0.158 A 
ATOM     20  F   UNL A   1      35.529  17.285  24.793  1.00  0.00    -0.204 F 
ATOM     21  F   UNL A   1      34.401  16.201  22.549  1.00  0.00    -0.204 F 
ENDBRANCH  13  14
ENDBRANCH  10  13
ENDBRANCH   8  10
ENDBRANCH   6   8
ENDBRANCH   3   6
ENDBRANCH   1   2
BRANCH   1  22
ATOM     22  C   UNL A   1      36.820  20.564  24.957  1.00  0.00     0.023 C 
BRANCH  22  23
ATOM     23  C   UNL A   1      38.200  19.946  24.707  1.00  0.00     0.023 C 
BRANCH  23  24
ATOM     24  C   UNL A   1      39.255  20.236  25.772  1.00  0.00     0.116 C 
BRANCH  24  25
ATOM     25  N   UNL A   1      40.238  19.173  25.907  1.00  0.00    -0.352 N 
ATOM     26  C   UNL A   1      41.598  19.250  26.118  1.00  0.00     0.251 C 
ATOM     27  H   UNL A   1      39.878  18.260  25.834  1.00  0.00     0.163 HD
ATOM     28  O   UNL A   1      42.285  18.243  26.065  1.00  0.00    -0.269 OA
BRANCH  26  29
ATOM     29  C   UNL A   1      42.231  20.564  26.372  1.00  0.00     0.039 A 
ATOM     30  C   UNL A   1      42.649  21.334  25.286  1.00  0.00     0.014 A 
ATOM     31  C   UNL A   1      42.410  21.038  27.672  1.00  0.00     0.014 A 
ATOM     32  C   UNL A   1      43.163  22.615  25.504  1.00  0.00     0.010 A 
ATOM     33  C   UNL A   1      42.847  22.344  27.887  1.00  0.00     0.010 A 
ATOM     34  C   UNL A   1      43.221  23.151  26.804  1.00  0.00    -0.014 A 
BRANCH  34  35
ATOM     35  C   UNL A   1      43.642  24.558  27.032  1.00  0.00     0.031 A 
ATOM     36  C   UNL A   1      42.664  25.580  27.543  1.00  0.00     0.074 A 
ATOM     37  C   UNL A   1      44.903  24.928  26.735  1.00  0.00     0.049 A 
ATOM     38  N   UNL A   1      42.853  26.854  27.783  1.00  0.00    -0.248 NA
ATOM     39  C   UNL A   1      41.291  25.119  27.796  1.00  0.00     0.031 C 
ATOM     40  C   UNL A   1      45.933  24.045  26.183  1.00  0.00     0.029 A 
ATOM     41  N   UNL A   1      45.536  26.141  26.851  1.00  0.00    -0.354 N 
ATOM     42  C   UNL A   1      41.627  27.343  28.213  1.00  0.00     0.074 A 
ATOM     43  C   UNL A   1      40.686  26.246  28.145  1.00  0.00     0.031 C 
ATOM     44  C   UNL A   1      47.076  24.733  26.047  1.00  0.00     0.029 A 
ATOM     45  C   UNL A   1      46.854  26.115  26.463  1.00  0.00     0.049 A 
ATOM     46  H   UNL A   1      45.088  26.954  27.182  1.00  0.00     0.167 HD
ATOM     47  C   UNL A   1      41.320  28.587  28.651  1.00  0.00     0.037 A 
ATOM     48  C   UNL A   1      47.782  27.093  26.446  1.00  0.00     0.037 A 
ATOM     49  C   UNL A   1      42.261  29.672  28.737  1.00  0.00     0.049 A 
ATOM     50  C   UNL A   1      47.413  28.471  26.922  1.00  0.00     0.074 A 
ATOM     51  C   UNL A   1      42.055  30.953  29.221  1.00  0.00     0.029 A 
ATOM     52  N   UNL A   1      43.584  29.609  28.327  1.00  0.00    -0.354 N 
ATOM     53  N   UNL A   1      46.267  28.901  27.389  1.00  0.00    -0.248 NA
ATOM     54  C   UNL A   1      48.465  29.495  26.873  1.00  0.00     0.031 C 
ATOM     55  C   UNL A   1      43.239  31.678  29.060  1.00  0.00     0.029 A 
ATOM     56  C   UNL A   1      44.200  30.834  28.525  1.00  0.00     0.049 A 
ATOM     57  H   UNL A   1      44.023  28.811  27.952  1.00  0.00     0.167 HD
ATOM     58  C   UNL A   1      46.463  30.239  27.709  1.00  0.00     0.074 A 
ATOM     59  C   UNL A   1      47.843  30.544  27.396  1.00  0.00     0.031 C 
ATOM     60  C   UNL A   1      45.576  31.129  28.213  1.00  0.00     0.037 A 
BRANCH  47  61
ATOM     61  C   UNL A   1      39.909  28.845  29.093  1.00  0.00     0.064 A 
ATOM     62  C   UNL A   1      39.516  28.584  30.415  1.00  0.00     0.173 A 
ATOM     63  C   UNL A   1      38.927  29.277  28.189  1.00  0.00     0.173 A 
ATOM     64  F   UNL A   1      40.413  28.161  31.317  1.00  0.00    -0.203 F 
ATOM     65  C   UNL A   1      38.190  28.737  30.811  1.00  0.00     0.198 A 
ATOM     66  C   UNL A   1      37.607  29.455  28.596  1.00  0.00     0.198 A 
ATOM     67  F   UNL A   1      39.253  29.545  26.916  1.00  0.00    -0.203 F 
ATOM     68  F   UNL A   1      37.830  28.448  32.070  1.00  0.00    -0.200 F 
ATOM     69  C   UNL A   1      37.238  29.175  29.903  1.00  0.00     0.200 A 
ATOM     70  F   UNL A   1      36.694  29.900  27.722  1.00  0.00    -0.200 F 
ATOM     71  F   UNL A   1      35.964  29.328  30.287  1.00  0.00    -0.200 F 
ENDBRANCH  47  61
BRANCH  48  72
ATOM     72  C   UNL A   1      49.164  26.782  25.995  1.00  0.00     0.064 A 
ATOM     73  C   UNL A   1      50.147  26.344  26.895  1.00  0.00     0.173 A 
ATOM     74  C   UNL A   1      49.537  26.954  24.655  1.00  0.00     0.173 A 
ATOM     75  F   UNL A   1      49.842  26.168  28.190  1.00  0.00    -0.203 F 
ATOM     76  C   UNL A   1      51.455  26.111  26.475  1.00  0.00     0.198 A 
ATOM     77  C   UNL A   1      50.839  26.696  24.231  1.00  0.00     0.198 A 
ATOM     78  F   UNL A   1      48.627  27.352  23.754  1.00  0.00    -0.203 F 
ATOM     79  F   UNL A   1      52.383  25.731  27.363  1.00  0.00    -0.200 F 
ATOM     80  C   UNL A   1      51.799  26.285  25.143  1.00  0.00     0.200 A 
ATOM     81  F   UNL A   1      51.162  26.842  22.939  1.00  0.00    -0.200 F 
ATOM     82  F   UNL A   1      53.055  26.053  24.739  1.00  0.00    -0.200 F 
ENDBRANCH  48  72
BRANCH  60  83
ATOM     83  C   UNL A   1      46.060  32.525  28.478  1.00  0.00     0.064 A 
ATOM     84  C   UNL A   1      46.589  32.868  29.732  1.00  0.00     0.173 A 
ATOM     85  C   UNL A   1      45.919  33.542  27.524  1.00  0.00     0.173 A 
ATOM     86  F   UNL A   1      46.737  31.933  30.682  1.00  0.00    -0.203 F 
ATOM     87  C   UNL A   1      46.941  34.183  30.026  1.00  0.00     0.198 A 
ATOM     88  C   UNL A   1      46.299  34.850  27.811  1.00  0.00     0.198 A 
ATOM     89  F   UNL A   1      45.430  33.262  26.306  1.00  0.00    -0.203 F 
ATOM     90  F   UNL A   1      47.408  34.494  31.243  1.00  0.00    -0.200 F 
ATOM     91  C   UNL A   1      46.797  35.172  29.064  1.00  0.00     0.200 A 
ATOM     92  F   UNL A   1      46.182  35.801  26.874  1.00  0.00    -0.200 F 
ATOM     93  F   UNL A   1      47.142  36.436  29.346  1.00  0.00    -0.200 F 
ENDBRANCH  60  83
ENDBRANCH  34  35
ENDBRANCH  26  29
ENDBRANCH  24  25
ENDBRANCH  23  24
ENDBRANCH  22  23
ENDBRANCH   1  22
TORSDOF 15
ENDMDL
MODEL 3
REMARK VINA RESULT:     -12.1      0.188      7.564
REMARK SMILES C[C@H]([NH2+]Cc1ccc(F)c(F)c1)[C@H](C)C(=O)NCCCCNC(=O)c1ccc(-c2c3nc(c(-c4c(F)c(F)c(F)c(F)c4F)c4ccc([nH]4)c(-c4c(F)c(F)c(F)c(F)c4F)c4nc(c(-c5c(F)c(F)c(F)c(F)c5F)c5ccc2[nH]5)C=C4)C=C3)cc1
REMARK SMILES IDX 18 1 17 2 15 3 16 4 13 6 14 7 2 8 1 9 3 10 4 13 5 14 6 15
REMARK SMILES IDX 12 16 7 17 10 18 8 19 11 20 9 21 19 22 20 23 21 24 22 25
REMARK SMILES IDX 23 26 24 28 25 29 26 30 87 31 27 32 86 33 28 34 29 35 30 36
REMARK SMILES IDX 80 37 31 38 85 39 79 40 81 41 32 42 84 43 78 44 77 45 33 47
REMARK SMILES IDX 65 48 45 49 64 50 46 51 49 52 63 53 82 54 47 55 48 56 62 58
REMARK SMILES IDX 83 59 50 60 34 61 35 62 43 63 36 64 37 65 41 66 44 67 38 68
REMARK SMILES IDX 39 69 42 70 40 71 66 72 67 73 75 74 68 75 69 76 73 77 76 78
REMARK SMILES IDX 70 79 71 80 74 81 72 82 51 83 52 84 60 85 53 86 54 87 58 88
REMARK SMILES IDX 61 89 55 90 56 91 59 92 57 93
REMARK H PARENT 17 5 3 11 3 12 22 27 81 46 49 57
REMARK Flexibility Score: inf
ROOT
ATOM      1  C   UNL A   1      37.252  22.088  24.605  1.00  0.00     0.116 C 
ENDROOT
BRANCH   1   2
ATOM      2  N   UNL A   1      36.466  22.579  23.494  1.00  0.00    -0.356 N 
ATOM      3  C   UNL A   1      35.221  23.119  23.465  1.00  0.00     0.228 C 
ATOM      4  O   UNL A   1      34.830  23.553  22.375  1.00  0.00    -0.275 OA
ATOM      5  H   UNL A   1      36.905  22.512  22.617  1.00  0.00     0.163 HD
BRANCH   3   6
ATOM      6  C   UNL A   1      34.314  23.197  24.690  1.00  0.00     0.133 C 
ATOM      7  C   UNL A   1      34.746  24.340  25.622  1.00  0.00     0.024 C 
BRANCH   6   8
ATOM      8  C   UNL A   1      32.767  23.134  24.482  1.00  0.00     0.191 C 
ATOM      9  C   UNL A   1      32.035  23.699  25.711  1.00  0.00     0.076 C 
BRANCH   8  10
ATOM     10  N   UNL A   1      32.126  21.883  24.060  1.00  0.00    -0.340 N 
ATOM     11  H   UNL A   1      32.590  21.573  23.207  1.00  0.00     0.346 HD
ATOM     12  H   UNL A   1      31.139  22.117  23.954  1.00  0.00     0.346 HD
BRANCH  10  13
ATOM     13  C   UNL A   1      32.152  20.771  25.005  1.00  0.00     0.297 C 
BRANCH  13  14
ATOM     14  C   UNL A   1      32.739  19.529  24.360  1.00  0.00     0.009 A 
ATOM     15  C   UNL A   1      32.153  18.975  23.206  1.00  0.00     0.013 A 
ATOM     16  C   UNL A   1      33.890  18.922  24.893  1.00  0.00     0.052 A 
ATOM     17  C   UNL A   1      32.717  17.853  22.589  1.00  0.00     0.043 A 
ATOM     18  C   UNL A   1      34.441  17.803  24.275  1.00  0.00     0.159 A 
ATOM     19  C   UNL A   1      33.865  17.280  23.125  1.00  0.00     0.158 A 
ATOM     20  F   UNL A   1      35.531  17.228  24.801  1.00  0.00    -0.204 F 
ATOM     21  F   UNL A   1      34.397  16.203  22.532  1.00  0.00    -0.204 F 
ENDBRANCH  13  14
ENDBRANCH  10  13
ENDBRANCH   8  10
ENDBRANCH   6   8
ENDBRANCH   3   6
ENDBRANCH   1   2
BRANCH   1  22
ATOM     22  C   UNL A   1      36.880  20.664  25.002  1.00  0.00     0.023 C 
BRANCH  22  23
ATOM     23  C   UNL A   1      38.053  19.679  25.001  1.00  0.00     0.023 C 
BRANCH  23  24
ATOM     24  C   UNL A   1      39.282  20.117  25.795  1.00  0.00     0.116 C 
BRANCH  24  25
ATOM     25  N   UNL A   1      40.289  19.074  25.911  1.00  0.00    -0.352 N 
ATOM     26  C   UNL A   1      41.646  19.177  26.126  1.00  0.00     0.251 C 
ATOM     27  H   UNL A   1      39.949  18.155  25.822  1.00  0.00     0.163 HD
ATOM     28  O   UNL A   1      42.356  18.186  26.055  1.00  0.00    -0.269 OA
BRANCH  26  29
ATOM     29  C   UNL A   1      42.250  20.500  26.404  1.00  0.00     0.039 A 
ATOM     30  C   UNL A   1      42.767  21.244  25.342  1.00  0.00     0.014 A 
ATOM     31  C   UNL A   1      42.304  21.008  27.702  1.00  0.00     0.014 A 
ATOM     32  C   UNL A   1      43.255  22.532  25.574  1.00  0.00     0.010 A 
ATOM     33  C   UNL A   1      42.716  22.321  27.923  1.00  0.00     0.010 A 
ATOM     34  C   UNL A   1      43.189  23.101  26.859  1.00  0.00    -0.014 A 
BRANCH  34  35
ATOM     35  C   UNL A   1      43.584  24.516  27.090  1.00  0.00     0.031 A 
ATOM     36  C   UNL A   1      42.586  25.519  27.598  1.00  0.00     0.074 A 
ATOM     37  C   UNL A   1      44.839  24.909  26.796  1.00  0.00     0.049 A 
ATOM     38  N   UNL A   1      42.751  26.796  27.839  1.00  0.00    -0.248 NA
ATOM     39  C   UNL A   1      41.221  25.034  27.847  1.00  0.00     0.031 C 
ATOM     40  C   UNL A   1      45.886  24.045  26.246  1.00  0.00     0.029 A 
ATOM     41  N   UNL A   1      45.449  26.133  26.915  1.00  0.00    -0.354 N 
ATOM     42  C   UNL A   1      41.515  27.263  28.266  1.00  0.00     0.074 A 
ATOM     43  C   UNL A   1      40.595  26.149  28.195  1.00  0.00     0.031 C 
ATOM     44  C   UNL A   1      47.018  24.754  26.114  1.00  0.00     0.029 A 
ATOM     45  C   UNL A   1      46.769  26.132  26.531  1.00  0.00     0.049 A 
ATOM     46  H   UNL A   1      44.985  26.937  27.245  1.00  0.00     0.167 HD
ATOM     47  C   UNL A   1      41.184  28.502  28.703  1.00  0.00     0.037 A 
ATOM     48  C   UNL A   1      47.678  27.126  26.516  1.00  0.00     0.037 A 
ATOM     49  C   UNL A   1      42.105  29.603  28.792  1.00  0.00     0.049 A 
ATOM     50  C   UNL A   1      47.283  28.496  26.992  1.00  0.00     0.074 A 
ATOM     51  C   UNL A   1      41.874  30.880  29.277  1.00  0.00     0.029 A 
ATOM     52  N   UNL A   1      43.431  29.564  28.386  1.00  0.00    -0.354 N 
ATOM     53  N   UNL A   1      46.129  28.906  27.456  1.00  0.00    -0.248 NA
ATOM     54  C   UNL A   1      48.317  29.540  26.946  1.00  0.00     0.031 C 
ATOM     55  C   UNL A   1      43.046  31.626  29.119  1.00  0.00     0.029 A 
ATOM     56  C   UNL A   1      44.023  30.800  28.586  1.00  0.00     0.049 A 
ATOM     57  H   UNL A   1      43.885  28.774  28.012  1.00  0.00     0.167 HD
ATOM     58  C   UNL A   1      46.299  30.247  27.777  1.00  0.00     0.074 A 
ATOM     59  C   UNL A   1      47.675  30.578  27.468  1.00  0.00     0.031 C 
ATOM     60  C   UNL A   1      45.395  31.121  28.279  1.00  0.00     0.037 A 
BRANCH  47  61
ATOM     61  C   UNL A   1      39.768  28.733  29.141  1.00  0.00     0.064 A 
ATOM     62  C   UNL A   1      38.821  29.260  28.249  1.00  0.00     0.173 A 
ATOM     63  C   UNL A   1      39.367  28.507  30.467  1.00  0.00     0.173 A 
ATOM     64  F   UNL A   1      39.155  29.504  26.974  1.00  0.00    -0.203 F 
ATOM     65  C   UNL A   1      37.529  29.560  28.672  1.00  0.00     0.198 A 
ATOM     66  C   UNL A   1      38.065  28.782  30.878  1.00  0.00     0.198 A 
ATOM     67  F   UNL A   1      40.232  27.999  31.356  1.00  0.00    -0.203 F 
ATOM     68  F   UNL A   1      36.651  30.096  27.812  1.00  0.00    -0.200 F 
ATOM     69  C   UNL A   1      37.151  29.318  29.984  1.00  0.00     0.200 A 
ATOM     70  F   UNL A   1      37.697  28.527  32.142  1.00  0.00    -0.200 F 
ATOM     71  F   UNL A   1      35.905  29.601  30.388  1.00  0.00    -0.200 F 
ENDBRANCH  47  61
BRANCH  48  72
ATOM     72  C   UNL A   1      49.067  26.840  26.069  1.00  0.00     0.064 A 
ATOM     73  C   UNL A   1      49.462  27.029  24.737  1.00  0.00     0.173 A 
ATOM     74  C   UNL A   1      50.019  26.336  26.966  1.00  0.00     0.173 A 
ATOM     75  F   UNL A   1      48.587  27.506  23.838  1.00  0.00    -0.203 F 
ATOM     76  C   UNL A   1      50.749  26.703  24.314  1.00  0.00     0.198 A 
ATOM     77  C   UNL A   1      51.314  26.034  26.548  1.00  0.00     0.198 A 
ATOM     78  F   UNL A   1      49.695  26.157  28.255  1.00  0.00    -0.203 F 
ATOM     79  F   UNL A   1      51.088  26.857  23.027  1.00  0.00    -0.200 F 
ATOM     80  C   UNL A   1      51.674  26.208  25.220  1.00  0.00     0.200 A 
ATOM     81  F   UNL A   1      52.212  25.578  27.432  1.00  0.00    -0.200 F 
ATOM     82  F   UNL A   1      52.914  25.903  24.815  1.00  0.00    -0.200 F 
ENDBRANCH  48  72
BRANCH  60  83
ATOM     83  C   UNL A   1      45.852  32.525  28.546  1.00  0.00     0.064 A 
ATOM     84  C   UNL A   1      46.348  32.883  29.809  1.00  0.00     0.173 A 
ATOM     85  C   UNL A   1      45.718  33.534  27.582  1.00  0.00     0.173 A 
ATOM     86  F   UNL A   1      46.489  31.956  30.768  1.00  0.00    -0.203 F 
ATOM     87  C   UNL A   1      46.674  34.204  30.103  1.00  0.00     0.198 A 
ATOM     88  C   UNL A   1      46.072  34.849  27.870  1.00  0.00     0.198 A 
ATOM     89  F   UNL A   1      45.260  33.240  26.355  1.00  0.00    -0.203 F 
ATOM     90  F   UNL A   1      47.109  34.530  31.328  1.00  0.00    -0.200 F 
ATOM     91  C   UNL A   1      46.538  35.186  29.132  1.00  0.00     0.200 A 
ATOM     92  F   UNL A   1      45.963  35.793  26.924  1.00  0.00    -0.200 F 
ATOM     93  F   UNL A   1      46.858  36.456  29.413  1.00  0.00    -0.200 F 
ENDBRANCH  60  83
ENDBRANCH  34  35
ENDBRANCH  26  29
ENDBRANCH  24  25
ENDBRANCH  23  24
ENDBRANCH  22  23
ENDBRANCH   1  22
TORSDOF 15
ENDMDL
