MODEL 1
REMARK VINA RESULT:     -13.4      0.000      0.000
REMARK SMILES O=C(NCCCCNC(=O)c1cc(S(=O)(=O)Nc2ccccc2-n2cc(Br)cn2)c[nH]1)c1ccc(-c2c3nc(c(-c4c(F)c(F)c(F)c(F)c4F)c4ccc([nH]4)c(-c4c(F)c(F)c(F)c(F)c4F)c4nc(c(-c5c(F)c(F)c(F)c(F)c5F)c5ccc2[nH]5)C=C4)C=C3)cc1
REMARK SMILES IDX 6 1 5 2 4 3 3 4 1 5 2 6 32 8 33 9 94 10 34 11 93 12 35 13
REMARK SMILES IDX 36 14 37 15 87 16 38 17 92 18 86 19 88 20 39 21 91 22 85 23
REMARK SMILES IDX 84 24 40 26 72 27 52 28 71 29 53 30 56 31 70 32 89 33 54 34
REMARK SMILES IDX 55 35 69 37 90 38 57 39 41 40 42 41 50 42 43 43 44 44 48 45
REMARK SMILES IDX 51 46 45 47 46 48 49 49 47 50 73 51 74 52 82 53 75 54 76 55
REMARK SMILES IDX 80 56 83 57 77 58 78 59 81 60 79 61 58 62 59 63 67 64 60 65
REMARK SMILES IDX 61 66 65 67 68 68 62 69 63 70 66 71 64 72 7 73 8 74 9 75
REMARK SMILES IDX 10 77 11 78 12 79 31 80 13 81 30 82 14 84 15 85 16 86 17 87
REMARK SMILES IDX 18 89 19 90 23 91 20 92 22 93 21 94 24 95 25 96 29 97 26 98
REMARK SMILES IDX 28 99 27 100
REMARK H PARENT 3 7 88 25 56 36 8 76 31 83 17 88
REMARK Flexibility Score: inf
ROOT
ATOM      1  C   UNL A   1      33.848  28.627  24.856  1.00  0.00     0.023 C 
ENDROOT
BRANCH   1   2
ATOM      2  C   UNL A   1      33.907  27.789  26.126  1.00  0.00     0.023 C 
BRANCH   2   3
ATOM      3  C   UNL A   1      33.054  28.309  27.285  1.00  0.00     0.116 C 
BRANCH   3   4
ATOM      4  N   UNL A   1      33.099  29.744  27.513  1.00  0.00    -0.352 N 
ATOM      5  O   UNL A   1      33.807  31.831  27.830  1.00  0.00    -0.269 OA
ATOM      6  C   UNL A   1      34.102  30.635  27.804  1.00  0.00     0.251 C 
ATOM      7  H   UNL A   1      32.216  30.172  27.440  1.00  0.00     0.163 HD
BRANCH   6   8
ATOM      8  C   UNL A   1      35.489  30.232  28.154  1.00  0.00     0.039 A 
ATOM      9  C   UNL A   1      36.554  30.280  27.259  1.00  0.00     0.014 A 
ATOM     10  C   UNL A   1      35.727  29.790  29.469  1.00  0.00     0.014 A 
ATOM     11  C   UNL A   1      37.795  29.773  27.615  1.00  0.00     0.010 A 
ATOM     12  C   UNL A   1      36.991  29.335  29.857  1.00  0.00     0.010 A 
ATOM     13  C   UNL A   1      38.020  29.308  28.914  1.00  0.00    -0.014 A 
BRANCH  13  14
ATOM     14  C   UNL A   1      39.423  28.970  29.239  1.00  0.00     0.031 A 
ATOM     15  C   UNL A   1      40.171  30.171  29.818  1.00  0.00     0.074 A 
ATOM     16  C   UNL A   1      39.884  27.749  28.842  1.00  0.00     0.049 A 
ATOM     17  N   UNL A   1      41.395  30.561  29.627  1.00  0.00    -0.248 NA
ATOM     18  C   UNL A   1      39.409  31.141  30.646  1.00  0.00     0.031 C 
ATOM     19  C   UNL A   1      39.025  26.669  28.327  1.00  0.00     0.029 A 
ATOM     20  N   UNL A   1      41.138  27.175  28.762  1.00  0.00    -0.354 N 
ATOM     21  C   UNL A   1      41.599  31.698  30.435  1.00  0.00     0.074 A 
ATOM     22  C   UNL A   1      40.311  32.081  30.932  1.00  0.00     0.031 C 
ATOM     23  C   UNL A   1      39.769  25.616  27.932  1.00  0.00     0.029 A 
ATOM     24  C   UNL A   1      41.176  25.902  28.134  1.00  0.00     0.049 A 
ATOM     25  H   UNL A   1      41.945  27.615  29.114  1.00  0.00     0.167 HD
ATOM     26  C   UNL A   1      42.835  32.180  30.755  1.00  0.00     0.037 A 
ATOM     27  C   UNL A   1      42.258  25.150  27.755  1.00  0.00     0.037 A 
ATOM     28  C   UNL A   1      43.855  31.410  30.129  1.00  0.00     0.049 A 
ATOM     29  C   UNL A   1      43.439  25.893  28.221  1.00  0.00     0.074 A 
ATOM     30  C   UNL A   1      44.330  31.345  28.847  1.00  0.00     0.029 A 
ATOM     31  N   UNL A   1      44.353  30.347  30.839  1.00  0.00    -0.354 N 
ATOM     32  N   UNL A   1      43.827  25.961  29.459  1.00  0.00    -0.248 NA
ATOM     33  C   UNL A   1      44.233  26.654  27.246  1.00  0.00     0.031 C 
ATOM     34  C   UNL A   1      44.803  30.021  28.714  1.00  0.00     0.029 A 
ATOM     35  C   UNL A   1      44.671  29.360  29.939  1.00  0.00     0.049 A 
ATOM     36  H   UNL A   1      44.464  30.301  31.816  1.00  0.00     0.167 HD
ATOM     37  C   UNL A   1      44.700  27.024  29.439  1.00  0.00     0.074 A 
ATOM     38  C   UNL A   1      45.133  27.181  28.071  1.00  0.00     0.031 C 
ATOM     39  C   UNL A   1      44.586  27.987  30.387  1.00  0.00     0.037 A 
BRANCH  26  40
ATOM     40  C   UNL A   1      43.272  33.182  31.789  1.00  0.00     0.064 A 
ATOM     41  C   UNL A   1      43.164  32.828  33.158  1.00  0.00     0.173 A 
ATOM     42  C   UNL A   1      43.472  34.541  31.518  1.00  0.00     0.173 A 
ATOM     43  F   UNL A   1      43.004  31.548  33.527  1.00  0.00    -0.203 F 
ATOM     44  C   UNL A   1      43.142  33.785  34.172  1.00  0.00     0.198 A 
ATOM     45  C   UNL A   1      43.500  35.493  32.543  1.00  0.00     0.198 A 
ATOM     46  F   UNL A   1      43.546  34.994  30.260  1.00  0.00    -0.203 F 
ATOM     47  F   UNL A   1      42.908  33.412  35.438  1.00  0.00    -0.200 F 
ATOM     48  C   UNL A   1      43.297  35.120  33.862  1.00  0.00     0.200 A 
ATOM     49  F   UNL A   1      43.653  36.789  32.238  1.00  0.00    -0.200 F 
ATOM     50  F   UNL A   1      43.218  36.049  34.823  1.00  0.00    -0.200 F 
ENDBRANCH  26  40
BRANCH  27  51
ATOM     51  C   UNL A   1      42.542  23.879  26.975  1.00  0.00     0.064 A 
ATOM     52  C   UNL A   1      43.088  23.802  25.687  1.00  0.00     0.173 A 
ATOM     53  C   UNL A   1      42.306  22.604  27.572  1.00  0.00     0.173 A 
ATOM     54  F   UNL A   1      43.268  24.892  24.939  1.00  0.00    -0.203 F 
ATOM     55  C   UNL A   1      43.459  22.578  25.097  1.00  0.00     0.198 A 
ATOM     56  C   UNL A   1      42.708  21.393  27.007  1.00  0.00     0.198 A 
ATOM     57  F   UNL A   1      41.668  22.480  28.744  1.00  0.00    -0.203 F 
ATOM     58  F   UNL A   1      43.988  22.570  23.866  1.00  0.00    -0.200 F 
ATOM     59  C   UNL A   1      43.302  21.380  25.770  1.00  0.00     0.200 A 
ATOM     60  F   UNL A   1      42.528  20.250  27.685  1.00  0.00    -0.200 F 
ATOM     61  F   UNL A   1      43.706  20.225  25.226  1.00  0.00    -0.200 F 
ENDBRANCH  27  51
BRANCH  39  62
ATOM     62  C   UNL A   1      43.908  27.488  31.650  1.00  0.00     0.064 A 
ATOM     63  C   UNL A   1      42.630  27.951  31.998  1.00  0.00     0.173 A 
ATOM     64  C   UNL A   1      44.558  26.699  32.614  1.00  0.00     0.173 A 
ATOM     65  F   UNL A   1      41.934  28.704  31.132  1.00  0.00    -0.203 F 
ATOM     66  C   UNL A   1      42.059  27.665  33.242  1.00  0.00     0.198 A 
ATOM     67  C   UNL A   1      43.989  26.402  33.852  1.00  0.00     0.198 A 
ATOM     68  F   UNL A   1      45.768  26.205  32.376  1.00  0.00    -0.203 F 
ATOM     69  F   UNL A   1      40.844  28.142  33.545  1.00  0.00    -0.200 F 
ATOM     70  C   UNL A   1      42.741  26.895  34.171  1.00  0.00     0.200 A 
ATOM     71  F   UNL A   1      44.659  25.640  34.730  1.00  0.00    -0.200 F 
ATOM     72  F   UNL A   1      42.193  26.619  35.362  1.00  0.00    -0.200 F 
ENDBRANCH  39  62
ENDBRANCH  13  14
ENDBRANCH   6   8
ENDBRANCH   3   4
ENDBRANCH   2   3
ENDBRANCH   1   2
BRANCH   1  73
ATOM     73  C   UNL A   1      33.603  27.841  23.578  1.00  0.00     0.116 C 
BRANCH  73  74
ATOM     74  N   UNL A   1      32.279  28.064  23.030  1.00  0.00    -0.351 N 
ATOM     75  C   UNL A   1      31.243  27.186  22.828  1.00  0.00     0.267 C 
ATOM     76  H   UNL A   1      32.093  28.992  22.761  1.00  0.00     0.163 HD
ATOM     77  O   UNL A   1      30.298  27.570  22.139  1.00  0.00    -0.268 OA
BRANCH  75  78
ATOM     78  C   UNL A   1      31.267  25.867  23.417  1.00  0.00     0.105 A 
ATOM     79  C   UNL A   1      31.347  25.437  24.726  1.00  0.00     0.055 A 
ATOM     80  N   UNL A   1      31.114  24.721  22.657  1.00  0.00    -0.356 N 
ATOM     81  C   UNL A   1      31.178  24.036  24.771  1.00  0.00     0.106 A 
ATOM     82  C   UNL A   1      31.072  23.609  23.464  1.00  0.00     0.105 A 
ATOM     83  H   UNL A   1      31.045  24.704  21.675  1.00  0.00     0.166 HD
BRANCH  81  84
ATOM     84  S   UNL A   1      31.141  23.124  26.237  1.00  0.00     0.263 S 
ATOM     85  O   UNL A   1      30.915  24.089  27.280  1.00  0.00    -0.201 OA
ATOM     86  O   UNL A   1      30.187  22.062  25.964  1.00  0.00    -0.201 OA
BRANCH  84  87
ATOM     87  N   UNL A   1      32.635  22.365  26.575  1.00  0.00    -0.277 N 
ATOM     88  H   UNL A   1      32.708  21.704  27.301  1.00  0.00     0.180 HD
BRANCH  87  89
ATOM     89  C   UNL A   1      33.785  22.711  25.782  1.00  0.00     0.075 A 
ATOM     90  C   UNL A   1      34.438  23.921  26.058  1.00  0.00     0.029 A 
ATOM     91  C   UNL A   1      34.367  21.810  24.866  1.00  0.00     0.089 A 
ATOM     92  C   UNL A   1      35.645  24.241  25.427  1.00  0.00     0.002 A 
ATOM     93  C   UNL A   1      35.598  22.130  24.261  1.00  0.00     0.030 A 
ATOM     94  C   UNL A   1      36.224  23.348  24.531  1.00  0.00     0.002 A 
BRANCH  91  95
ATOM     95  N   UNL A   1      33.798  20.535  24.590  1.00  0.00    -0.238 N 
ATOM     96  C   UNL A   1      34.379  19.291  24.714  1.00  0.00     0.130 A 
ATOM     97  N   UNL A   1      32.545  20.441  24.058  1.00  0.00    -0.175 NA
ATOM     98  C   UNL A   1      33.573  18.426  24.032  1.00  0.00     0.056 A 
ATOM     99  C   UNL A   1      32.468  19.175  23.632  1.00  0.00     0.151 A 
ATOM    100  Br  UNL A   1      33.863  16.617  23.692  1.00  0.00    -0.047 Br
ENDBRANCH  91  95
ENDBRANCH  87  89
ENDBRANCH  84  87
ENDBRANCH  81  84
ENDBRANCH  75  78
ENDBRANCH  73  74
ENDBRANCH   1  73
TORSDOF 15
ENDMDL
MODEL 2
REMARK VINA RESULT:     -13.1      4.016      7.856
REMARK SMILES O=C(NCCCCNC(=O)c1cc(S(=O)(=O)Nc2ccccc2-n2cc(Br)cn2)c[nH]1)c1ccc(-c2c3nc(c(-c4c(F)c(F)c(F)c(F)c4F)c4ccc([nH]4)c(-c4c(F)c(F)c(F)c(F)c4F)c4nc(c(-c5c(F)c(F)c(F)c(F)c5F)c5ccc2[nH]5)C=C4)C=C3)cc1
REMARK SMILES IDX 6 1 5 2 4 3 3 4 1 5 2 6 32 8 33 9 94 10 34 11 93 12 35 13
REMARK SMILES IDX 36 14 37 15 87 16 38 17 92 18 86 19 88 20 39 21 91 22 85 23
REMARK SMILES IDX 84 24 40 26 72 27 52 28 71 29 53 30 56 31 70 32 89 33 54 34
REMARK SMILES IDX 55 35 69 37 90 38 57 39 41 40 42 41 50 42 43 43 44 44 48 45
REMARK SMILES IDX 51 46 45 47 46 48 49 49 47 50 73 51 74 52 82 53 75 54 76 55
REMARK SMILES IDX 80 56 83 57 77 58 78 59 81 60 79 61 58 62 59 63 67 64 60 65
REMARK SMILES IDX 61 66 65 67 68 68 62 69 63 70 66 71 64 72 7 73 8 74 9 75
REMARK SMILES IDX 10 77 11 78 12 79 31 80 13 81 30 82 14 84 15 85 16 86 17 87
REMARK SMILES IDX 18 89 19 90 23 91 20 92 22 93 21 94 24 95 25 96 29 97 26 98
REMARK SMILES IDX 28 99 27 100
REMARK H PARENT 3 7 88 25 56 36 8 76 31 83 17 88
REMARK Flexibility Score: inf
ROOT
ATOM      1  C   UNL A   1      36.096  22.185  24.840  1.00  0.00     0.023 C 
ENDROOT
BRANCH   1   2
ATOM      2  C   UNL A   1      35.983  23.679  25.114  1.00  0.00     0.023 C 
BRANCH   2   3
ATOM      3  C   UNL A   1      36.937  24.215  26.183  1.00  0.00     0.116 C 
BRANCH   3   4
ATOM      4  N   UNL A   1      38.322  23.786  26.071  1.00  0.00    -0.352 N 
ATOM      5  O   UNL A   1      40.510  23.541  26.395  1.00  0.00    -0.269 OA
ATOM      6  C   UNL A   1      39.502  24.209  26.628  1.00  0.00     0.251 C 
ATOM      7  H   UNL A   1      38.438  23.022  25.462  1.00  0.00     0.163 HD
BRANCH   6   8
ATOM      8  C   UNL A   1      39.639  25.454  27.428  1.00  0.00     0.039 A 
ATOM      9  C   UNL A   1      39.306  25.543  28.778  1.00  0.00     0.014 A 
ATOM     10  C   UNL A   1      40.143  26.596  26.778  1.00  0.00     0.014 A 
ATOM     11  C   UNL A   1      39.341  26.765  29.432  1.00  0.00     0.010 A 
ATOM     12  C   UNL A   1      40.241  27.819  27.447  1.00  0.00     0.010 A 
ATOM     13  C   UNL A   1      39.815  27.903  28.773  1.00  0.00    -0.014 A 
BRANCH  13  14
ATOM     14  C   UNL A   1      39.989  29.105  29.618  1.00  0.00     0.031 A 
ATOM     15  C   UNL A   1      38.788  30.046  29.512  1.00  0.00     0.074 A 
ATOM     16  C   UNL A   1      41.202  29.285  30.213  1.00  0.00     0.049 A 
ATOM     17  N   UNL A   1      38.747  31.343  29.478  1.00  0.00    -0.248 NA
ATOM     18  C   UNL A   1      37.444  29.449  29.302  1.00  0.00     0.031 C 
ATOM     19  C   UNL A   1      42.259  28.261  30.261  1.00  0.00     0.029 A 
ATOM     20  N   UNL A   1      41.805  30.343  30.866  1.00  0.00    -0.354 N 
ATOM     21  C   UNL A   1      37.388  31.714  29.424  1.00  0.00     0.074 A 
ATOM     22  C   UNL A   1      36.646  30.512  29.186  1.00  0.00     0.031 C 
ATOM     23  C   UNL A   1      43.376  28.754  30.833  1.00  0.00     0.029 A 
ATOM     24  C   UNL A   1      43.169  30.141  31.203  1.00  0.00     0.049 A 
ATOM     25  H   UNL A   1      41.325  31.176  31.080  1.00  0.00     0.167 HD
ATOM     26  C   UNL A   1      36.940  32.972  29.710  1.00  0.00     0.037 A 
ATOM     27  C   UNL A   1      44.086  31.033  31.698  1.00  0.00     0.037 A 
ATOM     28  C   UNL A   1      38.028  33.836  30.017  1.00  0.00     0.049 A 
ATOM     29  C   UNL A   1      43.343  32.285  31.915  1.00  0.00     0.074 A 
ATOM     30  C   UNL A   1      38.975  34.463  29.253  1.00  0.00     0.029 A 
ATOM     31  N   UNL A   1      38.394  33.929  31.336  1.00  0.00    -0.354 N 
ATOM     32  N   UNL A   1      42.509  32.488  32.889  1.00  0.00    -0.248 NA
ATOM     33  C   UNL A   1      43.504  33.385  30.954  1.00  0.00     0.031 C 
ATOM     34  C   UNL A   1      40.091  34.589  30.109  1.00  0.00     0.029 A 
ATOM     35  C   UNL A   1      39.754  34.108  31.378  1.00  0.00     0.049 A 
ATOM     36  H   UNL A   1      37.790  33.877  32.112  1.00  0.00     0.167 HD
ATOM     37  C   UNL A   1      41.821  33.601  32.465  1.00  0.00     0.074 A 
ATOM     38  C   UNL A   1      42.655  34.258  31.488  1.00  0.00     0.031 C 
ATOM     39  C   UNL A   1      40.466  33.602  32.531  1.00  0.00     0.037 A 
BRANCH  26  40
ATOM     40  C   UNL A   1      35.555  33.496  29.973  1.00  0.00     0.064 A 
ATOM     41  C   UNL A   1      34.911  34.241  28.952  1.00  0.00     0.173 A 
ATOM     42  C   UNL A   1      34.986  33.581  31.250  1.00  0.00     0.173 A 
ATOM     43  F   UNL A   1      35.358  34.201  27.687  1.00  0.00    -0.203 F 
ATOM     44  C   UNL A   1      33.845  35.098  29.219  1.00  0.00     0.198 A 
ATOM     45  C   UNL A   1      33.883  34.405  31.504  1.00  0.00     0.198 A 
ATOM     46  F   UNL A   1      35.535  32.954  32.297  1.00  0.00    -0.203 F 
ATOM     47  F   UNL A   1      33.354  35.878  28.246  1.00  0.00    -0.200 F 
ATOM     48  C   UNL A   1      33.340  35.190  30.500  1.00  0.00     0.200 A 
ATOM     49  F   UNL A   1      33.394  34.489  32.748  1.00  0.00    -0.200 F 
ATOM     50  F   UNL A   1      32.355  36.055  30.776  1.00  0.00    -0.200 F 
ENDBRANCH  26  40
BRANCH  27  51
ATOM     51  C   UNL A   1      45.573  31.089  31.993  1.00  0.00     0.064 A 
ATOM     52  C   UNL A   1      46.165  31.127  33.263  1.00  0.00     0.173 A 
ATOM     53  C   UNL A   1      46.518  31.047  30.924  1.00  0.00     0.173 A 
ATOM     54  F   UNL A   1      45.434  31.282  34.369  1.00  0.00    -0.203 F 
ATOM     55  C   UNL A   1      47.558  31.025  33.449  1.00  0.00     0.198 A 
ATOM     56  C   UNL A   1      47.895  30.907  31.107  1.00  0.00     0.198 A 
ATOM     57  F   UNL A   1      46.139  31.139  29.642  1.00  0.00    -0.203 F 
ATOM     58  F   UNL A   1      48.063  31.055  34.690  1.00  0.00    -0.200 F 
ATOM     59  C   UNL A   1      48.417  30.880  32.375  1.00  0.00     0.200 A 
ATOM     60  F   UNL A   1      48.698  30.781  30.040  1.00  0.00    -0.200 F 
ATOM     61  F   UNL A   1      49.735  30.730  32.562  1.00  0.00    -0.200 F 
ENDBRANCH  27  51
BRANCH  39  62
ATOM     62  C   UNL A   1      39.930  32.637  33.574  1.00  0.00     0.064 A 
ATOM     63  C   UNL A   1      39.265  31.466  33.179  1.00  0.00     0.173 A 
ATOM     64  C   UNL A   1      39.902  32.925  34.949  1.00  0.00     0.173 A 
ATOM     65  F   UNL A   1      39.249  31.111  31.884  1.00  0.00    -0.203 F 
ATOM     66  C   UNL A   1      38.593  30.657  34.100  1.00  0.00     0.198 A 
ATOM     67  C   UNL A   1      39.242  32.116  35.873  1.00  0.00     0.198 A 
ATOM     68  F   UNL A   1      40.511  34.006  35.423  1.00  0.00    -0.203 F 
ATOM     69  F   UNL A   1      37.953  29.557  33.682  1.00  0.00    -0.200 F 
ATOM     70  C   UNL A   1      38.577  30.985  35.447  1.00  0.00     0.200 A 
ATOM     71  F   UNL A   1      39.254  32.442  37.175  1.00  0.00    -0.200 F 
ATOM     72  F   UNL A   1      37.935  30.209  36.330  1.00  0.00    -0.200 F 
ENDBRANCH  39  62
ENDBRANCH  13  14
ENDBRANCH   6   8
ENDBRANCH   3   4
ENDBRANCH   2   3
ENDBRANCH   1   2
BRANCH   1  73
ATOM     73  C   UNL A   1      35.154  21.310  25.651  1.00  0.00     0.116 C 
BRANCH  73  74
ATOM     74  N   UNL A   1      34.226  20.569  24.818  1.00  0.00    -0.351 N 
ATOM     75  C   UNL A   1      32.873  20.723  24.645  1.00  0.00     0.267 C 
ATOM     76  H   UNL A   1      34.629  19.840  24.295  1.00  0.00     0.163 HD
ATOM     77  O   UNL A   1      32.268  19.826  24.057  1.00  0.00    -0.268 OA
BRANCH  75  78
ATOM     78  C   UNL A   1      32.195  21.904  25.129  1.00  0.00     0.105 A 
ATOM     79  C   UNL A   1      32.217  23.221  24.713  1.00  0.00     0.055 A 
ATOM     80  N   UNL A   1      31.260  21.849  26.147  1.00  0.00    -0.356 N 
ATOM     81  C   UNL A   1      31.249  23.955  25.434  1.00  0.00     0.106 A 
ATOM     82  C   UNL A   1      30.692  23.085  26.347  1.00  0.00     0.105 A 
ATOM     83  H   UNL A   1      31.033  21.039  26.657  1.00  0.00     0.166 HD
BRANCH  81  84
ATOM     84  S   UNL A   1      30.914  25.626  25.154  1.00  0.00     0.263 S 
ATOM     85  O   UNL A   1      29.995  25.650  24.047  1.00  0.00    -0.201 OA
ATOM     86  O   UNL A   1      30.540  26.131  26.464  1.00  0.00    -0.201 OA
BRANCH  84  87
ATOM     87  N   UNL A   1      32.301  26.500  24.669  1.00  0.00    -0.277 N 
ATOM     88  H   UNL A   1      32.822  26.217  23.882  1.00  0.00     0.180 HD
BRANCH  87  89
ATOM     89  C   UNL A   1      32.695  27.655  25.431  1.00  0.00     0.075 A 
ATOM     90  C   UNL A   1      33.668  27.489  26.427  1.00  0.00     0.029 A 
ATOM     91  C   UNL A   1      32.268  28.958  25.099  1.00  0.00     0.089 A 
ATOM     92  C   UNL A   1      34.202  28.595  27.097  1.00  0.00     0.002 A 
ATOM     93  C   UNL A   1      32.836  30.066  25.758  1.00  0.00     0.030 A 
ATOM     94  C   UNL A   1      33.788  29.881  26.763  1.00  0.00     0.002 A 
BRANCH  91  95
ATOM     95  N   UNL A   1      31.339  29.208  24.051  1.00  0.00    -0.238 N 
ATOM     96  C   UNL A   1      30.163  29.924  24.099  1.00  0.00     0.130 A 
ATOM     97  N   UNL A   1      31.516  28.638  22.824  1.00  0.00    -0.175 NA
ATOM     98  C   UNL A   1      29.477  29.607  22.962  1.00  0.00     0.056 A 
ATOM     99  C   UNL A   1      30.336  28.802  22.216  1.00  0.00     0.151 A 
ATOM    100  Br  UNL A   1      27.753  30.126  22.483  1.00  0.00    -0.047 Br
ENDBRANCH  91  95
ENDBRANCH  87  89
ENDBRANCH  84  87
ENDBRANCH  81  84
ENDBRANCH  75  78
ENDBRANCH  73  74
ENDBRANCH   1  73
TORSDOF 15
ENDMDL
MODEL 3
REMARK VINA RESULT:     -12.9      2.145      7.968
REMARK SMILES O=C(NCCCCNC(=O)c1cc(S(=O)(=O)Nc2ccccc2-n2cc(Br)cn2)c[nH]1)c1ccc(-c2c3nc(c(-c4c(F)c(F)c(F)c(F)c4F)c4ccc([nH]4)c(-c4c(F)c(F)c(F)c(F)c4F)c4nc(c(-c5c(F)c(F)c(F)c(F)c5F)c5ccc2[nH]5)C=C4)C=C3)cc1
REMARK SMILES IDX 6 1 5 2 4 3 3 4 1 5 2 6 32 8 33 9 94 10 34 11 93 12 35 13
REMARK SMILES IDX 36 14 37 15 87 16 38 17 92 18 86 19 88 20 39 21 91 22 85 23
REMARK SMILES IDX 84 24 40 26 72 27 52 28 71 29 53 30 56 31 70 32 89 33 54 34
REMARK SMILES IDX 55 35 69 37 90 38 57 39 41 40 42 41 50 42 43 43 44 44 48 45
REMARK SMILES IDX 51 46 45 47 46 48 49 49 47 50 73 51 74 52 82 53 75 54 76 55
REMARK SMILES IDX 80 56 83 57 77 58 78 59 81 60 79 61 58 62 59 63 67 64 60 65
REMARK SMILES IDX 61 66 65 67 68 68 62 69 63 70 66 71 64 72 7 73 8 74 9 75
REMARK SMILES IDX 10 77 11 78 12 79 31 80 13 81 30 82 14 84 15 85 16 86 17 87
REMARK SMILES IDX 18 89 19 90 23 91 20 92 22 93 21 94 24 95 25 96 29 97 26 98
REMARK SMILES IDX 28 99 27 100
REMARK H PARENT 3 7 88 25 56 36 8 76 31 83 17 88
REMARK Flexibility Score: inf
ROOT
ATOM      1  C   UNL A   1      33.103  28.836  24.871  1.00  0.00     0.023 C 
ENDROOT
BRANCH   1   2
ATOM      2  C   UNL A   1      34.126  27.900  25.499  1.00  0.00     0.023 C 
BRANCH   2   3
ATOM      3  C   UNL A   1      34.404  28.147  26.983  1.00  0.00     0.116 C 
BRANCH   3   4
ATOM      4  N   UNL A   1      34.616  29.534  27.367  1.00  0.00    -0.352 N 
ATOM      5  O   UNL A   1      35.560  31.487  27.864  1.00  0.00    -0.269 OA
ATOM      6  C   UNL A   1      35.724  30.279  27.683  1.00  0.00     0.251 C 
ATOM      7  H   UNL A   1      33.781  30.052  27.407  1.00  0.00     0.163 HD
BRANCH   6   8
ATOM      8  C   UNL A   1      37.078  29.703  27.883  1.00  0.00     0.039 A 
ATOM      9  C   UNL A   1      38.112  29.823  26.958  1.00  0.00     0.014 A 
ATOM     10  C   UNL A   1      37.321  29.008  29.083  1.00  0.00     0.014 A 
ATOM     11  C   UNL A   1      39.312  29.156  27.153  1.00  0.00     0.010 A 
ATOM     12  C   UNL A   1      38.549  28.385  29.317  1.00  0.00     0.010 A 
ATOM     13  C   UNL A   1      39.538  28.443  28.333  1.00  0.00    -0.014 A 
BRANCH  13  14
ATOM     14  C   UNL A   1      40.914  27.934  28.520  1.00  0.00     0.031 A 
ATOM     15  C   UNL A   1      41.047  26.486  28.047  1.00  0.00     0.074 A 
ATOM     16  C   UNL A   1      41.788  28.723  29.207  1.00  0.00     0.049 A 
ATOM     17  N   UNL A   1      41.720  25.501  28.559  1.00  0.00    -0.248 NA
ATOM     18  C   UNL A   1      40.220  26.045  26.894  1.00  0.00     0.031 C 
ATOM     19  C   UNL A   1      41.527  30.127  29.567  1.00  0.00     0.029 A 
ATOM     20  N   UNL A   1      43.039  28.518  29.758  1.00  0.00    -0.354 N 
ATOM     21  C   UNL A   1      41.543  24.391  27.709  1.00  0.00     0.074 A 
ATOM     22  C   UNL A   1      40.512  24.748  26.781  1.00  0.00     0.031 C 
ATOM     23  C   UNL A   1      42.532  30.620  30.319  1.00  0.00     0.029 A 
ATOM     24  C   UNL A   1      43.535  29.597  30.536  1.00  0.00     0.049 A 
ATOM     25  H   UNL A   1      43.547  27.686  29.622  1.00  0.00     0.167 HD
ATOM     26  C   UNL A   1      42.350  23.290  27.733  1.00  0.00     0.037 A 
ATOM     27  C   UNL A   1      44.646  29.653  31.338  1.00  0.00     0.037 A 
ATOM     28  C   UNL A   1      43.338  23.411  28.750  1.00  0.00     0.049 A 
ATOM     29  C   UNL A   1      45.321  28.356  31.172  1.00  0.00     0.074 A 
ATOM     30  C   UNL A   1      43.305  23.284  30.113  1.00  0.00     0.029 A 
ATOM     31  N   UNL A   1      44.534  23.979  28.389  1.00  0.00    -0.354 N 
ATOM     32  N   UNL A   1      46.005  28.009  30.124  1.00  0.00    -0.248 NA
ATOM     33  C   UNL A   1      45.196  27.347  32.233  1.00  0.00     0.031 C 
ATOM     34  C   UNL A   1      44.334  24.136  30.570  1.00  0.00     0.029 A 
ATOM     35  C   UNL A   1      45.002  24.683  29.470  1.00  0.00     0.049 A 
ATOM     36  H   UNL A   1      44.976  23.896  27.513  1.00  0.00     0.167 HD
ATOM     37  C   UNL A   1      46.104  26.646  30.272  1.00  0.00     0.074 A 
ATOM     38  C   UNL A   1      45.890  26.362  31.671  1.00  0.00     0.031 C 
ATOM     39  C   UNL A   1      45.823  25.846  29.213  1.00  0.00     0.037 A 
BRANCH  26  40
ATOM     40  C   UNL A   1      42.504  22.151  26.763  1.00  0.00     0.064 A 
ATOM     41  C   UNL A   1      41.932  20.897  27.097  1.00  0.00     0.173 A 
ATOM     42  C   UNL A   1      43.435  22.143  25.715  1.00  0.00     0.173 A 
ATOM     43  F   UNL A   1      41.005  20.801  28.064  1.00  0.00    -0.203 F 
ATOM     44  C   UNL A   1      42.349  19.708  26.502  1.00  0.00     0.198 A 
ATOM     45  C   UNL A   1      43.815  20.952  25.086  1.00  0.00     0.198 A 
ATOM     46  F   UNL A   1      44.069  23.261  25.344  1.00  0.00    -0.203 F 
ATOM     47  F   UNL A   1      41.871  18.536  26.943  1.00  0.00    -0.200 F 
ATOM     48  C   UNL A   1      43.302  19.735  25.505  1.00  0.00     0.200 A 
ATOM     49  F   UNL A   1      44.738  20.983  24.116  1.00  0.00    -0.200 F 
ATOM     50  F   UNL A   1      43.751  18.592  24.970  1.00  0.00    -0.200 F 
ENDBRANCH  26  40
BRANCH  27  51
ATOM     51  C   UNL A   1      45.281  30.605  32.336  1.00  0.00     0.064 A 
ATOM     52  C   UNL A   1      44.984  30.693  33.702  1.00  0.00     0.173 A 
ATOM     53  C   UNL A   1      46.327  31.483  31.922  1.00  0.00     0.173 A 
ATOM     54  F   UNL A   1      43.959  30.025  34.237  1.00  0.00    -0.203 F 
ATOM     55  C   UNL A   1      45.727  31.499  34.586  1.00  0.00     0.198 A 
ATOM     56  C   UNL A   1      47.090  32.254  32.800  1.00  0.00     0.198 A 
ATOM     57  F   UNL A   1      46.656  31.631  30.631  1.00  0.00    -0.203 F 
ATOM     58  F   UNL A   1      45.401  31.532  35.885  1.00  0.00    -0.200 F 
ATOM     59  C   UNL A   1      46.800  32.250  34.141  1.00  0.00     0.200 A 
ATOM     60  F   UNL A   1      48.116  32.979  32.330  1.00  0.00    -0.200 F 
ATOM     61  F   UNL A   1      47.536  32.974  34.995  1.00  0.00    -0.200 F 
ENDBRANCH  27  51
BRANCH  39  62
ATOM     62  C   UNL A   1      45.996  26.556  27.882  1.00  0.00     0.064 A 
ATOM     63  C   UNL A   1      44.874  26.893  27.110  1.00  0.00     0.173 A 
ATOM     64  C   UNL A   1      47.244  26.753  27.270  1.00  0.00     0.173 A 
ATOM     65  F   UNL A   1      43.641  26.744  27.621  1.00  0.00    -0.203 F 
ATOM     66  C   UNL A   1      45.000  27.369  25.801  1.00  0.00     0.198 A 
ATOM     67  C   UNL A   1      47.376  27.237  25.969  1.00  0.00     0.198 A 
ATOM     68  F   UNL A   1      48.367  26.471  27.922  1.00  0.00    -0.203 F 
ATOM     69  F   UNL A   1      43.904  27.663  25.088  1.00  0.00    -0.200 F 
ATOM     70  C   UNL A   1      46.251  27.536  25.228  1.00  0.00     0.200 A 
ATOM     71  F   UNL A   1      48.597  27.408  25.439  1.00  0.00    -0.200 F 
ATOM     72  F   UNL A   1      46.372  27.993  23.975  1.00  0.00    -0.200 F 
ENDBRANCH  39  62
ENDBRANCH  13  14
ENDBRANCH   6   8
ENDBRANCH   3   4
ENDBRANCH   2   3
ENDBRANCH   1   2
BRANCH   1  73
ATOM     73  C   UNL A   1      32.568  28.391  23.519  1.00  0.00     0.116 C 
BRANCH  73  74
ATOM     74  N   UNL A   1      31.120  28.441  23.449  1.00  0.00    -0.351 N 
ATOM     75  C   UNL A   1      30.194  27.429  23.505  1.00  0.00     0.267 C 
ATOM     76  H   UNL A   1      30.740  29.343  23.345  1.00  0.00     0.163 HD
ATOM     77  O   UNL A   1      29.034  27.701  23.196  1.00  0.00    -0.268 OA
BRANCH  75  78
ATOM     78  C   UNL A   1      30.576  26.099  23.923  1.00  0.00     0.105 A 
ATOM     79  C   UNL A   1      30.627  25.497  25.165  1.00  0.00     0.055 A 
ATOM     80  N   UNL A   1      30.907  25.110  23.015  1.00  0.00    -0.356 N 
ATOM     81  C   UNL A   1      30.925  24.126  25.008  1.00  0.00     0.106 A 
ATOM     82  C   UNL A   1      31.131  23.918  23.661  1.00  0.00     0.105 A 
ATOM     83  H   UNL A   1      30.972  25.241  22.042  1.00  0.00     0.166 HD
BRANCH  81  84
ATOM     84  S   UNL A   1      31.004  23.009  26.323  1.00  0.00     0.263 S 
ATOM     85  O   UNL A   1      30.636  23.767  27.490  1.00  0.00    -0.201 OA
ATOM     86  O   UNL A   1      30.211  21.878  25.870  1.00  0.00    -0.201 OA
BRANCH  84  87
ATOM     87  N   UNL A   1      32.588  22.422  26.590  1.00  0.00    -0.277 N 
ATOM     88  H   UNL A   1      32.777  21.817  27.344  1.00  0.00     0.180 HD
BRANCH  87  89
ATOM     89  C   UNL A   1      33.638  22.828  25.695  1.00  0.00     0.075 A 
ATOM     90  C   UNL A   1      34.262  24.063  25.926  1.00  0.00     0.029 A 
ATOM     91  C   UNL A   1      34.168  21.964  24.713  1.00  0.00     0.089 A 
ATOM     92  C   UNL A   1      35.387  24.444  25.186  1.00  0.00     0.002 A 
ATOM     93  C   UNL A   1      35.319  22.347  23.997  1.00  0.00     0.030 A 
ATOM     94  C   UNL A   1      35.915  23.588  24.225  1.00  0.00     0.002 A 
BRANCH  91  95
ATOM     95  N   UNL A   1      33.631  20.668  24.474  1.00  0.00    -0.238 N 
ATOM     96  C   UNL A   1      34.216  19.442  24.704  1.00  0.00     0.130 A 
ATOM     97  N   UNL A   1      32.417  20.527  23.868  1.00  0.00    -0.175 NA
ATOM     98  C   UNL A   1      33.464  18.529  24.021  1.00  0.00     0.056 A 
ATOM     99  C   UNL A   1      32.380  19.239  23.510  1.00  0.00     0.151 A 
ATOM    100  Br  UNL A   1      33.795  16.708  23.804  1.00  0.00    -0.047 Br
ENDBRANCH  91  95
ENDBRANCH  87  89
ENDBRANCH  84  87
ENDBRANCH  81  84
ENDBRANCH  75  78
ENDBRANCH  73  74
ENDBRANCH   1  73
TORSDOF 15
ENDMDL
