MODEL 1
REMARK VINA RESULT:     -11.9      0.000      0.000
REMARK SMILES C[C@@H](CS(=O)(=O)[C@@H]1CCC[C@H](S(C)(=O)=O)C1)C(=O)NCCCCNC(=O)c1ccc(-c2c3nc(c(-c4c(F)c(F)c(F)c(F)c4F)c4ccc([nH]4)c(-c4c(F)c(F)c(F)c(F)c4F)c4nc(c(-c5c(F)c(F)c(F)c(F)c5F)c5ccc2[nH]5)C=C4)C=C3)cc1
REMARK SMILES IDX 20 1 19 2 17 3 18 4 2 6 1 7 3 8 4 9 5 10 6 11 7 12 8 13
REMARK SMILES IDX 16 14 9 15 11 16 10 17 12 18 13 19 14 20 15 21 21 22 22 23
REMARK SMILES IDX 23 24 24 25 25 26 26 28 27 29 28 30 89 31 29 32 88 33 30 34
REMARK SMILES IDX 31 35 32 36 82 37 33 38 87 39 81 40 83 41 34 42 86 43 80 44
REMARK SMILES IDX 79 45 35 47 67 48 47 49 66 50 48 51 51 52 65 53 84 54 49 55
REMARK SMILES IDX 50 56 64 58 85 59 52 60 36 61 37 62 45 63 38 64 39 65 43 66
REMARK SMILES IDX 46 67 40 68 41 69 44 70 42 71 68 72 69 73 77 74 70 75 71 76
REMARK SMILES IDX 75 77 78 78 72 79 73 80 76 81 74 82 53 83 54 84 62 85 55 86
REMARK SMILES IDX 56 87 60 88 63 89 57 90 58 91 61 92 59 93
REMARK H PARENT 19 5 24 27 83 46 51 57
REMARK Flexibility Score: inf
ROOT
ATOM      1  C   UNL A   1      33.107  29.134  23.461  1.00  0.00     0.116 C 
ENDROOT
BRANCH   1   2
ATOM      2  N   UNL A   1      32.059  29.339  22.509  1.00  0.00    -0.356 N 
ATOM      3  C   UNL A   1      30.916  28.613  22.392  1.00  0.00     0.223 C 
ATOM      4  O   UNL A   1      29.967  29.171  21.830  1.00  0.00    -0.275 OA
ATOM      5  H   UNL A   1      32.178  30.082  21.875  1.00  0.00     0.163 HD
BRANCH   3   6
ATOM      6  C   UNL A   1      30.795  27.130  22.799  1.00  0.00     0.090 C 
ATOM      7  C   UNL A   1      29.510  26.815  23.555  1.00  0.00     0.019 C 
BRANCH   6   8
ATOM      8  C   UNL A   1      31.444  26.006  21.982  1.00  0.00     0.150 C 
BRANCH   8   9
ATOM      9  S   UNL A   1      33.119  25.380  22.101  1.00  0.00     0.153 S 
ATOM     10  O   UNL A   1      33.193  24.107  21.408  1.00  0.00    -0.229 OA
ATOM     11  O   UNL A   1      33.950  26.462  21.595  1.00  0.00    -0.229 OA
BRANCH   9  12
ATOM     12  C   UNL A   1      33.690  25.126  23.814  1.00  0.00     0.110 C 
ATOM     13  C   UNL A   1      35.074  24.490  23.924  1.00  0.00     0.020 C 
ATOM     14  C   UNL A   1      32.620  24.482  24.691  1.00  0.00     0.039 C 
ATOM     15  C   UNL A   1      35.506  24.126  25.334  1.00  0.00     0.003 C 
ATOM     16  C   UNL A   1      33.126  24.140  26.103  1.00  0.00     0.109 C 
ATOM     17  C   UNL A   1      34.422  23.332  26.048  1.00  0.00     0.020 C 
BRANCH  16  18
ATOM     18  S   UNL A   1      31.831  23.273  27.004  1.00  0.00     0.150 S 
ATOM     19  C   UNL A   1      31.241  22.031  25.876  1.00  0.00     0.158 C 
ATOM     20  O   UNL A   1      32.472  22.581  28.106  1.00  0.00    -0.229 OA
ATOM     21  O   UNL A   1      30.752  24.209  27.243  1.00  0.00    -0.229 OA
ENDBRANCH  16  18
ENDBRANCH   9  12
ENDBRANCH   8   9
ENDBRANCH   6   8
ENDBRANCH   3   6
ENDBRANCH   1   2
BRANCH   1  22
ATOM     22  C   UNL A   1      32.798  29.535  24.895  1.00  0.00     0.023 C 
BRANCH  22  23
ATOM     23  C   UNL A   1      32.693  28.377  25.874  1.00  0.00     0.023 C 
BRANCH  23  24
ATOM     24  C   UNL A   1      33.079  28.677  27.318  1.00  0.00     0.116 C 
BRANCH  24  25
ATOM     25  N   UNL A   1      33.158  30.092  27.671  1.00  0.00    -0.352 N 
ATOM     26  C   UNL A   1      34.269  30.800  28.089  1.00  0.00     0.251 C 
ATOM     27  H   UNL A   1      32.319  30.601  27.605  1.00  0.00     0.163 HD
ATOM     28  O   UNL A   1      34.193  31.983  28.398  1.00  0.00    -0.269 OA
BRANCH  26  29
ATOM     29  C   UNL A   1      35.549  30.071  28.219  1.00  0.00     0.039 A 
ATOM     30  C   UNL A   1      36.452  30.087  27.156  1.00  0.00     0.014 A 
ATOM     31  C   UNL A   1      35.915  29.540  29.457  1.00  0.00     0.014 A 
ATOM     32  C   UNL A   1      37.773  29.691  27.376  1.00  0.00     0.010 A 
ATOM     33  C   UNL A   1      37.254  29.266  29.703  1.00  0.00     0.010 A 
ATOM     34  C   UNL A   1      38.203  29.350  28.671  1.00  0.00    -0.014 A 
BRANCH  34  35
ATOM     35  C   UNL A   1      39.637  29.098  28.977  1.00  0.00     0.031 A 
ATOM     36  C   UNL A   1      40.445  30.147  29.692  1.00  0.00     0.074 A 
ATOM     37  C   UNL A   1      40.237  27.973  28.535  1.00  0.00     0.049 A 
ATOM     38  N   UNL A   1      41.726  30.166  29.963  1.00  0.00    -0.248 NA
ATOM     39  C   UNL A   1      39.725  31.356  30.123  1.00  0.00     0.031 C 
ATOM     40  C   UNL A   1      39.589  26.910  27.763  1.00  0.00     0.029 A 
ATOM     41  N   UNL A   1      41.536  27.541  28.659  1.00  0.00    -0.354 N 
ATOM     42  C   UNL A   1      41.962  31.391  30.573  1.00  0.00     0.074 A 
ATOM     43  C   UNL A   1      40.712  32.119  30.561  1.00  0.00     0.031 C 
ATOM     44  C   UNL A   1      40.480  25.936  27.516  1.00  0.00     0.029 A 
ATOM     45  C   UNL A   1      41.774  26.322  28.070  1.00  0.00     0.049 A 
ATOM     46  H   UNL A   1      42.231  28.057  29.128  1.00  0.00     0.167 HD
ATOM     47  C   UNL A   1      43.106  31.856  31.127  1.00  0.00     0.037 A 
ATOM     48  C   UNL A   1      42.909  25.600  27.981  1.00  0.00     0.037 A 
ATOM     49  C   UNL A   1      44.339  31.117  31.169  1.00  0.00     0.049 A 
ATOM     50  C   UNL A   1      44.167  26.133  28.614  1.00  0.00     0.074 A 
ATOM     51  C   UNL A   1      45.537  31.470  31.764  1.00  0.00     0.029 A 
ATOM     52  N   UNL A   1      44.529  29.870  30.593  1.00  0.00    -0.354 N 
ATOM     53  N   UNL A   1      44.357  27.260  29.258  1.00  0.00    -0.248 NA
ATOM     54  C   UNL A   1      45.368  25.291  28.514  1.00  0.00     0.031 C 
ATOM     55  C   UNL A   1      46.466  30.459  31.507  1.00  0.00     0.029 A 
ATOM     56  C   UNL A   1      45.832  29.448  30.802  1.00  0.00     0.049 A 
ATOM     57  H   UNL A   1      43.841  29.359  30.107  1.00  0.00     0.167 HD
ATOM     58  C   UNL A   1      45.685  27.248  29.665  1.00  0.00     0.074 A 
ATOM     59  C   UNL A   1      46.249  25.995  29.209  1.00  0.00     0.031 C 
ATOM     60  C   UNL A   1      46.375  28.191  30.352  1.00  0.00     0.037 A 
BRANCH  47  61
ATOM     61  C   UNL A   1      43.067  33.223  31.747  1.00  0.00     0.064 A 
ATOM     62  C   UNL A   1      43.343  34.378  30.999  1.00  0.00     0.173 A 
ATOM     63  C   UNL A   1      42.730  33.385  33.100  1.00  0.00     0.173 A 
ATOM     64  F   UNL A   1      43.684  34.279  29.705  1.00  0.00    -0.203 F 
ATOM     65  C   UNL A   1      43.321  35.639  31.589  1.00  0.00     0.198 A 
ATOM     66  C   UNL A   1      42.673  34.650  33.677  1.00  0.00     0.198 A 
ATOM     67  F   UNL A   1      42.452  32.316  33.860  1.00  0.00    -0.203 F 
ATOM     68  F   UNL A   1      43.650  36.720  30.868  1.00  0.00    -0.200 F 
ATOM     69  C   UNL A   1      42.979  35.774  32.925  1.00  0.00     0.200 A 
ATOM     70  F   UNL A   1      42.328  34.782  34.965  1.00  0.00    -0.200 F 
ATOM     71  F   UNL A   1      42.951  36.990  33.491  1.00  0.00    -0.200 F 
ENDBRANCH  47  61
BRANCH  48  72
ATOM     72  C   UNL A   1      42.905  24.281  27.292  1.00  0.00     0.064 A 
ATOM     73  C   UNL A   1      42.555  23.109  27.978  1.00  0.00     0.173 A 
ATOM     74  C   UNL A   1      43.267  24.159  25.942  1.00  0.00     0.173 A 
ATOM     75  F   UNL A   1      42.222  23.169  29.276  1.00  0.00    -0.203 F 
ATOM     76  C   UNL A   1      42.589  21.866  27.350  1.00  0.00     0.198 A 
ATOM     77  C   UNL A   1      43.270  22.919  25.306  1.00  0.00     0.198 A 
ATOM     78  F   UNL A   1      43.606  25.247  25.236  1.00  0.00    -0.203 F 
ATOM     79  F   UNL A   1      42.298  20.758  28.045  1.00  0.00    -0.200 F 
ATOM     80  C   UNL A   1      42.942  21.772  26.012  1.00  0.00     0.200 A 
ATOM     81  F   UNL A   1      43.596  22.835  24.009  1.00  0.00    -0.200 F 
ATOM     82  F   UNL A   1      42.971  20.577  25.407  1.00  0.00    -0.200 F 
ENDBRANCH  48  72
BRANCH  60  83
ATOM     83  C   UNL A   1      47.806  27.889  30.693  1.00  0.00     0.064 A 
ATOM     84  C   UNL A   1      48.863  28.287  29.860  1.00  0.00     0.173 A 
ATOM     85  C   UNL A   1      48.125  27.237  31.893  1.00  0.00     0.173 A 
ATOM     86  F   UNL A   1      48.609  28.902  28.695  1.00  0.00    -0.203 F 
ATOM     87  C   UNL A   1      50.184  28.018  30.204  1.00  0.00     0.198 A 
ATOM     88  C   UNL A   1      49.449  26.999  32.250  1.00  0.00     0.198 A 
ATOM     89  F   UNL A   1      47.152  26.842  32.728  1.00  0.00    -0.203 F 
ATOM     90  F   UNL A   1      51.175  28.364  29.371  1.00  0.00    -0.200 F 
ATOM     91  C   UNL A   1      50.476  27.383  31.402  1.00  0.00     0.200 A 
ATOM     92  F   UNL A   1      49.730  26.398  33.415  1.00  0.00    -0.200 F 
ATOM     93  F   UNL A   1      51.750  27.134  31.737  1.00  0.00    -0.200 F 
ENDBRANCH  60  83
ENDBRANCH  34  35
ENDBRANCH  26  29
ENDBRANCH  24  25
ENDBRANCH  23  24
ENDBRANCH  22  23
ENDBRANCH   1  22
TORSDOF 15
ENDMDL
MODEL 2
REMARK VINA RESULT:     -11.7      3.650      5.184
REMARK SMILES C[C@@H](CS(=O)(=O)[C@@H]1CCC[C@H](S(C)(=O)=O)C1)C(=O)NCCCCNC(=O)c1ccc(-c2c3nc(c(-c4c(F)c(F)c(F)c(F)c4F)c4ccc([nH]4)c(-c4c(F)c(F)c(F)c(F)c4F)c4nc(c(-c5c(F)c(F)c(F)c(F)c5F)c5ccc2[nH]5)C=C4)C=C3)cc1
REMARK SMILES IDX 20 1 19 2 17 3 18 4 2 6 1 7 3 8 4 9 5 10 6 11 7 12 8 13
REMARK SMILES IDX 16 14 9 15 11 16 10 17 12 18 13 19 14 20 15 21 21 22 22 23
REMARK SMILES IDX 23 24 24 25 25 26 26 28 27 29 28 30 89 31 29 32 88 33 30 34
REMARK SMILES IDX 31 35 32 36 82 37 33 38 87 39 81 40 83 41 34 42 86 43 80 44
REMARK SMILES IDX 79 45 35 47 67 48 47 49 66 50 48 51 51 52 65 53 84 54 49 55
REMARK SMILES IDX 50 56 64 58 85 59 52 60 36 61 37 62 45 63 38 64 39 65 43 66
REMARK SMILES IDX 46 67 40 68 41 69 44 70 42 71 68 72 69 73 77 74 70 75 71 76
REMARK SMILES IDX 75 77 78 78 72 79 73 80 76 81 74 82 53 83 54 84 62 85 55 86
REMARK SMILES IDX 56 87 60 88 63 89 57 90 58 91 61 92 59 93
REMARK H PARENT 19 5 24 27 83 46 51 57
REMARK Flexibility Score: inf
ROOT
ATOM      1  C   UNL A   1      31.817  29.339  25.777  1.00  0.00     0.116 C 
ENDROOT
BRANCH   1   2
ATOM      2  N   UNL A   1      31.160  29.995  24.690  1.00  0.00    -0.356 N 
ATOM      3  C   UNL A   1      30.346  29.419  23.766  1.00  0.00     0.223 C 
ATOM      4  O   UNL A   1      29.554  30.171  23.188  1.00  0.00    -0.275 OA
ATOM      5  H   UNL A   1      31.312  30.964  24.602  1.00  0.00     0.163 HD
BRANCH   3   6
ATOM      6  C   UNL A   1      30.453  27.943  23.329  1.00  0.00     0.090 C 
ATOM      7  C   UNL A   1      29.172  27.152  23.561  1.00  0.00     0.019 C 
BRANCH   6   8
ATOM      8  C   UNL A   1      31.382  27.495  22.194  1.00  0.00     0.150 C 
BRANCH   8   9
ATOM      9  S   UNL A   1      33.030  26.805  22.322  1.00  0.00     0.153 S 
ATOM     10  O   UNL A   1      33.392  26.215  21.046  1.00  0.00    -0.229 OA
ATOM     11  O   UNL A   1      33.851  27.905  22.803  1.00  0.00    -0.229 OA
BRANCH   9  12
ATOM     12  C   UNL A   1      33.191  25.519  23.606  1.00  0.00     0.110 C 
ATOM     13  C   UNL A   1      33.117  26.050  25.036  1.00  0.00     0.020 C 
ATOM     14  C   UNL A   1      34.359  24.576  23.335  1.00  0.00     0.039 C 
ATOM     15  C   UNL A   1      33.404  25.026  26.120  1.00  0.00     0.003 C 
ATOM     16  C   UNL A   1      34.593  23.566  24.473  1.00  0.00     0.109 C 
ATOM     17  C   UNL A   1      34.690  24.269  25.826  1.00  0.00     0.020 C 
BRANCH  16  18
ATOM     18  S   UNL A   1      36.065  22.595  24.112  1.00  0.00     0.150 S 
ATOM     19  C   UNL A   1      37.287  23.170  25.268  1.00  0.00     0.158 C 
ATOM     20  O   UNL A   1      35.760  21.219  24.458  1.00  0.00    -0.229 OA
ATOM     21  O   UNL A   1      36.511  22.943  22.778  1.00  0.00    -0.229 OA
ENDBRANCH  16  18
ENDBRANCH   9  12
ENDBRANCH   8   9
ENDBRANCH   6   8
ENDBRANCH   3   6
ENDBRANCH   1   2
BRANCH   1  22
ATOM     22  C   UNL A   1      32.644  30.227  26.695  1.00  0.00     0.023 C 
BRANCH  22  23
ATOM     23  C   UNL A   1      32.137  31.654  26.829  1.00  0.00     0.023 C 
BRANCH  23  24
ATOM     24  C   UNL A   1      33.087  32.648  27.488  1.00  0.00     0.116 C 
BRANCH  24  25
ATOM     25  N   UNL A   1      32.550  33.988  27.705  1.00  0.00    -0.352 N 
ATOM     26  C   UNL A   1      33.002  34.949  28.590  1.00  0.00     0.251 C 
ATOM     27  H   UNL A   1      31.773  34.237  27.155  1.00  0.00     0.163 HD
ATOM     28  O   UNL A   1      32.433  36.028  28.707  1.00  0.00    -0.269 OA
BRANCH  26  29
ATOM     29  C   UNL A   1      34.159  34.614  29.448  1.00  0.00     0.039 A 
ATOM     30  C   UNL A   1      33.937  33.985  30.675  1.00  0.00     0.014 A 
ATOM     31  C   UNL A   1      35.453  34.757  28.946  1.00  0.00     0.014 A 
ATOM     32  C   UNL A   1      35.008  33.378  31.333  1.00  0.00     0.010 A 
ATOM     33  C   UNL A   1      36.489  34.048  29.539  1.00  0.00     0.010 A 
ATOM     34  C   UNL A   1      36.278  33.339  30.732  1.00  0.00    -0.014 A 
BRANCH  34  35
ATOM     35  C   UNL A   1      37.396  32.549  31.318  1.00  0.00     0.031 A 
ATOM     36  C   UNL A   1      37.918  32.895  32.686  1.00  0.00     0.074 A 
ATOM     37  C   UNL A   1      38.001  31.587  30.591  1.00  0.00     0.049 A 
ATOM     38  N   UNL A   1      38.944  32.399  33.332  1.00  0.00    -0.248 NA
ATOM     39  C   UNL A   1      37.221  33.971  33.408  1.00  0.00     0.031 C 
ATOM     40  C   UNL A   1      37.644  31.204  29.223  1.00  0.00     0.029 A 
ATOM     41  N   UNL A   1      39.057  30.763  30.896  1.00  0.00    -0.354 N 
ATOM     42  C   UNL A   1      39.022  33.118  34.518  1.00  0.00     0.074 A 
ATOM     43  C   UNL A   1      37.993  34.132  34.469  1.00  0.00     0.031 C 
ATOM     44  C   UNL A   1      38.440  30.198  28.823  1.00  0.00     0.029 A 
ATOM     45  C   UNL A   1      39.393  29.894  29.885  1.00  0.00     0.049 A 
ATOM     46  H   UNL A   1      39.528  30.791  31.760  1.00  0.00     0.167 HD
ATOM     47  C   UNL A   1      39.851  32.927  35.571  1.00  0.00     0.037 A 
ATOM     48  C   UNL A   1      40.364  28.961  29.819  1.00  0.00     0.037 A 
ATOM     49  C   UNL A   1      40.851  31.895  35.634  1.00  0.00     0.049 A 
ATOM     50  C   UNL A   1      41.268  28.761  31.007  1.00  0.00     0.074 A 
ATOM     51  C   UNL A   1      41.697  31.576  36.679  1.00  0.00     0.029 A 
ATOM     52  N   UNL A   1      41.136  31.012  34.602  1.00  0.00    -0.354 N 
ATOM     53  N   UNL A   1      41.279  29.395  32.155  1.00  0.00    -0.248 NA
ATOM     54  C   UNL A   1      42.290  27.711  30.894  1.00  0.00     0.031 C 
ATOM     55  C   UNL A   1      42.527  30.531  36.266  1.00  0.00     0.029 A 
ATOM     56  C   UNL A   1      42.160  30.159  34.982  1.00  0.00     0.049 A 
ATOM     57  H   UNL A   1      40.679  30.993  33.731  1.00  0.00     0.167 HD
ATOM     58  C   UNL A   1      42.284  28.802  32.909  1.00  0.00     0.074 A 
ATOM     59  C   UNL A   1      42.849  27.747  32.094  1.00  0.00     0.031 C 
ATOM     60  C   UNL A   1      42.703  29.105  34.162  1.00  0.00     0.037 A 
BRANCH  47  61
ATOM     61  C   UNL A   1      39.696  33.848  36.747  1.00  0.00     0.064 A 
ATOM     62  C   UNL A   1      38.892  33.508  37.847  1.00  0.00     0.173 A 
ATOM     63  C   UNL A   1      40.373  35.076  36.788  1.00  0.00     0.173 A 
ATOM     64  F   UNL A   1      38.211  32.351  37.853  1.00  0.00    -0.203 F 
ATOM     65  C   UNL A   1      38.742  34.376  38.923  1.00  0.00     0.198 A 
ATOM     66  C   UNL A   1      40.250  35.927  37.883  1.00  0.00     0.198 A 
ATOM     67  F   UNL A   1      41.159  35.450  35.767  1.00  0.00    -0.203 F 
ATOM     68  F   UNL A   1      37.919  34.055  39.932  1.00  0.00    -0.200 F 
ATOM     69  C   UNL A   1      39.426  35.582  38.944  1.00  0.00     0.200 A 
ATOM     70  F   UNL A   1      40.923  37.085  37.909  1.00  0.00    -0.200 F 
ATOM     71  F   UNL A   1      39.287  36.415  39.985  1.00  0.00    -0.200 F 
ENDBRANCH  47  61
BRANCH  48  72
ATOM     72  C   UNL A   1      40.518  28.124  28.599  1.00  0.00     0.064 A 
ATOM     73  C   UNL A   1      39.881  26.880  28.493  1.00  0.00     0.173 A 
ATOM     74  C   UNL A   1      41.315  28.540  27.521  1.00  0.00     0.173 A 
ATOM     75  F   UNL A   1      39.126  26.427  29.504  1.00  0.00    -0.203 F 
ATOM     76  C   UNL A   1      40.054  26.073  27.370  1.00  0.00     0.198 A 
ATOM     77  C   UNL A   1      41.461  27.746  26.385  1.00  0.00     0.198 A 
ATOM     78  F   UNL A   1      41.942  29.724  27.566  1.00  0.00    -0.203 F 
ATOM     79  F   UNL A   1      39.474  24.866  27.319  1.00  0.00    -0.200 F 
ATOM     80  C   UNL A   1      40.840  26.509  26.314  1.00  0.00     0.200 A 
ATOM     81  F   UNL A   1      42.209  28.178  25.360  1.00  0.00    -0.200 F 
ATOM     82  F   UNL A   1      41.003  25.734  25.232  1.00  0.00    -0.200 F 
ENDBRANCH  48  72
BRANCH  60  83
ATOM     83  C   UNL A   1      43.796  28.261  34.750  1.00  0.00     0.064 A 
ATOM     84  C   UNL A   1      45.147  28.628  34.650  1.00  0.00     0.173 A 
ATOM     85  C   UNL A   1      43.483  27.095  35.464  1.00  0.00     0.173 A 
ATOM     86  F   UNL A   1      45.499  29.726  33.965  1.00  0.00    -0.203 F 
ATOM     87  C   UNL A   1      46.144  27.843  35.220  1.00  0.00     0.198 A 
ATOM     88  C   UNL A   1      44.481  26.331  36.062  1.00  0.00     0.198 A 
ATOM     89  F   UNL A   1      42.206  26.704  35.595  1.00  0.00    -0.203 F 
ATOM     90  F   UNL A   1      47.431  28.186  35.071  1.00  0.00    -0.200 F 
ATOM     91  C   UNL A   1      45.810  26.701  35.934  1.00  0.00     0.200 A 
ATOM     92  F   UNL A   1      44.154  25.236  36.763  1.00  0.00    -0.200 F 
ATOM     93  F   UNL A   1      46.772  25.952  36.491  1.00  0.00    -0.200 F 
ENDBRANCH  60  83
ENDBRANCH  34  35
ENDBRANCH  26  29
ENDBRANCH  24  25
ENDBRANCH  23  24
ENDBRANCH  22  23
ENDBRANCH   1  22
TORSDOF 15
ENDMDL
MODEL 3
REMARK VINA RESULT:     -11.6      3.641      7.782
REMARK SMILES C[C@@H](CS(=O)(=O)[C@@H]1CCC[C@H](S(C)(=O)=O)C1)C(=O)NCCCCNC(=O)c1ccc(-c2c3nc(c(-c4c(F)c(F)c(F)c(F)c4F)c4ccc([nH]4)c(-c4c(F)c(F)c(F)c(F)c4F)c4nc(c(-c5c(F)c(F)c(F)c(F)c5F)c5ccc2[nH]5)C=C4)C=C3)cc1
REMARK SMILES IDX 20 1 19 2 17 3 18 4 2 6 1 7 3 8 4 9 5 10 6 11 7 12 8 13
REMARK SMILES IDX 16 14 9 15 11 16 10 17 12 18 13 19 14 20 15 21 21 22 22 23
REMARK SMILES IDX 23 24 24 25 25 26 26 28 27 29 28 30 89 31 29 32 88 33 30 34
REMARK SMILES IDX 31 35 32 36 82 37 33 38 87 39 81 40 83 41 34 42 86 43 80 44
REMARK SMILES IDX 79 45 35 47 67 48 47 49 66 50 48 51 51 52 65 53 84 54 49 55
REMARK SMILES IDX 50 56 64 58 85 59 52 60 36 61 37 62 45 63 38 64 39 65 43 66
REMARK SMILES IDX 46 67 40 68 41 69 44 70 42 71 68 72 69 73 77 74 70 75 71 76
REMARK SMILES IDX 75 77 78 78 72 79 73 80 76 81 74 82 53 83 54 84 62 85 55 86
REMARK SMILES IDX 56 87 60 88 63 89 57 90 58 91 61 92 59 93
REMARK H PARENT 19 5 24 27 83 46 51 57
REMARK Flexibility Score: inf
ROOT
ATOM      1  C   UNL A   1      35.552  21.047  25.059  1.00  0.00     0.116 C 
ENDROOT
BRANCH   1   2
ATOM      2  N   UNL A   1      34.511  20.208  25.567  1.00  0.00    -0.356 N 
ATOM      3  C   UNL A   1      33.203  20.223  25.198  1.00  0.00     0.223 C 
ATOM      4  O   UNL A   1      32.562  19.188  25.409  1.00  0.00    -0.275 OA
ATOM      5  H   UNL A   1      34.769  19.553  26.255  1.00  0.00     0.163 HD
BRANCH   3   6
ATOM      6  C   UNL A   1      32.476  21.475  24.665  1.00  0.00     0.090 C 
ATOM      7  C   UNL A   1      32.405  21.528  23.143  1.00  0.00     0.019 C 
BRANCH   6   8
ATOM      8  C   UNL A   1      31.369  22.176  25.462  1.00  0.00     0.150 C 
BRANCH   8   9
ATOM      9  S   UNL A   1      31.545  23.454  26.705  1.00  0.00     0.153 S 
ATOM     10  O   UNL A   1      30.233  23.771  27.240  1.00  0.00    -0.229 OA
ATOM     11  O   UNL A   1      32.532  22.927  27.635  1.00  0.00    -0.229 OA
BRANCH   9  12
ATOM     12  C   UNL A   1      32.287  24.996  26.075  1.00  0.00     0.110 C 
ATOM     13  C   UNL A   1      31.585  26.267  26.548  1.00  0.00     0.020 C 
ATOM     14  C   UNL A   1      32.557  24.937  24.575  1.00  0.00     0.039 C 
ATOM     15  C   UNL A   1      32.085  27.554  25.915  1.00  0.00     0.003 C 
ATOM     16  C   UNL A   1      33.060  26.273  24.001  1.00  0.00     0.109 C 
ATOM     17  C   UNL A   1      32.144  27.429  24.400  1.00  0.00     0.020 C 
BRANCH  16  18
ATOM     18  S   UNL A   1      33.221  26.129  22.214  1.00  0.00     0.150 S 
ATOM     19  C   UNL A   1      31.569  26.327  21.588  1.00  0.00     0.158 C 
ATOM     20  O   UNL A   1      33.991  27.274  21.764  1.00  0.00    -0.229 OA
ATOM     21  O   UNL A   1      33.654  24.780  21.914  1.00  0.00    -0.229 OA
ENDBRANCH  16  18
ENDBRANCH   9  12
ENDBRANCH   8   9
ENDBRANCH   6   8
ENDBRANCH   3   6
ENDBRANCH   1   2
BRANCH   1  22
ATOM     22  C   UNL A   1      36.946  20.440  25.026  1.00  0.00     0.023 C 
BRANCH  22  23
ATOM     23  C   UNL A   1      38.083  21.447  25.088  1.00  0.00     0.023 C 
BRANCH  23  24
ATOM     24  C   UNL A   1      39.180  21.162  26.109  1.00  0.00     0.116 C 
BRANCH  24  25
ATOM     25  N   UNL A   1      39.838  19.865  25.985  1.00  0.00    -0.352 N 
ATOM     26  C   UNL A   1      41.184  19.581  26.123  1.00  0.00     0.251 C 
ATOM     27  H   UNL A   1      39.254  19.101  25.778  1.00  0.00     0.163 HD
ATOM     28  O   UNL A   1      41.619  18.449  25.952  1.00  0.00    -0.269 OA
BRANCH  26  29
ATOM     29  C   UNL A   1      42.103  20.701  26.420  1.00  0.00     0.039 A 
ATOM     30  C   UNL A   1      42.636  21.442  25.364  1.00  0.00     0.014 A 
ATOM     31  C   UNL A   1      42.277  21.117  27.740  1.00  0.00     0.014 A 
ATOM     32  C   UNL A   1      43.229  22.678  25.629  1.00  0.00     0.010 A 
ATOM     33  C   UNL A   1      42.754  22.398  27.987  1.00  0.00     0.010 A 
ATOM     34  C   UNL A   1      43.223  23.201  26.935  1.00  0.00    -0.014 A 
BRANCH  34  35
ATOM     35  C   UNL A   1      43.683  24.586  27.224  1.00  0.00     0.031 A 
ATOM     36  C   UNL A   1      42.700  25.611  27.721  1.00  0.00     0.074 A 
ATOM     37  C   UNL A   1      44.954  24.949  26.955  1.00  0.00     0.049 A 
ATOM     38  N   UNL A   1      42.873  26.891  27.936  1.00  0.00    -0.248 NA
ATOM     39  C   UNL A   1      41.326  25.144  27.968  1.00  0.00     0.031 C 
ATOM     40  C   UNL A   1      45.989  24.074  26.399  1.00  0.00     0.029 A 
ATOM     41  N   UNL A   1      45.592  26.158  27.101  1.00  0.00    -0.354 N 
ATOM     42  C   UNL A   1      41.631  27.378  28.320  1.00  0.00     0.074 A 
ATOM     43  C   UNL A   1      40.698  26.277  28.234  1.00  0.00     0.031 C 
ATOM     44  C   UNL A   1      47.137  24.763  26.286  1.00  0.00     0.029 A 
ATOM     45  C   UNL A   1      46.911  26.139  26.717  1.00  0.00     0.049 A 
ATOM     46  H   UNL A   1      45.144  26.963  27.450  1.00  0.00     0.167 HD
ATOM     47  C   UNL A   1      41.302  28.621  28.744  1.00  0.00     0.037 A 
ATOM     48  C   UNL A   1      47.835  27.121  26.708  1.00  0.00     0.037 A 
ATOM     49  C   UNL A   1      42.238  29.706  28.864  1.00  0.00     0.049 A 
ATOM     50  C   UNL A   1      47.448  28.494  27.193  1.00  0.00     0.074 A 
ATOM     51  C   UNL A   1      42.021  30.985  29.344  1.00  0.00     0.029 A 
ATOM     52  N   UNL A   1      43.575  29.636  28.499  1.00  0.00    -0.354 N 
ATOM     53  N   UNL A   1      46.287  28.920  27.630  1.00  0.00    -0.248 NA
ATOM     54  C   UNL A   1      48.500  29.519  27.192  1.00  0.00     0.031 C 
ATOM     55  C   UNL A   1      43.213  31.703  29.226  1.00  0.00     0.029 A 
ATOM     56  C   UNL A   1      44.190  30.856  28.726  1.00  0.00     0.049 A 
ATOM     57  H   UNL A   1      44.021  28.838  28.133  1.00  0.00     0.167 HD
ATOM     58  C   UNL A   1      46.478  30.250  27.983  1.00  0.00     0.074 A 
ATOM     59  C   UNL A   1      47.869  30.555  27.724  1.00  0.00     0.031 C 
ATOM     60  C   UNL A   1      45.580  31.140  28.474  1.00  0.00     0.037 A 
BRANCH  47  61
ATOM     61  C   UNL A   1      39.870  28.864  29.126  1.00  0.00     0.064 A 
ATOM     62  C   UNL A   1      39.419  28.686  30.443  1.00  0.00     0.173 A 
ATOM     63  C   UNL A   1      38.940  29.299  28.169  1.00  0.00     0.173 A 
ATOM     64  F   UNL A   1      40.263  28.259  31.394  1.00  0.00    -0.203 F 
ATOM     65  C   UNL A   1      38.085  28.898  30.781  1.00  0.00     0.198 A 
ATOM     66  C   UNL A   1      37.614  29.545  28.518  1.00  0.00     0.198 A 
ATOM     67  F   UNL A   1      39.316  29.490  26.896  1.00  0.00    -0.203 F 
ATOM     68  F   UNL A   1      37.667  28.661  32.032  1.00  0.00    -0.200 F 
ATOM     69  C   UNL A   1      37.186  29.334  29.820  1.00  0.00     0.200 A 
ATOM     70  F   UNL A   1      36.749  29.980  27.592  1.00  0.00    -0.200 F 
ATOM     71  F   UNL A   1      35.903  29.544  30.148  1.00  0.00    -0.200 F 
ENDBRANCH  47  61
BRANCH  48  72
ATOM     72  C   UNL A   1      49.223  26.841  26.252  1.00  0.00     0.064 A 
ATOM     73  C   UNL A   1      49.587  27.003  24.907  1.00  0.00     0.173 A 
ATOM     74  C   UNL A   1      50.210  26.391  27.142  1.00  0.00     0.173 A 
ATOM     75  F   UNL A   1      48.675  27.411  24.012  1.00  0.00    -0.203 F 
ATOM     76  C   UNL A   1      50.874  26.703  24.466  1.00  0.00     0.198 A 
ATOM     77  C   UNL A   1      51.506  26.122  26.704  1.00  0.00     0.198 A 
ATOM     78  F   UNL A   1      49.919  26.224  28.440  1.00  0.00    -0.203 F 
ATOM     79  F   UNL A   1      51.178  26.819  23.166  1.00  0.00    -0.200 F 
ATOM     80  C   UNL A   1      51.835  26.268  25.366  1.00  0.00     0.200 A 
ATOM     81  F   UNL A   1      52.435  25.716  27.581  1.00  0.00    -0.200 F 
ATOM     82  F   UNL A   1      53.074  25.983  24.942  1.00  0.00    -0.200 F 
ENDBRANCH  48  72
BRANCH  60  83
ATOM     83  C   UNL A   1      46.081  32.516  28.806  1.00  0.00     0.064 A 
ATOM     84  C   UNL A   1      46.601  32.827  30.071  1.00  0.00     0.173 A 
ATOM     85  C   UNL A   1      46.084  33.522  27.828  1.00  0.00     0.173 A 
ATOM     86  F   UNL A   1      46.608  31.903  31.044  1.00  0.00    -0.203 F 
ATOM     87  C   UNL A   1      47.081  34.103  30.352  1.00  0.00     0.198 A 
ATOM     88  C   UNL A   1      46.596  34.787  28.103  1.00  0.00     0.198 A 
ATOM     89  F   UNL A   1      45.604  33.274  26.600  1.00  0.00    -0.203 F 
ATOM     90  F   UNL A   1      47.528  34.392  31.582  1.00  0.00    -0.200 F 
ATOM     91  C   UNL A   1      47.086  35.078  29.366  1.00  0.00     0.200 A 
ATOM     92  F   UNL A   1      46.613  35.724  27.144  1.00  0.00    -0.200 F 
ATOM     93  F   UNL A   1      47.558  36.303  29.636  1.00  0.00    -0.200 F 
ENDBRANCH  60  83
ENDBRANCH  34  35
ENDBRANCH  26  29
ENDBRANCH  24  25
ENDBRANCH  23  24
ENDBRANCH  22  23
ENDBRANCH   1  22
TORSDOF 15
ENDMDL
