MODEL 1
REMARK VINA RESULT:     -13.6      0.000      0.000
REMARK SMILES COc1ccc(-c2cnc(N)c(C(=O)NCCCCNC(=O)c3ccc(-c4c5nc(c(-c6c(F)c(F)c(F)c(F)c6F)c6ccc([nH]6)c(-c6c(F)c(F)c(F)c(F)c6F)c6nc(c(-c7c(F)c(F)c(F)c(F)c7F)c7ccc4[nH]7)C=C6)C=C5)cc3)c2)c(C)c1
REMARK SMILES IDX 17 1 16 2 15 3 13 4 14 5 12 7 7 8 8 9 86 10 9 11 10 12 6 13
REMARK SMILES IDX 3 14 4 15 89 16 5 17 87 18 88 19 2 20 1 21 11 22 18 25 19 26
REMARK SMILES IDX 20 27 21 28 22 30 23 31 24 32 85 33 25 34 84 35 26 36 27 37
REMARK SMILES IDX 28 38 78 39 29 40 83 41 77 42 79 43 30 44 82 45 76 46 75 47
REMARK SMILES IDX 31 49 63 50 43 51 62 52 44 53 47 54 61 55 80 56 45 57 46 58
REMARK SMILES IDX 60 60 81 61 48 62 32 63 33 64 41 65 34 66 35 67 39 68 42 69
REMARK SMILES IDX 36 70 37 71 40 72 38 73 64 74 65 75 73 76 66 77 67 78 71 79
REMARK SMILES IDX 74 80 68 81 69 82 72 83 70 84 49 85 50 86 58 87 51 88 52 89
REMARK SMILES IDX 56 90 59 91 53 92 54 93 57 94 55 95
REMARK H PARENT 15 6 11 23 11 24 20 29 79 48 47 59
REMARK Flexibility Score: inf
ROOT
ATOM      1  C   UNL A   1      31.945  30.022  25.463  1.00  0.00     0.023 C 
ENDROOT
BRANCH   1   2
ATOM      2  C   UNL A   1      32.088  28.498  25.428  1.00  0.00     0.116 C 
BRANCH   2   3
ATOM      3  N   UNL A   1      31.343  27.829  24.370  1.00  0.00    -0.352 N 
ATOM      4  C   UNL A   1      30.952  26.512  24.252  1.00  0.00     0.255 C 
ATOM      5  O   UNL A   1      30.255  26.191  23.289  1.00  0.00    -0.269 OA
ATOM      6  H   UNL A   1      31.076  28.407  23.620  1.00  0.00     0.163 HD
BRANCH   4   7
ATOM      7  C   UNL A   1      31.396  25.456  25.191  1.00  0.00     0.082 A 
ATOM      8  C   UNL A   1      33.204  23.970  25.878  1.00  0.00     0.001 A 
ATOM      9  C   UNL A   1      32.366  23.604  26.930  1.00  0.00     0.122 A 
ATOM     10  C   UNL A   1      32.690  24.933  25.004  1.00  0.00     0.028 A 
ATOM     11  N   UNL A   1      31.091  24.031  27.095  1.00  0.00    -0.238 NA
ATOM     12  C   UNL A   1      30.599  24.899  26.189  1.00  0.00     0.136 A 
BRANCH   8  13
ATOM     13  C   UNL A   1      34.510  23.310  25.690  1.00  0.00    -0.014 A 
ATOM     14  C   UNL A   1      37.115  22.233  25.321  1.00  0.00     0.119 A 
ATOM     15  C   UNL A   1      36.956  23.586  25.578  1.00  0.00     0.047 A 
ATOM     16  C   UNL A   1      35.983  21.421  25.237  1.00  0.00     0.050 A 
ATOM     17  C   UNL A   1      35.672  24.111  25.764  1.00  0.00     0.013 A 
ATOM     18  C   UNL A   1      34.680  21.936  25.415  1.00  0.00    -0.040 A 
ATOM     19  C   UNL A   1      33.543  20.954  25.330  1.00  0.00     0.045 C 
BRANCH  14  20
ATOM     20  O   UNL A   1      38.308  21.599  25.105  1.00  0.00    -0.497 OA
ATOM     21  C   UNL A   1      39.285  21.741  26.131  1.00  0.00     0.278 C 
ENDBRANCH  14  20
ENDBRANCH   8  13
BRANCH  12  22
ATOM     22  N   UNL A   1      29.250  25.161  26.350  1.00  0.00    -0.383 N 
ATOM     23  H   UNL A   1      28.914  26.082  26.268  1.00  0.00     0.158 HD
ATOM     24  H   UNL A   1      28.626  24.425  26.549  1.00  0.00     0.158 HD
ENDBRANCH  12  22
ENDBRANCH   4   7
ENDBRANCH   2   3
ENDBRANCH   1   2
BRANCH   1  25
ATOM     25  C   UNL A   1      32.105  30.710  26.814  1.00  0.00     0.023 C 
BRANCH  25  26
ATOM     26  C   UNL A   1      33.342  30.337  27.619  1.00  0.00     0.116 C 
BRANCH  26  27
ATOM     27  N   UNL A   1      33.985  31.434  28.325  1.00  0.00    -0.352 N 
ATOM     28  C   UNL A   1      35.217  31.478  28.966  1.00  0.00     0.251 C 
ATOM     29  H   UNL A   1      33.470  32.272  28.353  1.00  0.00     0.163 HD
ATOM     30  O   UNL A   1      35.552  32.483  29.566  1.00  0.00    -0.269 OA
BRANCH  28  31
ATOM     31  C   UNL A   1      36.186  30.355  28.810  1.00  0.00     0.039 A 
ATOM     32  C   UNL A   1      36.499  29.586  29.941  1.00  0.00     0.014 A 
ATOM     33  C   UNL A   1      36.896  30.155  27.633  1.00  0.00     0.014 A 
ATOM     34  C   UNL A   1      37.669  28.824  29.956  1.00  0.00     0.010 A 
ATOM     35  C   UNL A   1      38.108  29.500  27.677  1.00  0.00     0.010 A 
ATOM     36  C   UNL A   1      38.525  28.891  28.860  1.00  0.00    -0.014 A 
BRANCH  36  37
ATOM     37  C   UNL A   1      39.912  28.453  28.878  1.00  0.00     0.031 A 
ATOM     38  C   UNL A   1      40.280  27.083  28.486  1.00  0.00     0.074 A 
ATOM     39  C   UNL A   1      40.879  29.371  29.097  1.00  0.00     0.049 A 
ATOM     40  N   UNL A   1      41.391  26.516  28.814  1.00  0.00    -0.248 NA
ATOM     41  C   UNL A   1      39.409  26.230  27.691  1.00  0.00     0.031 C 
ATOM     42  C   UNL A   1      42.314  29.232  28.862  1.00  0.00     0.029 A 
ATOM     43  N   UNL A   1      40.758  30.586  29.788  1.00  0.00    -0.354 N 
ATOM     44  C   UNL A   1      41.517  25.376  28.058  1.00  0.00     0.074 A 
ATOM     45  C   UNL A   1      40.226  25.205  27.429  1.00  0.00     0.031 C 
ATOM     46  C   UNL A   1      42.963  30.110  29.644  1.00  0.00     0.029 A 
ATOM     47  C   UNL A   1      41.970  30.724  30.506  1.00  0.00     0.049 A 
ATOM     48  H   UNL A   1      39.995  31.209  29.775  1.00  0.00     0.167 HD
ATOM     49  C   UNL A   1      42.746  24.787  27.948  1.00  0.00     0.037 A 
ATOM     50  C   UNL A   1      41.969  30.674  31.871  1.00  0.00     0.037 A 
ATOM     51  C   UNL A   1      43.751  25.486  28.753  1.00  0.00     0.049 A 
ATOM     52  C   UNL A   1      42.782  29.540  32.467  1.00  0.00     0.074 A 
ATOM     53  C   UNL A   1      44.789  26.362  28.470  1.00  0.00     0.029 A 
ATOM     54  N   UNL A   1      43.585  25.539  30.126  1.00  0.00    -0.354 N 
ATOM     55  N   UNL A   1      43.383  28.612  31.776  1.00  0.00    -0.248 NA
ATOM     56  C   UNL A   1      42.882  29.307  33.908  1.00  0.00     0.031 C 
ATOM     57  C   UNL A   1      45.269  26.904  29.698  1.00  0.00     0.029 A 
ATOM     58  C   UNL A   1      44.520  26.361  30.724  1.00  0.00     0.049 A 
ATOM     59  H   UNL A   1      42.884  25.051  30.617  1.00  0.00     0.167 HD
ATOM     60  C   UNL A   1      43.877  27.653  32.625  1.00  0.00     0.074 A 
ATOM     61  C   UNL A   1      43.532  28.132  33.950  1.00  0.00     0.031 C 
ATOM     62  C   UNL A   1      44.487  26.517  32.168  1.00  0.00     0.037 A 
BRANCH  49  63
ATOM     63  C   UNL A   1      43.089  23.731  26.918  1.00  0.00     0.064 A 
ATOM     64  C   UNL A   1      42.760  22.374  27.129  1.00  0.00     0.173 A 
ATOM     65  C   UNL A   1      43.783  23.980  25.719  1.00  0.00     0.173 A 
ATOM     66  F   UNL A   1      41.979  21.991  28.147  1.00  0.00    -0.203 F 
ATOM     67  C   UNL A   1      43.217  21.350  26.296  1.00  0.00     0.198 A 
ATOM     68  C   UNL A   1      44.292  22.954  24.916  1.00  0.00     0.198 A 
ATOM     69  F   UNL A   1      43.933  25.224  25.247  1.00  0.00    -0.203 F 
ATOM     70  F   UNL A   1      42.879  20.080  26.560  1.00  0.00    -0.200 F 
ATOM     71  C   UNL A   1      44.023  21.636  25.216  1.00  0.00     0.200 A 
ATOM     72  F   UNL A   1      45.042  23.256  23.847  1.00  0.00    -0.200 F 
ATOM     73  F   UNL A   1      44.507  20.649  24.448  1.00  0.00    -0.200 F 
ENDBRANCH  49  63
BRANCH  50  74
ATOM     74  C   UNL A   1      40.711  31.223  32.455  1.00  0.00     0.064 A 
ATOM     75  C   UNL A   1      40.476  32.610  32.361  1.00  0.00     0.173 A 
ATOM     76  C   UNL A   1      39.615  30.400  32.735  1.00  0.00     0.173 A 
ATOM     77  F   UNL A   1      41.491  33.446  32.084  1.00  0.00    -0.203 F 
ATOM     78  C   UNL A   1      39.185  33.131  32.416  1.00  0.00     0.198 A 
ATOM     79  C   UNL A   1      38.326  30.930  32.818  1.00  0.00     0.198 A 
ATOM     80  F   UNL A   1      39.763  29.070  32.812  1.00  0.00    -0.203 F 
ATOM     81  F   UNL A   1      38.982  34.437  32.192  1.00  0.00    -0.200 F 
ATOM     82  C   UNL A   1      38.108  32.286  32.620  1.00  0.00     0.200 A 
ATOM     83  F   UNL A   1      37.281  30.109  32.989  1.00  0.00    -0.200 F 
ATOM     84  F   UNL A   1      36.859  32.768  32.582  1.00  0.00    -0.200 F 
ENDBRANCH  50  74
BRANCH  62  85
ATOM     85  C   UNL A   1      45.065  25.425  33.041  1.00  0.00     0.064 A 
ATOM     86  C   UNL A   1      44.281  24.599  33.862  1.00  0.00     0.173 A 
ATOM     87  C   UNL A   1      46.465  25.240  33.159  1.00  0.00     0.173 A 
ATOM     88  F   UNL A   1      42.954  24.767  33.945  1.00  0.00    -0.203 F 
ATOM     89  C   UNL A   1      44.845  23.595  34.656  1.00  0.00     0.198 A 
ATOM     90  C   UNL A   1      47.028  24.275  33.992  1.00  0.00     0.198 A 
ATOM     91  F   UNL A   1      47.340  25.976  32.461  1.00  0.00    -0.203 F 
ATOM     92  F   UNL A   1      44.049  22.787  35.369  1.00  0.00    -0.200 F 
ATOM     93  C   UNL A   1      46.217  23.434  34.722  1.00  0.00     0.200 A 
ATOM     94  F   UNL A   1      48.361  24.164  34.072  1.00  0.00    -0.200 F 
ATOM     95  F   UNL A   1      46.756  22.480  35.493  1.00  0.00    -0.200 F 
ENDBRANCH  62  85
ENDBRANCH  36  37
ENDBRANCH  28  31
ENDBRANCH  26  27
ENDBRANCH  25  26
ENDBRANCH   1  25
TORSDOF 14
ENDMDL
MODEL 2
REMARK VINA RESULT:     -13.4      3.272      9.864
REMARK SMILES COc1ccc(-c2cnc(N)c(C(=O)NCCCCNC(=O)c3ccc(-c4c5nc(c(-c6c(F)c(F)c(F)c(F)c6F)c6ccc([nH]6)c(-c6c(F)c(F)c(F)c(F)c6F)c6nc(c(-c7c(F)c(F)c(F)c(F)c7F)c7ccc4[nH]7)C=C6)C=C5)cc3)c2)c(C)c1
REMARK SMILES IDX 17 1 16 2 15 3 13 4 14 5 12 7 7 8 8 9 86 10 9 11 10 12 6 13
REMARK SMILES IDX 3 14 4 15 89 16 5 17 87 18 88 19 2 20 1 21 11 22 18 25 19 26
REMARK SMILES IDX 20 27 21 28 22 30 23 31 24 32 85 33 25 34 84 35 26 36 27 37
REMARK SMILES IDX 28 38 78 39 29 40 83 41 77 42 79 43 30 44 82 45 76 46 75 47
REMARK SMILES IDX 31 49 63 50 43 51 62 52 44 53 47 54 61 55 80 56 45 57 46 58
REMARK SMILES IDX 60 60 81 61 48 62 32 63 33 64 41 65 34 66 35 67 39 68 42 69
REMARK SMILES IDX 36 70 37 71 40 72 38 73 64 74 65 75 73 76 66 77 67 78 71 79
REMARK SMILES IDX 74 80 68 81 69 82 72 83 70 84 49 85 50 86 58 87 51 88 52 89
REMARK SMILES IDX 56 90 59 91 53 92 54 93 57 94 55 95
REMARK H PARENT 15 6 11 23 11 24 20 29 79 48 47 59
REMARK Flexibility Score: inf
ROOT
ATOM      1  C   UNL A   1      37.133  21.508  24.598  1.00  0.00     0.023 C 
ENDROOT
BRANCH   1   2
ATOM      2  C   UNL A   1      36.706  22.911  24.160  1.00  0.00     0.116 C 
BRANCH   2   3
ATOM      3  N   UNL A   1      35.778  22.955  23.038  1.00  0.00    -0.352 N 
ATOM      4  C   UNL A   1      34.482  23.423  22.972  1.00  0.00     0.255 C 
ATOM      5  O   UNL A   1      33.915  23.425  21.880  1.00  0.00    -0.269 OA
ATOM      6  H   UNL A   1      36.130  22.594  22.193  1.00  0.00     0.163 HD
BRANCH   4   7
ATOM      7  C   UNL A   1      33.722  23.849  24.169  1.00  0.00     0.082 A 
ATOM      8  C   UNL A   1      32.849  25.720  25.468  1.00  0.00     0.001 A 
ATOM      9  C   UNL A   1      32.241  24.751  26.264  1.00  0.00     0.122 A 
ATOM     10  C   UNL A   1      33.595  25.234  24.388  1.00  0.00     0.028 A 
ATOM     11  N   UNL A   1      32.405  23.413  26.125  1.00  0.00    -0.238 NA
ATOM     12  C   UNL A   1      33.195  22.980  25.123  1.00  0.00     0.136 A 
BRANCH   8  13
ATOM     13  C   UNL A   1      32.751  27.151  25.814  1.00  0.00    -0.014 A 
ATOM     14  C   UNL A   1      32.719  29.877  26.621  1.00  0.00     0.119 A 
ATOM     15  C   UNL A   1      33.736  29.039  27.054  1.00  0.00     0.047 A 
ATOM     16  C   UNL A   1      31.717  29.358  25.800  1.00  0.00     0.050 A 
ATOM     17  C   UNL A   1      33.751  27.700  26.650  1.00  0.00     0.013 A 
ATOM     18  C   UNL A   1      31.713  28.007  25.389  1.00  0.00    -0.040 A 
ATOM     19  C   UNL A   1      30.594  27.577  24.479  1.00  0.00     0.045 C 
BRANCH  14  20
ATOM     20  O   UNL A   1      32.580  31.196  26.954  1.00  0.00    -0.497 OA
ATOM     21  C   UNL A   1      31.383  31.829  26.516  1.00  0.00     0.278 C 
ENDBRANCH  14  20
ENDBRANCH   8  13
BRANCH  12  22
ATOM     22  N   UNL A   1      33.424  21.616  25.150  1.00  0.00    -0.383 N 
ATOM     23  H   UNL A   1      33.711  21.181  25.985  1.00  0.00     0.158 HD
ATOM     24  H   UNL A   1      33.301  21.081  24.333  1.00  0.00     0.158 HD
ENDBRANCH  12  22
ENDBRANCH   4   7
ENDBRANCH   2   3
ENDBRANCH   1   2
BRANCH   1  25
ATOM     25  C   UNL A   1      38.357  21.398  25.502  1.00  0.00     0.023 C 
BRANCH  25  26
ATOM     26  C   UNL A   1      38.821  22.686  26.167  1.00  0.00     0.116 C 
BRANCH  26  27
ATOM     27  N   UNL A   1      40.257  22.804  26.371  1.00  0.00    -0.352 N 
ATOM     28  C   UNL A   1      41.023  23.926  26.662  1.00  0.00     0.251 C 
ATOM     29  H   UNL A   1      40.761  21.963  26.290  1.00  0.00     0.163 HD
ATOM     30  O   UNL A   1      42.235  23.829  26.728  1.00  0.00    -0.269 OA
BRANCH  28  31
ATOM     31  C   UNL A   1      40.366  25.213  27.026  1.00  0.00     0.039 A 
ATOM     32  C   UNL A   1      40.706  26.363  26.299  1.00  0.00     0.014 A 
ATOM     33  C   UNL A   1      39.559  25.333  28.151  1.00  0.00     0.014 A 
ATOM     34  C   UNL A   1      40.457  27.624  26.843  1.00  0.00     0.010 A 
ATOM     35  C   UNL A   1      39.411  26.566  28.749  1.00  0.00     0.010 A 
ATOM     36  C   UNL A   1      39.920  27.705  28.125  1.00  0.00    -0.014 A 
BRANCH  36  37
ATOM     37  C   UNL A   1      39.939  28.906  28.945  1.00  0.00     0.031 A 
ATOM     38  C   UNL A   1      38.905  29.943  28.797  1.00  0.00     0.074 A 
ATOM     39  C   UNL A   1      40.823  28.982  29.965  1.00  0.00     0.049 A 
ATOM     40  N   UNL A   1      39.045  31.160  29.199  1.00  0.00    -0.248 NA
ATOM     41  C   UNL A   1      37.618  29.688  28.166  1.00  0.00     0.031 C 
ATOM     42  C   UNL A   1      40.823  29.923  31.082  1.00  0.00     0.029 A 
ATOM     43  N   UNL A   1      42.052  28.312  30.076  1.00  0.00    -0.354 N 
ATOM     44  C   UNL A   1      37.809  31.758  29.158  1.00  0.00     0.074 A 
ATOM     45  C   UNL A   1      36.970  30.824  28.440  1.00  0.00     0.031 C 
ATOM     46  C   UNL A   1      42.071  30.013  31.566  1.00  0.00     0.029 A 
ATOM     47  C   UNL A   1      42.927  29.249  30.677  1.00  0.00     0.049 A 
ATOM     48  H   UNL A   1      42.258  27.390  29.798  1.00  0.00     0.167 HD
ATOM     49  C   UNL A   1      37.610  32.916  29.856  1.00  0.00     0.037 A 
ATOM     50  C   UNL A   1      43.983  29.751  29.971  1.00  0.00     0.037 A 
ATOM     51  C   UNL A   1      38.840  33.367  30.513  1.00  0.00     0.049 A 
ATOM     52  C   UNL A   1      43.954  31.254  29.763  1.00  0.00     0.074 A 
ATOM     53  C   UNL A   1      39.314  33.344  31.816  1.00  0.00     0.029 A 
ATOM     54  N   UNL A   1      39.932  33.694  29.727  1.00  0.00    -0.354 N 
ATOM     55  N   UNL A   1      42.980  32.038  30.136  1.00  0.00    -0.248 NA
ATOM     56  C   UNL A   1      44.983  31.972  29.013  1.00  0.00     0.031 C 
ATOM     57  C   UNL A   1      40.692  33.706  31.802  1.00  0.00     0.029 A 
ATOM     58  C   UNL A   1      41.055  33.944  30.490  1.00  0.00     0.049 A 
ATOM     59  H   UNL A   1      39.910  33.742  28.744  1.00  0.00     0.167 HD
ATOM     60  C   UNL A   1      43.194  33.301  29.646  1.00  0.00     0.074 A 
ATOM     61  C   UNL A   1      44.459  33.207  28.943  1.00  0.00     0.031 C 
ATOM     62  C   UNL A   1      42.288  34.313  29.814  1.00  0.00     0.037 A 
BRANCH  49  63
ATOM     63  C   UNL A   1      36.246  33.504  30.150  1.00  0.00     0.064 A 
ATOM     64  C   UNL A   1      35.449  34.046  29.118  1.00  0.00     0.173 A 
ATOM     65  C   UNL A   1      35.679  33.606  31.435  1.00  0.00     0.173 A 
ATOM     66  F   UNL A   1      35.777  33.902  27.828  1.00  0.00    -0.203 F 
ATOM     67  C   UNL A   1      34.273  34.757  29.368  1.00  0.00     0.198 A 
ATOM     68  C   UNL A   1      34.534  34.367  31.695  1.00  0.00     0.198 A 
ATOM     69  F   UNL A   1      36.174  32.916  32.470  1.00  0.00    -0.203 F 
ATOM     70  F   UNL A   1      33.569  35.257  28.343  1.00  0.00    -0.200 F 
ATOM     71  C   UNL A   1      33.840  34.958  30.662  1.00  0.00     0.200 A 
ATOM     72  F   UNL A   1      34.109  34.518  32.957  1.00  0.00    -0.200 F 
ATOM     73  F   UNL A   1      32.743  35.686  30.906  1.00  0.00    -0.200 F 
ENDBRANCH  49  63
BRANCH  50  74
ATOM     74  C   UNL A   1      44.530  28.765  28.995  1.00  0.00     0.064 A 
ATOM     75  C   UNL A   1      45.296  27.687  29.487  1.00  0.00     0.173 A 
ATOM     76  C   UNL A   1      44.011  28.649  27.702  1.00  0.00     0.173 A 
ATOM     77  F   UNL A   1      45.811  27.740  30.727  1.00  0.00    -0.203 F 
ATOM     78  C   UNL A   1      45.423  26.502  28.766  1.00  0.00     0.198 A 
ATOM     79  C   UNL A   1      44.164  27.469  26.972  1.00  0.00     0.198 A 
ATOM     80  F   UNL A   1      43.252  29.625  27.182  1.00  0.00    -0.203 F 
ATOM     81  F   UNL A   1      46.045  25.449  29.318  1.00  0.00    -0.200 F 
ATOM     82  C   UNL A   1      44.835  26.385  27.519  1.00  0.00     0.200 A 
ATOM     83  F   UNL A   1      43.573  27.348  25.776  1.00  0.00    -0.200 F 
ATOM     84  F   UNL A   1      44.876  25.217  26.863  1.00  0.00    -0.200 F 
ENDBRANCH  50  74
BRANCH  62  85
ATOM     85  C   UNL A   1      42.459  35.730  29.314  1.00  0.00     0.064 A 
ATOM     86  C   UNL A   1      41.908  36.193  28.109  1.00  0.00     0.173 A 
ATOM     87  C   UNL A   1      43.286  36.657  29.995  1.00  0.00     0.173 A 
ATOM     88  F   UNL A   1      41.219  35.373  27.303  1.00  0.00    -0.203 F 
ATOM     89  C   UNL A   1      42.081  37.512  27.675  1.00  0.00     0.198 A 
ATOM     90  C   UNL A   1      43.502  37.954  29.532  1.00  0.00     0.198 A 
ATOM     91  F   UNL A   1      43.905  36.347  31.142  1.00  0.00    -0.203 F 
ATOM     92  F   UNL A   1      41.477  37.926  26.553  1.00  0.00    -0.200 F 
ATOM     93  C   UNL A   1      42.879  38.391  28.385  1.00  0.00     0.200 A 
ATOM     94  F   UNL A   1      44.312  38.775  30.215  1.00  0.00    -0.200 F 
ATOM     95  F   UNL A   1      43.053  39.649  27.961  1.00  0.00    -0.200 F 
ENDBRANCH  62  85
ENDBRANCH  36  37
ENDBRANCH  28  31
ENDBRANCH  26  27
ENDBRANCH  25  26
ENDBRANCH   1  25
TORSDOF 14
ENDMDL
MODEL 3
REMARK VINA RESULT:     -13.3      1.518      2.084
REMARK SMILES COc1ccc(-c2cnc(N)c(C(=O)NCCCCNC(=O)c3ccc(-c4c5nc(c(-c6c(F)c(F)c(F)c(F)c6F)c6ccc([nH]6)c(-c6c(F)c(F)c(F)c(F)c6F)c6nc(c(-c7c(F)c(F)c(F)c(F)c7F)c7ccc4[nH]7)C=C6)C=C5)cc3)c2)c(C)c1
REMARK SMILES IDX 17 1 16 2 15 3 13 4 14 5 12 7 7 8 8 9 86 10 9 11 10 12 6 13
REMARK SMILES IDX 3 14 4 15 89 16 5 17 87 18 88 19 2 20 1 21 11 22 18 25 19 26
REMARK SMILES IDX 20 27 21 28 22 30 23 31 24 32 85 33 25 34 84 35 26 36 27 37
REMARK SMILES IDX 28 38 78 39 29 40 83 41 77 42 79 43 30 44 82 45 76 46 75 47
REMARK SMILES IDX 31 49 63 50 43 51 62 52 44 53 47 54 61 55 80 56 45 57 46 58
REMARK SMILES IDX 60 60 81 61 48 62 32 63 33 64 41 65 34 66 35 67 39 68 42 69
REMARK SMILES IDX 36 70 37 71 40 72 38 73 64 74 65 75 73 76 66 77 67 78 71 79
REMARK SMILES IDX 74 80 68 81 69 82 72 83 70 84 49 85 50 86 58 87 51 88 52 89
REMARK SMILES IDX 56 90 59 91 53 92 54 93 57 94 55 95
REMARK H PARENT 15 6 11 23 11 24 20 29 79 48 47 59
REMARK Flexibility Score: inf
ROOT
ATOM      1  C   UNL A   1      31.784  29.534  26.771  1.00  0.00     0.023 C 
ENDROOT
BRANCH   1   2
ATOM      2  C   UNL A   1      31.495  29.271  25.291  1.00  0.00     0.116 C 
BRANCH   2   3
ATOM      3  N   UNL A   1      32.608  29.526  24.387  1.00  0.00    -0.352 N 
ATOM      4  C   UNL A   1      33.223  28.695  23.475  1.00  0.00     0.255 C 
ATOM      5  O   UNL A   1      34.107  29.164  22.758  1.00  0.00    -0.269 OA
ATOM      6  H   UNL A   1      32.980  30.436  24.433  1.00  0.00     0.163 HD
BRANCH   4   7
ATOM      7  C   UNL A   1      32.918  27.250  23.374  1.00  0.00     0.082 A 
ATOM      8  C   UNL A   1      33.622  24.977  23.910  1.00  0.00     0.001 A 
ATOM      9  C   UNL A   1      32.405  24.579  23.360  1.00  0.00     0.122 A 
ATOM     10  C   UNL A   1      33.859  26.355  23.920  1.00  0.00     0.028 A 
ATOM     11  N   UNL A   1      31.514  25.405  22.760  1.00  0.00    -0.238 NA
ATOM     12  C   UNL A   1      31.810  26.719  22.715  1.00  0.00     0.136 A 
BRANCH   8  13
ATOM     13  C   UNL A   1      34.602  23.977  24.376  1.00  0.00    -0.014 A 
ATOM     14  C   UNL A   1      36.567  22.045  25.076  1.00  0.00     0.119 A 
ATOM     15  C   UNL A   1      36.612  22.660  23.833  1.00  0.00     0.047 A 
ATOM     16  C   UNL A   1      35.543  22.382  25.961  1.00  0.00     0.050 A 
ATOM     17  C   UNL A   1      35.646  23.614  23.496  1.00  0.00     0.013 A 
ATOM     18  C   UNL A   1      34.555  23.337  25.633  1.00  0.00    -0.040 A 
ATOM     19  C   UNL A   1      33.521  23.635  26.685  1.00  0.00     0.045 C 
BRANCH  14  20
ATOM     20  O   UNL A   1      37.437  21.089  25.522  1.00  0.00    -0.497 OA
ATOM     21  C   UNL A   1      38.781  21.514  25.726  1.00  0.00     0.278 C 
ENDBRANCH  14  20
ENDBRANCH   8  13
BRANCH  12  22
ATOM     22  N   UNL A   1      30.922  27.460  21.957  1.00  0.00    -0.383 N 
ATOM     23  H   UNL A   1      30.480  27.053  21.177  1.00  0.00     0.158 HD
ATOM     24  H   UNL A   1      30.732  28.396  22.196  1.00  0.00     0.158 HD
ENDBRANCH  12  22
ENDBRANCH   4   7
ENDBRANCH   2   3
ENDBRANCH   1   2
BRANCH   1  25
ATOM     25  C   UNL A   1      32.649  30.743  27.113  1.00  0.00     0.023 C 
BRANCH  25  26
ATOM     26  C   UNL A   1      34.133  30.474  27.315  1.00  0.00     0.116 C 
BRANCH  26  27
ATOM     27  N   UNL A   1      34.834  31.431  28.158  1.00  0.00    -0.352 N 
ATOM     28  C   UNL A   1      36.000  31.277  28.898  1.00  0.00     0.251 C 
ATOM     29  H   UNL A   1      34.420  32.323  28.212  1.00  0.00     0.163 HD
ATOM     30  O   UNL A   1      36.394  32.188  29.602  1.00  0.00    -0.269 OA
BRANCH  28  31
ATOM     31  C   UNL A   1      36.840  30.058  28.731  1.00  0.00     0.039 A 
ATOM     32  C   UNL A   1      37.086  29.260  29.859  1.00  0.00     0.014 A 
ATOM     33  C   UNL A   1      37.509  29.782  27.545  1.00  0.00     0.014 A 
ATOM     34  C   UNL A   1      38.167  28.378  29.860  1.00  0.00     0.010 A 
ATOM     35  C   UNL A   1      38.644  29.002  27.573  1.00  0.00     0.010 A 
ATOM     36  C   UNL A   1      39.010  28.352  28.752  1.00  0.00    -0.014 A 
BRANCH  36  37
ATOM     37  C   UNL A   1      40.343  27.769  28.751  1.00  0.00     0.031 A 
ATOM     38  C   UNL A   1      40.544  26.338  28.470  1.00  0.00     0.074 A 
ATOM     39  C   UNL A   1      41.411  28.590  28.845  1.00  0.00     0.049 A 
ATOM     40  N   UNL A   1      41.605  25.684  28.801  1.00  0.00    -0.248 NA
ATOM     41  C   UNL A   1      39.549  25.520  27.792  1.00  0.00     0.031 C 
ATOM     42  C   UNL A   1      42.810  28.276  28.563  1.00  0.00     0.029 A 
ATOM     43  N   UNL A   1      41.453  29.867  29.427  1.00  0.00    -0.354 N 
ATOM     44  C   UNL A   1      41.572  24.476  28.146  1.00  0.00     0.074 A 
ATOM     45  C   UNL A   1      40.239  24.393  27.591  1.00  0.00     0.031 C 
ATOM     46  C   UNL A   1      43.586  29.142  29.234  1.00  0.00     0.029 A 
ATOM     47  C   UNL A   1      42.709  29.932  30.078  1.00  0.00     0.049 A 
ATOM     48  H   UNL A   1      40.760  30.565  29.390  1.00  0.00     0.167 HD
ATOM     49  C   UNL A   1      42.724  23.749  28.039  1.00  0.00     0.037 A 
ATOM     50  C   UNL A   1      42.773  30.000  31.441  1.00  0.00     0.037 A 
ATOM     51  C   UNL A   1      43.838  24.400  28.734  1.00  0.00     0.049 A 
ATOM     52  C   UNL A   1      43.491  28.839  32.103  1.00  0.00     0.074 A 
ATOM     53  C   UNL A   1      44.945  25.130  28.330  1.00  0.00     0.029 A 
ATOM     54  N   UNL A   1      43.748  24.589  30.103  1.00  0.00    -0.354 N 
ATOM     55  N   UNL A   1      43.956  27.795  31.475  1.00  0.00    -0.248 NA
ATOM     56  C   UNL A   1      43.641  28.721  33.553  1.00  0.00     0.031 C 
ATOM     57  C   UNL A   1      45.542  25.720  29.482  1.00  0.00     0.029 A 
ATOM     58  C   UNL A   1      44.794  25.352  30.584  1.00  0.00     0.049 A 
ATOM     59  H   UNL A   1      43.027  24.224  30.665  1.00  0.00     0.167 HD
ATOM     60  C   UNL A   1      44.389  26.865  32.385  1.00  0.00     0.074 A 
ATOM     61  C   UNL A   1      44.165  27.490  33.674  1.00  0.00     0.031 C 
ATOM     62  C   UNL A   1      44.852  25.634  32.008  1.00  0.00     0.037 A 
BRANCH  49  63
ATOM     63  C   UNL A   1      42.902  22.578  27.096  1.00  0.00     0.064 A 
ATOM     64  C   UNL A   1      42.211  21.364  27.305  1.00  0.00     0.173 A 
ATOM     65  C   UNL A   1      43.771  22.567  25.989  1.00  0.00     0.173 A 
ATOM     66  F   UNL A   1      41.245  21.255  28.225  1.00  0.00    -0.203 F 
ATOM     67  C   UNL A   1      42.482  20.207  26.571  1.00  0.00     0.198 A 
ATOM     68  C   UNL A   1      44.088  21.397  25.291  1.00  0.00     0.198 A 
ATOM     69  F   UNL A   1      44.291  23.701  25.502  1.00  0.00    -0.203 F 
ATOM     70  F   UNL A   1      41.800  19.082  26.828  1.00  0.00    -0.200 F 
ATOM     71  C   UNL A   1      43.455  20.211  25.594  1.00  0.00     0.200 A 
ATOM     72  F   UNL A   1      45.011  21.432  24.319  1.00  0.00    -0.200 F 
ATOM     73  F   UNL A   1      43.754  19.088  24.927  1.00  0.00    -0.200 F 
ENDBRANCH  49  63
BRANCH  50  74
ATOM     74  C   UNL A   1      41.611  30.731  32.025  1.00  0.00     0.064 A 
ATOM     75  C   UNL A   1      40.529  29.979  32.530  1.00  0.00     0.173 A 
ATOM     76  C   UNL A   1      41.715  32.065  32.432  1.00  0.00     0.173 A 
ATOM     77  F   UNL A   1      40.387  28.690  32.180  1.00  0.00    -0.203 F 
ATOM     78  C   UNL A   1      39.673  30.503  33.495  1.00  0.00     0.198 A 
ATOM     79  C   UNL A   1      40.837  32.594  33.379  1.00  0.00     0.198 A 
ATOM     80  F   UNL A   1      42.734  32.828  32.011  1.00  0.00    -0.203 F 
ATOM     81  F   UNL A   1      38.736  29.720  34.052  1.00  0.00    -0.200 F 
ATOM     82  C   UNL A   1      39.843  31.803  33.937  1.00  0.00     0.200 A 
ATOM     83  F   UNL A   1      41.018  33.844  33.827  1.00  0.00    -0.200 F 
ATOM     84  F   UNL A   1      39.081  32.280  34.931  1.00  0.00    -0.200 F 
ENDBRANCH  50  74
BRANCH  62  85
ATOM     85  C   UNL A   1      45.357  24.565  32.951  1.00  0.00     0.064 A 
ATOM     86  C   UNL A   1      44.590  23.453  33.336  1.00  0.00     0.173 A 
ATOM     87  C   UNL A   1      46.616  24.681  33.591  1.00  0.00     0.173 A 
ATOM     88  F   UNL A   1      43.329  23.301  32.908  1.00  0.00    -0.203 F 
ATOM     89  C   UNL A   1      45.087  22.479  34.209  1.00  0.00     0.198 A 
ATOM     90  C   UNL A   1      47.086  23.736  34.502  1.00  0.00     0.198 A 
ATOM     91  F   UNL A   1      47.444  25.705  33.348  1.00  0.00    -0.203 F 
ATOM     92  F   UNL A   1      44.343  21.400  34.491  1.00  0.00    -0.200 F 
ATOM     93  C   UNL A   1      46.333  22.621  34.792  1.00  0.00     0.200 A 
ATOM     94  F   UNL A   1      48.279  23.916  35.087  1.00  0.00    -0.200 F 
ATOM     95  F   UNL A   1      46.800  21.693  35.637  1.00  0.00    -0.200 F 
ENDBRANCH  62  85
ENDBRANCH  36  37
ENDBRANCH  28  31
ENDBRANCH  26  27
ENDBRANCH  25  26
ENDBRANCH   1  25
TORSDOF 14
ENDMDL
