MODEL 1
REMARK VINA RESULT:     -12.8      0.000      0.000
REMARK SMILES CC(C)(C)c1cc(-n2cnc(C(=O)NCCCCNC(=O)c3ccc(-c4c5nc(c(-c6c(F)c(F)c(F)c(F)c6F)c6ccc([nH]6)c(-c6c(F)c(F)c(F)c(F)c6F)c6nc(c(-c7c(F)c(F)c(F)c(F)c7F)c7ccc4[nH]7)C=C6)C=C5)cc3)c2)nc(Cl)n1
REMARK SMILES IDX 16 1 15 2 14 3 12 4 13 5 11 7 8 8 9 9 85 10 10 11 7 12 5 13
REMARK SMILES IDX 6 14 89 15 87 16 86 17 88 18 2 19 1 20 3 21 4 22 17 23 18 24
REMARK SMILES IDX 19 25 20 26 21 28 22 29 23 30 84 31 24 32 83 33 25 34 26 35
REMARK SMILES IDX 27 36 77 37 28 38 82 39 76 40 78 41 29 42 81 43 75 44 74 45
REMARK SMILES IDX 30 47 62 48 42 49 61 50 43 51 46 52 60 53 79 54 44 55 45 56
REMARK SMILES IDX 59 58 80 59 47 60 31 61 32 62 40 63 33 64 34 65 38 66 41 67
REMARK SMILES IDX 35 68 36 69 39 70 37 71 63 72 64 73 72 74 65 75 66 76 70 77
REMARK SMILES IDX 73 78 67 79 68 80 71 81 69 82 48 83 49 84 57 85 50 86 51 87
REMARK SMILES IDX 55 88 58 89 52 90 53 91 56 92 54 93
REMARK H PARENT 14 6 19 27 78 46 46 57
REMARK Flexibility Score: inf
ROOT
ATOM      1  C   UNL A   1      40.583  21.517  26.759  1.00  0.00     0.023 C 
ENDROOT
BRANCH   1   2
ATOM      2  C   UNL A   1      39.235  21.941  26.171  1.00  0.00     0.116 C 
BRANCH   2   3
ATOM      3  N   UNL A   1      38.458  20.821  25.677  1.00  0.00    -0.351 N 
ATOM      4  C   UNL A   1      37.201  20.700  25.124  1.00  0.00     0.271 C 
ATOM      5  O   UNL A   1      36.883  19.556  24.779  1.00  0.00    -0.267 OA
ATOM      6  H   UNL A   1      38.930  19.960  25.753  1.00  0.00     0.163 HD
BRANCH   4   7
ATOM      7  C   UNL A   1      36.292  21.841  24.938  1.00  0.00     0.146 A 
ATOM      8  N   UNL A   1      34.657  23.333  25.043  1.00  0.00    -0.290 N 
ATOM      9  C   UNL A   1      35.541  23.696  24.069  1.00  0.00     0.206 A 
ATOM     10  C   UNL A   1      35.086  22.123  25.538  1.00  0.00     0.128 A 
ATOM     11  N   UNL A   1      36.561  22.863  24.024  1.00  0.00    -0.231 NA
BRANCH   8  12
ATOM     12  C   UNL A   1      33.501  24.007  25.482  1.00  0.00     0.143 A 
ATOM     13  C   UNL A   1      32.518  26.032  26.205  1.00  0.00     0.053 A 
ATOM     14  C   UNL A   1      33.603  25.381  25.660  1.00  0.00     0.072 A 
ATOM     15  N   UNL A   1      31.445  25.327  26.625  1.00  0.00    -0.222 NA
ATOM     16  C   UNL A   1      31.452  24.002  26.394  1.00  0.00     0.224 A 
ATOM     17  N   UNL A   1      32.411  23.290  25.792  1.00  0.00    -0.200 NA
ATOM     18  Cl  UNL A   1      30.142  23.119  27.037  1.00  0.00    -0.041 Cl
BRANCH  13  19
ATOM     19  C   UNL A   1      32.458  27.558  26.346  1.00  0.00     0.004 C 
ATOM     20  C   UNL A   1      31.703  28.153  25.146  1.00  0.00     0.017 C 
ATOM     21  C   UNL A   1      33.901  28.100  26.369  1.00  0.00     0.017 C 
ATOM     22  C   UNL A   1      31.761  28.047  27.636  1.00  0.00     0.017 C 
ENDBRANCH  13  19
ENDBRANCH   8  12
ENDBRANCH   4   7
ENDBRANCH   2   3
ENDBRANCH   1   2
BRANCH   1  23
ATOM     23  C   UNL A   1      41.171  20.231  26.153  1.00  0.00     0.023 C 
BRANCH  23  24
ATOM     24  C   UNL A   1      42.512  19.789  26.738  1.00  0.00     0.116 C 
BRANCH  24  25
ATOM     25  N   UNL A   1      43.543  19.568  25.724  1.00  0.00    -0.352 N 
ATOM     26  C   UNL A   1      44.128  20.508  24.906  1.00  0.00     0.251 C 
ATOM     27  H   UNL A   1      43.854  18.639  25.614  1.00  0.00     0.163 HD
ATOM     28  O   UNL A   1      44.651  20.185  23.834  1.00  0.00    -0.269 OA
BRANCH  26  29
ATOM     29  C   UNL A   1      44.148  21.913  25.334  1.00  0.00     0.039 A 
ATOM     30  C   UNL A   1      43.327  22.872  24.734  1.00  0.00     0.014 A 
ATOM     31  C   UNL A   1      44.989  22.252  26.394  1.00  0.00     0.014 A 
ATOM     32  C   UNL A   1      43.294  24.155  25.273  1.00  0.00     0.010 A 
ATOM     33  C   UNL A   1      44.862  23.476  27.000  1.00  0.00     0.010 A 
ATOM     34  C   UNL A   1      44.043  24.444  26.428  1.00  0.00    -0.014 A 
BRANCH  34  35
ATOM     35  C   UNL A   1      43.830  25.698  27.147  1.00  0.00     0.031 A 
ATOM     36  C   UNL A   1      44.795  26.768  26.766  1.00  0.00     0.074 A 
ATOM     37  C   UNL A   1      42.736  25.944  27.905  1.00  0.00     0.049 A 
ATOM     38  N   UNL A   1      45.712  27.294  27.506  1.00  0.00    -0.248 NA
ATOM     39  C   UNL A   1      44.861  27.192  25.356  1.00  0.00     0.031 C 
ATOM     40  C   UNL A   1      41.571  25.070  28.088  1.00  0.00     0.029 A 
ATOM     41  N   UNL A   1      42.372  27.070  28.587  1.00  0.00    -0.354 N 
ATOM     42  C   UNL A   1      46.310  28.283  26.727  1.00  0.00     0.074 A 
ATOM     43  C   UNL A   1      45.899  28.033  25.375  1.00  0.00     0.031 C 
ATOM     44  C   UNL A   1      40.546  25.780  28.609  1.00  0.00     0.029 A 
ATOM     45  C   UNL A   1      41.030  27.101  28.959  1.00  0.00     0.049 A 
ATOM     46  H   UNL A   1      43.002  27.797  28.796  1.00  0.00     0.167 HD
ATOM     47  C   UNL A   1      46.811  29.402  27.322  1.00  0.00     0.037 A 
ATOM     48  C   UNL A   1      40.354  28.140  29.509  1.00  0.00     0.037 A 
ATOM     49  C   UNL A   1      46.943  29.188  28.743  1.00  0.00     0.049 A 
ATOM     50  C   UNL A   1      41.356  29.040  30.119  1.00  0.00     0.074 A 
ATOM     51  C   UNL A   1      47.741  28.436  29.577  1.00  0.00     0.029 A 
ATOM     52  N   UNL A   1      45.823  29.532  29.449  1.00  0.00    -0.354 N 
ATOM     53  N   UNL A   1      42.078  28.713  31.155  1.00  0.00    -0.248 NA
ATOM     54  C   UNL A   1      41.832  30.190  29.363  1.00  0.00     0.031 C 
ATOM     55  C   UNL A   1      46.951  28.167  30.736  1.00  0.00     0.029 A 
ATOM     56  C   UNL A   1      45.720  28.811  30.604  1.00  0.00     0.049 A 
ATOM     57  H   UNL A   1      45.173  30.212  29.162  1.00  0.00     0.167 HD
ATOM     58  C   UNL A   1      43.302  29.303  30.913  1.00  0.00     0.074 A 
ATOM     59  C   UNL A   1      43.036  30.337  29.920  1.00  0.00     0.031 C 
ATOM     60  C   UNL A   1      44.453  28.674  31.286  1.00  0.00     0.037 A 
BRANCH  47  61
ATOM     61  C   UNL A   1      46.650  30.817  26.783  1.00  0.00     0.064 A 
ATOM     62  C   UNL A   1      47.763  31.688  26.834  1.00  0.00     0.173 A 
ATOM     63  C   UNL A   1      45.407  31.452  26.563  1.00  0.00     0.173 A 
ATOM     64  F   UNL A   1      48.997  31.207  27.051  1.00  0.00    -0.203 F 
ATOM     65  C   UNL A   1      47.625  33.079  26.773  1.00  0.00     0.198 A 
ATOM     66  C   UNL A   1      45.280  32.837  26.455  1.00  0.00     0.198 A 
ATOM     67  F   UNL A   1      44.250  30.784  26.559  1.00  0.00    -0.203 F 
ATOM     68  F   UNL A   1      48.694  33.865  26.965  1.00  0.00    -0.200 F 
ATOM     69  C   UNL A   1      46.381  33.654  26.594  1.00  0.00     0.200 A 
ATOM     70  F   UNL A   1      44.060  33.373  26.307  1.00  0.00    -0.200 F 
ATOM     71  F   UNL A   1      46.233  34.984  26.605  1.00  0.00    -0.200 F 
ENDBRANCH  47  61
BRANCH  48  72
ATOM     72  C   UNL A   1      38.931  28.528  29.359  1.00  0.00     0.064 A 
ATOM     73  C   UNL A   1      38.100  28.705  30.479  1.00  0.00     0.173 A 
ATOM     74  C   UNL A   1      38.438  29.018  28.135  1.00  0.00     0.173 A 
ATOM     75  F   UNL A   1      38.506  28.301  31.692  1.00  0.00    -0.203 F 
ATOM     76  C   UNL A   1      36.871  29.370  30.388  1.00  0.00     0.198 A 
ATOM     77  C   UNL A   1      37.210  29.677  28.043  1.00  0.00     0.198 A 
ATOM     78  F   UNL A   1      39.183  28.953  27.022  1.00  0.00    -0.203 F 
ATOM     79  F   UNL A   1      36.141  29.582  31.492  1.00  0.00    -0.200 F 
ATOM     80  C   UNL A   1      36.435  29.868  29.171  1.00  0.00     0.200 A 
ATOM     81  F   UNL A   1      36.816  30.184  26.866  1.00  0.00    -0.200 F 
ATOM     82  F   UNL A   1      35.293  30.566  29.095  1.00  0.00    -0.200 F 
ENDBRANCH  48  72
BRANCH  60  83
ATOM     83  C   UNL A   1      44.357  27.656  32.381  1.00  0.00     0.064 A 
ATOM     84  C   UNL A   1      44.192  26.276  32.183  1.00  0.00     0.173 A 
ATOM     85  C   UNL A   1      44.524  28.107  33.698  1.00  0.00     0.173 A 
ATOM     86  F   UNL A   1      44.107  25.757  30.953  1.00  0.00    -0.203 F 
ATOM     87  C   UNL A   1      44.151  25.396  33.265  1.00  0.00     0.198 A 
ATOM     88  C   UNL A   1      44.523  27.223  34.769  1.00  0.00     0.198 A 
ATOM     89  F   UNL A   1      44.726  29.412  33.940  1.00  0.00    -0.203 F 
ATOM     90  F   UNL A   1      43.970  24.083  33.055  1.00  0.00    -0.200 F 
ATOM     91  C   UNL A   1      44.325  25.870  34.554  1.00  0.00     0.200 A 
ATOM     92  F   UNL A   1      44.736  27.683  36.010  1.00  0.00    -0.200 F 
ATOM     93  F   UNL A   1      44.321  25.020  35.591  1.00  0.00    -0.200 F 
ENDBRANCH  60  83
ENDBRANCH  34  35
ENDBRANCH  26  29
ENDBRANCH  24  25
ENDBRANCH  23  24
ENDBRANCH   1  23
TORSDOF 13
ENDMDL
MODEL 2
REMARK VINA RESULT:     -12.2      4.327      9.755
REMARK SMILES CC(C)(C)c1cc(-n2cnc(C(=O)NCCCCNC(=O)c3ccc(-c4c5nc(c(-c6c(F)c(F)c(F)c(F)c6F)c6ccc([nH]6)c(-c6c(F)c(F)c(F)c(F)c6F)c6nc(c(-c7c(F)c(F)c(F)c(F)c7F)c7ccc4[nH]7)C=C6)C=C5)cc3)c2)nc(Cl)n1
REMARK SMILES IDX 16 1 15 2 14 3 12 4 13 5 11 7 8 8 9 9 85 10 10 11 7 12 5 13
REMARK SMILES IDX 6 14 89 15 87 16 86 17 88 18 2 19 1 20 3 21 4 22 17 23 18 24
REMARK SMILES IDX 19 25 20 26 21 28 22 29 23 30 84 31 24 32 83 33 25 34 26 35
REMARK SMILES IDX 27 36 77 37 28 38 82 39 76 40 78 41 29 42 81 43 75 44 74 45
REMARK SMILES IDX 30 47 62 48 42 49 61 50 43 51 46 52 60 53 79 54 44 55 45 56
REMARK SMILES IDX 59 58 80 59 47 60 31 61 32 62 40 63 33 64 34 65 38 66 41 67
REMARK SMILES IDX 35 68 36 69 39 70 37 71 63 72 64 73 72 74 65 75 66 76 70 77
REMARK SMILES IDX 73 78 67 79 68 80 71 81 69 82 48 83 49 84 57 85 50 86 51 87
REMARK SMILES IDX 55 88 58 89 52 90 53 91 56 92 54 93
REMARK H PARENT 14 6 19 27 78 46 46 57
REMARK Flexibility Score: inf
ROOT
ATOM      1  C   UNL A   1      34.340  33.047  28.145  1.00  0.00     0.023 C 
ENDROOT
BRANCH   1   2
ATOM      2  C   UNL A   1      33.768  31.672  27.791  1.00  0.00     0.116 C 
BRANCH   2   3
ATOM      3  N   UNL A   1      32.577  31.752  26.968  1.00  0.00    -0.351 N 
ATOM      4  C   UNL A   1      31.874  30.836  26.215  1.00  0.00     0.271 C 
ATOM      5  O   UNL A   1      30.857  31.275  25.665  1.00  0.00    -0.267 OA
ATOM      6  H   UNL A   1      32.187  32.655  26.941  1.00  0.00     0.163 HD
BRANCH   4   7
ATOM      7  C   UNL A   1      32.280  29.430  26.074  1.00  0.00     0.146 A 
ATOM      8  N   UNL A   1      32.863  27.418  25.352  1.00  0.00    -0.290 N 
ATOM      9  C   UNL A   1      32.858  27.427  26.717  1.00  0.00     0.206 A 
ATOM     10  C   UNL A   1      32.422  28.656  24.945  1.00  0.00     0.128 A 
ATOM     11  N   UNL A   1      32.578  28.629  27.179  1.00  0.00    -0.231 NA
BRANCH   8  12
ATOM     12  C   UNL A   1      33.212  26.370  24.478  1.00  0.00     0.143 A 
ATOM     13  C   UNL A   1      34.623  24.528  24.025  1.00  0.00     0.053 A 
ATOM     14  C   UNL A   1      34.186  25.482  24.918  1.00  0.00     0.072 A 
ATOM     15  N   UNL A   1      34.174  24.536  22.751  1.00  0.00    -0.222 NA
ATOM     16  C   UNL A   1      33.225  25.436  22.440  1.00  0.00     0.224 A 
ATOM     17  N   UNL A   1      32.669  26.341  23.252  1.00  0.00    -0.200 NA
ATOM     18  Cl  UNL A   1      32.760  25.503  20.800  1.00  0.00    -0.041 Cl
BRANCH  13  19
ATOM     19  C   UNL A   1      35.607  23.420  24.420  1.00  0.00     0.004 C 
ATOM     20  C   UNL A   1      36.453  23.028  23.196  1.00  0.00     0.017 C 
ATOM     21  C   UNL A   1      34.797  22.199  24.899  1.00  0.00     0.017 C 
ATOM     22  C   UNL A   1      36.574  23.809  25.561  1.00  0.00     0.017 C 
ENDBRANCH  13  19
ENDBRANCH   8  12
ENDBRANCH   4   7
ENDBRANCH   2   3
ENDBRANCH   1   2
BRANCH   1  23
ATOM     23  C   UNL A   1      33.286  34.104  28.515  1.00  0.00     0.023 C 
BRANCH  23  24
ATOM     24  C   UNL A   1      33.836  35.371  29.169  1.00  0.00     0.116 C 
BRANCH  24  25
ATOM     25  N   UNL A   1      33.208  35.681  30.454  1.00  0.00    -0.352 N 
ATOM     26  C   UNL A   1      33.336  34.988  31.637  1.00  0.00     0.251 C 
ATOM     27  H   UNL A   1      32.627  36.476  30.475  1.00  0.00     0.163 HD
ATOM     28  O   UNL A   1      32.473  35.064  32.518  1.00  0.00    -0.269 OA
BRANCH  26  29
ATOM     29  C   UNL A   1      34.533  34.165  31.856  1.00  0.00     0.039 A 
ATOM     30  C   UNL A   1      34.489  32.771  31.767  1.00  0.00     0.014 A 
ATOM     31  C   UNL A   1      35.731  34.828  32.118  1.00  0.00     0.014 A 
ATOM     32  C   UNL A   1      35.680  32.057  31.852  1.00  0.00     0.010 A 
ATOM     33  C   UNL A   1      36.916  34.137  32.076  1.00  0.00     0.010 A 
ATOM     34  C   UNL A   1      36.898  32.750  31.977  1.00  0.00    -0.014 A 
BRANCH  34  35
ATOM     35  C   UNL A   1      38.167  32.041  31.817  1.00  0.00     0.031 A 
ATOM     36  C   UNL A   1      38.860  31.774  33.109  1.00  0.00     0.074 A 
ATOM     37  C   UNL A   1      38.563  31.480  30.652  1.00  0.00     0.049 A 
ATOM     38  N   UNL A   1      39.977  32.276  33.515  1.00  0.00    -0.248 NA
ATOM     39  C   UNL A   1      38.158  30.988  34.139  1.00  0.00     0.031 C 
ATOM     40  C   UNL A   1      37.803  31.412  29.398  1.00  0.00     0.029 A 
ATOM     41  N   UNL A   1      39.679  30.749  30.361  1.00  0.00    -0.354 N 
ATOM     42  C   UNL A   1      40.236  31.681  34.749  1.00  0.00     0.074 A 
ATOM     43  C   UNL A   1      39.005  31.075  35.170  1.00  0.00     0.031 C 
ATOM     44  C   UNL A   1      38.353  30.489  28.580  1.00  0.00     0.029 A 
ATOM     45  C   UNL A   1      39.595  30.029  29.171  1.00  0.00     0.049 A 
ATOM     46  H   UNL A   1      40.474  30.731  30.942  1.00  0.00     0.167 HD
ATOM     47  C   UNL A   1      41.524  31.464  35.139  1.00  0.00     0.037 A 
ATOM     48  C   UNL A   1      40.477  29.112  28.702  1.00  0.00     0.037 A 
ATOM     49  C   UNL A   1      42.425  32.237  34.318  1.00  0.00     0.049 A 
ATOM     50  C   UNL A   1      41.769  29.364  29.373  1.00  0.00     0.074 A 
ATOM     51  C   UNL A   1      42.741  33.567  34.149  1.00  0.00     0.029 A 
ATOM     52  N   UNL A   1      42.840  31.572  33.196  1.00  0.00    -0.354 N 
ATOM     53  N   UNL A   1      42.485  30.435  29.174  1.00  0.00    -0.248 NA
ATOM     54  C   UNL A   1      42.116  28.591  30.559  1.00  0.00     0.031 C 
ATOM     55  C   UNL A   1      43.168  33.699  32.793  1.00  0.00     0.029 A 
ATOM     56  C   UNL A   1      43.158  32.440  32.191  1.00  0.00     0.049 A 
ATOM     57  H   UNL A   1      42.903  30.593  33.123  1.00  0.00     0.167 HD
ATOM     58  C   UNL A   1      43.035  30.709  30.409  1.00  0.00     0.074 A 
ATOM     59  C   UNL A   1      42.935  29.460  31.156  1.00  0.00     0.031 C 
ATOM     60  C   UNL A   1      43.204  32.001  30.815  1.00  0.00     0.037 A 
BRANCH  47  61
ATOM     61  C   UNL A   1      42.022  30.196  35.820  1.00  0.00     0.064 A 
ATOM     62  C   UNL A   1      43.024  30.314  36.811  1.00  0.00     0.173 A 
ATOM     63  C   UNL A   1      41.836  28.892  35.313  1.00  0.00     0.173 A 
ATOM     64  F   UNL A   1      43.304  31.506  37.361  1.00  0.00    -0.203 F 
ATOM     65  C   UNL A   1      43.835  29.236  37.183  1.00  0.00     0.198 A 
ATOM     66  C   UNL A   1      42.616  27.809  35.722  1.00  0.00     0.198 A 
ATOM     67  F   UNL A   1      40.981  28.620  34.322  1.00  0.00    -0.203 F 
ATOM     68  F   UNL A   1      44.861  29.431  38.023  1.00  0.00    -0.200 F 
ATOM     69  C   UNL A   1      43.637  27.985  36.629  1.00  0.00     0.200 A 
ATOM     70  F   UNL A   1      42.422  26.610  35.153  1.00  0.00    -0.200 F 
ATOM     71  F   UNL A   1      44.454  26.968  36.928  1.00  0.00    -0.200 F 
ENDBRANCH  47  61
BRANCH  48  72
ATOM     72  C   UNL A   1      40.233  27.899  27.883  1.00  0.00     0.064 A 
ATOM     73  C   UNL A   1      40.959  27.656  26.704  1.00  0.00     0.173 A 
ATOM     74  C   UNL A   1      39.497  26.815  28.396  1.00  0.00     0.173 A 
ATOM     75  F   UNL A   1      41.717  28.623  26.166  1.00  0.00    -0.203 F 
ATOM     76  C   UNL A   1      40.981  26.394  26.099  1.00  0.00     0.198 A 
ATOM     77  C   UNL A   1      39.515  25.556  27.790  1.00  0.00     0.198 A 
ATOM     78  F   UNL A   1      38.824  26.928  29.551  1.00  0.00    -0.203 F 
ATOM     79  F   UNL A   1      41.742  26.184  25.015  1.00  0.00    -0.200 F 
ATOM     80  C   UNL A   1      40.270  25.341  26.652  1.00  0.00     0.200 A 
ATOM     81  F   UNL A   1      38.851  24.538  28.354  1.00  0.00    -0.200 F 
ATOM     82  F   UNL A   1      40.347  24.116  26.115  1.00  0.00    -0.200 F 
ENDBRANCH  48  72
BRANCH  60  83
ATOM     83  C   UNL A   1      43.287  33.051  29.750  1.00  0.00     0.064 A 
ATOM     84  C   UNL A   1      42.241  33.916  29.391  1.00  0.00     0.173 A 
ATOM     85  C   UNL A   1      44.525  33.234  29.120  1.00  0.00     0.173 A 
ATOM     86  F   UNL A   1      41.052  33.859  30.004  1.00  0.00    -0.203 F 
ATOM     87  C   UNL A   1      42.422  34.892  28.411  1.00  0.00     0.198 A 
ATOM     88  C   UNL A   1      44.713  34.233  28.174  1.00  0.00     0.198 A 
ATOM     89  F   UNL A   1      45.570  32.460  29.455  1.00  0.00    -0.203 F 
ATOM     90  F   UNL A   1      41.403  35.694  28.067  1.00  0.00    -0.200 F 
ATOM     91  C   UNL A   1      43.659  35.054  27.810  1.00  0.00     0.200 A 
ATOM     92  F   UNL A   1      45.924  34.412  27.628  1.00  0.00    -0.200 F 
ATOM     93  F   UNL A   1      43.842  36.014  26.893  1.00  0.00    -0.200 F 
ENDBRANCH  60  83
ENDBRANCH  34  35
ENDBRANCH  26  29
ENDBRANCH  24  25
ENDBRANCH  23  24
ENDBRANCH   1  23
TORSDOF 13
ENDMDL
MODEL 3
REMARK VINA RESULT:     -12.0      1.911      3.100
REMARK SMILES CC(C)(C)c1cc(-n2cnc(C(=O)NCCCCNC(=O)c3ccc(-c4c5nc(c(-c6c(F)c(F)c(F)c(F)c6F)c6ccc([nH]6)c(-c6c(F)c(F)c(F)c(F)c6F)c6nc(c(-c7c(F)c(F)c(F)c(F)c7F)c7ccc4[nH]7)C=C6)C=C5)cc3)c2)nc(Cl)n1
REMARK SMILES IDX 16 1 15 2 14 3 12 4 13 5 11 7 8 8 9 9 85 10 10 11 7 12 5 13
REMARK SMILES IDX 6 14 89 15 87 16 86 17 88 18 2 19 1 20 3 21 4 22 17 23 18 24
REMARK SMILES IDX 19 25 20 26 21 28 22 29 23 30 84 31 24 32 83 33 25 34 26 35
REMARK SMILES IDX 27 36 77 37 28 38 82 39 76 40 78 41 29 42 81 43 75 44 74 45
REMARK SMILES IDX 30 47 62 48 42 49 61 50 43 51 46 52 60 53 79 54 44 55 45 56
REMARK SMILES IDX 59 58 80 59 47 60 31 61 32 62 40 63 33 64 34 65 38 66 41 67
REMARK SMILES IDX 35 68 36 69 39 70 37 71 63 72 64 73 72 74 65 75 66 76 70 77
REMARK SMILES IDX 73 78 67 79 68 80 71 81 69 82 48 83 49 84 57 85 50 86 51 87
REMARK SMILES IDX 55 88 58 89 52 90 53 91 56 92 54 93
REMARK H PARENT 14 6 19 27 78 46 46 57
REMARK Flexibility Score: inf
ROOT
ATOM      1  C   UNL A   1      40.759  20.233  26.813  1.00  0.00     0.023 C 
ENDROOT
BRANCH   1   2
ATOM      2  C   UNL A   1      39.538  20.847  26.123  1.00  0.00     0.116 C 
BRANCH   2   3
ATOM      3  N   UNL A   1      39.543  22.297  26.153  1.00  0.00    -0.351 N 
ATOM      4  C   UNL A   1      38.562  23.258  26.039  1.00  0.00     0.271 C 
ATOM      5  O   UNL A   1      38.950  24.426  26.154  1.00  0.00    -0.267 OA
ATOM      6  H   UNL A   1      40.442  22.677  26.280  1.00  0.00     0.163 HD
BRANCH   4   7
ATOM      7  C   UNL A   1      37.145  22.936  25.810  1.00  0.00     0.146 A 
ATOM      8  N   UNL A   1      35.208  22.042  25.209  1.00  0.00    -0.290 N 
ATOM      9  C   UNL A   1      34.980  23.181  25.926  1.00  0.00     0.206 A 
ATOM     10  C   UNL A   1      36.572  21.928  25.067  1.00  0.00     0.128 A 
ATOM     11  N   UNL A   1      36.112  23.703  26.353  1.00  0.00    -0.231 NA
BRANCH   8  12
ATOM     12  C   UNL A   1      34.274  21.136  24.670  1.00  0.00     0.143 A 
ATOM     13  C   UNL A   1      33.689  18.886  24.237  1.00  0.00     0.053 A 
ATOM     14  C   UNL A   1      34.527  19.784  24.863  1.00  0.00     0.072 A 
ATOM     15  N   UNL A   1      32.724  19.330  23.402  1.00  0.00    -0.222 NA
ATOM     16  C   UNL A   1      32.565  20.661  23.299  1.00  0.00     0.224 A 
ATOM     17  N   UNL A   1      33.262  21.612  23.931  1.00  0.00    -0.200 NA
ATOM     18  Cl  UNL A   1      31.422  21.196  22.151  1.00  0.00    -0.041 Cl
BRANCH  13  19
ATOM     19  C   UNL A   1      33.788  17.372  24.460  1.00  0.00     0.004 C 
ATOM     20  C   UNL A   1      32.699  16.930  25.453  1.00  0.00     0.017 C 
ATOM     21  C   UNL A   1      35.179  17.058  25.044  1.00  0.00     0.017 C 
ATOM     22  C   UNL A   1      33.626  16.532  23.173  1.00  0.00     0.017 C 
ENDBRANCH  13  19
ENDBRANCH   8  12
ENDBRANCH   4   7
ENDBRANCH   2   3
ENDBRANCH   1   2
BRANCH   1  23
ATOM     23  C   UNL A   1      41.610  19.320  25.914  1.00  0.00     0.023 C 
BRANCH  23  24
ATOM     24  C   UNL A   1      43.063  19.143  26.355  1.00  0.00     0.116 C 
BRANCH  24  25
ATOM     25  N   UNL A   1      43.995  19.002  25.236  1.00  0.00    -0.352 N 
ATOM     26  C   UNL A   1      44.460  19.995  24.404  1.00  0.00     0.251 C 
ATOM     27  H   UNL A   1      44.329  18.092  25.060  1.00  0.00     0.163 HD
ATOM     28  O   UNL A   1      44.885  19.732  23.273  1.00  0.00    -0.269 OA
BRANCH  26  29
ATOM     29  C   UNL A   1      44.469  21.383  24.883  1.00  0.00     0.039 A 
ATOM     30  C   UNL A   1      43.465  22.287  24.525  1.00  0.00     0.014 A 
ATOM     31  C   UNL A   1      45.497  21.759  25.746  1.00  0.00     0.014 A 
ATOM     32  C   UNL A   1      43.456  23.545  25.119  1.00  0.00     0.010 A 
ATOM     33  C   UNL A   1      45.417  22.951  26.423  1.00  0.00     0.010 A 
ATOM     34  C   UNL A   1      44.420  23.863  26.092  1.00  0.00    -0.014 A 
BRANCH  34  35
ATOM     35  C   UNL A   1      44.279  25.072  26.900  1.00  0.00     0.031 A 
ATOM     36  C   UNL A   1      45.295  26.115  26.582  1.00  0.00     0.074 A 
ATOM     37  C   UNL A   1      43.207  25.320  27.687  1.00  0.00     0.049 A 
ATOM     38  N   UNL A   1      46.245  26.540  27.345  1.00  0.00    -0.248 NA
ATOM     39  C   UNL A   1      45.370  26.633  25.204  1.00  0.00     0.031 C 
ATOM     40  C   UNL A   1      41.999  24.496  27.824  1.00  0.00     0.029 A 
ATOM     41  N   UNL A   1      42.908  26.412  28.450  1.00  0.00    -0.354 N 
ATOM     42  C   UNL A   1      46.886  27.550  26.629  1.00  0.00     0.074 A 
ATOM     43  C   UNL A   1      46.451  27.417  25.268  1.00  0.00     0.031 C 
ATOM     44  C   UNL A   1      41.018  25.219  28.406  1.00  0.00     0.029 A 
ATOM     45  C   UNL A   1      41.573  26.486  28.841  1.00  0.00     0.049 A 
ATOM     46  H   UNL A   1      43.577  27.090  28.702  1.00  0.00     0.167 HD
ATOM     47  C   UNL A   1      47.451  28.597  27.295  1.00  0.00     0.037 A 
ATOM     48  C   UNL A   1      40.957  27.517  29.471  1.00  0.00     0.037 A 
ATOM     49  C   UNL A   1      47.585  28.277  28.696  1.00  0.00     0.049 A 
ATOM     50  C   UNL A   1      42.010  28.319  30.129  1.00  0.00     0.074 A 
ATOM     51  C   UNL A   1      48.349  27.428  29.464  1.00  0.00     0.029 A 
ATOM     52  N   UNL A   1      46.490  28.627  29.438  1.00  0.00    -0.354 N 
ATOM     53  N   UNL A   1      42.723  27.884  31.130  1.00  0.00    -0.248 NA
ATOM     54  C   UNL A   1      42.538  29.494  29.449  1.00  0.00     0.031 C 
ATOM     55  C   UNL A   1      47.557  27.119  30.612  1.00  0.00     0.029 A 
ATOM     56  C   UNL A   1      46.361  27.834  30.541  1.00  0.00     0.049 A 
ATOM     57  H   UNL A   1      45.874  29.358  29.207  1.00  0.00     0.167 HD
ATOM     58  C   UNL A   1      43.974  28.426  30.914  1.00  0.00     0.074 A 
ATOM     59  C   UNL A   1      43.754  29.539  29.999  1.00  0.00     0.031 C 
ATOM     60  C   UNL A   1      45.095  27.714  31.228  1.00  0.00     0.037 A 
BRANCH  47  61
ATOM     61  C   UNL A   1      47.358  30.053  26.857  1.00  0.00     0.064 A 
ATOM     62  C   UNL A   1      48.496  30.878  27.019  1.00  0.00     0.173 A 
ATOM     63  C   UNL A   1      46.148  30.745  26.635  1.00  0.00     0.173 A 
ATOM     64  F   UNL A   1      49.703  30.338  27.249  1.00  0.00    -0.203 F 
ATOM     65  C   UNL A   1      48.405  32.274  27.057  1.00  0.00     0.198 A 
ATOM     66  C   UNL A   1      46.070  32.139  26.627  1.00  0.00     0.198 A 
ATOM     67  F   UNL A   1      44.970  30.121  26.534  1.00  0.00    -0.203 F 
ATOM     68  F   UNL A   1      49.489  33.005  27.352  1.00  0.00    -0.200 F 
ATOM     69  C   UNL A   1      47.189  32.903  26.872  1.00  0.00     0.200 A 
ATOM     70  F   UNL A   1      44.875  32.727  26.470  1.00  0.00    -0.200 F 
ATOM     71  F   UNL A   1      47.084  34.233  26.977  1.00  0.00    -0.200 F 
ENDBRANCH  47  61
BRANCH  48  72
ATOM     72  C   UNL A   1      39.555  27.987  29.366  1.00  0.00     0.064 A 
ATOM     73  C   UNL A   1      38.736  28.102  30.504  1.00  0.00     0.173 A 
ATOM     74  C   UNL A   1      39.084  28.611  28.195  1.00  0.00     0.173 A 
ATOM     75  F   UNL A   1      39.124  27.568  31.671  1.00  0.00    -0.203 F 
ATOM     76  C   UNL A   1      37.542  28.832  30.482  1.00  0.00     0.198 A 
ATOM     77  C   UNL A   1      37.890  29.336  28.172  1.00  0.00     0.198 A 
ATOM     78  F   UNL A   1      39.823  28.613  27.076  1.00  0.00    -0.203 F 
ATOM     79  F   UNL A   1      36.825  28.977  31.605  1.00  0.00    -0.200 F 
ATOM     80  C   UNL A   1      37.128  29.461  29.318  1.00  0.00     0.200 A 
ATOM     81  F   UNL A   1      37.520  29.968  27.050  1.00  0.00    -0.200 F 
ATOM     82  F   UNL A   1      36.023  30.219  29.314  1.00  0.00    -0.200 F 
ENDBRANCH  48  72
BRANCH  60  83
ATOM     83  C   UNL A   1      44.956  26.628  32.251  1.00  0.00     0.064 A 
ATOM     84  C   UNL A   1      44.708  25.277  31.960  1.00  0.00     0.173 A 
ATOM     85  C   UNL A   1      45.167  26.974  33.592  1.00  0.00     0.173 A 
ATOM     86  F   UNL A   1      44.577  24.852  30.697  1.00  0.00    -0.203 F 
ATOM     87  C   UNL A   1      44.633  24.326  32.978  1.00  0.00     0.198 A 
ATOM     88  C   UNL A   1      45.130  26.018  34.599  1.00  0.00     0.198 A 
ATOM     89  F   UNL A   1      45.447  28.245  33.922  1.00  0.00    -0.203 F 
ATOM     90  F   UNL A   1      44.373  23.044  32.680  1.00  0.00    -0.200 F 
ATOM     91  C   UNL A   1      44.851  24.697  34.294  1.00  0.00     0.200 A 
ATOM     92  F   UNL A   1      45.387  26.376  35.865  1.00  0.00    -0.200 F 
ATOM     93  F   UNL A   1      44.813  23.777  35.268  1.00  0.00    -0.200 F 
ENDBRANCH  60  83
ENDBRANCH  34  35
ENDBRANCH  26  29
ENDBRANCH  24  25
ENDBRANCH  23  24
ENDBRANCH   1  23
TORSDOF 13
ENDMDL
