MODEL 1
REMARK VINA RESULT:     -13.2      0.000      0.000
REMARK SMILES O=C(C[C@@H](NS(=O)(=O)c1ccc2c(c1)OCCO2)c1ccccc1)NCCCCNC(=O)c1ccc(-c2c3nc(c(-c4c(F)c(F)c(F)c(F)c4F)c4ccc([nH]4)c(-c4c(F)c(F)c(F)c(F)c4F)c4nc(c(-c5c(F)c(F)c(F)c(F)c5F)c5ccc2[nH]5)C=C4)C=C3)cc1
REMARK SMILES IDX 26 1 25 2 1 3 2 4 3 6 4 7 5 8 6 10 7 11 8 12 9 13 10 14
REMARK SMILES IDX 14 15 11 16 13 17 12 18 15 19 18 20 16 21 17 22 19 23 20 24
REMARK SMILES IDX 24 25 21 26 23 27 22 28 27 29 28 30 29 31 30 32 31 33 32 35
REMARK SMILES IDX 33 36 34 37 95 38 35 39 94 40 36 41 37 42 38 43 88 44 39 45
REMARK SMILES IDX 93 46 87 47 89 48 40 49 92 50 86 51 85 52 41 54 73 55 53 56
REMARK SMILES IDX 72 57 54 58 57 59 71 60 90 61 55 62 56 63 70 65 91 66 58 67
REMARK SMILES IDX 42 68 43 69 51 70 44 71 45 72 49 73 52 74 46 75 47 76 50 77
REMARK SMILES IDX 48 78 74 79 75 80 83 81 76 82 77 83 81 84 84 85 78 86 79 87
REMARK SMILES IDX 82 88 80 89 59 90 60 91 68 92 61 93 62 94 66 95 69 96 63 97
REMARK SMILES IDX 64 98 67 99 65 100
REMARK H PARENT 25 5 5 9 30 34 89 53 57 64
REMARK Flexibility Score: inf
ROOT
ATOM      1  C   UNL A   1      32.176  29.861  27.161  1.00  0.00     0.116 C 
ENDROOT
BRANCH   1   2
ATOM      2  N   UNL A   1      33.115  28.913  26.596  1.00  0.00    -0.356 N 
ATOM      3  O   UNL A   1      31.649  27.153  26.722  1.00  0.00    -0.275 OA
ATOM      4  C   UNL A   1      32.755  27.593  26.429  1.00  0.00     0.221 C 
ATOM      5  H   UNL A   1      34.015  29.213  26.331  1.00  0.00     0.163 HD
BRANCH   4   6
ATOM      6  C   UNL A   1      33.828  26.721  25.827  1.00  0.00     0.124 C 
BRANCH   6   7
ATOM      7  C   UNL A   1      33.194  25.470  25.191  1.00  0.00     0.109 C 
BRANCH   7   8
ATOM      8  N   UNL A   1      33.693  25.350  23.796  1.00  0.00    -0.203 NA
ATOM      9  H   UNL A   1      34.279  24.515  23.763  1.00  0.00     0.142 HD
BRANCH   8  10
ATOM     10  S   UNL A   1      32.595  25.228  22.521  1.00  0.00     0.241 S 
ATOM     11  O   UNL A   1      33.279  25.626  21.306  1.00  0.00    -0.207 OA
ATOM     12  O   UNL A   1      32.005  23.919  22.659  1.00  0.00    -0.207 OA
BRANCH  10  13
ATOM     13  C   UNL A   1      31.326  26.412  22.866  1.00  0.00     0.086 A 
ATOM     14  C   UNL A   1      30.230  26.017  23.641  1.00  0.00     0.026 A 
ATOM     15  C   UNL A   1      31.366  27.678  22.276  1.00  0.00     0.072 A 
ATOM     16  C   UNL A   1      29.140  26.878  23.781  1.00  0.00     0.052 A 
ATOM     17  C   UNL A   1      30.255  28.509  22.376  1.00  0.00     0.162 A 
ATOM     18  C   UNL A   1      29.136  28.099  23.109  1.00  0.00     0.161 A 
ATOM     19  O   UNL A   1      30.311  29.683  21.670  1.00  0.00    -0.486 OA
ATOM     20  O   UNL A   1      27.983  28.838  23.177  1.00  0.00    -0.486 OA
ATOM     21  C   UNL A   1      29.163  30.511  21.882  1.00  0.00     0.271 C 
ATOM     22  C   UNL A   1      27.889  29.694  22.033  1.00  0.00     0.271 C 
ENDBRANCH  10  13
ENDBRANCH   8  10
ENDBRANCH   7   8
BRANCH   7  23
ATOM     23  C   UNL A   1      33.513  24.231  26.018  1.00  0.00    -0.029 A 
ATOM     24  C   UNL A   1      32.536  23.700  26.877  1.00  0.00     0.005 A 
ATOM     25  C   UNL A   1      34.749  23.568  25.928  1.00  0.00     0.005 A 
ATOM     26  C   UNL A   1      32.791  22.548  27.625  1.00  0.00     0.000 A 
ATOM     27  C   UNL A   1      35.007  22.423  26.685  1.00  0.00     0.000 A 
ATOM     28  C   UNL A   1      34.029  21.915  27.534  1.00  0.00     0.000 A 
ENDBRANCH   7  23
ENDBRANCH   6   7
ENDBRANCH   4   6
ENDBRANCH   1   2
BRANCH   1  29
ATOM     29  C   UNL A   1      31.525  30.752  26.108  1.00  0.00     0.023 C 
BRANCH  29  30
ATOM     30  C   UNL A   1      31.387  32.227  26.493  1.00  0.00     0.023 C 
BRANCH  30  31
ATOM     31  C   UNL A   1      32.569  32.827  27.252  1.00  0.00     0.116 C 
BRANCH  31  32
ATOM     32  N   UNL A   1      32.342  34.206  27.650  1.00  0.00    -0.352 N 
ATOM     33  C   UNL A   1      32.969  34.956  28.616  1.00  0.00     0.251 C 
ATOM     34  H   UNL A   1      31.632  34.673  27.153  1.00  0.00     0.163 HD
ATOM     35  O   UNL A   1      32.540  36.071  28.896  1.00  0.00    -0.269 OA
BRANCH  33  36
ATOM     36  C   UNL A   1      34.140  34.420  29.347  1.00  0.00     0.039 A 
ATOM     37  C   UNL A   1      33.925  33.773  30.569  1.00  0.00     0.014 A 
ATOM     38  C   UNL A   1      35.439  34.569  28.856  1.00  0.00     0.014 A 
ATOM     39  C   UNL A   1      35.003  33.219  31.264  1.00  0.00     0.010 A 
ATOM     40  C   UNL A   1      36.507  33.969  29.521  1.00  0.00     0.010 A 
ATOM     41  C   UNL A   1      36.299  33.285  30.729  1.00  0.00    -0.014 A 
BRANCH  41  42
ATOM     42  C   UNL A   1      37.445  32.637  31.413  1.00  0.00     0.031 A 
ATOM     43  C   UNL A   1      38.159  31.481  30.770  1.00  0.00     0.074 A 
ATOM     44  C   UNL A   1      37.800  33.044  32.646  1.00  0.00     0.049 A 
ATOM     45  N   UNL A   1      39.124  30.736  31.248  1.00  0.00    -0.248 NA
ATOM     46  C   UNL A   1      37.714  31.101  29.421  1.00  0.00     0.031 C 
ATOM     47  C   UNL A   1      37.164  34.129  33.394  1.00  0.00     0.029 A 
ATOM     48  N   UNL A   1      38.778  32.584  33.493  1.00  0.00    -0.354 N 
ATOM     49  C   UNL A   1      39.384  29.785  30.270  1.00  0.00     0.074 A 
ATOM     50  C   UNL A   1      38.459  30.031  29.184  1.00  0.00     0.031 C 
ATOM     51  C   UNL A   1      37.773  34.257  34.585  1.00  0.00     0.029 A 
ATOM     52  C   UNL A   1      38.822  33.248  34.694  1.00  0.00     0.049 A 
ATOM     53  H   UNL A   1      39.387  31.847  33.263  1.00  0.00     0.167 HD
ATOM     54  C   UNL A   1      40.319  28.806  30.274  1.00  0.00     0.037 A 
ATOM     55  C   UNL A   1      39.613  33.058  35.766  1.00  0.00     0.037 A 
ATOM     56  C   UNL A   1      41.265  28.584  31.335  1.00  0.00     0.049 A 
ATOM     57  C   UNL A   1      40.654  31.975  35.737  1.00  0.00     0.074 A 
ATOM     58  C   UNL A   1      42.297  27.663  31.393  1.00  0.00     0.029 A 
ATOM     59  N   UNL A   1      41.293  29.293  32.526  1.00  0.00    -0.354 N 
ATOM     60  N   UNL A   1      40.930  31.120  34.783  1.00  0.00    -0.248 NA
ATOM     61  C   UNL A   1      41.495  31.831  36.934  1.00  0.00     0.031 C 
ATOM     62  C   UNL A   1      42.934  27.797  32.633  1.00  0.00     0.029 A 
ATOM     63  C   UNL A   1      42.317  28.821  33.332  1.00  0.00     0.049 A 
ATOM     64  H   UNL A   1      40.679  30.025  32.762  1.00  0.00     0.167 HD
ATOM     65  C   UNL A   1      41.987  30.353  35.252  1.00  0.00     0.074 A 
ATOM     66  C   UNL A   1      42.310  30.849  36.574  1.00  0.00     0.031 C 
ATOM     67  C   UNL A   1      42.631  29.331  34.641  1.00  0.00     0.037 A 
BRANCH  54  68
ATOM     68  C   UNL A   1      40.367  27.895  29.084  1.00  0.00     0.064 A 
ATOM     69  C   UNL A   1      39.633  26.702  29.047  1.00  0.00     0.173 A 
ATOM     70  C   UNL A   1      41.127  28.238  27.957  1.00  0.00     0.173 A 
ATOM     71  F   UNL A   1      38.899  26.327  30.105  1.00  0.00    -0.203 F 
ATOM     72  C   UNL A   1      39.673  25.872  27.929  1.00  0.00     0.198 A 
ATOM     73  C   UNL A   1      41.150  27.417  26.833  1.00  0.00     0.198 A 
ATOM     74  F   UNL A   1      41.844  29.372  27.943  1.00  0.00    -0.203 F 
ATOM     75  F   UNL A   1      38.991  24.718  27.928  1.00  0.00    -0.200 F 
ATOM     76  C   UNL A   1      40.427  26.233  26.822  1.00  0.00     0.200 A 
ATOM     77  F   UNL A   1      41.871  27.770  25.759  1.00  0.00    -0.200 F 
ATOM     78  F   UNL A   1      40.462  25.436  25.745  1.00  0.00    -0.200 F 
ENDBRANCH  54  68
BRANCH  55  79
ATOM     79  C   UNL A   1      39.470  33.939  36.952  1.00  0.00     0.064 A 
ATOM     80  C   UNL A   1      40.095  35.192  36.991  1.00  0.00     0.173 A 
ATOM     81  C   UNL A   1      38.709  33.549  38.062  1.00  0.00     0.173 A 
ATOM     82  F   UNL A   1      40.851  35.595  35.959  1.00  0.00    -0.203 F 
ATOM     83  C   UNL A   1      39.973  36.020  38.104  1.00  0.00     0.198 A 
ATOM     84  C   UNL A   1      38.571  34.387  39.166  1.00  0.00     0.198 A 
ATOM     85  F   UNL A   1      38.091  32.359  38.070  1.00  0.00    -0.203 F 
ATOM     86  F   UNL A   1      40.607  37.200  38.131  1.00  0.00    -0.200 F 
ATOM     87  C   UNL A   1      39.208  35.620  39.188  1.00  0.00     0.200 A 
ATOM     88  F   UNL A   1      37.823  34.001  40.209  1.00  0.00    -0.200 F 
ATOM     89  F   UNL A   1      39.088  36.418  40.258  1.00  0.00    -0.200 F 
ENDBRANCH  55  79
BRANCH  67  90
ATOM     90  C   UNL A   1      43.769  28.699  35.382  1.00  0.00     0.064 A 
ATOM     91  C   UNL A   1      45.087  29.148  35.217  1.00  0.00     0.173 A 
ATOM     92  C   UNL A   1      43.534  27.659  36.293  1.00  0.00     0.173 A 
ATOM     93  F   UNL A   1      45.362  30.128  34.343  1.00  0.00    -0.203 F 
ATOM     94  C   UNL A   1      46.133  28.566  35.928  1.00  0.00     0.198 A 
ATOM     95  C   UNL A   1      44.579  27.093  37.017  1.00  0.00     0.198 A 
ATOM     96  F   UNL A   1      42.289  27.198  36.486  1.00  0.00    -0.203 F 
ATOM     97  F   UNL A   1      47.391  28.986  35.730  1.00  0.00    -0.200 F 
ATOM     98  C   UNL A   1      45.878  27.545  36.831  1.00  0.00     0.200 A 
ATOM     99  F   UNL A   1      44.331  26.111  37.894  1.00  0.00    -0.200 F 
ATOM    100  F   UNL A   1      46.886  26.987  37.517  1.00  0.00    -0.200 F 
ENDBRANCH  67  90
ENDBRANCH  41  42
ENDBRANCH  33  36
ENDBRANCH  31  32
ENDBRANCH  30  31
ENDBRANCH  29  30
ENDBRANCH   1  29
TORSDOF 16
ENDMDL
MODEL 2
REMARK VINA RESULT:     -13.2      0.974      1.946
REMARK SMILES O=C(C[C@@H](NS(=O)(=O)c1ccc2c(c1)OCCO2)c1ccccc1)NCCCCNC(=O)c1ccc(-c2c3nc(c(-c4c(F)c(F)c(F)c(F)c4F)c4ccc([nH]4)c(-c4c(F)c(F)c(F)c(F)c4F)c4nc(c(-c5c(F)c(F)c(F)c(F)c5F)c5ccc2[nH]5)C=C4)C=C3)cc1
REMARK SMILES IDX 26 1 25 2 1 3 2 4 3 6 4 7 5 8 6 10 7 11 8 12 9 13 10 14
REMARK SMILES IDX 14 15 11 16 13 17 12 18 15 19 18 20 16 21 17 22 19 23 20 24
REMARK SMILES IDX 24 25 21 26 23 27 22 28 27 29 28 30 29 31 30 32 31 33 32 35
REMARK SMILES IDX 33 36 34 37 95 38 35 39 94 40 36 41 37 42 38 43 88 44 39 45
REMARK SMILES IDX 93 46 87 47 89 48 40 49 92 50 86 51 85 52 41 54 73 55 53 56
REMARK SMILES IDX 72 57 54 58 57 59 71 60 90 61 55 62 56 63 70 65 91 66 58 67
REMARK SMILES IDX 42 68 43 69 51 70 44 71 45 72 49 73 52 74 46 75 47 76 50 77
REMARK SMILES IDX 48 78 74 79 75 80 83 81 76 82 77 83 81 84 84 85 78 86 79 87
REMARK SMILES IDX 82 88 80 89 59 90 60 91 68 92 61 93 62 94 66 95 69 96 63 97
REMARK SMILES IDX 64 98 67 99 65 100
REMARK H PARENT 25 5 5 9 30 34 89 53 57 64
REMARK Flexibility Score: inf
ROOT
ATOM      1  C   UNL A   1      31.510  28.742  25.937  1.00  0.00     0.116 C 
ENDROOT
BRANCH   1   2
ATOM      2  N   UNL A   1      32.714  27.948  25.797  1.00  0.00    -0.356 N 
ATOM      3  O   UNL A   1      31.746  26.052  26.652  1.00  0.00    -0.275 OA
ATOM      4  C   UNL A   1      32.725  26.627  26.189  1.00  0.00     0.221 C 
ATOM      5  H   UNL A   1      33.528  28.355  25.420  1.00  0.00     0.163 HD
BRANCH   4   6
ATOM      6  C   UNL A   1      34.042  25.921  25.982  1.00  0.00     0.124 C 
BRANCH   6   7
ATOM      7  C   UNL A   1      33.953  24.990  24.758  1.00  0.00     0.109 C 
BRANCH   7   8
ATOM      8  N   UNL A   1      33.878  25.831  23.535  1.00  0.00    -0.203 NA
ATOM      9  H   UNL A   1      34.778  25.745  23.062  1.00  0.00     0.142 HD
BRANCH   8  10
ATOM     10  S   UNL A   1      32.687  25.525  22.380  1.00  0.00     0.241 S 
ATOM     11  O   UNL A   1      33.226  25.877  21.081  1.00  0.00    -0.207 OA
ATOM     12  O   UNL A   1      32.223  24.189  22.665  1.00  0.00    -0.207 OA
BRANCH  10  13
ATOM     13  C   UNL A   1      31.358  26.631  22.756  1.00  0.00     0.086 A 
ATOM     14  C   UNL A   1      30.278  26.155  23.507  1.00  0.00     0.026 A 
ATOM     15  C   UNL A   1      31.339  27.918  22.212  1.00  0.00     0.072 A 
ATOM     16  C   UNL A   1      29.146  26.954  23.669  1.00  0.00     0.052 A 
ATOM     17  C   UNL A   1      30.188  28.689  22.332  1.00  0.00     0.162 A 
ATOM     18  C   UNL A   1      29.085  28.197  23.041  1.00  0.00     0.161 A 
ATOM     19  O   UNL A   1      30.189  29.888  21.669  1.00  0.00    -0.486 OA
ATOM     20  O   UNL A   1      27.896  28.875  23.126  1.00  0.00    -0.486 OA
ATOM     21  C   UNL A   1      29.000  30.651  21.901  1.00  0.00     0.271 C 
ATOM     22  C   UNL A   1      27.768  29.767  22.013  1.00  0.00     0.271 C 
ENDBRANCH  10  13
ENDBRANCH   8  10
ENDBRANCH   7   8
BRANCH   7  23
ATOM     23  C   UNL A   1      35.144  24.041  24.723  1.00  0.00    -0.029 A 
ATOM     24  C   UNL A   1      35.510  23.431  23.512  1.00  0.00     0.005 A 
ATOM     25  C   UNL A   1      35.925  23.776  25.862  1.00  0.00     0.005 A 
ATOM     26  C   UNL A   1      36.615  22.578  23.445  1.00  0.00     0.000 A 
ATOM     27  C   UNL A   1      37.022  22.914  25.796  1.00  0.00     0.000 A 
ATOM     28  C   UNL A   1      37.365  22.315  24.588  1.00  0.00     0.000 A 
ENDBRANCH   7  23
ENDBRANCH   6   7
ENDBRANCH   4   6
ENDBRANCH   1   2
BRANCH   1  29
ATOM     29  C   UNL A   1      31.673  30.166  25.414  1.00  0.00     0.023 C 
BRANCH  29  30
ATOM     30  C   UNL A   1      31.400  31.274  26.434  1.00  0.00     0.023 C 
BRANCH  30  31
ATOM     31  C   UNL A   1      32.631  32.012  26.956  1.00  0.00     0.116 C 
BRANCH  31  32
ATOM     32  N   UNL A   1      32.361  33.403  27.277  1.00  0.00    -0.352 N 
ATOM     33  C   UNL A   1      32.977  34.230  28.186  1.00  0.00     0.251 C 
ATOM     34  H   UNL A   1      31.627  33.815  26.767  1.00  0.00     0.163 HD
ATOM     35  O   UNL A   1      32.512  35.344  28.409  1.00  0.00    -0.269 OA
BRANCH  33  36
ATOM     36  C   UNL A   1      34.178  33.780  28.925  1.00  0.00     0.039 A 
ATOM     37  C   UNL A   1      34.020  32.830  29.940  1.00  0.00     0.014 A 
ATOM     38  C   UNL A   1      35.445  34.298  28.646  1.00  0.00     0.014 A 
ATOM     39  C   UNL A   1      35.137  32.352  30.628  1.00  0.00     0.010 A 
ATOM     40  C   UNL A   1      36.565  33.782  29.296  1.00  0.00     0.010 A 
ATOM     41  C   UNL A   1      36.423  32.802  30.289  1.00  0.00    -0.014 A 
BRANCH  41  42
ATOM     42  C   UNL A   1      37.630  32.251  30.956  1.00  0.00     0.031 A 
ATOM     43  C   UNL A   1      38.443  31.179  30.288  1.00  0.00     0.074 A 
ATOM     44  C   UNL A   1      37.953  32.668  32.195  1.00  0.00     0.049 A 
ATOM     45  N   UNL A   1      39.477  30.518  30.747  1.00  0.00    -0.248 NA
ATOM     46  C   UNL A   1      38.027  30.783  28.934  1.00  0.00     0.031 C 
ATOM     47  C   UNL A   1      37.223  33.674  32.966  1.00  0.00     0.029 A 
ATOM     48  N   UNL A   1      38.974  32.285  33.028  1.00  0.00    -0.354 N 
ATOM     49  C   UNL A   1      39.818  29.614  29.751  1.00  0.00     0.074 A 
ATOM     50  C   UNL A   1      38.867  29.791  28.674  1.00  0.00     0.031 C 
ATOM     51  C   UNL A   1      37.825  33.838  34.155  1.00  0.00     0.029 A 
ATOM     52  C   UNL A   1      38.965  32.928  34.241  1.00  0.00     0.049 A 
ATOM     53  H   UNL A   1      39.648  31.612  32.781  1.00  0.00     0.167 HD
ATOM     54  C   UNL A   1      40.840  28.726  29.732  1.00  0.00     0.037 A 
ATOM     55  C   UNL A   1      39.777  32.794  35.305  1.00  0.00     0.037 A 
ATOM     56  C   UNL A   1      41.809  28.573  30.784  1.00  0.00     0.049 A 
ATOM     57  C   UNL A   1      40.914  31.813  35.251  1.00  0.00     0.074 A 
ATOM     58  C   UNL A   1      42.923  27.752  30.820  1.00  0.00     0.029 A 
ATOM     59  N   UNL A   1      41.779  29.261  31.987  1.00  0.00    -0.354 N 
ATOM     60  N   UNL A   1      41.262  31.005  34.280  1.00  0.00    -0.248 NA
ATOM     61  C   UNL A   1      41.772  31.727  36.441  1.00  0.00     0.031 C 
ATOM     62  C   UNL A   1      43.553  27.922  32.059  1.00  0.00     0.029 A 
ATOM     63  C   UNL A   1      42.847  28.872  32.780  1.00  0.00     0.049 A 
ATOM     64  H   UNL A   1      41.101  29.928  32.241  1.00  0.00     0.167 HD
ATOM     65  C   UNL A   1      42.389  30.331  34.730  1.00  0.00     0.074 A 
ATOM     66  C   UNL A   1      42.673  30.831  36.059  1.00  0.00     0.031 C 
ATOM     67  C   UNL A   1      43.121  29.385  34.097  1.00  0.00     0.037 A 
BRANCH  54  68
ATOM     68  C   UNL A   1      40.965  27.845  28.525  1.00  0.00     0.064 A 
ATOM     69  C   UNL A   1      40.232  26.656  28.409  1.00  0.00     0.173 A 
ATOM     70  C   UNL A   1      41.798  28.213  27.460  1.00  0.00     0.173 A 
ATOM     71  F   UNL A   1      39.429  26.257  29.407  1.00  0.00    -0.203 F 
ATOM     72  C   UNL A   1      40.344  25.854  27.275  1.00  0.00     0.198 A 
ATOM     73  C   UNL A   1      41.893  27.421  26.319  1.00  0.00     0.198 A 
ATOM     74  F   UNL A   1      42.517  29.345  27.522  1.00  0.00    -0.203 F 
ATOM     75  F   UNL A   1      39.662  24.703  27.200  1.00  0.00    -0.200 F 
ATOM     76  C   UNL A   1      41.171  26.240  26.230  1.00  0.00     0.200 A 
ATOM     77  F   UNL A   1      42.685  27.798  25.305  1.00  0.00    -0.200 F 
ATOM     78  F   UNL A   1      41.275  25.470  25.138  1.00  0.00    -0.200 F 
ENDBRANCH  54  68
BRANCH  55  79
ATOM     79  C   UNL A   1      39.561  33.636  36.509  1.00  0.00     0.064 A 
ATOM     80  C   UNL A   1      38.801  33.160  37.585  1.00  0.00     0.173 A 
ATOM     81  C   UNL A   1      40.108  34.921  36.607  1.00  0.00     0.173 A 
ATOM     82  F   UNL A   1      38.241  31.943  37.523  1.00  0.00    -0.203 F 
ATOM     83  C   UNL A   1      38.586  33.947  38.714  1.00  0.00     0.198 A 
ATOM     84  C   UNL A   1      39.909  35.700  37.745  1.00  0.00     0.198 A 
ATOM     85  F   UNL A   1      40.844  35.419  35.602  1.00  0.00    -0.203 F 
ATOM     86  F   UNL A   1      37.828  33.483  39.717  1.00  0.00    -0.200 F 
ATOM     87  C   UNL A   1      39.143  35.213  38.795  1.00  0.00     0.200 A 
ATOM     88  F   UNL A   1      40.456  36.920  37.825  1.00  0.00    -0.200 F 
ATOM     89  F   UNL A   1      38.939  35.969  39.883  1.00  0.00    -0.200 F 
ENDBRANCH  55  79
BRANCH  67  90
ATOM     90  C   UNL A   1      44.318  28.849  34.820  1.00  0.00     0.064 A 
ATOM     91  C   UNL A   1      44.232  27.708  35.631  1.00  0.00     0.173 A 
ATOM     92  C   UNL A   1      45.571  29.461  34.671  1.00  0.00     0.173 A 
ATOM     93  F   UNL A   1      43.051  27.100  35.817  1.00  0.00    -0.203 F 
ATOM     94  C   UNL A   1      45.357  27.207  36.280  1.00  0.00     0.198 A 
ATOM     95  C   UNL A   1      46.698  28.946  35.306  1.00  0.00     0.198 A 
ATOM     96  F   UNL A   1      45.703  30.553  33.904  1.00  0.00    -0.203 F 
ATOM     97  F   UNL A   1      45.247  26.136  37.079  1.00  0.00    -0.200 F 
ATOM     98  C   UNL A   1      46.589  27.823  36.113  1.00  0.00     0.200 A 
ATOM     99  F   UNL A   1      47.888  29.537  35.139  1.00  0.00    -0.200 F 
ATOM    100  F   UNL A   1      47.672  27.338  36.737  1.00  0.00    -0.200 F 
ENDBRANCH  67  90
ENDBRANCH  41  42
ENDBRANCH  33  36
ENDBRANCH  31  32
ENDBRANCH  30  31
ENDBRANCH  29  30
ENDBRANCH   1  29
TORSDOF 16
ENDMDL
MODEL 3
REMARK VINA RESULT:     -13.1      5.422     10.738
REMARK SMILES O=C(C[C@@H](NS(=O)(=O)c1ccc2c(c1)OCCO2)c1ccccc1)NCCCCNC(=O)c1ccc(-c2c3nc(c(-c4c(F)c(F)c(F)c(F)c4F)c4ccc([nH]4)c(-c4c(F)c(F)c(F)c(F)c4F)c4nc(c(-c5c(F)c(F)c(F)c(F)c5F)c5ccc2[nH]5)C=C4)C=C3)cc1
REMARK SMILES IDX 26 1 25 2 1 3 2 4 3 6 4 7 5 8 6 10 7 11 8 12 9 13 10 14
REMARK SMILES IDX 14 15 11 16 13 17 12 18 15 19 18 20 16 21 17 22 19 23 20 24
REMARK SMILES IDX 24 25 21 26 23 27 22 28 27 29 28 30 29 31 30 32 31 33 32 35
REMARK SMILES IDX 33 36 34 37 95 38 35 39 94 40 36 41 37 42 38 43 88 44 39 45
REMARK SMILES IDX 93 46 87 47 89 48 40 49 92 50 86 51 85 52 41 54 73 55 53 56
REMARK SMILES IDX 72 57 54 58 57 59 71 60 90 61 55 62 56 63 70 65 91 66 58 67
REMARK SMILES IDX 42 68 43 69 51 70 44 71 45 72 49 73 52 74 46 75 47 76 50 77
REMARK SMILES IDX 48 78 74 79 75 80 83 81 76 82 77 83 81 84 84 85 78 86 79 87
REMARK SMILES IDX 82 88 80 89 59 90 60 91 68 92 61 93 62 94 66 95 69 96 63 97
REMARK SMILES IDX 64 98 67 99 65 100
REMARK H PARENT 25 5 5 9 30 34 89 53 57 64
REMARK Flexibility Score: inf
ROOT
ATOM      1  C   UNL A   1      37.227  22.021  24.713  1.00  0.00     0.116 C 
ENDROOT
BRANCH   1   2
ATOM      2  N   UNL A   1      36.423  22.974  25.451  1.00  0.00    -0.356 N 
ATOM      3  O   UNL A   1      35.326  23.728  23.582  1.00  0.00    -0.275 OA
ATOM      4  C   UNL A   1      35.516  23.777  24.793  1.00  0.00     0.221 C 
ATOM      5  H   UNL A   1      36.524  23.048  26.428  1.00  0.00     0.163 HD
BRANCH   4   6
ATOM      6  C   UNL A   1      34.746  24.717  25.685  1.00  0.00     0.124 C 
BRANCH   6   7
ATOM      7  C   UNL A   1      33.772  25.562  24.843  1.00  0.00     0.109 C 
BRANCH   7   8
ATOM      8  N   UNL A   1      32.622  24.704  24.455  1.00  0.00    -0.203 NA
ATOM      9  H   UNL A   1      31.895  24.850  25.156  1.00  0.00     0.142 HD
BRANCH   8  10
ATOM     10  S   UNL A   1      31.896  24.908  22.945  1.00  0.00     0.241 S 
ATOM     11  O   UNL A   1      32.931  25.287  22.002  1.00  0.00    -0.207 OA
ATOM     12  O   UNL A   1      31.098  23.723  22.751  1.00  0.00    -0.207 OA
BRANCH  10  13
ATOM     13  C   UNL A   1      30.779  26.267  23.131  1.00  0.00     0.086 A 
ATOM     14  C   UNL A   1      29.602  26.075  23.862  1.00  0.00     0.026 A 
ATOM     15  C   UNL A   1      31.015  27.469  22.459  1.00  0.00     0.072 A 
ATOM     16  C   UNL A   1      28.629  27.076  23.877  1.00  0.00     0.052 A 
ATOM     17  C   UNL A   1      30.020  28.440  22.434  1.00  0.00     0.162 A 
ATOM     18  C   UNL A   1      28.820  28.233  23.124  1.00  0.00     0.161 A 
ATOM     19  O   UNL A   1      30.266  29.541  21.654  1.00  0.00    -0.486 OA
ATOM     20  O   UNL A   1      27.772  29.117  23.071  1.00  0.00    -0.486 OA
ATOM     21  C   UNL A   1      29.228  30.522  21.739  1.00  0.00     0.271 C 
ATOM     22  C   UNL A   1      27.852  29.889  21.868  1.00  0.00     0.271 C 
ENDBRANCH  10  13
ENDBRANCH   8  10
ENDBRANCH   7   8
BRANCH   7  23
ATOM     23  C   UNL A   1      33.325  26.794  25.620  1.00  0.00    -0.029 A 
ATOM     24  C   UNL A   1      32.236  26.700  26.503  1.00  0.00     0.005 A 
ATOM     25  C   UNL A   1      33.991  28.028  25.516  1.00  0.00     0.005 A 
ATOM     26  C   UNL A   1      31.823  27.806  27.250  1.00  0.00     0.000 A 
ATOM     27  C   UNL A   1      33.569  29.135  26.255  1.00  0.00     0.000 A 
ATOM     28  C   UNL A   1      32.485  29.024  27.120  1.00  0.00     0.000 A 
ENDBRANCH   7  23
ENDBRANCH   6   7
ENDBRANCH   4   6
ENDBRANCH   1   2
BRANCH   1  29
ATOM     29  C   UNL A   1      36.819  20.574  24.970  1.00  0.00     0.023 C 
BRANCH  29  30
ATOM     30  C   UNL A   1      37.976  19.578  25.084  1.00  0.00     0.023 C 
BRANCH  30  31
ATOM     31  C   UNL A   1      39.221  20.089  25.804  1.00  0.00     0.116 C 
BRANCH  31  32
ATOM     32  N   UNL A   1      40.271  19.089  25.895  1.00  0.00    -0.352 N 
ATOM     33  C   UNL A   1      41.618  19.247  26.113  1.00  0.00     0.251 C 
ATOM     34  H   UNL A   1      39.972  18.158  25.783  1.00  0.00     0.163 HD
ATOM     35  O   UNL A   1      42.369  18.280  26.020  1.00  0.00    -0.269 OA
BRANCH  33  36
ATOM     36  C   UNL A   1      42.182  20.580  26.427  1.00  0.00     0.039 A 
ATOM     37  C   UNL A   1      42.653  21.370  25.373  1.00  0.00     0.014 A 
ATOM     38  C   UNL A   1      42.272  21.044  27.741  1.00  0.00     0.014 A 
ATOM     39  C   UNL A   1      43.152  22.649  25.630  1.00  0.00     0.010 A 
ATOM     40  C   UNL A   1      42.719  22.341  27.991  1.00  0.00     0.010 A 
ATOM     41  C   UNL A   1      43.159  23.157  26.938  1.00  0.00    -0.014 A 
BRANCH  41  42
ATOM     42  C   UNL A   1      43.614  24.541  27.222  1.00  0.00     0.031 A 
ATOM     43  C   UNL A   1      42.641  25.572  27.721  1.00  0.00     0.074 A 
ATOM     44  C   UNL A   1      44.889  24.888  26.964  1.00  0.00     0.049 A 
ATOM     45  N   UNL A   1      42.832  26.849  27.945  1.00  0.00    -0.248 NA
ATOM     46  C   UNL A   1      41.269  25.112  27.982  1.00  0.00     0.031 C 
ATOM     47  C   UNL A   1      45.920  23.991  26.443  1.00  0.00     0.029 A 
ATOM     48  N   UNL A   1      45.531  26.095  27.095  1.00  0.00    -0.354 N 
ATOM     49  C   UNL A   1      41.601  27.348  28.349  1.00  0.00     0.074 A 
ATOM     50  C   UNL A   1      40.665  26.244  28.314  1.00  0.00     0.031 C 
ATOM     51  C   UNL A   1      47.069  24.675  26.307  1.00  0.00     0.029 A 
ATOM     52  C   UNL A   1      46.847  26.062  26.704  1.00  0.00     0.049 A 
ATOM     53  H   UNL A   1      45.090  26.906  27.434  1.00  0.00     0.167 HD
ATOM     54  C   UNL A   1      41.285  28.608  28.727  1.00  0.00     0.037 A 
ATOM     55  C   UNL A   1      47.768  27.042  26.663  1.00  0.00     0.037 A 
ATOM     56  C   UNL A   1      42.221  29.699  28.798  1.00  0.00     0.049 A 
ATOM     57  C   UNL A   1      47.395  28.429  27.104  1.00  0.00     0.074 A 
ATOM     58  C   UNL A   1      42.008  30.993  29.241  1.00  0.00     0.029 A 
ATOM     59  N   UNL A   1      43.552  29.620  28.417  1.00  0.00    -0.354 N 
ATOM     60  N   UNL A   1      46.243  28.875  27.540  1.00  0.00    -0.248 NA
ATOM     61  C   UNL A   1      48.452  29.449  27.049  1.00  0.00     0.031 C 
ATOM     62  C   UNL A   1      43.204  31.706  29.102  1.00  0.00     0.029 A 
ATOM     63  C   UNL A   1      44.169  30.847  28.601  1.00  0.00     0.049 A 
ATOM     64  H   UNL A   1      43.993  28.812  28.070  1.00  0.00     0.167 HD
ATOM     65  C   UNL A   1      46.439  30.218  27.831  1.00  0.00     0.074 A 
ATOM     66  C   UNL A   1      47.825  30.513  27.532  1.00  0.00     0.031 C 
ATOM     67  C   UNL A   1      45.550  31.123  28.306  1.00  0.00     0.037 A 
BRANCH  54  68
ATOM     68  C   UNL A   1      39.858  28.880  29.097  1.00  0.00     0.064 A 
ATOM     69  C   UNL A   1      38.912  29.261  28.135  1.00  0.00     0.173 A 
ATOM     70  C   UNL A   1      39.424  28.721  30.421  1.00  0.00     0.173 A 
ATOM     71  F   UNL A   1      39.282  29.435  26.857  1.00  0.00    -0.203 F 
ATOM     72  C   UNL A   1      37.586  29.494  28.489  1.00  0.00     0.198 A 
ATOM     73  C   UNL A   1      38.094  28.935  30.768  1.00  0.00     0.198 A 
ATOM     74  F   UNL A   1      40.291  28.353  31.377  1.00  0.00    -0.203 F 
ATOM     75  F   UNL A   1      36.706  29.892  27.559  1.00  0.00    -0.200 F 
ATOM     76  C   UNL A   1      37.177  29.326  29.804  1.00  0.00     0.200 A 
ATOM     77  F   UNL A   1      37.696  28.763  32.037  1.00  0.00    -0.200 F 
ATOM     78  F   UNL A   1      35.899  29.547  30.142  1.00  0.00    -0.200 F 
ENDBRANCH  54  68
BRANCH  55  79
ATOM     79  C   UNL A   1      49.149  26.737  26.212  1.00  0.00     0.064 A 
ATOM     80  C   UNL A   1      50.111  26.275  27.119  1.00  0.00     0.173 A 
ATOM     81  C   UNL A   1      49.530  26.897  24.873  1.00  0.00     0.173 A 
ATOM     82  F   UNL A   1      49.794  26.129  28.414  1.00  0.00    -0.203 F 
ATOM     83  C   UNL A   1      51.411  25.995  26.705  1.00  0.00     0.198 A 
ATOM     84  C   UNL A   1      50.825  26.597  24.457  1.00  0.00     0.198 A 
ATOM     85  F   UNL A   1      48.642  27.335  23.968  1.00  0.00    -0.203 F 
ATOM     86  F   UNL A   1      52.323  25.586  27.598  1.00  0.00    -0.200 F 
ATOM     87  C   UNL A   1      51.766  26.152  25.374  1.00  0.00     0.200 A 
ATOM     88  F   UNL A   1      51.163  26.741  23.168  1.00  0.00    -0.200 F 
ATOM     89  F   UNL A   1      53.016  25.879  24.975  1.00  0.00    -0.200 F 
ENDBRANCH  55  79
BRANCH  67  90
ATOM     90  C   UNL A   1      46.055  32.510  28.558  1.00  0.00     0.064 A 
ATOM     91  C   UNL A   1      46.632  32.865  29.786  1.00  0.00     0.173 A 
ATOM     92  C   UNL A   1      45.995  33.482  27.550  1.00  0.00     0.173 A 
ATOM     93  F   UNL A   1      46.695  31.973  30.786  1.00  0.00    -0.203 F 
ATOM     94  C   UNL A   1      47.117  34.152  30.000  1.00  0.00     0.198 A 
ATOM     95  C   UNL A   1      46.499  34.763  27.761  1.00  0.00     0.198 A 
ATOM     96  F   UNL A   1      45.454  33.188  26.358  1.00  0.00    -0.203 F 
ATOM     97  F   UNL A   1      47.634  34.483  31.192  1.00  0.00    -0.200 F 
ATOM     98  C   UNL A   1      47.056  35.097  28.986  1.00  0.00     0.200 A 
ATOM     99  F   UNL A   1      46.445  35.673  26.779  1.00  0.00    -0.200 F 
ATOM    100  F   UNL A   1      47.526  36.336  29.194  1.00  0.00    -0.200 F 
ENDBRANCH  67  90
ENDBRANCH  41  42
ENDBRANCH  33  36
ENDBRANCH  31  32
ENDBRANCH  30  31
ENDBRANCH  29  30
ENDBRANCH   1  29
TORSDOF 16
ENDMDL
