MODEL 1
REMARK VINA RESULT:     -11.9      0.000      0.000
REMARK SMILES C=CCOc1ccccc1/C=C1\SC(=S)N(CC(=O)NCCCCNC(=O)c2ccc(-c3c4nc(c(-c5c(F)c(F)c(F)c(F)c5F)c5ccc([nH]5)c(-c5c(F)c(F)c(F)c(F)c5F)c5nc(c(-c6c(F)c(F)c(F)c(F)c6F)c6ccc3[nH]6)C=C5)C=C4)cc2)C1=O
REMARK SMILES IDX 21 1 20 2 18 3 19 4 17 6 16 7 11 8 12 9 13 10 91 11 14 12
REMARK SMILES IDX 92 13 15 14 10 15 5 16 6 17 7 18 9 19 8 20 4 21 3 22 2 23
REMARK SMILES IDX 1 24 22 25 23 26 24 27 25 28 26 29 27 31 28 32 29 33 90 34
REMARK SMILES IDX 30 35 89 36 31 37 32 38 33 39 83 40 34 41 88 42 82 43 84 44
REMARK SMILES IDX 35 45 87 46 81 47 80 48 36 50 68 51 48 52 67 53 49 54 52 55
REMARK SMILES IDX 66 56 85 57 50 58 51 59 65 61 86 62 53 63 37 64 38 65 46 66
REMARK SMILES IDX 39 67 40 68 44 69 47 70 41 71 42 72 45 73 43 74 69 75 70 76
REMARK SMILES IDX 78 77 71 78 72 79 76 80 79 81 73 82 74 83 77 84 75 85 54 86
REMARK SMILES IDX 55 87 63 88 56 89 57 90 61 91 64 92 58 93 59 94 62 95 60 96
REMARK H PARENT 20 5 25 30 84 49 52 60
REMARK Flexibility Score: inf
ROOT
ATOM      1  C   UNL A   1      35.726  20.630  25.055  1.00  0.00     0.116 C 
ENDROOT
BRANCH   1   2
ATOM      2  N   UNL A   1      35.136  21.035  26.312  1.00  0.00    -0.355 N 
ATOM      3  C   UNL A   1      33.936  21.624  26.577  1.00  0.00     0.240 C 
ATOM      4  O   UNL A   1      33.559  21.611  27.753  1.00  0.00    -0.273 OA
ATOM      5  H   UNL A   1      35.692  20.855  27.105  1.00  0.00     0.163 HD
BRANCH   3   6
ATOM      6  C   UNL A   1      32.990  22.103  25.469  1.00  0.00     0.227 C 
BRANCH   6   7
ATOM      7  N   UNL A   1      32.548  23.491  25.567  1.00  0.00    -0.283 N 
ATOM      8  C   UNL A   1      33.632  26.917  25.325  1.00  0.00     0.033 C 
ATOM      9  C   UNL A   1      32.881  25.816  25.456  1.00  0.00     0.081 C 
ATOM     10  S   UNL A   1      31.274  25.673  26.042  1.00  0.00    -0.054 SA
ATOM     11  C   UNL A   1      33.448  24.471  25.189  1.00  0.00     0.266 C 
ATOM     12  C   UNL A   1      31.371  23.922  26.142  1.00  0.00     0.148 C 
ATOM     13  O   UNL A   1      34.558  24.279  24.714  1.00  0.00    -0.268 OA
ATOM     14  S   UNL A   1      30.163  23.013  26.847  1.00  0.00    -0.052 S 
BRANCH   8  15
ATOM     15  C   UNL A   1      33.294  28.241  25.860  1.00  0.00     0.018 A 
ATOM     16  C   UNL A   1      32.507  29.151  25.130  1.00  0.00     0.127 A 
ATOM     17  C   UNL A   1      32.206  30.410  25.650  1.00  0.00     0.047 A 
ATOM     18  C   UNL A   1      32.628  30.745  26.935  1.00  0.00     0.004 A 
ATOM     19  C   UNL A   1      33.692  28.579  27.157  1.00  0.00     0.012 A 
ATOM     20  C   UNL A   1      33.359  29.828  27.692  1.00  0.00     0.001 A 
BRANCH  16  21
ATOM     21  O   UNL A   1      32.075  28.858  23.858  1.00  0.00    -0.489 OA
BRANCH  21  22
ATOM     22  C   UNL A   1      30.655  28.677  23.798  1.00  0.00     0.257 C 
BRANCH  22  23
ATOM     23  C   UNL A   1      30.325  27.608  22.795  1.00  0.00     0.006 C 
ATOM     24  C   UNL A   1      31.234  26.843  22.175  1.00  0.00     0.007 C 
ENDBRANCH  22  23
ENDBRANCH  21  22
ENDBRANCH  16  21
ENDBRANCH   8  15
ENDBRANCH   6   7
ENDBRANCH   3   6
ENDBRANCH   1   2
BRANCH   1  25
ATOM     25  C   UNL A   1      37.174  21.092  24.904  1.00  0.00     0.023 C 
BRANCH  25  26
ATOM     26  C   UNL A   1      38.218  19.980  24.939  1.00  0.00     0.023 C 
BRANCH  26  27
ATOM     27  C   UNL A   1      39.396  20.237  25.866  1.00  0.00     0.116 C 
BRANCH  27  28
ATOM     28  N   UNL A   1      40.346  19.141  25.903  1.00  0.00    -0.352 N 
ATOM     29  C   UNL A   1      41.705  19.187  26.132  1.00  0.00     0.251 C 
ATOM     30  H   UNL A   1      39.970  18.245  25.744  1.00  0.00     0.163 HD
ATOM     31  O   UNL A   1      42.389  18.182  26.030  1.00  0.00    -0.269 OA
BRANCH  29  32
ATOM     32  C   UNL A   1      42.329  20.485  26.461  1.00  0.00     0.039 A 
ATOM     33  C   UNL A   1      42.877  21.245  25.427  1.00  0.00     0.014 A 
ATOM     34  C   UNL A   1      42.332  20.965  27.772  1.00  0.00     0.014 A 
ATOM     35  C   UNL A   1      43.366  22.525  25.697  1.00  0.00     0.010 A 
ATOM     36  C   UNL A   1      42.748  22.267  28.028  1.00  0.00     0.010 A 
ATOM     37  C   UNL A   1      43.269  23.057  26.993  1.00  0.00    -0.014 A 
BRANCH  37  38
ATOM     38  C   UNL A   1      43.709  24.442  27.290  1.00  0.00     0.031 A 
ATOM     39  C   UNL A   1      42.709  25.463  27.752  1.00  0.00     0.074 A 
ATOM     40  C   UNL A   1      44.990  24.796  27.069  1.00  0.00     0.049 A 
ATOM     41  N   UNL A   1      42.877  26.740  27.983  1.00  0.00    -0.248 NA
ATOM     42  C   UNL A   1      41.329  24.992  27.950  1.00  0.00     0.031 C 
ATOM     43  C   UNL A   1      46.041  23.907  26.570  1.00  0.00     0.029 A 
ATOM     44  N   UNL A   1      45.623  26.003  27.226  1.00  0.00    -0.354 N 
ATOM     45  C   UNL A   1      41.624  27.226  28.333  1.00  0.00     0.074 A 
ATOM     46  C   UNL A   1      40.696  26.120  28.236  1.00  0.00     0.031 C 
ATOM     47  C   UNL A   1      47.192  24.593  26.482  1.00  0.00     0.029 A 
ATOM     48  C   UNL A   1      46.953  25.975  26.884  1.00  0.00     0.049 A 
ATOM     49  H   UNL A   1      45.167  26.813  27.551  1.00  0.00     0.167 HD
ATOM     50  C   UNL A   1      41.284  28.478  28.722  1.00  0.00     0.037 A 
ATOM     51  C   UNL A   1      47.873  26.958  26.892  1.00  0.00     0.037 A 
ATOM     52  C   UNL A   1      42.216  29.565  28.854  1.00  0.00     0.049 A 
ATOM     53  C   UNL A   1      47.471  28.336  27.342  1.00  0.00     0.074 A 
ATOM     54  C   UNL A   1      41.985  30.850  29.311  1.00  0.00     0.029 A 
ATOM     55  N   UNL A   1      43.563  29.491  28.526  1.00  0.00    -0.354 N 
ATOM     56  N   UNL A   1      46.300  28.767  27.741  1.00  0.00    -0.248 NA
ATOM     57  C   UNL A   1      48.522  29.363  27.347  1.00  0.00     0.031 C 
ATOM     58  C   UNL A   1      43.183  31.566  29.224  1.00  0.00     0.029 A 
ATOM     59  C   UNL A   1      44.171  30.714  28.754  1.00  0.00     0.049 A 
ATOM     60  H   UNL A   1      44.018  28.689  28.183  1.00  0.00     0.167 HD
ATOM     61  C   UNL A   1      46.476  30.104  28.072  1.00  0.00     0.074 A 
ATOM     62  C   UNL A   1      47.872  30.410  27.839  1.00  0.00     0.031 C 
ATOM     63  C   UNL A   1      45.565  30.997  28.527  1.00  0.00     0.037 A 
BRANCH  50  64
ATOM     64  C   UNL A   1      39.841  28.735  29.042  1.00  0.00     0.064 A 
ATOM     65  C   UNL A   1      39.322  28.514  30.327  1.00  0.00     0.173 A 
ATOM     66  C   UNL A   1      38.974  29.238  28.061  1.00  0.00     0.173 A 
ATOM     67  F   UNL A   1      40.107  28.021  31.297  1.00  0.00    -0.203 F 
ATOM     68  C   UNL A   1      37.982  28.762  30.611  1.00  0.00     0.198 A 
ATOM     69  C   UNL A   1      37.640  29.513  28.357  1.00  0.00     0.198 A 
ATOM     70  F   UNL A   1      39.419  29.471  26.818  1.00  0.00    -0.203 F 
ATOM     71  F   UNL A   1      37.497  28.497  31.832  1.00  0.00    -0.200 F 
ATOM     72  C   UNL A   1      37.144  29.267  29.628  1.00  0.00     0.200 A 
ATOM     73  F   UNL A   1      36.834  30.011  27.409  1.00  0.00    -0.200 F 
ATOM     74  F   UNL A   1      35.855  29.510  29.905  1.00  0.00    -0.200 F 
ENDBRANCH  50  64
BRANCH  51  75
ATOM     75  C   UNL A   1      49.274  26.668  26.491  1.00  0.00     0.064 A 
ATOM     76  C   UNL A   1      49.686  26.829  25.160  1.00  0.00     0.173 A 
ATOM     77  C   UNL A   1      50.225  26.223  27.420  1.00  0.00     0.173 A 
ATOM     78  F   UNL A   1      48.807  27.233  24.232  1.00  0.00    -0.203 F 
ATOM     79  C   UNL A   1      50.991  26.535  24.771  1.00  0.00     0.198 A 
ATOM     80  C   UNL A   1      51.537  25.954  27.034  1.00  0.00     0.198 A 
ATOM     81  F   UNL A   1      49.881  26.058  28.706  1.00  0.00    -0.203 F 
ATOM     82  F   UNL A   1      51.347  26.656  23.484  1.00  0.00    -0.200 F 
ATOM     83  C   UNL A   1      51.916  26.103  25.709  1.00  0.00     0.200 A 
ATOM     84  F   UNL A   1      52.431  25.550  27.945  1.00  0.00    -0.200 F 
ATOM     85  F   UNL A   1      53.172  25.823  25.334  1.00  0.00    -0.200 F 
ENDBRANCH  51  75
BRANCH  63  86
ATOM     86  C   UNL A   1      46.055  32.380  28.839  1.00  0.00     0.064 A 
ATOM     87  C   UNL A   1      46.032  33.401  27.879  1.00  0.00     0.173 A 
ATOM     88  C   UNL A   1      46.514  32.695  30.127  1.00  0.00     0.173 A 
ATOM     89  F   UNL A   1      45.618  33.144  26.629  1.00  0.00    -0.203 F 
ATOM     90  C   UNL A   1      46.473  34.684  28.191  1.00  0.00     0.198 A 
ATOM     91  C   UNL A   1      46.927  33.986  30.443  1.00  0.00     0.198 A 
ATOM     92  F   UNL A   1      46.549  31.754  31.082  1.00  0.00    -0.203 F 
ATOM     93  F   UNL A   1      46.484  35.635  27.246  1.00  0.00    -0.200 F 
ATOM     94  C   UNL A   1      46.912  34.977  29.473  1.00  0.00     0.200 A 
ATOM     95  F   UNL A   1      47.339  34.270  31.685  1.00  0.00    -0.200 F 
ATOM     96  F   UNL A   1      47.329  36.215  29.774  1.00  0.00    -0.200 F 
ENDBRANCH  63  86
ENDBRANCH  37  38
ENDBRANCH  29  32
ENDBRANCH  27  28
ENDBRANCH  26  27
ENDBRANCH  25  26
ENDBRANCH   1  25
TORSDOF 16
ENDMDL
MODEL 2
REMARK VINA RESULT:     -11.6      0.624      7.219
REMARK SMILES C=CCOc1ccccc1/C=C1\SC(=S)N(CC(=O)NCCCCNC(=O)c2ccc(-c3c4nc(c(-c5c(F)c(F)c(F)c(F)c5F)c5ccc([nH]5)c(-c5c(F)c(F)c(F)c(F)c5F)c5nc(c(-c6c(F)c(F)c(F)c(F)c6F)c6ccc3[nH]6)C=C5)C=C4)cc2)C1=O
REMARK SMILES IDX 21 1 20 2 18 3 19 4 17 6 16 7 11 8 12 9 13 10 91 11 14 12
REMARK SMILES IDX 92 13 15 14 10 15 5 16 6 17 7 18 9 19 8 20 4 21 3 22 2 23
REMARK SMILES IDX 1 24 22 25 23 26 24 27 25 28 26 29 27 31 28 32 29 33 90 34
REMARK SMILES IDX 30 35 89 36 31 37 32 38 33 39 83 40 34 41 88 42 82 43 84 44
REMARK SMILES IDX 35 45 87 46 81 47 80 48 36 50 68 51 48 52 67 53 49 54 52 55
REMARK SMILES IDX 66 56 85 57 50 58 51 59 65 61 86 62 53 63 37 64 38 65 46 66
REMARK SMILES IDX 39 67 40 68 44 69 47 70 41 71 42 72 45 73 43 74 69 75 70 76
REMARK SMILES IDX 78 77 71 78 72 79 76 80 79 81 73 82 74 83 77 84 75 85 54 86
REMARK SMILES IDX 55 87 63 88 56 89 57 90 61 91 64 92 58 93 59 94 62 95 60 96
REMARK H PARENT 20 5 25 30 84 49 52 60
REMARK Flexibility Score: inf
ROOT
ATOM      1  C   UNL A   1      35.984  20.681  25.271  1.00  0.00     0.116 C 
ENDROOT
BRANCH   1   2
ATOM      2  N   UNL A   1      35.515  21.378  26.450  1.00  0.00    -0.355 N 
ATOM      3  C   UNL A   1      34.364  22.074  26.666  1.00  0.00     0.240 C 
ATOM      4  O   UNL A   1      34.085  22.335  27.840  1.00  0.00    -0.273 OA
ATOM      5  H   UNL A   1      36.127  21.342  27.220  1.00  0.00     0.163 HD
BRANCH   3   6
ATOM      6  C   UNL A   1      33.348  22.356  25.552  1.00  0.00     0.227 C 
BRANCH   6   7
ATOM      7  N   UNL A   1      32.737  23.681  25.569  1.00  0.00    -0.283 N 
ATOM      8  C   UNL A   1      33.401  27.201  25.193  1.00  0.00     0.033 C 
ATOM      9  C   UNL A   1      32.787  26.022  25.355  1.00  0.00     0.081 C 
ATOM     10  S   UNL A   1      31.189  25.708  25.900  1.00  0.00    -0.054 SA
ATOM     11  C   UNL A   1      33.523  24.748  25.170  1.00  0.00     0.266 C 
ATOM     12  C   UNL A   1      31.497  23.989  26.088  1.00  0.00     0.148 C 
ATOM     13  O   UNL A   1      34.665  24.673  24.738  1.00  0.00    -0.268 OA
ATOM     14  S   UNL A   1      30.385  22.969  26.800  1.00  0.00    -0.052 S 
BRANCH   8  15
ATOM     15  C   UNL A   1      32.885  28.495  25.652  1.00  0.00     0.018 A 
ATOM     16  C   UNL A   1      31.954  29.229  24.894  1.00  0.00     0.127 A 
ATOM     17  C   UNL A   1      31.484  30.463  25.342  1.00  0.00     0.047 A 
ATOM     18  C   UNL A   1      31.885  30.944  26.586  1.00  0.00     0.004 A 
ATOM     19  C   UNL A   1      33.262  28.977  26.910  1.00  0.00     0.012 A 
ATOM     20  C   UNL A   1      32.762  30.198  27.375  1.00  0.00     0.001 A 
BRANCH  16  21
ATOM     21  O   UNL A   1      31.538  28.788  23.659  1.00  0.00    -0.489 OA
BRANCH  21  22
ATOM     22  C   UNL A   1      30.117  28.615  23.599  1.00  0.00     0.257 C 
BRANCH  22  23
ATOM     23  C   UNL A   1      29.559  29.422  22.461  1.00  0.00     0.006 C 
ATOM     24  C   UNL A   1      28.291  29.851  22.386  1.00  0.00     0.007 C 
ENDBRANCH  22  23
ENDBRANCH  21  22
ENDBRANCH  16  21
ENDBRANCH   8  15
ENDBRANCH   6   7
ENDBRANCH   3   6
ENDBRANCH   1   2
BRANCH   1  25
ATOM     25  C   UNL A   1      37.427  21.027  24.913  1.00  0.00     0.023 C 
BRANCH  25  26
ATOM     26  C   UNL A   1      38.406  19.857  24.957  1.00  0.00     0.023 C 
BRANCH  26  27
ATOM     27  C   UNL A   1      39.433  19.922  26.076  1.00  0.00     0.116 C 
BRANCH  27  28
ATOM     28  N   UNL A   1      40.489  18.935  25.943  1.00  0.00    -0.352 N 
ATOM     29  C   UNL A   1      41.854  19.123  26.001  1.00  0.00     0.251 C 
ATOM     30  H   UNL A   1      40.192  18.010  25.791  1.00  0.00     0.163 HD
ATOM     31  O   UNL A   1      42.620  18.203  25.767  1.00  0.00    -0.269 OA
BRANCH  29  32
ATOM     32  C   UNL A   1      42.376  20.470  26.308  1.00  0.00     0.039 A 
ATOM     33  C   UNL A   1      42.816  21.274  25.255  1.00  0.00     0.014 A 
ATOM     34  C   UNL A   1      42.390  20.951  27.620  1.00  0.00     0.014 A 
ATOM     35  C   UNL A   1      43.203  22.591  25.509  1.00  0.00     0.010 A 
ATOM     36  C   UNL A   1      42.701  22.283  27.862  1.00  0.00     0.010 A 
ATOM     37  C   UNL A   1      43.111  23.115  26.809  1.00  0.00    -0.014 A 
BRANCH  37  38
ATOM     38  C   UNL A   1      43.441  24.533  27.092  1.00  0.00     0.031 A 
ATOM     39  C   UNL A   1      44.839  25.035  26.869  1.00  0.00     0.074 A 
ATOM     40  C   UNL A   1      42.504  25.343  27.620  1.00  0.00     0.049 A 
ATOM     41  N   UNL A   1      45.347  26.212  27.132  1.00  0.00    -0.248 NA
ATOM     42  C   UNL A   1      45.802  24.077  26.304  1.00  0.00     0.031 C 
ATOM     43  C   UNL A   1      41.127  24.955  27.931  1.00  0.00     0.029 A 
ATOM     44  N   UNL A   1      42.572  26.659  28.000  1.00  0.00    -0.354 N 
ATOM     45  C   UNL A   1      46.688  26.128  26.784  1.00  0.00     0.074 A 
ATOM     46  C   UNL A   1      46.929  24.773  26.339  1.00  0.00     0.031 C 
ATOM     47  C   UNL A   1      40.474  26.015  28.435  1.00  0.00     0.029 A 
ATOM     48  C   UNL A   1      41.393  27.145  28.514  1.00  0.00     0.049 A 
ATOM     49  H   UNL A   1      43.387  27.204  27.914  1.00  0.00     0.167 HD
ATOM     50  C   UNL A   1      47.630  27.101  26.813  1.00  0.00     0.037 A 
ATOM     51  C   UNL A   1      41.094  28.365  28.997  1.00  0.00     0.037 A 
ATOM     52  C   UNL A   1      47.378  28.457  27.220  1.00  0.00     0.049 A 
ATOM     53  C   UNL A   1      42.155  29.432  29.004  1.00  0.00     0.074 A 
ATOM     54  C   UNL A   1      48.244  29.536  27.215  1.00  0.00     0.029 A 
ATOM     55  N   UNL A   1      46.163  28.921  27.707  1.00  0.00    -0.354 N 
ATOM     56  N   UNL A   1      43.401  29.362  28.605  1.00  0.00    -0.248 NA
ATOM     57  C   UNL A   1      41.764  30.750  29.525  1.00  0.00     0.031 C 
ATOM     58  C   UNL A   1      47.566  30.644  27.735  1.00  0.00     0.029 A 
ATOM     59  C   UNL A   1      46.264  30.265  28.023  1.00  0.00     0.049 A 
ATOM     60  H   UNL A   1      45.351  28.374  27.813  1.00  0.00     0.167 HD
ATOM     61  C   UNL A   1      43.936  30.629  28.798  1.00  0.00     0.074 A 
ATOM     62  C   UNL A   1      42.874  31.452  29.339  1.00  0.00     0.031 C 
ATOM     63  C   UNL A   1      45.193  31.071  28.550  1.00  0.00     0.037 A 
BRANCH  50  64
ATOM     64  C   UNL A   1      49.019  26.734  26.383  1.00  0.00     0.064 A 
ATOM     65  C   UNL A   1      49.452  26.918  25.061  1.00  0.00     0.173 A 
ATOM     66  C   UNL A   1      49.939  26.223  27.310  1.00  0.00     0.173 A 
ATOM     67  F   UNL A   1      48.606  27.390  24.133  1.00  0.00    -0.203 F 
ATOM     68  C   UNL A   1      50.746  26.576  24.677  1.00  0.00     0.198 A 
ATOM     69  C   UNL A   1      51.242  25.910  26.929  1.00  0.00     0.198 A 
ATOM     70  F   UNL A   1      49.578  26.032  28.588  1.00  0.00    -0.203 F 
ATOM     71  F   UNL A   1      51.121  26.714  23.397  1.00  0.00    -0.200 F 
ATOM     72  C   UNL A   1      51.642  26.080  25.612  1.00  0.00     0.200 A 
ATOM     73  F   UNL A   1      52.110  25.441  27.836  1.00  0.00    -0.200 F 
ATOM     74  F   UNL A   1      52.889  25.757  25.242  1.00  0.00    -0.200 F 
ENDBRANCH  50  64
BRANCH  51  75
ATOM     75  C   UNL A   1      39.720  28.656  29.483  1.00  0.00     0.064 A 
ATOM     76  C   UNL A   1      38.746  29.168  28.615  1.00  0.00     0.173 A 
ATOM     77  C   UNL A   1      39.354  28.433  30.818  1.00  0.00     0.173 A 
ATOM     78  F   UNL A   1      39.056  29.417  27.334  1.00  0.00    -0.203 F 
ATOM     79  C   UNL A   1      37.464  29.467  29.069  1.00  0.00     0.198 A 
ATOM     80  C   UNL A   1      38.062  28.708  31.264  1.00  0.00     0.198 A 
ATOM     81  F   UNL A   1      40.248  27.939  31.687  1.00  0.00    -0.203 F 
ATOM     82  F   UNL A   1      36.565  29.998  28.227  1.00  0.00    -0.200 F 
ATOM     83  C   UNL A   1      37.122  29.232  30.391  1.00  0.00     0.200 A 
ATOM     84  F   UNL A   1      37.731  28.467  32.539  1.00  0.00    -0.200 F 
ATOM     85  F   UNL A   1      35.886  29.518  30.826  1.00  0.00    -0.200 F 
ENDBRANCH  51  75
BRANCH  63  86
ATOM     86  C   UNL A   1      45.479  32.517  28.826  1.00  0.00     0.064 A 
ATOM     87  C   UNL A   1      45.260  33.507  27.858  1.00  0.00     0.173 A 
ATOM     88  C   UNL A   1      45.938  32.919  30.090  1.00  0.00     0.173 A 
ATOM     89  F   UNL A   1      44.838  33.169  26.631  1.00  0.00    -0.203 F 
ATOM     90  C   UNL A   1      45.513  34.847  28.138  1.00  0.00     0.198 A 
ATOM     91  C   UNL A   1      46.162  34.263  30.375  1.00  0.00     0.198 A 
ATOM     92  F   UNL A   1      46.156  32.010  31.052  1.00  0.00    -0.203 F 
ATOM     93  F   UNL A   1      45.339  35.773  27.184  1.00  0.00    -0.200 F 
ATOM     94  C   UNL A   1      45.956  35.225  29.397  1.00  0.00     0.200 A 
ATOM     95  F   UNL A   1      46.578  34.627  31.595  1.00  0.00    -0.200 F 
ATOM     96  F   UNL A   1      46.191  36.516  29.667  1.00  0.00    -0.200 F 
ENDBRANCH  63  86
ENDBRANCH  37  38
ENDBRANCH  29  32
ENDBRANCH  27  28
ENDBRANCH  26  27
ENDBRANCH  25  26
ENDBRANCH   1  25
TORSDOF 16
ENDMDL
MODEL 3
REMARK VINA RESULT:     -11.4      1.227      7.507
REMARK SMILES C=CCOc1ccccc1/C=C1\SC(=S)N(CC(=O)NCCCCNC(=O)c2ccc(-c3c4nc(c(-c5c(F)c(F)c(F)c(F)c5F)c5ccc([nH]5)c(-c5c(F)c(F)c(F)c(F)c5F)c5nc(c(-c6c(F)c(F)c(F)c(F)c6F)c6ccc3[nH]6)C=C5)C=C4)cc2)C1=O
REMARK SMILES IDX 21 1 20 2 18 3 19 4 17 6 16 7 11 8 12 9 13 10 91 11 14 12
REMARK SMILES IDX 92 13 15 14 10 15 5 16 6 17 7 18 9 19 8 20 4 21 3 22 2 23
REMARK SMILES IDX 1 24 22 25 23 26 24 27 25 28 26 29 27 31 28 32 29 33 90 34
REMARK SMILES IDX 30 35 89 36 31 37 32 38 33 39 83 40 34 41 88 42 82 43 84 44
REMARK SMILES IDX 35 45 87 46 81 47 80 48 36 50 68 51 48 52 67 53 49 54 52 55
REMARK SMILES IDX 66 56 85 57 50 58 51 59 65 61 86 62 53 63 37 64 38 65 46 66
REMARK SMILES IDX 39 67 40 68 44 69 47 70 41 71 42 72 45 73 43 74 69 75 70 76
REMARK SMILES IDX 78 77 71 78 72 79 76 80 79 81 73 82 74 83 77 84 75 85 54 86
REMARK SMILES IDX 55 87 63 88 56 89 57 90 61 91 64 92 58 93 59 94 62 95 60 96
REMARK H PARENT 20 5 25 30 84 49 52 60
REMARK Flexibility Score: inf
ROOT
ATOM      1  C   UNL A   1      35.460  21.158  24.932  1.00  0.00     0.116 C 
ENDROOT
BRANCH   1   2
ATOM      2  N   UNL A   1      35.151  21.657  26.254  1.00  0.00    -0.355 N 
ATOM      3  C   UNL A   1      33.953  21.977  26.821  1.00  0.00     0.240 C 
ATOM      4  O   UNL A   1      33.939  22.116  28.048  1.00  0.00    -0.273 OA
ATOM      5  H   UNL A   1      35.932  21.787  26.840  1.00  0.00     0.163 HD
BRANCH   3   6
ATOM      6  C   UNL A   1      32.639  21.972  26.031  1.00  0.00     0.227 C 
BRANCH   6   7
ATOM      7  N   UNL A   1      32.354  23.179  25.262  1.00  0.00    -0.283 N 
ATOM      8  C   UNL A   1      30.799  26.425  25.405  1.00  0.00     0.033 C 
ATOM      9  C   UNL A   1      31.484  25.348  24.999  1.00  0.00     0.081 C 
ATOM     10  S   UNL A   1      31.989  24.929  23.413  1.00  0.00    -0.054 SA
ATOM     11  C   UNL A   1      31.813  24.254  25.946  1.00  0.00     0.266 C 
ATOM     12  C   UNL A   1      32.435  23.299  23.891  1.00  0.00     0.148 C 
ATOM     13  O   UNL A   1      31.614  24.308  27.151  1.00  0.00    -0.268 OA
ATOM     14  S   UNL A   1      32.879  22.144  22.771  1.00  0.00    -0.052 S 
BRANCH   8  15
ATOM     15  C   UNL A   1      30.145  27.396  24.520  1.00  0.00     0.018 A 
ATOM     16  C   UNL A   1      30.784  28.590  24.137  1.00  0.00     0.127 A 
ATOM     17  C   UNL A   1      30.142  29.506  23.304  1.00  0.00     0.047 A 
ATOM     18  C   UNL A   1      28.883  29.205  22.787  1.00  0.00     0.004 A 
ATOM     19  C   UNL A   1      28.892  27.094  23.976  1.00  0.00     0.012 A 
ATOM     20  C   UNL A   1      28.265  27.997  23.112  1.00  0.00     0.001 A 
BRANCH  16  21
ATOM     21  O   UNL A   1      32.024  28.922  24.629  1.00  0.00    -0.489 OA
BRANCH  21  22
ATOM     22  C   UNL A   1      31.941  29.826  25.737  1.00  0.00     0.257 C 
BRANCH  22  23
ATOM     23  C   UNL A   1      33.129  29.633  26.636  1.00  0.00     0.006 C 
ATOM     24  C   UNL A   1      33.438  28.481  27.247  1.00  0.00     0.007 C 
ENDBRANCH  22  23
ENDBRANCH  21  22
ENDBRANCH  16  21
ENDBRANCH   8  15
ENDBRANCH   6   7
ENDBRANCH   3   6
ENDBRANCH   1   2
BRANCH   1  25
ATOM     25  C   UNL A   1      36.945  21.265  24.591  1.00  0.00     0.023 C 
BRANCH  25  26
ATOM     26  C   UNL A   1      37.799  20.079  25.030  1.00  0.00     0.023 C 
BRANCH  26  27
ATOM     27  C   UNL A   1      39.037  20.443  25.835  1.00  0.00     0.116 C 
BRANCH  27  28
ATOM     28  N   UNL A   1      40.036  19.391  25.858  1.00  0.00    -0.352 N 
ATOM     29  C   UNL A   1      41.390  19.496  26.097  1.00  0.00     0.251 C 
ATOM     30  H   UNL A   1      39.703  18.483  25.679  1.00  0.00     0.163 HD
ATOM     31  O   UNL A   1      42.120  18.526  25.979  1.00  0.00    -0.269 OA
BRANCH  29  32
ATOM     32  C   UNL A   1      41.951  20.815  26.453  1.00  0.00     0.039 A 
ATOM     33  C   UNL A   1      42.308  21.691  25.427  1.00  0.00     0.014 A 
ATOM     34  C   UNL A   1      42.082  21.199  27.790  1.00  0.00     0.014 A 
ATOM     35  C   UNL A   1      42.730  22.985  25.740  1.00  0.00     0.010 A 
ATOM     36  C   UNL A   1      42.428  22.509  28.100  1.00  0.00     0.010 A 
ATOM     37  C   UNL A   1      42.755  23.413  27.077  1.00  0.00    -0.014 A 
BRANCH  37  38
ATOM     38  C   UNL A   1      43.124  24.805  27.432  1.00  0.00     0.031 A 
ATOM     39  C   UNL A   1      44.570  25.209  27.473  1.00  0.00     0.074 A 
ATOM     40  C   UNL A   1      42.164  25.678  27.790  1.00  0.00     0.049 A 
ATOM     41  N   UNL A   1      45.101  26.349  27.837  1.00  0.00    -0.248 NA
ATOM     42  C   UNL A   1      45.553  24.186  27.081  1.00  0.00     0.031 C 
ATOM     43  C   UNL A   1      40.730  25.386  27.841  1.00  0.00     0.029 A 
ATOM     44  N   UNL A   1      42.250  26.987  28.191  1.00  0.00    -0.354 N 
ATOM     45  C   UNL A   1      46.474  26.172  27.739  1.00  0.00     0.074 A 
ATOM     46  C   UNL A   1      46.699  24.802  27.329  1.00  0.00     0.031 C 
ATOM     47  C   UNL A   1      40.070  26.490  28.230  1.00  0.00     0.029 A 
ATOM     48  C   UNL A   1      41.034  27.554  28.488  1.00  0.00     0.049 A 
ATOM     49  H   UNL A   1      43.103  27.474  28.262  1.00  0.00     0.167 HD
ATOM     50  C   UNL A   1      47.458  27.078  27.950  1.00  0.00     0.037 A 
ATOM     51  C   UNL A   1      40.735  28.792  28.922  1.00  0.00     0.037 A 
ATOM     52  C   UNL A   1      47.229  28.449  28.320  1.00  0.00     0.049 A 
ATOM     53  C   UNL A   1      41.847  29.783  29.134  1.00  0.00     0.074 A 
ATOM     54  C   UNL A   1      48.153  29.464  28.485  1.00  0.00     0.029 A 
ATOM     55  N   UNL A   1      45.981  28.995  28.583  1.00  0.00    -0.354 N 
ATOM     56  N   UNL A   1      43.137  29.627  28.968  1.00  0.00    -0.248 NA
ATOM     57  C   UNL A   1      41.459  31.125  29.591  1.00  0.00     0.031 C 
ATOM     58  C   UNL A   1      47.469  30.617  28.886  1.00  0.00     0.029 A 
ATOM     59  C   UNL A   1      46.114  30.330  28.927  1.00  0.00     0.049 A 
ATOM     60  H   UNL A   1      45.127  28.506  28.533  1.00  0.00     0.167 HD
ATOM     61  C   UNL A   1      43.713  30.854  29.270  1.00  0.00     0.074 A 
ATOM     62  C   UNL A   1      42.629  31.749  29.618  1.00  0.00     0.031 C 
ATOM     63  C   UNL A   1      45.021  31.208  29.260  1.00  0.00     0.037 A 
BRANCH  50  64
ATOM     64  C   UNL A   1      48.875  26.615  27.775  1.00  0.00     0.064 A 
ATOM     65  C   UNL A   1      49.466  26.522  26.506  1.00  0.00     0.173 A 
ATOM     66  C   UNL A   1      49.660  26.292  28.891  1.00  0.00     0.173 A 
ATOM     67  F   UNL A   1      48.754  26.806  25.406  1.00  0.00    -0.203 F 
ATOM     68  C   UNL A   1      50.783  26.095  26.360  1.00  0.00     0.198 A 
ATOM     69  C   UNL A   1      50.987  25.894  28.743  1.00  0.00     0.198 A 
ATOM     70  F   UNL A   1      49.144  26.368  30.127  1.00  0.00    -0.203 F 
ATOM     71  F   UNL A   1      51.312  25.966  25.135  1.00  0.00    -0.200 F 
ATOM     72  C   UNL A   1      51.544  25.788  27.478  1.00  0.00     0.200 A 
ATOM     73  F   UNL A   1      51.724  25.608  29.825  1.00  0.00    -0.200 F 
ATOM     74  F   UNL A   1      52.814  25.383  27.335  1.00  0.00    -0.200 F 
ENDBRANCH  50  64
BRANCH  51  75
ATOM     75  C   UNL A   1      39.319  29.177  29.154  1.00  0.00     0.064 A 
ATOM     76  C   UNL A   1      38.503  29.582  28.088  1.00  0.00     0.173 A 
ATOM     77  C   UNL A   1      38.755  29.154  30.437  1.00  0.00     0.173 A 
ATOM     78  F   UNL A   1      39.005  29.639  26.846  1.00  0.00    -0.203 F 
ATOM     79  C   UNL A   1      37.182  29.968  28.300  1.00  0.00     0.198 A 
ATOM     80  C   UNL A   1      37.425  29.516  30.643  1.00  0.00     0.198 A 
ATOM     81  F   UNL A   1      39.492  28.770  31.489  1.00  0.00    -0.203 F 
ATOM     82  F   UNL A   1      36.437  30.392  27.269  1.00  0.00    -0.200 F 
ATOM     83  C   UNL A   1      36.643  29.931  29.576  1.00  0.00     0.200 A 
ATOM     84  F   UNL A   1      36.903  29.466  31.876  1.00  0.00    -0.200 F 
ATOM     85  F   UNL A   1      35.370  30.301  29.779  1.00  0.00    -0.200 F 
ENDBRANCH  51  75
BRANCH  63  86
ATOM     86  C   UNL A   1      45.350  32.631  29.600  1.00  0.00     0.064 A 
ATOM     87  C   UNL A   1      45.654  33.021  30.912  1.00  0.00     0.173 A 
ATOM     88  C   UNL A   1      45.402  33.606  28.593  1.00  0.00     0.173 A 
ATOM     89  F   UNL A   1      45.602  32.128  31.911  1.00  0.00    -0.203 F 
ATOM     90  C   UNL A   1      45.977  34.343  31.207  1.00  0.00     0.198 A 
ATOM     91  C   UNL A   1      45.753  34.921  28.888  1.00  0.00     0.198 A 
ATOM     92  F   UNL A   1      45.126  33.282  27.321  1.00  0.00    -0.203 F 
ATOM     93  F   UNL A   1      46.221  34.704  32.475  1.00  0.00    -0.200 F 
ATOM     94  C   UNL A   1      46.033  35.289  30.195  1.00  0.00     0.200 A 
ATOM     95  F   UNL A   1      45.818  35.831  27.907  1.00  0.00    -0.200 F 
ATOM     96  F   UNL A   1      46.351  36.559  30.480  1.00  0.00    -0.200 F 
ENDBRANCH  63  86
ENDBRANCH  37  38
ENDBRANCH  29  32
ENDBRANCH  27  28
ENDBRANCH  26  27
ENDBRANCH  25  26
ENDBRANCH   1  25
TORSDOF 16
ENDMDL
