MODEL 1
REMARK VINA RESULT:     -12.1      0.000      0.000
REMARK SMILES CC[C@H]1CC[C@](C[C@@H](O)C(F)(F)F)(C(=O)NCCCCNC(=O)c2ccc(-c3c4nc(c(-c5c(F)c(F)c(F)c(F)c5F)c5ccc([nH]5)c(-c5c(F)c(F)c(F)c(F)c5F)c5nc(c(-c6c(F)c(F)c(F)c(F)c6F)c6ccc3[nH]6)C=C5)C=C4)cc2)CC1
REMARK SMILES IDX 18 1 17 2 16 3 14 4 15 5 6 7 3 8 88 9 4 10 87 11 5 12 2 13
REMARK SMILES IDX 1 14 7 15 8 16 9 17 10 19 11 20 12 21 13 22 19 23 20 24
REMARK SMILES IDX 21 25 22 26 23 28 24 29 25 30 86 31 26 32 85 33 27 34 28 35
REMARK SMILES IDX 29 36 79 37 30 38 84 39 78 40 80 41 31 42 83 43 77 44 76 45
REMARK SMILES IDX 32 47 64 48 44 49 63 50 45 51 48 52 62 53 81 54 46 55 47 56
REMARK SMILES IDX 61 58 82 59 49 60 33 61 34 62 42 63 35 64 36 65 40 66 43 67
REMARK SMILES IDX 37 68 38 69 41 70 39 71 65 72 66 73 74 74 67 75 68 76 72 77
REMARK SMILES IDX 75 78 69 79 70 80 73 81 71 82 50 83 51 84 59 85 52 86 53 87
REMARK SMILES IDX 57 88 60 89 54 90 55 91 58 92 56 93
REMARK H PARENT 16 6 9 18 21 27 80 46 48 57
REMARK Flexibility Score: inf
ROOT
ATOM      1  C   UNL A   1      32.140  30.437  26.716  1.00  0.00     0.023 C 
ENDROOT
BRANCH   1   2
ATOM      2  C   UNL A   1      31.715  29.852  25.379  1.00  0.00     0.116 C 
BRANCH   2   3
ATOM      3  N   UNL A   1      32.812  29.707  24.442  1.00  0.00    -0.356 N 
ATOM      4  C   UNL A   1      33.282  28.641  23.739  1.00  0.00     0.226 C 
ATOM      5  O   UNL A   1      34.001  28.923  22.774  1.00  0.00    -0.274 OA
ATOM      6  H   UNL A   1      33.313  30.540  24.285  1.00  0.00     0.163 HD
BRANCH   4   7
ATOM      7  C   UNL A   1      32.932  27.160  24.057  1.00  0.00     0.052 C 
ATOM      8  C   UNL A   1      31.629  25.231  26.058  1.00  0.00    -0.011 C 
ATOM      9  C   UNL A   1      33.140  25.504  26.068  1.00  0.00     0.005 C 
ATOM     10  C   UNL A   1      31.012  25.565  24.702  1.00  0.00     0.005 C 
ATOM     11  C   UNL A   1      33.505  26.879  25.497  1.00  0.00     0.017 C 
ATOM     12  C   UNL A   1      31.409  26.941  24.187  1.00  0.00     0.017 C 
BRANCH   8  13
ATOM     13  C   UNL A   1      31.351  23.771  26.472  1.00  0.00    -0.000 C 
ATOM     14  C   UNL A   1      32.593  22.994  26.889  1.00  0.00     0.004 C 
ENDBRANCH   8  13
BRANCH   7  15
ATOM     15  C   UNL A   1      33.669  26.173  23.094  1.00  0.00     0.058 C 
BRANCH  15  16
ATOM     16  C   UNL A   1      32.874  25.437  22.007  1.00  0.00     0.220 C 
BRANCH  16  17
ATOM     17  O   UNL A   1      33.241  25.944  20.714  1.00  0.00    -0.384 OA
ATOM     18  H   UNL A   1      34.203  25.889  20.606  1.00  0.00     0.211 HD
ENDBRANCH  16  17
BRANCH  16  19
ATOM     19  C   UNL A   1      33.087  23.914  22.098  1.00  0.00     0.414 C 
ATOM     20  F   UNL A   1      33.249  23.378  20.866  1.00  0.00    -0.168 F 
ATOM     21  F   UNL A   1      34.192  23.614  22.816  1.00  0.00    -0.168 F 
ATOM     22  F   UNL A   1      32.032  23.303  22.680  1.00  0.00    -0.168 F 
ENDBRANCH  16  19
ENDBRANCH  15  16
ENDBRANCH   7  15
ENDBRANCH   4   7
ENDBRANCH   2   3
ENDBRANCH   1   2
BRANCH   1  23
ATOM     23  C   UNL A   1      31.783  31.910  26.891  1.00  0.00     0.023 C 
BRANCH  23  24
ATOM     24  C   UNL A   1      32.914  32.804  27.392  1.00  0.00     0.116 C 
BRANCH  24  25
ATOM     25  N   UNL A   1      32.502  34.172  27.685  1.00  0.00    -0.352 N 
ATOM     26  C   UNL A   1      33.022  35.036  28.622  1.00  0.00     0.251 C 
ATOM     27  H   UNL A   1      31.758  34.522  27.145  1.00  0.00     0.163 HD
ATOM     28  O   UNL A   1      32.537  36.142  28.809  1.00  0.00    -0.269 OA
BRANCH  26  29
ATOM     29  C   UNL A   1      34.158  34.568  29.437  1.00  0.00     0.039 A 
ATOM     30  C   UNL A   1      33.901  33.994  30.683  1.00  0.00     0.014 A 
ATOM     31  C   UNL A   1      35.447  34.581  28.901  1.00  0.00     0.014 A 
ATOM     32  C   UNL A   1      34.930  33.336  31.355  1.00  0.00     0.010 A 
ATOM     33  C   UNL A   1      36.452  33.865  29.537  1.00  0.00     0.010 A 
ATOM     34  C   UNL A   1      36.197  33.221  30.760  1.00  0.00    -0.014 A 
BRANCH  34  35
ATOM     35  C   UNL A   1      37.275  32.411  31.377  1.00  0.00     0.031 A 
ATOM     36  C   UNL A   1      37.778  32.767  32.745  1.00  0.00     0.074 A 
ATOM     37  C   UNL A   1      37.871  31.436  30.664  1.00  0.00     0.049 A 
ATOM     38  N   UNL A   1      38.808  32.293  33.398  1.00  0.00    -0.248 NA
ATOM     39  C   UNL A   1      37.046  33.825  33.458  1.00  0.00     0.031 C 
ATOM     40  C   UNL A   1      37.507  31.036  29.304  1.00  0.00     0.029 A 
ATOM     41  N   UNL A   1      38.932  30.622  30.977  1.00  0.00    -0.354 N 
ATOM     42  C   UNL A   1      38.867  33.017  34.580  1.00  0.00     0.074 A 
ATOM     43  C   UNL A   1      37.794  33.988  34.539  1.00  0.00     0.031 C 
ATOM     44  C   UNL A   1      38.323  30.047  28.903  1.00  0.00     0.029 A 
ATOM     45  C   UNL A   1      39.292  29.771  29.960  1.00  0.00     0.049 A 
ATOM     46  H   UNL A   1      39.391  30.646  31.847  1.00  0.00     0.167 HD
ATOM     47  C   UNL A   1      39.728  32.872  35.613  1.00  0.00     0.037 A 
ATOM     48  C   UNL A   1      40.300  28.881  29.884  1.00  0.00     0.037 A 
ATOM     49  C   UNL A   1      40.762  31.875  35.669  1.00  0.00     0.049 A 
ATOM     50  C   UNL A   1      41.226  28.720  31.057  1.00  0.00     0.074 A 
ATOM     51  C   UNL A   1      41.631  31.589  36.706  1.00  0.00     0.029 A 
ATOM     52  N   UNL A   1      41.063  30.995  34.639  1.00  0.00    -0.354 N 
ATOM     53  N   UNL A   1      41.232  29.363  32.200  1.00  0.00    -0.248 NA
ATOM     54  C   UNL A   1      42.287  27.709  30.933  1.00  0.00     0.031 C 
ATOM     55  C   UNL A   1      42.481  30.559  36.292  1.00  0.00     0.029 A 
ATOM     56  C   UNL A   1      42.117  30.178  35.010  1.00  0.00     0.049 A 
ATOM     57  H   UNL A   1      40.598  30.958  33.772  1.00  0.00     0.167 HD
ATOM     58  C   UNL A   1      42.273  28.820  32.938  1.00  0.00     0.074 A 
ATOM     59  C   UNL A   1      42.875  27.790  32.120  1.00  0.00     0.031 C 
ATOM     60  C   UNL A   1      42.691  29.147  34.186  1.00  0.00     0.037 A 
BRANCH  47  61
ATOM     61  C   UNL A   1      39.584  33.814  36.770  1.00  0.00     0.064 A 
ATOM     62  C   UNL A   1      38.831  33.475  37.905  1.00  0.00     0.173 A 
ATOM     63  C   UNL A   1      40.227  35.060  36.756  1.00  0.00     0.173 A 
ATOM     64  F   UNL A   1      38.186  32.299  37.960  1.00  0.00    -0.203 F 
ATOM     65  C   UNL A   1      38.704  34.362  38.970  1.00  0.00     0.198 A 
ATOM     66  C   UNL A   1      40.120  35.934  37.835  1.00  0.00     0.198 A 
ATOM     67  F   UNL A   1      40.961  35.431  35.696  1.00  0.00    -0.203 F 
ATOM     68  F   UNL A   1      37.939  34.036  40.022  1.00  0.00    -0.200 F 
ATOM     69  C   UNL A   1      39.352  35.587  38.937  1.00  0.00     0.200 A 
ATOM     70  F   UNL A   1      40.756  37.113  37.806  1.00  0.00    -0.200 F 
ATOM     71  F   UNL A   1      39.232  36.437  39.965  1.00  0.00    -0.200 F 
ENDBRANCH  47  61
BRANCH  48  72
ATOM     72  C   UNL A   1      40.471  28.061  28.658  1.00  0.00     0.064 A 
ATOM     73  C   UNL A   1      39.851  26.809  28.541  1.00  0.00     0.173 A 
ATOM     74  C   UNL A   1      41.245  28.510  27.580  1.00  0.00     0.173 A 
ATOM     75  F   UNL A   1      39.117  26.330  29.556  1.00  0.00    -0.203 F 
ATOM     76  C   UNL A   1      40.012  26.031  27.397  1.00  0.00     0.198 A 
ATOM     77  C   UNL A   1      41.386  27.741  26.425  1.00  0.00     0.198 A 
ATOM     78  F   UNL A   1      41.854  29.703  27.640  1.00  0.00    -0.203 F 
ATOM     79  F   UNL A   1      39.437  24.822  27.325  1.00  0.00    -0.200 F 
ATOM     80  C   UNL A   1      40.773  26.500  26.337  1.00  0.00     0.200 A 
ATOM     81  F   UNL A   1      42.112  28.204  25.399  1.00  0.00    -0.200 F 
ATOM     82  F   UNL A   1      40.922  25.754  25.234  1.00  0.00    -0.200 F 
ENDBRANCH  48  72
BRANCH  60  83
ATOM     83  C   UNL A   1      43.831  28.360  34.759  1.00  0.00     0.064 A 
ATOM     84  C   UNL A   1      45.154  28.813  34.665  1.00  0.00     0.173 A 
ATOM     85  C   UNL A   1      43.584  27.178  35.474  1.00  0.00     0.173 A 
ATOM     86  F   UNL A   1      45.438  29.930  33.978  1.00  0.00    -0.203 F 
ATOM     87  C   UNL A   1      46.194  28.102  35.258  1.00  0.00     0.198 A 
ATOM     88  C   UNL A   1      44.624  26.484  36.085  1.00  0.00     0.198 A 
ATOM     89  F   UNL A   1      42.334  26.710  35.596  1.00  0.00    -0.203 F 
ATOM     90  F   UNL A   1      47.456  28.536  35.132  1.00  0.00    -0.200 F 
ATOM     91  C   UNL A   1      45.928  26.944  35.975  1.00  0.00     0.200 A 
ATOM     92  F   UNL A   1      44.364  25.372  36.786  1.00  0.00    -0.200 F 
ATOM     93  F   UNL A   1      46.928  26.270  36.558  1.00  0.00    -0.200 F 
ENDBRANCH  60  83
ENDBRANCH  34  35
ENDBRANCH  26  29
ENDBRANCH  24  25
ENDBRANCH  23  24
ENDBRANCH   1  23
TORSDOF 16
ENDMDL
MODEL 2
REMARK VINA RESULT:     -12.1      1.401      7.572
REMARK SMILES CC[C@H]1CC[C@](C[C@@H](O)C(F)(F)F)(C(=O)NCCCCNC(=O)c2ccc(-c3c4nc(c(-c5c(F)c(F)c(F)c(F)c5F)c5ccc([nH]5)c(-c5c(F)c(F)c(F)c(F)c5F)c5nc(c(-c6c(F)c(F)c(F)c(F)c6F)c6ccc3[nH]6)C=C5)C=C4)cc2)CC1
REMARK SMILES IDX 18 1 17 2 16 3 14 4 15 5 6 7 3 8 88 9 4 10 87 11 5 12 2 13
REMARK SMILES IDX 1 14 7 15 8 16 9 17 10 19 11 20 12 21 13 22 19 23 20 24
REMARK SMILES IDX 21 25 22 26 23 28 24 29 25 30 86 31 26 32 85 33 27 34 28 35
REMARK SMILES IDX 29 36 79 37 30 38 84 39 78 40 80 41 31 42 83 43 77 44 76 45
REMARK SMILES IDX 32 47 64 48 44 49 63 50 45 51 48 52 62 53 81 54 46 55 47 56
REMARK SMILES IDX 61 58 82 59 49 60 33 61 34 62 42 63 35 64 36 65 40 66 43 67
REMARK SMILES IDX 37 68 38 69 41 70 39 71 65 72 66 73 74 74 67 75 68 76 72 77
REMARK SMILES IDX 75 78 69 79 70 80 73 81 71 82 50 83 51 84 59 85 52 86 53 87
REMARK SMILES IDX 57 88 60 89 54 90 55 91 58 92 56 93
REMARK H PARENT 16 6 9 18 21 27 80 46 48 57
REMARK Flexibility Score: inf
ROOT
ATOM      1  C   UNL A   1      32.369  29.704  27.105  1.00  0.00     0.023 C 
ENDROOT
BRANCH   1   2
ATOM      2  C   UNL A   1      33.687  29.195  26.543  1.00  0.00     0.116 C 
BRANCH   2   3
ATOM      3  N   UNL A   1      33.798  29.355  25.107  1.00  0.00    -0.356 N 
ATOM      4  C   UNL A   1      33.474  28.539  24.067  1.00  0.00     0.226 C 
ATOM      5  O   UNL A   1      33.368  29.101  22.970  1.00  0.00    -0.274 OA
ATOM      6  H   UNL A   1      34.181  30.218  24.830  1.00  0.00     0.163 HD
BRANCH   4   7
ATOM      7  C   UNL A   1      33.202  27.015  24.201  1.00  0.00     0.052 C 
ATOM      8  C   UNL A   1      34.261  24.187  23.646  1.00  0.00    -0.011 C 
ATOM      9  C   UNL A   1      33.285  24.885  22.688  1.00  0.00     0.005 C 
ATOM     10  C   UNL A   1      34.192  24.789  25.047  1.00  0.00     0.005 C 
ATOM     11  C   UNL A   1      33.370  26.414  22.755  1.00  0.00     0.017 C 
ATOM     12  C   UNL A   1      34.282  26.308  25.050  1.00  0.00     0.017 C 
BRANCH   8  13
ATOM     13  C   UNL A   1      33.994  22.668  23.659  1.00  0.00    -0.000 C 
ATOM     14  C   UNL A   1      32.698  22.256  22.974  1.00  0.00     0.004 C 
ENDBRANCH   8  13
BRANCH   7  15
ATOM     15  C   UNL A   1      31.725  26.725  24.626  1.00  0.00     0.058 C 
BRANCH  15  16
ATOM     16  C   UNL A   1      30.635  26.615  23.553  1.00  0.00     0.220 C 
BRANCH  16  17
ATOM     17  O   UNL A   1      29.693  25.596  23.923  1.00  0.00    -0.384 OA
ATOM     18  H   UNL A   1      28.800  25.973  23.948  1.00  0.00     0.211 HD
ENDBRANCH  16  17
BRANCH  16  19
ATOM     19  C   UNL A   1      29.938  27.971  23.328  1.00  0.00     0.414 C 
ATOM     20  F   UNL A   1      28.592  27.827  23.339  1.00  0.00    -0.168 F 
ATOM     21  F   UNL A   1      30.257  28.855  24.299  1.00  0.00    -0.168 F 
ATOM     22  F   UNL A   1      30.287  28.513  22.140  1.00  0.00    -0.168 F 
ENDBRANCH  16  19
ENDBRANCH  15  16
ENDBRANCH   7  15
ENDBRANCH   4   7
ENDBRANCH   2   3
ENDBRANCH   1   2
BRANCH   1  23
ATOM     23  C   UNL A   1      32.114  31.185  26.841  1.00  0.00     0.023 C 
BRANCH  23  24
ATOM     24  C   UNL A   1      33.069  32.150  27.539  1.00  0.00     0.116 C 
BRANCH  24  25
ATOM     25  N   UNL A   1      32.567  33.516  27.636  1.00  0.00    -0.352 N 
ATOM     26  C   UNL A   1      33.037  34.543  28.423  1.00  0.00     0.251 C 
ATOM     27  H   UNL A   1      31.794  33.730  27.067  1.00  0.00     0.163 HD
ATOM     28  O   UNL A   1      32.479  35.629  28.456  1.00  0.00    -0.269 OA
BRANCH  26  29
ATOM     29  C   UNL A   1      34.213  34.278  29.272  1.00  0.00     0.039 A 
ATOM     30  C   UNL A   1      34.024  33.663  30.510  1.00  0.00     0.014 A 
ATOM     31  C   UNL A   1      35.496  34.520  28.775  1.00  0.00     0.014 A 
ATOM     32  C   UNL A   1      35.132  33.194  31.215  1.00  0.00     0.010 A 
ATOM     33  C   UNL A   1      36.591  33.989  29.443  1.00  0.00     0.010 A 
ATOM     34  C   UNL A   1      36.417  33.306  30.658  1.00  0.00    -0.014 A 
BRANCH  34  35
ATOM     35  C   UNL A   1      37.601  32.695  31.308  1.00  0.00     0.031 A 
ATOM     36  C   UNL A   1      38.306  31.552  30.639  1.00  0.00     0.074 A 
ATOM     37  C   UNL A   1      37.966  33.091  32.543  1.00  0.00     0.049 A 
ATOM     38  N   UNL A   1      39.254  30.779  31.102  1.00  0.00    -0.248 NA
ATOM     39  C   UNL A   1      37.856  31.209  29.281  1.00  0.00     0.031 C 
ATOM     40  C   UNL A   1      37.323  34.153  33.318  1.00  0.00     0.029 A 
ATOM     41  N   UNL A   1      38.953  32.624  33.376  1.00  0.00    -0.354 N 
ATOM     42  C   UNL A   1      39.490  29.840  30.107  1.00  0.00     0.074 A 
ATOM     43  C   UNL A   1      38.561  30.115  29.032  1.00  0.00     0.031 C 
ATOM     44  C   UNL A   1      37.937  34.264  34.507  1.00  0.00     0.029 A 
ATOM     45  C   UNL A   1      38.989  33.256  34.595  1.00  0.00     0.049 A 
ATOM     46  H   UNL A   1      39.576  31.905  33.123  1.00  0.00     0.167 HD
ATOM     47  C   UNL A   1      40.412  28.850  30.086  1.00  0.00     0.037 A 
ATOM     48  C   UNL A   1      39.772  33.035  35.669  1.00  0.00     0.037 A 
ATOM     49  C   UNL A   1      41.364  28.611  31.137  1.00  0.00     0.049 A 
ATOM     50  C   UNL A   1      40.807  31.946  35.609  1.00  0.00     0.074 A 
ATOM     51  C   UNL A   1      42.394  27.689  31.175  1.00  0.00     0.029 A 
ATOM     52  N   UNL A   1      41.404  29.307  32.337  1.00  0.00    -0.354 N 
ATOM     53  N   UNL A   1      41.069  31.106  34.637  1.00  0.00    -0.248 NA
ATOM     54  C   UNL A   1      41.658  31.772  36.796  1.00  0.00     0.031 C 
ATOM     55  C   UNL A   1      43.036  27.803  32.412  1.00  0.00     0.029 A 
ATOM     56  C   UNL A   1      42.430  28.821  33.129  1.00  0.00     0.049 A 
ATOM     57  H   UNL A   1      40.791  30.036  32.589  1.00  0.00     0.167 HD
ATOM     58  C   UNL A   1      42.126  30.326  35.080  1.00  0.00     0.074 A 
ATOM     59  C   UNL A   1      42.465  30.793  36.408  1.00  0.00     0.031 C 
ATOM     60  C   UNL A   1      42.761  29.312  34.442  1.00  0.00     0.037 A 
BRANCH  47  61
ATOM     61  C   UNL A   1      40.435  27.952  28.887  1.00  0.00     0.064 A 
ATOM     62  C   UNL A   1      39.710  26.751  28.853  1.00  0.00     0.173 A 
ATOM     63  C   UNL A   1      41.171  28.308  27.747  1.00  0.00     0.173 A 
ATOM     64  F   UNL A   1      39.002  26.361  29.924  1.00  0.00    -0.203 F 
ATOM     65  C   UNL A   1      39.745  25.925  27.733  1.00  0.00     0.198 A 
ATOM     66  C   UNL A   1      41.182  27.493  26.619  1.00  0.00     0.198 A 
ATOM     67  F   UNL A   1      41.879  29.448  27.727  1.00  0.00    -0.203 F 
ATOM     68  F   UNL A   1      39.084  24.759  27.742  1.00  0.00    -0.200 F 
ATOM     69  C   UNL A   1      40.475  26.299  26.616  1.00  0.00     0.200 A 
ATOM     70  F   UNL A   1      41.879  27.861  25.535  1.00  0.00    -0.200 F 
ATOM     71  F   UNL A   1      40.504  25.505  25.537  1.00  0.00    -0.200 F 
ENDBRANCH  47  61
BRANCH  48  72
ATOM     72  C   UNL A   1      39.618  33.877  36.882  1.00  0.00     0.064 A 
ATOM     73  C   UNL A   1      38.817  33.452  37.952  1.00  0.00     0.173 A 
ATOM     74  C   UNL A   1      40.269  35.112  37.003  1.00  0.00     0.173 A 
ATOM     75  F   UNL A   1      38.159  32.287  37.872  1.00  0.00    -0.203 F 
ATOM     76  C   UNL A   1      38.663  34.239  39.091  1.00  0.00     0.198 A 
ATOM     77  C   UNL A   1      40.133  35.888  38.153  1.00  0.00     0.198 A 
ATOM     78  F   UNL A   1      41.051  35.559  36.009  1.00  0.00    -0.203 F 
ATOM     79  F   UNL A   1      37.863  33.827  40.084  1.00  0.00    -0.200 F 
ATOM     80  C   UNL A   1      39.325  35.453  39.194  1.00  0.00     0.200 A 
ATOM     81  F   UNL A   1      40.785  37.053  38.254  1.00  0.00    -0.200 F 
ATOM     82  F   UNL A   1      39.182  36.207  40.292  1.00  0.00    -0.200 F 
ENDBRANCH  48  72
BRANCH  60  83
ATOM     83  C   UNL A   1      43.909  28.662  35.152  1.00  0.00     0.064 A 
ATOM     84  C   UNL A   1      43.724  27.537  35.968  1.00  0.00     0.173 A 
ATOM     85  C   UNL A   1      45.218  29.127  34.952  1.00  0.00     0.173 A 
ATOM     86  F   UNL A   1      42.489  27.067  36.199  1.00  0.00    -0.203 F 
ATOM     87  C   UNL A   1      44.810  26.907  36.570  1.00  0.00     0.198 A 
ATOM     88  C   UNL A   1      46.302  28.479  35.536  1.00  0.00     0.198 A 
ATOM     89  F   UNL A   1      45.444  30.196  34.175  1.00  0.00    -0.203 F 
ATOM     90  F   UNL A   1      44.609  25.851  37.370  1.00  0.00    -0.200 F 
ATOM     91  C   UNL A   1      46.098  27.372  36.347  1.00  0.00     0.200 A 
ATOM     92  F   UNL A   1      47.546  28.923  35.311  1.00  0.00    -0.200 F 
ATOM     93  F   UNL A   1      47.142  26.754  36.914  1.00  0.00    -0.200 F 
ENDBRANCH  60  83
ENDBRANCH  34  35
ENDBRANCH  26  29
ENDBRANCH  24  25
ENDBRANCH  23  24
ENDBRANCH   1  23
TORSDOF 16
ENDMDL
MODEL 3
REMARK VINA RESULT:     -12.0      0.242      2.021
REMARK SMILES CC[C@H]1CC[C@](C[C@@H](O)C(F)(F)F)(C(=O)NCCCCNC(=O)c2ccc(-c3c4nc(c(-c5c(F)c(F)c(F)c(F)c5F)c5ccc([nH]5)c(-c5c(F)c(F)c(F)c(F)c5F)c5nc(c(-c6c(F)c(F)c(F)c(F)c6F)c6ccc3[nH]6)C=C5)C=C4)cc2)CC1
REMARK SMILES IDX 18 1 17 2 16 3 14 4 15 5 6 7 3 8 88 9 4 10 87 11 5 12 2 13
REMARK SMILES IDX 1 14 7 15 8 16 9 17 10 19 11 20 12 21 13 22 19 23 20 24
REMARK SMILES IDX 21 25 22 26 23 28 24 29 25 30 86 31 26 32 85 33 27 34 28 35
REMARK SMILES IDX 29 36 79 37 30 38 84 39 78 40 80 41 31 42 83 43 77 44 76 45
REMARK SMILES IDX 32 47 64 48 44 49 63 50 45 51 48 52 62 53 81 54 46 55 47 56
REMARK SMILES IDX 61 58 82 59 49 60 33 61 34 62 42 63 35 64 36 65 40 66 43 67
REMARK SMILES IDX 37 68 38 69 41 70 39 71 65 72 66 73 74 74 67 75 68 76 72 77
REMARK SMILES IDX 75 78 69 79 70 80 73 81 71 82 50 83 51 84 59 85 52 86 53 87
REMARK SMILES IDX 57 88 60 89 54 90 55 91 58 92 56 93
REMARK H PARENT 16 6 9 18 21 27 80 46 48 57
REMARK Flexibility Score: inf
ROOT
ATOM      1  C   UNL A   1      32.144  30.373  26.552  1.00  0.00     0.023 C 
ENDROOT
BRANCH   1   2
ATOM      2  C   UNL A   1      31.715  29.913  25.168  1.00  0.00     0.116 C 
BRANCH   2   3
ATOM      3  N   UNL A   1      32.828  29.703  24.263  1.00  0.00    -0.356 N 
ATOM      4  C   UNL A   1      33.298  28.592  23.633  1.00  0.00     0.226 C 
ATOM      5  O   UNL A   1      34.040  28.809  22.667  1.00  0.00    -0.274 OA
ATOM      6  H   UNL A   1      33.343  30.518  24.068  1.00  0.00     0.163 HD
BRANCH   4   7
ATOM      7  C   UNL A   1      32.924  27.136  24.029  1.00  0.00     0.052 C 
ATOM      8  C   UNL A   1      31.585  25.339  26.127  1.00  0.00    -0.011 C 
ATOM      9  C   UNL A   1      33.101  25.587  26.126  1.00  0.00     0.005 C 
ATOM     10  C   UNL A   1      30.976  25.609  24.753  1.00  0.00     0.005 C 
ATOM     11  C   UNL A   1      33.489  26.923  25.483  1.00  0.00     0.017 C 
ATOM     12  C   UNL A   1      31.397  26.949  24.167  1.00  0.00     0.017 C 
BRANCH   8  13
ATOM     13  C   UNL A   1      31.283  23.907  26.617  1.00  0.00    -0.000 C 
ATOM     14  C   UNL A   1      32.523  23.056  26.860  1.00  0.00     0.004 C 
ENDBRANCH   8  13
BRANCH   7  15
ATOM     15  C   UNL A   1      33.645  26.086  23.121  1.00  0.00     0.058 C 
BRANCH  15  16
ATOM     16  C   UNL A   1      32.826  25.240  22.139  1.00  0.00     0.220 C 
BRANCH  16  17
ATOM     17  O   UNL A   1      33.277  25.485  20.797  1.00  0.00    -0.384 OA
ATOM     18  H   UNL A   1      32.774  24.931  20.181  1.00  0.00     0.211 HD
ENDBRANCH  16  17
BRANCH  16  19
ATOM     19  C   UNL A   1      32.903  23.743  22.496  1.00  0.00     0.414 C 
ATOM     20  F   UNL A   1      33.706  23.545  23.567  1.00  0.00    -0.168 F 
ATOM     21  F   UNL A   1      31.685  23.250  22.809  1.00  0.00    -0.168 F 
ATOM     22  F   UNL A   1      33.395  23.017  21.468  1.00  0.00    -0.168 F 
ENDBRANCH  16  19
ENDBRANCH  15  16
ENDBRANCH   7  15
ENDBRANCH   4   7
ENDBRANCH   2   3
ENDBRANCH   1   2
BRANCH   1  23
ATOM     23  C   UNL A   1      31.757  31.814  26.874  1.00  0.00     0.023 C 
BRANCH  23  24
ATOM     24  C   UNL A   1      32.902  32.711  27.337  1.00  0.00     0.116 C 
BRANCH  24  25
ATOM     25  N   UNL A   1      32.500  34.083  27.625  1.00  0.00    -0.352 N 
ATOM     26  C   UNL A   1      33.016  34.941  28.570  1.00  0.00     0.251 C 
ATOM     27  H   UNL A   1      31.767  34.441  27.076  1.00  0.00     0.163 HD
ATOM     28  O   UNL A   1      32.539  36.052  28.752  1.00  0.00    -0.269 OA
BRANCH  26  29
ATOM     29  C   UNL A   1      34.136  34.461  29.400  1.00  0.00     0.039 A 
ATOM     30  C   UNL A   1      33.853  33.792  30.591  1.00  0.00     0.014 A 
ATOM     31  C   UNL A   1      35.445  34.562  28.923  1.00  0.00     0.014 A 
ATOM     32  C   UNL A   1      34.880  33.128  31.261  1.00  0.00     0.010 A 
ATOM     33  C   UNL A   1      36.451  33.842  29.552  1.00  0.00     0.010 A 
ATOM     34  C   UNL A   1      36.174  33.105  30.715  1.00  0.00    -0.014 A 
BRANCH  34  35
ATOM     35  C   UNL A   1      37.258  32.295  31.322  1.00  0.00     0.031 A 
ATOM     36  C   UNL A   1      37.765  32.644  32.690  1.00  0.00     0.074 A 
ATOM     37  C   UNL A   1      37.857  31.330  30.599  1.00  0.00     0.049 A 
ATOM     38  N   UNL A   1      38.800  32.171  33.335  1.00  0.00    -0.248 NA
ATOM     39  C   UNL A   1      37.030  33.692  33.414  1.00  0.00     0.031 C 
ATOM     40  C   UNL A   1      37.490  30.938  29.237  1.00  0.00     0.029 A 
ATOM     41  N   UNL A   1      38.924  30.519  30.901  1.00  0.00    -0.354 N 
ATOM     42  C   UNL A   1      38.860  32.885  34.522  1.00  0.00     0.074 A 
ATOM     43  C   UNL A   1      37.782  33.851  34.494  1.00  0.00     0.031 C 
ATOM     44  C   UNL A   1      38.309  29.956  28.825  1.00  0.00     0.029 A 
ATOM     45  C   UNL A   1      39.284  29.678  29.876  1.00  0.00     0.049 A 
ATOM     46  H   UNL A   1      39.386  30.538  31.769  1.00  0.00     0.167 HD
ATOM     47  C   UNL A   1      39.726  32.737  35.551  1.00  0.00     0.037 A 
ATOM     48  C   UNL A   1      40.297  28.794  29.789  1.00  0.00     0.037 A 
ATOM     49  C   UNL A   1      40.766  31.745  35.595  1.00  0.00     0.049 A 
ATOM     50  C   UNL A   1      41.228  28.629  30.957  1.00  0.00     0.074 A 
ATOM     51  C   UNL A   1      41.640  31.456  36.626  1.00  0.00     0.029 A 
ATOM     52  N   UNL A   1      41.068  30.875  34.557  1.00  0.00    -0.354 N 
ATOM     53  N   UNL A   1      41.235  29.263  32.104  1.00  0.00    -0.248 NA
ATOM     54  C   UNL A   1      42.294  27.625  30.820  1.00  0.00     0.031 C 
ATOM     55  C   UNL A   1      42.495  30.434  36.201  1.00  0.00     0.029 A 
ATOM     56  C   UNL A   1      42.128  30.060  34.918  1.00  0.00     0.049 A 
ATOM     57  H   UNL A   1      40.599  30.842  33.691  1.00  0.00     0.167 HD
ATOM     58  C   UNL A   1      42.282  28.720  32.835  1.00  0.00     0.074 A 
ATOM     59  C   UNL A   1      42.887  27.699  32.005  1.00  0.00     0.031 C 
ATOM     60  C   UNL A   1      42.704  29.039  34.083  1.00  0.00     0.037 A 
BRANCH  47  61
ATOM     61  C   UNL A   1      39.582  33.669  36.716  1.00  0.00     0.064 A 
ATOM     62  C   UNL A   1      40.248  34.904  36.756  1.00  0.00     0.173 A 
ATOM     63  C   UNL A   1      38.750  33.335  37.795  1.00  0.00     0.173 A 
ATOM     64  F   UNL A   1      41.066  35.262  35.754  1.00  0.00    -0.203 F 
ATOM     65  C   UNL A   1      40.108  35.758  37.846  1.00  0.00     0.198 A 
ATOM     66  C   UNL A   1      38.591  34.203  38.871  1.00  0.00     0.198 A 
ATOM     67  F   UNL A   1      38.089  32.168  37.803  1.00  0.00    -0.203 F 
ATOM     68  F   UNL A   1      40.791  36.910  37.885  1.00  0.00    -0.200 F 
ATOM     69  C   UNL A   1      39.275  35.410  38.899  1.00  0.00     0.200 A 
ATOM     70  F   UNL A   1      37.778  33.872  39.883  1.00  0.00    -0.200 F 
ATOM     71  F   UNL A   1      39.138  36.235  39.947  1.00  0.00    -0.200 F 
ENDBRANCH  47  61
BRANCH  48  72
ATOM     72  C   UNL A   1      40.467  27.984  28.556  1.00  0.00     0.064 A 
ATOM     73  C   UNL A   1      41.232  28.465  27.483  1.00  0.00     0.173 A 
ATOM     74  C   UNL A   1      39.881  26.718  28.425  1.00  0.00     0.173 A 
ATOM     75  F   UNL A   1      41.794  29.679  27.555  1.00  0.00    -0.203 F 
ATOM     76  C   UNL A   1      41.391  27.714  26.320  1.00  0.00     0.198 A 
ATOM     77  C   UNL A   1      40.061  25.957  27.271  1.00  0.00     0.198 A 
ATOM     78  F   UNL A   1      39.146  26.212  29.426  1.00  0.00    -0.203 F 
ATOM     79  F   UNL A   1      42.097  28.212  25.296  1.00  0.00    -0.200 F 
ATOM     80  C   UNL A   1      40.811  26.459  26.217  1.00  0.00     0.200 A 
ATOM     81  F   UNL A   1      39.510  24.740  27.180  1.00  0.00    -0.200 F 
ATOM     82  F   UNL A   1      40.970  25.734  25.102  1.00  0.00    -0.200 F 
ENDBRANCH  48  72
BRANCH  60  83
ATOM     83  C   UNL A   1      43.850  28.254  34.646  1.00  0.00     0.064 A 
ATOM     84  C   UNL A   1      43.647  27.040  35.318  1.00  0.00     0.173 A 
ATOM     85  C   UNL A   1      45.169  28.687  34.444  1.00  0.00     0.173 A 
ATOM     86  F   UNL A   1      42.402  26.595  35.546  1.00  0.00    -0.203 F 
ATOM     87  C   UNL A   1      44.727  26.292  35.779  1.00  0.00     0.198 A 
ATOM     88  C   UNL A   1      46.246  27.924  34.886  1.00  0.00     0.198 A 
ATOM     89  F   UNL A   1      45.412  29.839  33.801  1.00  0.00    -0.203 F 
ATOM     90  F   UNL A   1      44.511  25.149  36.444  1.00  0.00    -0.200 F 
ATOM     91  C   UNL A   1      46.025  26.730  35.555  1.00  0.00     0.200 A 
ATOM     92  F   UNL A   1      47.499  28.343  34.660  1.00  0.00    -0.200 F 
ATOM     93  F   UNL A   1      47.062  26.000  35.986  1.00  0.00    -0.200 F 
ENDBRANCH  60  83
ENDBRANCH  34  35
ENDBRANCH  26  29
ENDBRANCH  24  25
ENDBRANCH  23  24
ENDBRANCH   1  23
TORSDOF 16
ENDMDL
