MODEL 1
REMARK VINA RESULT:     -13.3      0.000      0.000
REMARK SMILES Cc1c(Cl)ccc2c1C=C(C(=O)NCCCCNC(=O)c1ccc(-c3c4nc(c(-c5c(F)c(F)c(F)c(F)c5F)c5ccc([nH]5)c(-c5c(F)c(F)c(F)c(F)c5F)c5nc(c(-c6c(F)c(F)c(F)c(F)c6F)c6ccc3[nH]6)C=C5)C=C4)cc1)[C@@H](C(F)(F)F)O2
REMARK SMILES IDX 16 1 15 2 14 3 13 4 11 5 12 6 10 8 1 9 2 10 3 11 8 12 4 13
REMARK SMILES IDX 5 14 7 15 9 16 6 17 89 18 84 19 85 20 86 21 87 22 88 23
REMARK SMILES IDX 17 24 18 25 19 26 20 28 21 29 22 30 83 31 23 32 82 33 24 34
REMARK SMILES IDX 25 35 26 36 76 37 27 38 81 39 75 40 77 41 28 42 80 43 74 44
REMARK SMILES IDX 73 45 29 47 61 48 41 49 60 50 42 51 45 52 59 53 78 54 43 55
REMARK SMILES IDX 44 56 58 58 79 59 46 60 30 61 31 62 39 63 32 64 33 65 37 66
REMARK SMILES IDX 40 67 34 68 35 69 38 70 36 71 62 72 63 73 71 74 64 75 65 76
REMARK SMILES IDX 69 77 72 78 66 79 67 80 70 81 68 82 47 83 48 84 56 85 49 86
REMARK SMILES IDX 50 87 54 88 57 89 51 90 52 91 55 92 53 93
REMARK H PARENT 13 7 18 27 77 46 45 57
REMARK Flexibility Score: inf
ROOT
ATOM      1  C   UNL A   1      31.523  32.119  26.854  1.00  0.00     0.023 C 
ENDROOT
BRANCH   1   2
ATOM      2  C   UNL A   1      31.778  30.613  26.741  1.00  0.00     0.023 C 
BRANCH   2   3
ATOM      3  C   UNL A   1      33.253  30.240  26.620  1.00  0.00     0.116 C 
BRANCH   3   4
ATOM      4  N   UNL A   1      33.575  29.752  25.291  1.00  0.00    -0.352 N 
ATOM      5  C   UNL A   1      33.540  28.568  24.637  1.00  0.00     0.251 C 
ATOM      6  O   UNL A   1      33.940  28.609  23.470  1.00  0.00    -0.270 OA
ATOM      7  H   UNL A   1      33.907  30.475  24.711  1.00  0.00     0.163 HD
BRANCH   5   8
ATOM      8  C   UNL A   1      33.063  27.272  25.210  1.00  0.00     0.067 C 
ATOM      9  C   UNL A   1      35.729  23.804  24.885  1.00  0.00     0.047 C 
ATOM     10  C   UNL A   1      34.416  23.804  25.627  1.00  0.00    -0.021 A 
ATOM     11  C   UNL A   1      33.954  22.592  26.191  1.00  0.00     0.044 A 
ATOM     12  C   UNL A   1      33.603  24.957  25.756  1.00  0.00     0.022 A 
ATOM     13  Cl  UNL A   1      34.866  21.124  26.070  1.00  0.00    -0.084 Cl
ATOM     14  C   UNL A   1      32.738  22.521  26.872  1.00  0.00     0.024 A 
ATOM     15  C   UNL A   1      32.374  24.854  26.427  1.00  0.00     0.128 A 
ATOM     16  C   UNL A   1      33.978  26.285  25.259  1.00  0.00     0.026 C 
ATOM     17  C   UNL A   1      31.948  23.656  26.994  1.00  0.00     0.048 A 
ATOM     18  O   UNL A   1      31.530  25.914  26.611  1.00  0.00    -0.475 OA
ATOM     19  C   UNL A   1      31.663  27.013  25.675  1.00  0.00     0.314 C 
BRANCH  19  20
ATOM     20  C   UNL A   1      30.671  26.829  24.512  1.00  0.00     0.429 C 
ATOM     21  F   UNL A   1      31.274  26.211  23.466  1.00  0.00    -0.167 F 
ATOM     22  F   UNL A   1      29.614  26.054  24.853  1.00  0.00    -0.167 F 
ATOM     23  F   UNL A   1      30.171  28.000  24.060  1.00  0.00    -0.167 F 
ENDBRANCH  19  20
ENDBRANCH   5   8
ENDBRANCH   3   4
ENDBRANCH   2   3
ENDBRANCH   1   2
BRANCH   1  24
ATOM     24  C   UNL A   1      32.731  32.954  27.273  1.00  0.00     0.116 C 
BRANCH  24  25
ATOM     25  N   UNL A   1      32.384  34.304  27.698  1.00  0.00    -0.352 N 
ATOM     26  C   UNL A   1      32.986  35.058  28.675  1.00  0.00     0.251 C 
ATOM     27  H   UNL A   1      31.628  34.725  27.229  1.00  0.00     0.163 HD
ATOM     28  O   UNL A   1      32.554  36.161  28.986  1.00  0.00    -0.269 OA
BRANCH  26  29
ATOM     29  C   UNL A   1      34.150  34.489  29.371  1.00  0.00     0.039 A 
ATOM     30  C   UNL A   1      33.936  33.706  30.508  1.00  0.00     0.014 A 
ATOM     31  C   UNL A   1      35.432  34.662  28.841  1.00  0.00     0.014 A 
ATOM     32  C   UNL A   1      35.014  33.039  31.085  1.00  0.00     0.010 A 
ATOM     33  C   UNL A   1      36.496  33.961  29.393  1.00  0.00     0.010 A 
ATOM     34  C   UNL A   1      36.293  33.143  30.515  1.00  0.00    -0.014 A 
BRANCH  34  35
ATOM     35  C   UNL A   1      37.440  32.414  31.098  1.00  0.00     0.031 A 
ATOM     36  C   UNL A   1      37.936  32.788  32.461  1.00  0.00     0.074 A 
ATOM     37  C   UNL A   1      38.054  31.454  30.383  1.00  0.00     0.049 A 
ATOM     38  N   UNL A   1      38.946  32.301  33.134  1.00  0.00    -0.248 NA
ATOM     39  C   UNL A   1      37.211  33.867  33.152  1.00  0.00     0.031 C 
ATOM     40  C   UNL A   1      37.672  31.029  29.035  1.00  0.00     0.029 A 
ATOM     41  N   UNL A   1      39.130  30.663  30.691  1.00  0.00    -0.354 N 
ATOM     42  C   UNL A   1      38.975  33.010  34.327  1.00  0.00     0.074 A 
ATOM     43  C   UNL A   1      37.918  33.996  34.264  1.00  0.00     0.031 C 
ATOM     44  C   UNL A   1      38.491  30.041  28.639  1.00  0.00     0.029 A 
ATOM     45  C   UNL A   1      39.466  29.779  29.695  1.00  0.00     0.049 A 
ATOM     46  H   UNL A   1      39.617  30.724  31.544  1.00  0.00     0.167 HD
ATOM     47  C   UNL A   1      39.794  32.834  35.388  1.00  0.00     0.037 A 
ATOM     48  C   UNL A   1      40.450  28.862  29.647  1.00  0.00     0.037 A 
ATOM     49  C   UNL A   1      40.833  31.843  35.451  1.00  0.00     0.049 A 
ATOM     50  C   UNL A   1      41.366  28.704  30.830  1.00  0.00     0.074 A 
ATOM     51  C   UNL A   1      41.694  31.559  36.496  1.00  0.00     0.029 A 
ATOM     52  N   UNL A   1      41.150  30.971  34.420  1.00  0.00    -0.354 N 
ATOM     53  N   UNL A   1      41.356  29.347  31.972  1.00  0.00    -0.248 NA
ATOM     54  C   UNL A   1      42.427  27.694  30.718  1.00  0.00     0.031 C 
ATOM     55  C   UNL A   1      42.553  30.534  36.086  1.00  0.00     0.029 A 
ATOM     56  C   UNL A   1      42.204  30.157  34.799  1.00  0.00     0.049 A 
ATOM     57  H   UNL A   1      40.694  30.936  33.549  1.00  0.00     0.167 HD
ATOM     58  C   UNL A   1      42.390  28.806  32.723  1.00  0.00     0.074 A 
ATOM     59  C   UNL A   1      43.003  27.777  31.909  1.00  0.00     0.031 C 
ATOM     60  C   UNL A   1      42.795  29.134  33.974  1.00  0.00     0.037 A 
BRANCH  47  61
ATOM     61  C   UNL A   1      39.582  33.725  36.573  1.00  0.00     0.064 A 
ATOM     62  C   UNL A   1      38.781  33.321  37.651  1.00  0.00     0.173 A 
ATOM     63  C   UNL A   1      40.203  34.979  36.645  1.00  0.00     0.173 A 
ATOM     64  F   UNL A   1      38.154  32.135  37.619  1.00  0.00    -0.203 F 
ATOM     65  C   UNL A   1      38.591  34.152  38.751  1.00  0.00     0.198 A 
ATOM     66  C   UNL A   1      40.028  35.798  37.758  1.00  0.00     0.198 A 
ATOM     67  F   UNL A   1      40.978  35.410  35.639  1.00  0.00    -0.203 F 
ATOM     68  F   UNL A   1      37.788  33.763  39.751  1.00  0.00    -0.200 F 
ATOM     69  C   UNL A   1      39.219  35.387  38.806  1.00  0.00     0.200 A 
ATOM     70  F   UNL A   1      40.641  36.989  37.813  1.00  0.00    -0.200 F 
ATOM     71  F   UNL A   1      39.038  36.185  39.868  1.00  0.00    -0.200 F 
ENDBRANCH  47  61
BRANCH  48  72
ATOM     72  C   UNL A   1      40.589  27.992  28.453  1.00  0.00     0.064 A 
ATOM     73  C   UNL A   1      39.951  26.746  28.400  1.00  0.00     0.173 A 
ATOM     74  C   UNL A   1      41.344  28.390  27.340  1.00  0.00     0.173 A 
ATOM     75  F   UNL A   1      39.234  26.317  29.449  1.00  0.00    -0.203 F 
ATOM     76  C   UNL A   1      40.069  25.925  27.280  1.00  0.00     0.198 A 
ATOM     77  C   UNL A   1      41.445  27.576  26.214  1.00  0.00     0.198 A 
ATOM     78  F   UNL A   1      41.971  29.576  27.344  1.00  0.00    -0.203 F 
ATOM     79  F   UNL A   1      39.469  24.727  27.264  1.00  0.00    -0.200 F 
ATOM     80  C   UNL A   1      40.811  26.343  26.186  1.00  0.00     0.200 A 
ATOM     81  F   UNL A   1      42.156  27.987  25.155  1.00  0.00    -0.200 F 
ATOM     82  F   UNL A   1      40.918  25.557  25.107  1.00  0.00    -0.200 F 
ENDBRANCH  48  72
BRANCH  60  83
ATOM     83  C   UNL A   1      43.942  28.364  34.553  1.00  0.00     0.064 A 
ATOM     84  C   UNL A   1      45.256  28.843  34.469  1.00  0.00     0.173 A 
ATOM     85  C   UNL A   1      43.713  27.177  35.263  1.00  0.00     0.173 A 
ATOM     86  F   UNL A   1      45.523  29.968  33.788  1.00  0.00    -0.203 F 
ATOM     87  C   UNL A   1      46.304  28.156  35.075  1.00  0.00     0.198 A 
ATOM     88  C   UNL A   1      44.761  26.504  35.885  1.00  0.00     0.198 A 
ATOM     89  F   UNL A   1      42.471  26.683  35.373  1.00  0.00    -0.203 F 
ATOM     90  F   UNL A   1      47.557  28.618  34.964  1.00  0.00    -0.200 F 
ATOM     91  C   UNL A   1      46.055  26.993  35.788  1.00  0.00     0.200 A 
ATOM     92  F   UNL A   1      44.517  25.386  36.583  1.00  0.00    -0.200 F 
ATOM     93  F   UNL A   1      47.064  26.341  36.382  1.00  0.00    -0.200 F 
ENDBRANCH  60  83
ENDBRANCH  34  35
ENDBRANCH  26  29
ENDBRANCH  24  25
ENDBRANCH   1  24
TORSDOF 12
ENDMDL
MODEL 2
REMARK VINA RESULT:     -13.3      0.117      1.649
REMARK SMILES Cc1c(Cl)ccc2c1C=C(C(=O)NCCCCNC(=O)c1ccc(-c3c4nc(c(-c5c(F)c(F)c(F)c(F)c5F)c5ccc([nH]5)c(-c5c(F)c(F)c(F)c(F)c5F)c5nc(c(-c6c(F)c(F)c(F)c(F)c6F)c6ccc3[nH]6)C=C5)C=C4)cc1)[C@@H](C(F)(F)F)O2
REMARK SMILES IDX 16 1 15 2 14 3 13 4 11 5 12 6 10 8 1 9 2 10 3 11 8 12 4 13
REMARK SMILES IDX 5 14 7 15 9 16 6 17 89 18 84 19 85 20 86 21 87 22 88 23
REMARK SMILES IDX 17 24 18 25 19 26 20 28 21 29 22 30 83 31 23 32 82 33 24 34
REMARK SMILES IDX 25 35 26 36 76 37 27 38 81 39 75 40 77 41 28 42 80 43 74 44
REMARK SMILES IDX 73 45 29 47 61 48 41 49 60 50 42 51 45 52 59 53 78 54 43 55
REMARK SMILES IDX 44 56 58 58 79 59 46 60 30 61 31 62 39 63 32 64 33 65 37 66
REMARK SMILES IDX 40 67 34 68 35 69 38 70 36 71 62 72 63 73 71 74 64 75 65 76
REMARK SMILES IDX 69 77 72 78 66 79 67 80 70 81 68 82 47 83 48 84 56 85 49 86
REMARK SMILES IDX 50 87 54 88 57 89 51 90 52 91 55 92 53 93
REMARK H PARENT 13 7 18 27 77 46 45 57
REMARK Flexibility Score: inf
ROOT
ATOM      1  C   UNL A   1      31.515  32.100  26.890  1.00  0.00     0.023 C 
ENDROOT
BRANCH   1   2
ATOM      2  C   UNL A   1      31.786  30.605  26.702  1.00  0.00     0.023 C 
BRANCH   2   3
ATOM      3  C   UNL A   1      33.266  30.252  26.583  1.00  0.00     0.116 C 
BRANCH   3   4
ATOM      4  N   UNL A   1      33.591  29.748  25.261  1.00  0.00    -0.352 N 
ATOM      5  C   UNL A   1      33.538  28.561  24.614  1.00  0.00     0.251 C 
ATOM      6  O   UNL A   1      33.951  28.585  23.451  1.00  0.00    -0.270 OA
ATOM      7  H   UNL A   1      33.944  30.460  24.679  1.00  0.00     0.163 HD
BRANCH   5   8
ATOM      8  C   UNL A   1      33.028  27.279  25.190  1.00  0.00     0.067 C 
ATOM      9  C   UNL A   1      35.676  23.786  25.035  1.00  0.00     0.047 C 
ATOM     10  C   UNL A   1      34.333  23.810  25.723  1.00  0.00    -0.021 A 
ATOM     11  C   UNL A   1      33.839  22.611  26.290  1.00  0.00     0.044 A 
ATOM     12  C   UNL A   1      33.526  24.970  25.799  1.00  0.00     0.022 A 
ATOM     13  Cl  UNL A   1      34.742  21.134  26.232  1.00  0.00    -0.084 Cl
ATOM     14  C   UNL A   1      32.596  22.562  26.923  1.00  0.00     0.024 A 
ATOM     15  C   UNL A   1      32.270  24.890  26.422  1.00  0.00     0.128 A 
ATOM     16  C   UNL A   1      33.931  26.287  25.294  1.00  0.00     0.026 C 
ATOM     17  C   UNL A   1      31.812  23.705  26.992  1.00  0.00     0.048 A 
ATOM     18  O   UNL A   1      31.428  25.959  26.552  1.00  0.00    -0.475 OA
ATOM     19  C   UNL A   1      31.608  27.040  25.603  1.00  0.00     0.314 C 
BRANCH  19  20
ATOM     20  C   UNL A   1      30.661  26.843  24.405  1.00  0.00     0.429 C 
ATOM     21  F   UNL A   1      30.101  28.024  24.043  1.00  0.00    -0.167 F 
ATOM     22  F   UNL A   1      31.305  26.377  23.308  1.00  0.00    -0.167 F 
ATOM     23  F   UNL A   1      29.657  25.979  24.668  1.00  0.00    -0.167 F 
ENDBRANCH  19  20
ENDBRANCH   5   8
ENDBRANCH   3   4
ENDBRANCH   2   3
ENDBRANCH   1   2
BRANCH   1  24
ATOM     24  C   UNL A   1      32.729  32.939  27.284  1.00  0.00     0.116 C 
BRANCH  24  25
ATOM     25  N   UNL A   1      32.390  34.291  27.703  1.00  0.00    -0.352 N 
ATOM     26  C   UNL A   1      32.998  35.048  28.675  1.00  0.00     0.251 C 
ATOM     27  H   UNL A   1      31.634  34.714  27.235  1.00  0.00     0.163 HD
ATOM     28  O   UNL A   1      32.572  36.154  28.982  1.00  0.00    -0.269 OA
BRANCH  26  29
ATOM     29  C   UNL A   1      34.162  34.477  29.369  1.00  0.00     0.039 A 
ATOM     30  C   UNL A   1      33.949  33.704  30.512  1.00  0.00     0.014 A 
ATOM     31  C   UNL A   1      35.443  34.638  28.832  1.00  0.00     0.014 A 
ATOM     32  C   UNL A   1      35.026  33.035  31.090  1.00  0.00     0.010 A 
ATOM     33  C   UNL A   1      36.506  33.936  29.384  1.00  0.00     0.010 A 
ATOM     34  C   UNL A   1      36.303  33.127  30.513  1.00  0.00    -0.014 A 
BRANCH  34  35
ATOM     35  C   UNL A   1      37.449  32.396  31.096  1.00  0.00     0.031 A 
ATOM     36  C   UNL A   1      37.946  32.770  32.458  1.00  0.00     0.074 A 
ATOM     37  C   UNL A   1      38.059  31.433  30.381  1.00  0.00     0.049 A 
ATOM     38  N   UNL A   1      38.956  32.281  33.131  1.00  0.00    -0.248 NA
ATOM     39  C   UNL A   1      37.225  33.851  33.149  1.00  0.00     0.031 C 
ATOM     40  C   UNL A   1      37.675  31.008  29.034  1.00  0.00     0.029 A 
ATOM     41  N   UNL A   1      39.134  30.640  30.689  1.00  0.00    -0.354 N 
ATOM     42  C   UNL A   1      38.987  32.991  34.323  1.00  0.00     0.074 A 
ATOM     43  C   UNL A   1      37.933  33.980  34.260  1.00  0.00     0.031 C 
ATOM     44  C   UNL A   1      38.492  30.017  28.639  1.00  0.00     0.029 A 
ATOM     45  C   UNL A   1      39.467  29.754  29.694  1.00  0.00     0.049 A 
ATOM     46  H   UNL A   1      39.622  30.700  31.542  1.00  0.00     0.167 HD
ATOM     47  C   UNL A   1      39.807  32.813  35.384  1.00  0.00     0.037 A 
ATOM     48  C   UNL A   1      40.448  28.834  29.646  1.00  0.00     0.037 A 
ATOM     49  C   UNL A   1      40.843  31.820  35.447  1.00  0.00     0.049 A 
ATOM     50  C   UNL A   1      41.365  28.675  30.829  1.00  0.00     0.074 A 
ATOM     51  C   UNL A   1      41.704  31.535  36.492  1.00  0.00     0.029 A 
ATOM     52  N   UNL A   1      41.158  30.946  34.417  1.00  0.00    -0.354 N 
ATOM     53  N   UNL A   1      41.357  29.319  31.970  1.00  0.00    -0.248 NA
ATOM     54  C   UNL A   1      42.423  27.663  30.717  1.00  0.00     0.031 C 
ATOM     55  C   UNL A   1      42.560  30.507  36.082  1.00  0.00     0.029 A 
ATOM     56  C   UNL A   1      42.210  30.130  34.795  1.00  0.00     0.049 A 
ATOM     57  H   UNL A   1      40.701  30.912  33.546  1.00  0.00     0.167 HD
ATOM     58  C   UNL A   1      42.391  28.777  32.720  1.00  0.00     0.074 A 
ATOM     59  C   UNL A   1      43.001  27.745  31.908  1.00  0.00     0.031 C 
ATOM     60  C   UNL A   1      42.797  29.105  33.971  1.00  0.00     0.037 A 
BRANCH  47  61
ATOM     61  C   UNL A   1      39.598  33.706  36.568  1.00  0.00     0.064 A 
ATOM     62  C   UNL A   1      40.196  34.974  36.636  1.00  0.00     0.173 A 
ATOM     63  C   UNL A   1      38.776  33.306  37.630  1.00  0.00     0.173 A 
ATOM     64  F   UNL A   1      41.003  35.392  35.650  1.00  0.00    -0.203 F 
ATOM     65  C   UNL A   1      39.995  35.800  37.738  1.00  0.00     0.198 A 
ATOM     66  C   UNL A   1      38.560  34.144  38.720  1.00  0.00     0.198 A 
ATOM     67  F   UNL A   1      38.183  32.103  37.611  1.00  0.00    -0.203 F 
ATOM     68  F   UNL A   1      40.608  36.989  37.801  1.00  0.00    -0.200 F 
ATOM     69  C   UNL A   1      39.172  35.387  38.776  1.00  0.00     0.200 A 
ATOM     70  F   UNL A   1      37.760  33.748  39.720  1.00  0.00    -0.200 F 
ATOM     71  F   UNL A   1      38.978  36.186  39.834  1.00  0.00    -0.200 F 
ENDBRANCH  47  61
BRANCH  48  72
ATOM     72  C   UNL A   1      40.584  27.963  28.453  1.00  0.00     0.064 A 
ATOM     73  C   UNL A   1      39.947  26.716  28.403  1.00  0.00     0.173 A 
ATOM     74  C   UNL A   1      41.335  28.360  27.337  1.00  0.00     0.173 A 
ATOM     75  F   UNL A   1      39.234  26.288  29.455  1.00  0.00    -0.203 F 
ATOM     76  C   UNL A   1      40.062  25.894  27.284  1.00  0.00     0.198 A 
ATOM     77  C   UNL A   1      41.434  27.545  26.211  1.00  0.00     0.198 A 
ATOM     78  F   UNL A   1      41.962  29.546  27.338  1.00  0.00    -0.203 F 
ATOM     79  F   UNL A   1      39.464  24.696  27.272  1.00  0.00    -0.200 F 
ATOM     80  C   UNL A   1      40.800  26.312  26.188  1.00  0.00     0.200 A 
ATOM     81  F   UNL A   1      42.141  27.955  25.150  1.00  0.00    -0.200 F 
ATOM     82  F   UNL A   1      40.905  25.524  25.109  1.00  0.00    -0.200 F 
ENDBRANCH  48  72
BRANCH  60  83
ATOM     83  C   UNL A   1      43.942  28.332  34.550  1.00  0.00     0.064 A 
ATOM     84  C   UNL A   1      43.735  27.119  35.220  1.00  0.00     0.173 A 
ATOM     85  C   UNL A   1      45.261  28.771  34.364  1.00  0.00     0.173 A 
ATOM     86  F   UNL A   1      42.490  26.668  35.432  1.00  0.00    -0.203 F 
ATOM     87  C   UNL A   1      44.812  26.372  35.690  1.00  0.00     0.198 A 
ATOM     88  C   UNL A   1      46.336  28.011  34.816  1.00  0.00     0.198 A 
ATOM     89  F   UNL A   1      45.506  29.923  33.724  1.00  0.00    -0.203 F 
ATOM     90  F   UNL A   1      44.593  25.227  36.349  1.00  0.00    -0.200 F 
ATOM     91  C   UNL A   1      46.110  26.815  35.481  1.00  0.00     0.200 A 
ATOM     92  F   UNL A   1      47.590  28.433  34.603  1.00  0.00    -0.200 F 
ATOM     93  F   UNL A   1      47.146  26.086  35.921  1.00  0.00    -0.200 F 
ENDBRANCH  60  83
ENDBRANCH  34  35
ENDBRANCH  26  29
ENDBRANCH  24  25
ENDBRANCH   1  24
TORSDOF 12
ENDMDL
MODEL 3
REMARK VINA RESULT:     -13.3      0.057      1.644
REMARK SMILES Cc1c(Cl)ccc2c1C=C(C(=O)NCCCCNC(=O)c1ccc(-c3c4nc(c(-c5c(F)c(F)c(F)c(F)c5F)c5ccc([nH]5)c(-c5c(F)c(F)c(F)c(F)c5F)c5nc(c(-c6c(F)c(F)c(F)c(F)c6F)c6ccc3[nH]6)C=C5)C=C4)cc1)[C@@H](C(F)(F)F)O2
REMARK SMILES IDX 16 1 15 2 14 3 13 4 11 5 12 6 10 8 1 9 2 10 3 11 8 12 4 13
REMARK SMILES IDX 5 14 7 15 9 16 6 17 89 18 84 19 85 20 86 21 87 22 88 23
REMARK SMILES IDX 17 24 18 25 19 26 20 28 21 29 22 30 83 31 23 32 82 33 24 34
REMARK SMILES IDX 25 35 26 36 76 37 27 38 81 39 75 40 77 41 28 42 80 43 74 44
REMARK SMILES IDX 73 45 29 47 61 48 41 49 60 50 42 51 45 52 59 53 78 54 43 55
REMARK SMILES IDX 44 56 58 58 79 59 46 60 30 61 31 62 39 63 32 64 33 65 37 66
REMARK SMILES IDX 40 67 34 68 35 69 38 70 36 71 62 72 63 73 71 74 64 75 65 76
REMARK SMILES IDX 69 77 72 78 66 79 67 80 70 81 68 82 47 83 48 84 56 85 49 86
REMARK SMILES IDX 50 87 54 88 57 89 51 90 52 91 55 92 53 93
REMARK H PARENT 13 7 18 27 77 46 45 57
REMARK Flexibility Score: inf
ROOT
ATOM      1  C   UNL A   1      31.559  32.102  26.878  1.00  0.00     0.023 C 
ENDROOT
BRANCH   1   2
ATOM      2  C   UNL A   1      31.819  30.593  26.848  1.00  0.00     0.023 C 
BRANCH   2   3
ATOM      3  C   UNL A   1      33.287  30.219  26.664  1.00  0.00     0.116 C 
BRANCH   3   4
ATOM      4  N   UNL A   1      33.556  29.749  25.318  1.00  0.00    -0.352 N 
ATOM      5  C   UNL A   1      33.484  28.576  24.647  1.00  0.00     0.251 C 
ATOM      6  O   UNL A   1      33.843  28.631  23.466  1.00  0.00    -0.270 OA
ATOM      7  H   UNL A   1      33.875  30.477  24.737  1.00  0.00     0.163 HD
BRANCH   5   8
ATOM      8  C   UNL A   1      33.013  27.277  25.216  1.00  0.00     0.067 C 
ATOM      9  C   UNL A   1      35.701  23.825  24.895  1.00  0.00     0.047 C 
ATOM     10  C   UNL A   1      34.385  23.817  25.632  1.00  0.00    -0.021 A 
ATOM     11  C   UNL A   1      33.929  22.600  26.193  1.00  0.00     0.044 A 
ATOM     12  C   UNL A   1      33.565  24.964  25.760  1.00  0.00     0.022 A 
ATOM     13  Cl  UNL A   1      34.849  21.138  26.073  1.00  0.00    -0.084 Cl
ATOM     14  C   UNL A   1      32.710  22.522  26.870  1.00  0.00     0.024 A 
ATOM     15  C   UNL A   1      32.334  24.853  26.427  1.00  0.00     0.128 A 
ATOM     16  C   UNL A   1      33.933  26.295  25.267  1.00  0.00     0.026 C 
ATOM     17  C   UNL A   1      31.914  23.651  26.991  1.00  0.00     0.048 A 
ATOM     18  O   UNL A   1      31.483  25.908  26.609  1.00  0.00    -0.475 OA
ATOM     19  C   UNL A   1      31.613  27.009  25.675  1.00  0.00     0.314 C 
BRANCH  19  20
ATOM     20  C   UNL A   1      30.626  26.821  24.509  1.00  0.00     0.429 C 
ATOM     21  F   UNL A   1      29.534  26.128  24.919  1.00  0.00    -0.167 F 
ATOM     22  F   UNL A   1      30.167  27.999  24.024  1.00  0.00    -0.167 F 
ATOM     23  F   UNL A   1      31.166  26.150  23.468  1.00  0.00    -0.167 F 
ENDBRANCH  19  20
ENDBRANCH   5   8
ENDBRANCH   3   4
ENDBRANCH   2   3
ENDBRANCH   1   2
BRANCH   1  24
ATOM     24  C   UNL A   1      32.767  32.964  27.238  1.00  0.00     0.116 C 
BRANCH  24  25
ATOM     25  N   UNL A   1      32.411  34.306  27.678  1.00  0.00    -0.352 N 
ATOM     26  C   UNL A   1      33.006  35.051  28.667  1.00  0.00     0.251 C 
ATOM     27  H   UNL A   1      31.654  34.730  27.213  1.00  0.00     0.163 HD
ATOM     28  O   UNL A   1      32.567  36.148  28.991  1.00  0.00    -0.269 OA
BRANCH  26  29
ATOM     29  C   UNL A   1      34.171  34.480  29.359  1.00  0.00     0.039 A 
ATOM     30  C   UNL A   1      33.959  33.698  30.497  1.00  0.00     0.014 A 
ATOM     31  C   UNL A   1      35.452  34.649  28.825  1.00  0.00     0.014 A 
ATOM     32  C   UNL A   1      35.037  33.028  31.072  1.00  0.00     0.010 A 
ATOM     33  C   UNL A   1      36.516  33.946  29.374  1.00  0.00     0.010 A 
ATOM     34  C   UNL A   1      36.314  33.129  30.497  1.00  0.00    -0.014 A 
BRANCH  34  35
ATOM     35  C   UNL A   1      37.462  32.397  31.076  1.00  0.00     0.031 A 
ATOM     36  C   UNL A   1      37.964  32.772  32.437  1.00  0.00     0.074 A 
ATOM     37  C   UNL A   1      38.069  31.433  30.360  1.00  0.00     0.049 A 
ATOM     38  N   UNL A   1      38.976  32.283  33.106  1.00  0.00    -0.248 NA
ATOM     39  C   UNL A   1      37.246  33.854  33.129  1.00  0.00     0.031 C 
ATOM     40  C   UNL A   1      37.681  31.008  29.015  1.00  0.00     0.029 A 
ATOM     41  N   UNL A   1      39.145  30.640  30.665  1.00  0.00    -0.354 N 
ATOM     42  C   UNL A   1      39.012  32.994  34.298  1.00  0.00     0.074 A 
ATOM     43  C   UNL A   1      37.958  33.983  34.237  1.00  0.00     0.031 C 
ATOM     44  C   UNL A   1      38.495  30.016  28.617  1.00  0.00     0.029 A 
ATOM     45  C   UNL A   1      39.474  29.754  29.669  1.00  0.00     0.049 A 
ATOM     46  H   UNL A   1      39.635  30.700  31.516  1.00  0.00     0.167 HD
ATOM     47  C   UNL A   1      39.835  32.816  35.356  1.00  0.00     0.037 A 
ATOM     48  C   UNL A   1      40.454  28.833  29.619  1.00  0.00     0.037 A 
ATOM     49  C   UNL A   1      40.871  31.823  35.416  1.00  0.00     0.049 A 
ATOM     50  C   UNL A   1      41.375  28.674  30.798  1.00  0.00     0.074 A 
ATOM     51  C   UNL A   1      41.735  31.538  36.458  1.00  0.00     0.029 A 
ATOM     52  N   UNL A   1      41.181  30.948  34.385  1.00  0.00    -0.354 N 
ATOM     53  N   UNL A   1      41.371  29.319  31.939  1.00  0.00    -0.248 NA
ATOM     54  C   UNL A   1      42.432  27.661  30.683  1.00  0.00     0.031 C 
ATOM     55  C   UNL A   1      42.590  30.509  36.047  1.00  0.00     0.029 A 
ATOM     56  C   UNL A   1      42.234  30.131  34.761  1.00  0.00     0.049 A 
ATOM     57  H   UNL A   1      40.722  30.913  33.516  1.00  0.00     0.167 HD
ATOM     58  C   UNL A   1      42.408  28.776  32.686  1.00  0.00     0.074 A 
ATOM     59  C   UNL A   1      43.014  27.744  31.872  1.00  0.00     0.031 C 
ATOM     60  C   UNL A   1      42.818  29.105  33.935  1.00  0.00     0.037 A 
BRANCH  47  61
ATOM     61  C   UNL A   1      39.631  33.710  36.540  1.00  0.00     0.064 A 
ATOM     62  C   UNL A   1      40.241  34.971  36.612  1.00  0.00     0.173 A 
ATOM     63  C   UNL A   1      38.801  33.317  37.599  1.00  0.00     0.173 A 
ATOM     64  F   UNL A   1      41.056  35.383  35.629  1.00  0.00    -0.203 F 
ATOM     65  C   UNL A   1      40.044  35.799  37.713  1.00  0.00     0.198 A 
ATOM     66  C   UNL A   1      38.589  34.157  38.689  1.00  0.00     0.198 A 
ATOM     67  F   UNL A   1      38.196  32.120  37.576  1.00  0.00    -0.203 F 
ATOM     68  F   UNL A   1      40.670  36.981  37.780  1.00  0.00    -0.200 F 
ATOM     69  C   UNL A   1      39.214  35.393  38.748  1.00  0.00     0.200 A 
ATOM     70  F   UNL A   1      37.781  33.768  39.685  1.00  0.00    -0.200 F 
ATOM     71  F   UNL A   1      39.023  36.193  39.806  1.00  0.00    -0.200 F 
ENDBRANCH  47  61
BRANCH  48  72
ATOM     72  C   UNL A   1      40.586  27.961  28.425  1.00  0.00     0.064 A 
ATOM     73  C   UNL A   1      41.351  28.369  27.324  1.00  0.00     0.173 A 
ATOM     74  C   UNL A   1      39.968  26.704  28.364  1.00  0.00     0.173 A 
ATOM     75  F   UNL A   1      41.944  29.572  27.332  1.00  0.00    -0.203 F 
ATOM     76  C   UNL A   1      41.487  27.555  26.202  1.00  0.00     0.198 A 
ATOM     77  C   UNL A   1      40.121  25.882  27.249  1.00  0.00     0.198 A 
ATOM     78  F   UNL A   1      39.227  26.269  29.395  1.00  0.00    -0.203 F 
ATOM     79  F   UNL A   1      42.203  27.979  25.152  1.00  0.00    -0.200 F 
ATOM     80  C   UNL A   1      40.877  26.310  26.168  1.00  0.00     0.200 A 
ATOM     81  F   UNL A   1      39.537  24.677  27.222  1.00  0.00    -0.200 F 
ATOM     82  F   UNL A   1      41.013  25.524  25.091  1.00  0.00    -0.200 F 
ENDBRANCH  48  72
BRANCH  60  83
ATOM     83  C   UNL A   1      43.965  28.332  34.511  1.00  0.00     0.064 A 
ATOM     84  C   UNL A   1      45.282  28.799  34.406  1.00  0.00     0.173 A 
ATOM     85  C   UNL A   1      43.734  27.156  35.238  1.00  0.00     0.173 A 
ATOM     86  F   UNL A   1      45.551  29.913  33.708  1.00  0.00    -0.203 F 
ATOM     87  C   UNL A   1      46.332  28.111  35.008  1.00  0.00     0.198 A 
ATOM     88  C   UNL A   1      44.784  26.482  35.856  1.00  0.00     0.198 A 
ATOM     89  F   UNL A   1      42.489  26.675  35.368  1.00  0.00    -0.203 F 
ATOM     90  F   UNL A   1      47.587  28.560  34.877  1.00  0.00    -0.200 F 
ATOM     91  C   UNL A   1      46.080  26.958  35.738  1.00  0.00     0.200 A 
ATOM     92  F   UNL A   1      44.538  25.375  36.571  1.00  0.00    -0.200 F 
ATOM     93  F   UNL A   1      47.091  26.306  36.330  1.00  0.00    -0.200 F 
ENDBRANCH  60  83
ENDBRANCH  34  35
ENDBRANCH  26  29
ENDBRANCH  24  25
ENDBRANCH   1  24
TORSDOF 12
ENDMDL
