MODEL 1
REMARK VINA RESULT:     -12.8      0.000      0.000
REMARK SMILES O=C(NCCCCNC(=O)[C@@H]1O[C@H](OC(=O)c2cccnc2)[C@@H](O)[C@H](O)[C@H]1O)c1ccc(-c2c3nc(c(-c4c(F)c(F)c(F)c(F)c4F)c4ccc([nH]4)c(-c4c(F)c(F)c(F)c(F)c4F)c4nc(c(-c5c(F)c(F)c(F)c(F)c5F)c5ccc2[nH]5)C=C4)C=C3)cc1
REMARK SMILES IDX 6 1 5 2 4 3 3 4 1 5 2 6 29 8 30 9 91 10 31 11 90 12 32 13
REMARK SMILES IDX 33 14 34 15 84 16 35 17 89 18 83 19 85 20 36 21 88 22 82 23
REMARK SMILES IDX 81 24 37 26 69 27 49 28 68 29 50 30 53 31 67 32 86 33 51 34
REMARK SMILES IDX 52 35 66 37 87 38 54 39 38 40 39 41 47 42 40 43 41 44 45 45
REMARK SMILES IDX 48 46 42 47 43 48 46 49 44 50 70 51 71 52 79 53 72 54 73 55
REMARK SMILES IDX 77 56 80 57 74 58 75 59 78 60 76 61 55 62 56 63 64 64 57 65
REMARK SMILES IDX 58 66 62 67 65 68 59 69 60 70 63 71 61 72 7 73 8 74 9 75
REMARK SMILES IDX 10 77 11 78 12 79 27 80 13 81 25 82 23 83 28 84 14 86 15 87
REMARK SMILES IDX 16 88 17 89 18 90 22 91 19 92 21 93 20 94 26 95 24 97
REMARK H PARENT 3 7 85 25 53 36 8 76 28 85 26 96 24 98
REMARK Flexibility Score: inf
ROOT
ATOM      1  C   UNL A   1      31.705  30.784  26.006  1.00  0.00     0.023 C 
ENDROOT
BRANCH   1   2
ATOM      2  C   UNL A   1      31.402  32.043  26.819  1.00  0.00     0.023 C 
BRANCH   2   3
ATOM      3  C   UNL A   1      32.629  32.819  27.275  1.00  0.00     0.116 C 
BRANCH   3   4
ATOM      4  N   UNL A   1      32.341  34.203  27.626  1.00  0.00    -0.352 N 
ATOM      5  O   UNL A   1      32.528  36.100  28.847  1.00  0.00    -0.269 OA
ATOM      6  C   UNL A   1      32.955  34.984  28.578  1.00  0.00     0.251 C 
ATOM      7  H   UNL A   1      31.617  34.634  27.117  1.00  0.00     0.163 HD
BRANCH   6   8
ATOM      8  C   UNL A   1      34.124  34.438  29.300  1.00  0.00     0.039 A 
ATOM      9  C   UNL A   1      35.404  34.578  28.762  1.00  0.00     0.014 A 
ATOM     10  C   UNL A   1      33.933  33.742  30.497  1.00  0.00     0.014 A 
ATOM     11  C   UNL A   1      36.465  33.890  29.331  1.00  0.00     0.010 A 
ATOM     12  C   UNL A   1      35.023  33.130  31.123  1.00  0.00     0.010 A 
ATOM     13  C   UNL A   1      36.292  33.170  30.526  1.00  0.00    -0.014 A 
BRANCH  13  14
ATOM     14  C   UNL A   1      37.484  32.539  31.147  1.00  0.00     0.031 A 
ATOM     15  C   UNL A   1      37.930  32.893  32.537  1.00  0.00     0.074 A 
ATOM     16  C   UNL A   1      38.118  31.572  30.456  1.00  0.00     0.049 A 
ATOM     17  N   UNL A   1      38.898  32.367  33.248  1.00  0.00    -0.248 NA
ATOM     18  C   UNL A   1      37.212  33.980  33.219  1.00  0.00     0.031 C 
ATOM     19  C   UNL A   1      37.785  31.165  29.089  1.00  0.00     0.029 A 
ATOM     20  N   UNL A   1      39.141  30.733  30.812  1.00  0.00    -0.354 N 
ATOM     21  C   UNL A   1      38.910  33.061  34.451  1.00  0.00     0.074 A 
ATOM     22  C   UNL A   1      37.873  34.068  34.365  1.00  0.00     0.031 C 
ATOM     23  C   UNL A   1      38.541  30.114  28.746  1.00  0.00     0.029 A 
ATOM     24  C   UNL A   1      39.453  29.813  29.841  1.00  0.00     0.049 A 
ATOM     25  H   UNL A   1      39.607  30.785  31.677  1.00  0.00     0.167 HD
ATOM     26  C   UNL A   1      39.708  32.865  35.529  1.00  0.00     0.037 A 
ATOM     27  C   UNL A   1      40.377  28.836  29.830  1.00  0.00     0.037 A 
ATOM     28  C   UNL A   1      40.732  31.853  35.609  1.00  0.00     0.049 A 
ATOM     29  C   UNL A   1      41.237  28.637  31.044  1.00  0.00     0.074 A 
ATOM     30  C   UNL A   1      41.591  31.572  36.660  1.00  0.00     0.029 A 
ATOM     31  N   UNL A   1      41.035  30.952  34.599  1.00  0.00    -0.354 N 
ATOM     32  N   UNL A   1      41.224  29.290  32.180  1.00  0.00    -0.248 NA
ATOM     33  C   UNL A   1      42.238  27.565  30.974  1.00  0.00     0.031 C 
ATOM     34  C   UNL A   1      42.434  30.525  36.272  1.00  0.00     0.029 A 
ATOM     35  C   UNL A   1      42.074  30.123  34.997  1.00  0.00     0.049 A 
ATOM     36  H   UNL A   1      40.580  30.907  33.727  1.00  0.00     0.167 HD
ATOM     37  C   UNL A   1      42.214  28.713  32.960  1.00  0.00     0.074 A 
ATOM     38  C   UNL A   1      42.778  27.628  32.182  1.00  0.00     0.031 C 
ATOM     39  C   UNL A   1      42.629  29.058  34.203  1.00  0.00     0.037 A 
BRANCH  26  40
ATOM     40  C   UNL A   1      39.515  33.764  36.716  1.00  0.00     0.064 A 
ATOM     41  C   UNL A   1      38.714  33.383  37.803  1.00  0.00     0.173 A 
ATOM     42  C   UNL A   1      40.192  34.990  36.800  1.00  0.00     0.173 A 
ATOM     43  F   UNL A   1      38.037  32.224  37.768  1.00  0.00    -0.203 F 
ATOM     44  C   UNL A   1      38.588  34.201  38.923  1.00  0.00     0.198 A 
ATOM     45  C   UNL A   1      40.083  35.795  37.932  1.00  0.00     0.198 A 
ATOM     46  F   UNL A   1      40.975  35.400  35.791  1.00  0.00    -0.203 F 
ATOM     47  F   UNL A   1      37.793  33.829  39.936  1.00  0.00    -0.200 F 
ATOM     48  C   UNL A   1      39.278  35.402  38.991  1.00  0.00     0.200 A 
ATOM     49  F   UNL A   1      40.760  36.950  38.001  1.00  0.00    -0.200 F 
ATOM     50  F   UNL A   1      39.166  36.182  40.075  1.00  0.00    -0.200 F 
ENDBRANCH  26  40
BRANCH  27  51
ATOM     51  C   UNL A   1      40.535  27.985  28.623  1.00  0.00     0.064 A 
ATOM     52  C   UNL A   1      39.875  26.755  28.510  1.00  0.00     0.173 A 
ATOM     53  C   UNL A   1      41.338  28.397  27.549  1.00  0.00     0.173 A 
ATOM     54  F   UNL A   1      39.108  26.310  29.517  1.00  0.00    -0.203 F 
ATOM     55  C   UNL A   1      40.027  25.960  27.376  1.00  0.00     0.198 A 
ATOM     56  C   UNL A   1      41.464  27.617  26.403  1.00  0.00     0.198 A 
ATOM     57  F   UNL A   1      41.984  29.571  27.606  1.00  0.00    -0.203 F 
ATOM     58  F   UNL A   1      39.421  24.767  27.311  1.00  0.00    -0.200 F 
ATOM     59  C   UNL A   1      40.816  26.395  26.321  1.00  0.00     0.200 A 
ATOM     60  F   UNL A   1      42.209  28.052  25.379  1.00  0.00    -0.200 F 
ATOM     61  F   UNL A   1      40.954  25.634  25.227  1.00  0.00    -0.200 F 
ENDBRANCH  27  51
BRANCH  39  62
ATOM     62  C   UNL A   1      43.747  28.247  34.788  1.00  0.00     0.064 A 
ATOM     63  C   UNL A   1      45.088  28.627  34.623  1.00  0.00     0.173 A 
ATOM     64  C   UNL A   1      43.477  27.079  35.516  1.00  0.00     0.173 A 
ATOM     65  F   UNL A   1      45.397  29.725  33.917  1.00  0.00    -0.203 F 
ATOM     66  C   UNL A   1      46.121  27.846  35.135  1.00  0.00     0.198 A 
ATOM     67  C   UNL A   1      44.512  26.317  36.052  1.00  0.00     0.198 A 
ATOM     68  F   UNL A   1      42.212  26.677  35.705  1.00  0.00    -0.203 F 
ATOM     69  F   UNL A   1      47.395  28.195  34.914  1.00  0.00    -0.200 F 
ATOM     70  C   UNL A   1      45.831  26.695  35.851  1.00  0.00     0.200 A 
ATOM     71  F   UNL A   1      44.232  25.209  36.751  1.00  0.00    -0.200 F 
ATOM     72  F   UNL A   1      46.826  25.941  36.340  1.00  0.00    -0.200 F 
ENDBRANCH  39  62
ENDBRANCH  13  14
ENDBRANCH   6   8
ENDBRANCH   3   4
ENDBRANCH   2   3
ENDBRANCH   1   2
BRANCH   1  73
ATOM     73  C   UNL A   1      32.673  29.819  26.688  1.00  0.00     0.116 C 
BRANCH  73  74
ATOM     74  N   UNL A   1      31.983  28.642  27.181  1.00  0.00    -0.354 N 
ATOM     75  C   UNL A   1      31.623  27.510  26.499  1.00  0.00     0.252 C 
ATOM     76  H   UNL A   1      31.741  28.658  28.134  1.00  0.00     0.163 HD
ATOM     77  O   UNL A   1      31.029  26.626  27.118  1.00  0.00    -0.272 OA
BRANCH  75  78
ATOM     78  C   UNL A   1      31.987  27.383  25.012  1.00  0.00     0.242 C 
ATOM     79  O   UNL A   1      30.894  27.800  24.193  1.00  0.00    -0.324 OA
ATOM     80  C   UNL A   1      32.345  25.915  24.737  1.00  0.00     0.184 C 
ATOM     81  C   UNL A   1      31.196  27.735  22.801  1.00  0.00     0.343 C 
ATOM     82  C   UNL A   1      32.648  25.736  23.249  1.00  0.00     0.181 C 
ATOM     83  C   UNL A   1      31.562  26.309  22.342  1.00  0.00     0.214 C 
BRANCH  80  84
ATOM     84  O   UNL A   1      33.513  25.505  25.462  1.00  0.00    -0.387 OA
ATOM     85  H   UNL A   1      33.398  24.592  25.768  1.00  0.00     0.211 HD
ENDBRANCH  80  84
BRANCH  81  86
ATOM     86  O   UNL A   1      30.144  28.301  22.001  1.00  0.00    -0.429 OA
BRANCH  86  87
ATOM     87  C   UNL A   1      28.990  28.610  22.625  1.00  0.00     0.342 C 
ATOM     88  O   UNL A   1      28.243  27.856  23.234  1.00  0.00    -0.246 OA
BRANCH  87  89
ATOM     89  C   UNL A   1      28.742  30.049  22.471  1.00  0.00     0.078 A 
ATOM     90  C   UNL A   1      28.985  30.961  23.500  1.00  0.00     0.019 A 
ATOM     91  C   UNL A   1      28.285  30.531  21.254  1.00  0.00     0.126 A 
ATOM     92  C   UNL A   1      28.755  32.315  23.275  1.00  0.00     0.021 A 
ATOM     93  N   UNL A   1      28.043  31.843  21.014  1.00  0.00    -0.264 NA
ATOM     94  C   UNL A   1      28.285  32.703  22.029  1.00  0.00     0.111 A 
ENDBRANCH  87  89
ENDBRANCH  86  87
ENDBRANCH  81  86
BRANCH  82  95
ATOM     95  O   UNL A   1      32.854  24.342  22.955  1.00  0.00    -0.387 OA
ATOM     96  H   UNL A   1      33.454  24.256  22.197  1.00  0.00     0.211 HD
ENDBRANCH  82  95
BRANCH  83  97
ATOM     97  O   UNL A   1      32.053  26.321  20.991  1.00  0.00    -0.384 OA
ATOM     98  H   UNL A   1      32.727  25.632  20.885  1.00  0.00     0.211 HD
ENDBRANCH  83  97
ENDBRANCH  75  78
ENDBRANCH  73  74
ENDBRANCH   1  73
TORSDOF 17
ENDMDL
MODEL 2
REMARK VINA RESULT:     -12.6      0.552      7.255
REMARK SMILES O=C(NCCCCNC(=O)[C@@H]1O[C@H](OC(=O)c2cccnc2)[C@@H](O)[C@H](O)[C@H]1O)c1ccc(-c2c3nc(c(-c4c(F)c(F)c(F)c(F)c4F)c4ccc([nH]4)c(-c4c(F)c(F)c(F)c(F)c4F)c4nc(c(-c5c(F)c(F)c(F)c(F)c5F)c5ccc2[nH]5)C=C4)C=C3)cc1
REMARK SMILES IDX 6 1 5 2 4 3 3 4 1 5 2 6 29 8 30 9 91 10 31 11 90 12 32 13
REMARK SMILES IDX 33 14 34 15 84 16 35 17 89 18 83 19 85 20 36 21 88 22 82 23
REMARK SMILES IDX 81 24 37 26 69 27 49 28 68 29 50 30 53 31 67 32 86 33 51 34
REMARK SMILES IDX 52 35 66 37 87 38 54 39 38 40 39 41 47 42 40 43 41 44 45 45
REMARK SMILES IDX 48 46 42 47 43 48 46 49 44 50 70 51 71 52 79 53 72 54 73 55
REMARK SMILES IDX 77 56 80 57 74 58 75 59 78 60 76 61 55 62 56 63 64 64 57 65
REMARK SMILES IDX 58 66 62 67 65 68 59 69 60 70 63 71 61 72 7 73 8 74 9 75
REMARK SMILES IDX 10 77 11 78 12 79 27 80 13 81 25 82 23 83 28 84 14 86 15 87
REMARK SMILES IDX 16 88 17 89 18 90 22 91 19 92 21 93 20 94 26 95 24 97
REMARK H PARENT 3 7 85 25 53 36 8 76 28 85 26 96 24 98
REMARK Flexibility Score: inf
ROOT
ATOM      1  C   UNL A   1      31.584  31.020  26.164  1.00  0.00     0.023 C 
ENDROOT
BRANCH   1   2
ATOM      2  C   UNL A   1      31.382  32.451  26.665  1.00  0.00     0.023 C 
BRANCH   2   3
ATOM      3  C   UNL A   1      32.579  33.047  27.392  1.00  0.00     0.116 C 
BRANCH   3   4
ATOM      4  N   UNL A   1      32.409  34.455  27.728  1.00  0.00    -0.352 N 
ATOM      5  O   UNL A   1      32.728  36.333  28.950  1.00  0.00    -0.269 OA
ATOM      6  C   UNL A   1      33.057  35.180  28.701  1.00  0.00     0.251 C 
ATOM      7  H   UNL A   1      31.748  34.948  27.191  1.00  0.00     0.163 HD
BRANCH   6   8
ATOM      8  C   UNL A   1      34.142  34.532  29.469  1.00  0.00     0.039 A 
ATOM      9  C   UNL A   1      35.459  34.606  29.014  1.00  0.00     0.014 A 
ATOM     10  C   UNL A   1      33.832  33.806  30.623  1.00  0.00     0.014 A 
ATOM     11  C   UNL A   1      36.436  33.828  29.617  1.00  0.00     0.010 A 
ATOM     12  C   UNL A   1      34.839  33.100  31.287  1.00  0.00     0.010 A 
ATOM     13  C   UNL A   1      36.144  33.077  30.769  1.00  0.00    -0.014 A 
BRANCH  13  14
ATOM     14  C   UNL A   1      37.251  32.345  31.434  1.00  0.00     0.031 A 
ATOM     15  C   UNL A   1      38.018  31.265  30.727  1.00  0.00     0.074 A 
ATOM     16  C   UNL A   1      37.607  32.730  32.675  1.00  0.00     0.049 A 
ATOM     17  N   UNL A   1      39.065  30.594  31.144  1.00  0.00    -0.248 NA
ATOM     18  C   UNL A   1      37.553  30.874  29.388  1.00  0.00     0.031 C 
ATOM     19  C   UNL A   1      36.915  33.752  33.465  1.00  0.00     0.029 A 
ATOM     20  N   UNL A   1      38.651  32.344  33.473  1.00  0.00    -0.354 N 
ATOM     21  C   UNL A   1      39.377  29.701  30.126  1.00  0.00     0.074 A 
ATOM     22  C   UNL A   1      38.391  29.892  29.084  1.00  0.00     0.031 C 
ATOM     23  C   UNL A   1      37.589  33.959  34.603  1.00  0.00     0.029 A 
ATOM     24  C   UNL A   1      38.722  33.044  34.653  1.00  0.00     0.049 A 
ATOM     25  H   UNL A   1      39.287  31.635  33.226  1.00  0.00     0.167 HD
ATOM     26  C   UNL A   1      40.400  28.814  30.069  1.00  0.00     0.037 A 
ATOM     27  C   UNL A   1      39.599  32.955  35.669  1.00  0.00     0.037 A 
ATOM     28  C   UNL A   1      41.384  28.637  31.108  1.00  0.00     0.049 A 
ATOM     29  C   UNL A   1      40.727  31.971  35.569  1.00  0.00     0.074 A 
ATOM     30  C   UNL A   1      42.461  27.767  31.142  1.00  0.00     0.029 A 
ATOM     31  N   UNL A   1      41.412  29.349  32.299  1.00  0.00    -0.354 N 
ATOM     32  N   UNL A   1      41.018  31.146  34.593  1.00  0.00    -0.248 NA
ATOM     33  C   UNL A   1      41.648  31.906  36.710  1.00  0.00     0.031 C 
ATOM     34  C   UNL A   1      43.120  27.928  32.365  1.00  0.00     0.029 A 
ATOM     35  C   UNL A   1      42.481  28.929  33.078  1.00  0.00     0.049 A 
ATOM     36  H   UNL A   1      40.768  30.049  32.555  1.00  0.00     0.167 HD
ATOM     37  C   UNL A   1      42.152  30.462  35.001  1.00  0.00     0.074 A 
ATOM     38  C   UNL A   1      42.521  30.999  36.295  1.00  0.00     0.031 C 
ATOM     39  C   UNL A   1      42.822  29.468  34.369  1.00  0.00     0.037 A 
BRANCH  26  40
ATOM     40  C   UNL A   1      40.514  27.955  28.842  1.00  0.00     0.064 A 
ATOM     41  C   UNL A   1      39.831  26.734  28.734  1.00  0.00     0.173 A 
ATOM     42  C   UNL A   1      41.258  28.389  27.734  1.00  0.00     0.173 A 
ATOM     43  F   UNL A   1      39.115  26.269  29.769  1.00  0.00    -0.203 F 
ATOM     44  C   UNL A   1      39.900  25.975  27.569  1.00  0.00     0.198 A 
ATOM     45  C   UNL A   1      41.305  27.638  26.561  1.00  0.00     0.198 A 
ATOM     46  F   UNL A   1      41.925  29.552  27.781  1.00  0.00    -0.203 F 
ATOM     47  F   UNL A   1      39.264  24.797  27.501  1.00  0.00    -0.200 F 
ATOM     48  C   UNL A   1      40.629  26.430  26.481  1.00  0.00     0.200 A 
ATOM     49  F   UNL A   1      42.000  28.087  25.506  1.00  0.00    -0.200 F 
ATOM     50  F   UNL A   1      40.683  25.704  25.356  1.00  0.00    -0.200 F 
ENDBRANCH  26  40
BRANCH  27  51
ATOM     51  C   UNL A   1      39.430  33.820  36.865  1.00  0.00     0.064 A 
ATOM     52  C   UNL A   1      38.744  33.366  37.998  1.00  0.00     0.173 A 
ATOM     53  C   UNL A   1      39.967  35.115  36.901  1.00  0.00     0.173 A 
ATOM     54  F   UNL A   1      38.198  32.140  38.006  1.00  0.00    -0.203 F 
ATOM     55  C   UNL A   1      38.586  34.181  39.117  1.00  0.00     0.198 A 
ATOM     56  C   UNL A   1      39.838  35.917  38.031  1.00  0.00     0.198 A 
ATOM     57  F   UNL A   1      40.640  35.592  35.843  1.00  0.00    -0.203 F 
ATOM     58  F   UNL A   1      37.888  33.741  40.171  1.00  0.00    -0.200 F 
ATOM     59  C   UNL A   1      39.139  35.454  39.135  1.00  0.00     0.200 A 
ATOM     60  F   UNL A   1      40.392  37.136  38.051  1.00  0.00    -0.200 F 
ATOM     61  F   UNL A   1      38.996  36.234  40.214  1.00  0.00    -0.200 F 
ENDBRANCH  27  51
BRANCH  39  62
ATOM     62  C   UNL A   1      44.018  28.906  35.077  1.00  0.00     0.064 A 
ATOM     63  C   UNL A   1      43.896  27.843  35.985  1.00  0.00     0.173 A 
ATOM     64  C   UNL A   1      45.297  29.436  34.851  1.00  0.00     0.173 A 
ATOM     65  F   UNL A   1      42.691  27.315  36.249  1.00  0.00    -0.203 F 
ATOM     66  C   UNL A   1      45.006  27.355  36.668  1.00  0.00     0.198 A 
ATOM     67  C   UNL A   1      46.409  28.925  35.514  1.00  0.00     0.198 A 
ATOM     68  F   UNL A   1      45.466  30.450  33.989  1.00  0.00    -0.203 F 
ATOM     69  F   UNL A   1      44.858  26.380  37.574  1.00  0.00    -0.200 F 
ATOM     70  C   UNL A   1      46.262  27.894  36.429  1.00  0.00     0.200 A 
ATOM     71  F   UNL A   1      47.623  29.441  35.277  1.00  0.00    -0.200 F 
ATOM     72  F   UNL A   1      47.330  27.427  37.091  1.00  0.00    -0.200 F 
ENDBRANCH  39  62
ENDBRANCH  13  14
ENDBRANCH   6   8
ENDBRANCH   3   4
ENDBRANCH   2   3
ENDBRANCH   1   2
BRANCH   1  73
ATOM     73  C   UNL A   1      32.564  30.199  27.001  1.00  0.00     0.116 C 
BRANCH  73  74
ATOM     74  N   UNL A   1      31.970  28.945  27.426  1.00  0.00    -0.354 N 
ATOM     75  C   UNL A   1      31.754  27.807  26.697  1.00  0.00     0.252 C 
ATOM     76  H   UNL A   1      31.685  28.908  28.367  1.00  0.00     0.163 HD
ATOM     77  O   UNL A   1      31.221  26.851  27.262  1.00  0.00    -0.272 OA
BRANCH  75  78
ATOM     78  C   UNL A   1      32.195  27.763  25.226  1.00  0.00     0.242 C 
ATOM     79  O   UNL A   1      31.069  27.920  24.362  1.00  0.00    -0.324 OA
ATOM     80  C   UNL A   1      32.888  26.416  24.980  1.00  0.00     0.184 C 
ATOM     81  C   UNL A   1      31.432  27.923  22.983  1.00  0.00     0.343 C 
ATOM     82  C   UNL A   1      33.282  26.307  23.507  1.00  0.00     0.181 C 
ATOM     83  C   UNL A   1      32.130  26.617  22.553  1.00  0.00     0.214 C 
BRANCH  80  84
ATOM     84  O   UNL A   1      34.089  26.282  25.753  1.00  0.00    -0.387 OA
ATOM     85  H   UNL A   1      33.939  26.633  26.645  1.00  0.00     0.211 HD
ENDBRANCH  80  84
BRANCH  81  86
ATOM     86  O   UNL A   1      30.312  28.234  22.138  1.00  0.00    -0.429 OA
BRANCH  86  87
ATOM     87  C   UNL A   1      29.142  28.521  22.742  1.00  0.00     0.342 C 
ATOM     88  O   UNL A   1      28.408  27.757  23.353  1.00  0.00    -0.246 OA
BRANCH  87  89
ATOM     89  C   UNL A   1      28.857  29.950  22.562  1.00  0.00     0.078 A 
ATOM     90  C   UNL A   1      28.991  30.874  23.601  1.00  0.00     0.019 A 
ATOM     91  C   UNL A   1      28.476  30.413  21.311  1.00  0.00     0.126 A 
ATOM     92  C   UNL A   1      28.731  32.218  23.352  1.00  0.00     0.021 A 
ATOM     93  N   UNL A   1      28.208  31.715  21.046  1.00  0.00    -0.264 NA
ATOM     94  C   UNL A   1      28.343  32.586  22.072  1.00  0.00     0.111 A 
ENDBRANCH  87  89
ENDBRANCH  86  87
ENDBRANCH  81  86
BRANCH  82  95
ATOM     95  O   UNL A   1      33.810  24.997  23.235  1.00  0.00    -0.387 OA
ATOM     96  H   UNL A   1      34.640  25.078  22.739  1.00  0.00     0.211 HD
ENDBRANCH  82  95
BRANCH  83  97
ATOM     97  O   UNL A   1      32.658  26.739  21.221  1.00  0.00    -0.384 OA
ATOM     98  H   UNL A   1      33.298  26.027  21.060  1.00  0.00     0.211 HD
ENDBRANCH  83  97
ENDBRANCH  75  78
ENDBRANCH  73  74
ENDBRANCH   1  73
TORSDOF 17
ENDMDL
MODEL 3
REMARK VINA RESULT:     -12.6      2.679      5.285
REMARK SMILES O=C(NCCCCNC(=O)[C@@H]1O[C@H](OC(=O)c2cccnc2)[C@@H](O)[C@H](O)[C@H]1O)c1ccc(-c2c3nc(c(-c4c(F)c(F)c(F)c(F)c4F)c4ccc([nH]4)c(-c4c(F)c(F)c(F)c(F)c4F)c4nc(c(-c5c(F)c(F)c(F)c(F)c5F)c5ccc2[nH]5)C=C4)C=C3)cc1
REMARK SMILES IDX 6 1 5 2 4 3 3 4 1 5 2 6 29 8 30 9 91 10 31 11 90 12 32 13
REMARK SMILES IDX 33 14 34 15 84 16 35 17 89 18 83 19 85 20 36 21 88 22 82 23
REMARK SMILES IDX 81 24 37 26 69 27 49 28 68 29 50 30 53 31 67 32 86 33 51 34
REMARK SMILES IDX 52 35 66 37 87 38 54 39 38 40 39 41 47 42 40 43 41 44 45 45
REMARK SMILES IDX 48 46 42 47 43 48 46 49 44 50 70 51 71 52 79 53 72 54 73 55
REMARK SMILES IDX 77 56 80 57 74 58 75 59 78 60 76 61 55 62 56 63 64 64 57 65
REMARK SMILES IDX 58 66 62 67 65 68 59 69 60 70 63 71 61 72 7 73 8 74 9 75
REMARK SMILES IDX 10 77 11 78 12 79 27 80 13 81 25 82 23 83 28 84 14 86 15 87
REMARK SMILES IDX 16 88 17 89 18 90 22 91 19 92 21 93 20 94 26 95 24 97
REMARK H PARENT 3 7 85 25 53 36 8 76 28 85 26 96 24 98
REMARK Flexibility Score: inf
ROOT
ATOM      1  C   UNL A   1      31.602  28.047  24.394  1.00  0.00     0.023 C 
ENDROOT
BRANCH   1   2
ATOM      2  C   UNL A   1      33.095  28.259  24.141  1.00  0.00     0.023 C 
BRANCH   2   3
ATOM      3  C   UNL A   1      33.846  28.928  25.284  1.00  0.00     0.116 C 
BRANCH   3   4
ATOM      4  N   UNL A   1      33.165  30.099  25.817  1.00  0.00    -0.352 N 
ATOM      5  O   UNL A   1      32.804  31.777  27.293  1.00  0.00    -0.269 OA
ATOM      6  C   UNL A   1      33.540  30.888  26.880  1.00  0.00     0.251 C 
ATOM      7  H   UNL A   1      32.333  30.358  25.360  1.00  0.00     0.163 HD
BRANCH   6   8
ATOM      8  C   UNL A   1      34.835  30.625  27.541  1.00  0.00     0.039 A 
ATOM      9  C   UNL A   1      35.109  29.359  28.061  1.00  0.00     0.014 A 
ATOM     10  C   UNL A   1      35.761  31.663  27.684  1.00  0.00     0.014 A 
ATOM     11  C   UNL A   1      36.228  29.173  28.858  1.00  0.00     0.010 A 
ATOM     12  C   UNL A   1      36.938  31.445  28.407  1.00  0.00     0.010 A 
ATOM     13  C   UNL A   1      37.165  30.208  29.029  1.00  0.00    -0.014 A 
BRANCH  13  14
ATOM     14  C   UNL A   1      38.397  29.923  29.807  1.00  0.00     0.031 A 
ATOM     15  C   UNL A   1      38.585  30.442  31.204  1.00  0.00     0.074 A 
ATOM     16  C   UNL A   1      39.320  29.113  29.254  1.00  0.00     0.049 A 
ATOM     17  N   UNL A   1      39.566  30.208  32.042  1.00  0.00    -0.248 NA
ATOM     18  C   UNL A   1      37.553  31.347  31.732  1.00  0.00     0.031 C 
ATOM     19  C   UNL A   1      39.250  28.572  27.894  1.00  0.00     0.029 A 
ATOM     20  N   UNL A   1      40.469  28.573  29.767  1.00  0.00    -0.354 N 
ATOM     21  C   UNL A   1      39.275  30.939  33.187  1.00  0.00     0.074 A 
ATOM     22  C   UNL A   1      38.041  31.651  32.927  1.00  0.00     0.031 C 
ATOM     23  C   UNL A   1      40.272  27.727  27.704  1.00  0.00     0.029 A 
ATOM     24  C   UNL A   1      41.102  27.714  28.902  1.00  0.00     0.049 A 
ATOM     25  H   UNL A   1      40.808  28.780  30.668  1.00  0.00     0.167 HD
ATOM     26  C   UNL A   1      39.971  30.999  34.348  1.00  0.00     0.037 A 
ATOM     27  C   UNL A   1      42.230  26.999  29.052  1.00  0.00     0.037 A 
ATOM     28  C   UNL A   1      41.194  30.279  34.601  1.00  0.00     0.049 A 
ATOM     29  C   UNL A   1      42.971  27.077  30.355  1.00  0.00     0.074 A 
ATOM     30  C   UNL A   1      41.972  30.270  35.748  1.00  0.00     0.029 A 
ATOM     31  N   UNL A   1      41.817  29.435  33.693  1.00  0.00    -0.354 N 
ATOM     32  N   UNL A   1      42.673  27.760  31.433  1.00  0.00    -0.248 NA
ATOM     33  C   UNL A   1      44.203  26.287  30.461  1.00  0.00     0.031 C 
ATOM     34  C   UNL A   1      43.081  29.449  35.521  1.00  0.00     0.029 A 
ATOM     35  C   UNL A   1      42.975  28.910  34.251  1.00  0.00     0.049 A 
ATOM     36  H   UNL A   1      41.487  29.237  32.787  1.00  0.00     0.167 HD
ATOM     37  C   UNL A   1      43.679  27.485  32.345  1.00  0.00     0.074 A 
ATOM     38  C   UNL A   1      44.574  26.539  31.708  1.00  0.00     0.031 C 
ATOM     39  C   UNL A   1      43.857  27.980  33.594  1.00  0.00     0.037 A 
BRANCH  26  40
ATOM     40  C   UNL A   1      39.434  31.876  35.442  1.00  0.00     0.064 A 
ATOM     41  C   UNL A   1      39.769  33.236  35.524  1.00  0.00     0.173 A 
ATOM     42  C   UNL A   1      38.519  31.370  36.378  1.00  0.00     0.173 A 
ATOM     43  F   UNL A   1      40.648  33.767  34.660  1.00  0.00    -0.203 F 
ATOM     44  C   UNL A   1      39.220  34.051  36.510  1.00  0.00     0.198 A 
ATOM     45  C   UNL A   1      37.952  32.194  37.348  1.00  0.00     0.198 A 
ATOM     46  F   UNL A   1      38.159  30.078  36.341  1.00  0.00    -0.203 F 
ATOM     47  F   UNL A   1      39.579  35.341  36.588  1.00  0.00    -0.200 F 
ATOM     48  C   UNL A   1      38.306  33.533  37.416  1.00  0.00     0.200 A 
ATOM     49  F   UNL A   1      37.060  31.694  38.214  1.00  0.00    -0.200 F 
ATOM     50  F   UNL A   1      37.768  34.323  38.356  1.00  0.00    -0.200 F 
ENDBRANCH  26  40
BRANCH  27  51
ATOM     51  C   UNL A   1      42.723  26.158  27.931  1.00  0.00     0.064 A 
ATOM     52  C   UNL A   1      43.573  26.683  26.949  1.00  0.00     0.173 A 
ATOM     53  C   UNL A   1      42.364  24.806  27.831  1.00  0.00     0.173 A 
ATOM     54  F   UNL A   1      43.932  27.975  26.993  1.00  0.00    -0.203 F 
ATOM     55  C   UNL A   1      44.031  25.890  25.898  1.00  0.00     0.198 A 
ATOM     56  C   UNL A   1      42.848  24.007  26.799  1.00  0.00     0.198 A 
ATOM     57  F   UNL A   1      41.559  24.255  28.751  1.00  0.00    -0.203 F 
ATOM     58  F   UNL A   1      44.807  26.426  24.947  1.00  0.00    -0.200 F 
ATOM     59  C   UNL A   1      43.674  24.551  25.828  1.00  0.00     0.200 A 
ATOM     60  F   UNL A   1      42.517  22.710  26.748  1.00  0.00    -0.200 F 
ATOM     61  F   UNL A   1      44.122  23.788  24.823  1.00  0.00    -0.200 F 
ENDBRANCH  27  51
BRANCH  39  62
ATOM     62  C   UNL A   1      45.065  27.502  34.342  1.00  0.00     0.064 A 
ATOM     63  C   UNL A   1      46.286  28.192  34.276  1.00  0.00     0.173 A 
ATOM     64  C   UNL A   1      45.006  26.343  35.129  1.00  0.00     0.173 A 
ATOM     65  F   UNL A   1      46.397  29.295  33.521  1.00  0.00    -0.203 F 
ATOM     66  C   UNL A   1      47.412  27.718  34.941  1.00  0.00     0.198 A 
ATOM     67  C   UNL A   1      46.128  25.888  35.817  1.00  0.00     0.198 A 
ATOM     68  F   UNL A   1      43.861  25.650  35.228  1.00  0.00    -0.203 F 
ATOM     69  F   UNL A   1      48.582  28.359  34.815  1.00  0.00    -0.200 F 
ATOM     70  C   UNL A   1      47.331  26.569  35.713  1.00  0.00     0.200 A 
ATOM     71  F   UNL A   1      46.047  24.783  36.570  1.00  0.00    -0.200 F 
ATOM     72  F   UNL A   1      48.418  26.110  36.350  1.00  0.00    -0.200 F 
ENDBRANCH  39  62
ENDBRANCH  13  14
ENDBRANCH   6   8
ENDBRANCH   3   4
ENDBRANCH   2   3
ENDBRANCH   1   2
BRANCH   1  73
ATOM     73  C   UNL A   1      31.281  26.815  25.239  1.00  0.00     0.116 C 
BRANCH  73  74
ATOM     74  N   UNL A   1      30.755  25.739  24.420  1.00  0.00    -0.354 N 
ATOM     75  C   UNL A   1      31.194  24.446  24.317  1.00  0.00     0.252 C 
ATOM     76  H   UNL A   1      29.976  25.968  23.865  1.00  0.00     0.163 HD
ATOM     77  O   UNL A   1      30.599  23.693  23.545  1.00  0.00    -0.272 OA
BRANCH  75  78
ATOM     78  C   UNL A   1      32.387  23.989  25.170  1.00  0.00     0.242 C 
ATOM     79  O   UNL A   1      33.221  23.098  24.427  1.00  0.00    -0.324 OA
ATOM     80  C   UNL A   1      31.834  23.298  26.425  1.00  0.00     0.184 C 
ATOM     81  C   UNL A   1      34.364  22.673  25.165  1.00  0.00     0.343 C 
ATOM     82  C   UNL A   1      32.994  22.768  27.268  1.00  0.00     0.181 C 
ATOM     83  C   UNL A   1      33.987  21.932  26.463  1.00  0.00     0.214 C 
BRANCH  80  84
ATOM     84  O   UNL A   1      31.088  24.205  27.249  1.00  0.00    -0.387 OA
ATOM     85  H   UNL A   1      31.297  25.117  26.996  1.00  0.00     0.211 HD
ENDBRANCH  80  84
BRANCH  81  86
ATOM     86  O   UNL A   1      35.266  21.904  24.352  1.00  0.00    -0.429 OA
BRANCH  86  87
ATOM     87  C   UNL A   1      36.325  22.547  23.822  1.00  0.00     0.342 C 
ATOM     88  O   UNL A   1      36.439  22.993  22.688  1.00  0.00    -0.246 OA
BRANCH  87  89
ATOM     89  C   UNL A   1      37.373  22.651  24.845  1.00  0.00     0.078 A 
ATOM     90  C   UNL A   1      37.633  23.843  25.526  1.00  0.00     0.019 A 
ATOM     91  C   UNL A   1      38.110  21.525  25.177  1.00  0.00     0.126 A 
ATOM     92  C   UNL A   1      38.624  23.862  26.504  1.00  0.00     0.021 A 
ATOM     93  N   UNL A   1      39.086  21.521  26.118  1.00  0.00    -0.264 NA
ATOM     94  C   UNL A   1      39.318  22.688  26.759  1.00  0.00     0.111 A 
ENDBRANCH  87  89
ENDBRANCH  86  87
ENDBRANCH  81  86
BRANCH  82  95
ATOM     95  O   UNL A   1      32.487  22.004  28.376  1.00  0.00    -0.387 OA
ATOM     96  H   UNL A   1      33.202  21.837  29.010  1.00  0.00     0.211 HD
ENDBRANCH  82  95
BRANCH  83  97
ATOM     97  O   UNL A   1      35.153  21.702  27.273  1.00  0.00    -0.384 OA
ATOM     98  H   UNL A   1      35.792  22.417  27.131  1.00  0.00     0.211 HD
ENDBRANCH  83  97
ENDBRANCH  75  78
ENDBRANCH  73  74
ENDBRANCH   1  73
TORSDOF 17
ENDMDL
