MODEL 1
REMARK VINA RESULT:     -12.9      0.000      0.000
REMARK SMILES O=C(NCCCCNC(=O)c1ccc([C@H]2CCC[N@@H+](CCN3CCCC3=O)C2)cc1)c1ccc(-c2c3nc(c(-c4c(F)c(F)c(F)c(F)c4F)c4ccc([nH]4)c(-c4c(F)c(F)c(F)c(F)c4F)c4nc(c(-c5c(F)c(F)c(F)c(F)c5F)c5ccc2[nH]5)C=C4)C=C3)cc1
REMARK SMILES IDX 6 1 5 2 4 3 3 4 1 5 2 6 31 8 32 9 93 10 33 11 92 12 34 13
REMARK SMILES IDX 35 14 36 15 86 16 37 17 91 18 85 19 87 20 38 21 90 22 84 23
REMARK SMILES IDX 83 24 39 26 71 27 51 28 70 29 52 30 55 31 69 32 88 33 53 34
REMARK SMILES IDX 54 35 68 37 89 38 56 39 40 40 41 41 49 42 42 43 43 44 47 45
REMARK SMILES IDX 50 46 44 47 45 48 48 49 46 50 72 51 73 52 81 53 74 54 75 55
REMARK SMILES IDX 79 56 82 57 76 58 77 59 80 60 78 61 57 62 58 63 66 64 59 65
REMARK SMILES IDX 60 66 64 67 67 68 61 69 62 70 65 71 63 72 7 73 8 74 9 75
REMARK SMILES IDX 10 77 11 78 12 79 30 80 13 81 29 82 14 83 15 84 16 85 28 86
REMARK SMILES IDX 17 87 19 88 18 89 20 91 21 92 22 93 23 94 26 95 24 96 25 97
REMARK SMILES IDX 27 98
REMARK H PARENT 3 7 87 25 55 36 8 76 19 90
REMARK Flexibility Score: inf
ROOT
ATOM      1  C   UNL A   1      31.777  30.316  26.710  1.00  0.00     0.023 C 
ENDROOT
BRANCH   1   2
ATOM      2  C   UNL A   1      31.572  31.828  26.716  1.00  0.00     0.023 C 
BRANCH   2   3
ATOM      3  C   UNL A   1      32.810  32.644  27.047  1.00  0.00     0.116 C 
BRANCH   3   4
ATOM      4  N   UNL A   1      32.507  33.985  27.528  1.00  0.00    -0.352 N 
ATOM      5  O   UNL A   1      32.613  35.761  28.923  1.00  0.00    -0.269 OA
ATOM      6  C   UNL A   1      33.074  34.681  28.572  1.00  0.00     0.251 C 
ATOM      7  H   UNL A   1      31.798  34.461  27.037  1.00  0.00     0.163 HD
BRANCH   6   8
ATOM      8  C   UNL A   1      34.229  34.098  29.289  1.00  0.00     0.039 A 
ATOM      9  C   UNL A   1      35.524  34.522  28.990  1.00  0.00     0.014 A 
ATOM     10  C   UNL A   1      34.020  33.095  30.240  1.00  0.00     0.014 A 
ATOM     11  C   UNL A   1      36.608  33.822  29.497  1.00  0.00     0.010 A 
ATOM     12  C   UNL A   1      35.119  32.472  30.844  1.00  0.00     0.010 A 
ATOM     13  C   UNL A   1      36.423  32.810  30.453  1.00  0.00    -0.014 A 
BRANCH  13  14
ATOM     14  C   UNL A   1      37.625  32.203  31.083  1.00  0.00     0.031 A 
ATOM     15  C   UNL A   1      38.065  32.570  32.472  1.00  0.00     0.074 A 
ATOM     16  C   UNL A   1      38.289  31.257  30.389  1.00  0.00     0.049 A 
ATOM     17  N   UNL A   1      39.064  32.090  33.171  1.00  0.00    -0.248 NA
ATOM     18  C   UNL A   1      37.296  33.612  33.169  1.00  0.00     0.031 C 
ATOM     19  C   UNL A   1      37.960  30.832  29.025  1.00  0.00     0.029 A 
ATOM     20  N   UNL A   1      39.350  30.462  30.734  1.00  0.00    -0.354 N 
ATOM     21  C   UNL A   1      39.050  32.771  34.381  1.00  0.00     0.074 A 
ATOM     22  C   UNL A   1      37.962  33.725  34.312  1.00  0.00     0.031 C 
ATOM     23  C   UNL A   1      38.759  29.817  28.673  1.00  0.00     0.029 A 
ATOM     24  C   UNL A   1      39.711  29.574  29.749  1.00  0.00     0.049 A 
ATOM     25  H   UNL A   1      39.811  30.523  31.602  1.00  0.00     0.167 HD
ATOM     26  C   UNL A   1      39.864  32.604  35.452  1.00  0.00     0.037 A 
ATOM     27  C   UNL A   1      40.712  28.678  29.704  1.00  0.00     0.037 A 
ATOM     28  C   UNL A   1      40.942  31.648  35.513  1.00  0.00     0.049 A 
ATOM     29  C   UNL A   1      41.619  28.548  30.893  1.00  0.00     0.074 A 
ATOM     30  C   UNL A   1      41.811  31.391  36.560  1.00  0.00     0.029 A 
ATOM     31  N   UNL A   1      41.303  30.792  34.481  1.00  0.00    -0.354 N 
ATOM     32  N   UNL A   1      41.571  29.176  32.043  1.00  0.00    -0.248 NA
ATOM     33  C   UNL A   1      42.721  27.587  30.777  1.00  0.00     0.031 C 
ATOM     34  C   UNL A   1      42.729  30.422  36.143  1.00  0.00     0.029 A 
ATOM     35  C   UNL A   1      42.396  30.027  34.859  1.00  0.00     0.049 A 
ATOM     36  H   UNL A   1      40.849  30.737  33.609  1.00  0.00     0.167 HD
ATOM     37  C   UNL A   1      42.624  28.674  32.792  1.00  0.00     0.074 A 
ATOM     38  C   UNL A   1      43.269  27.663  31.981  1.00  0.00     0.031 C 
ATOM     39  C   UNL A   1      43.028  29.025  34.038  1.00  0.00     0.037 A 
BRANCH  26  40
ATOM     40  C   UNL A   1      39.637  33.476  36.656  1.00  0.00     0.064 A 
ATOM     41  C   UNL A   1      38.762  33.099  37.686  1.00  0.00     0.173 A 
ATOM     42  C   UNL A   1      40.368  34.664  36.822  1.00  0.00     0.173 A 
ATOM     43  F   UNL A   1      38.033  31.977  37.574  1.00  0.00    -0.203 F 
ATOM     44  C   UNL A   1      38.618  33.882  38.828  1.00  0.00     0.198 A 
ATOM     45  C   UNL A   1      40.242  35.430  37.980  1.00  0.00     0.198 A 
ATOM     46  F   UNL A   1      41.225  35.069  35.873  1.00  0.00    -0.203 F 
ATOM     47  F   UNL A   1      37.752  33.516  39.785  1.00  0.00    -0.200 F 
ATOM     48  C   UNL A   1      39.364  35.041  38.979  1.00  0.00     0.200 A 
ATOM     49  F   UNL A   1      40.977  36.540  38.130  1.00  0.00    -0.200 F 
ATOM     50  F   UNL A   1      39.238  35.782  40.088  1.00  0.00    -0.200 F 
ENDBRANCH  26  40
BRANCH  27  51
ATOM     51  C   UNL A   1      40.928  27.861  28.480  1.00  0.00     0.064 A 
ATOM     52  C   UNL A   1      41.742  28.317  27.435  1.00  0.00     0.173 A 
ATOM     53  C   UNL A   1      40.303  26.614  28.322  1.00  0.00     0.173 A 
ATOM     54  F   UNL A   1      42.350  29.509  27.529  1.00  0.00    -0.203 F 
ATOM     55  C   UNL A   1      41.895  27.574  26.266  1.00  0.00     0.198 A 
ATOM     56  C   UNL A   1      40.489  25.854  27.172  1.00  0.00     0.198 A 
ATOM     57  F   UNL A   1      39.520  26.126  29.297  1.00  0.00    -0.203 F 
ATOM     58  F   UNL A   1      42.625  28.063  25.256  1.00  0.00    -0.200 F 
ATOM     59  C   UNL A   1      41.273  26.341  26.138  1.00  0.00     0.200 A 
ATOM     60  F   UNL A   1      39.905  24.653  27.064  1.00  0.00    -0.200 F 
ATOM     61  F   UNL A   1      41.420  25.627  25.014  1.00  0.00    -0.200 F 
ENDBRANCH  27  51
BRANCH  39  62
ATOM     62  C   UNL A   1      44.207  28.284  34.600  1.00  0.00     0.064 A 
ATOM     63  C   UNL A   1      45.519  28.763  34.449  1.00  0.00     0.173 A 
ATOM     64  C   UNL A   1      44.026  27.079  35.295  1.00  0.00     0.173 A 
ATOM     65  F   UNL A   1      45.749  29.901  33.777  1.00  0.00    -0.203 F 
ATOM     66  C   UNL A   1      46.605  28.040  34.934  1.00  0.00     0.198 A 
ATOM     67  C   UNL A   1      45.111  26.378  35.812  1.00  0.00     0.198 A 
ATOM     68  F   UNL A   1      42.792  26.581  35.474  1.00  0.00    -0.203 F 
ATOM     69  F   UNL A   1      47.852  28.479  34.715  1.00  0.00    -0.200 F 
ATOM     70  C   UNL A   1      46.399  26.852  35.619  1.00  0.00     0.200 A 
ATOM     71  F   UNL A   1      44.910  25.239  36.487  1.00  0.00    -0.200 F 
ATOM     72  F   UNL A   1      47.447  26.156  36.084  1.00  0.00    -0.200 F 
ENDBRANCH  39  62
ENDBRANCH  13  14
ENDBRANCH   6   8
ENDBRANCH   3   4
ENDBRANCH   2   3
ENDBRANCH   1   2
BRANCH   1  73
ATOM     73  C   UNL A   1      32.014  29.697  25.335  1.00  0.00     0.116 C 
BRANCH  73  74
ATOM     74  N   UNL A   1      30.925  29.955  24.404  1.00  0.00    -0.352 N 
ATOM     75  C   UNL A   1      30.510  29.228  23.314  1.00  0.00     0.251 C 
ATOM     76  H   UNL A   1      30.408  30.773  24.582  1.00  0.00     0.163 HD
ATOM     77  O   UNL A   1      29.662  29.687  22.556  1.00  0.00    -0.269 OA
BRANCH  75  78
ATOM     78  C   UNL A   1      31.110  27.908  23.037  1.00  0.00     0.039 A 
ATOM     79  C   UNL A   1      32.391  27.849  22.492  1.00  0.00     0.014 A 
ATOM     80  C   UNL A   1      30.417  26.730  23.315  1.00  0.00     0.014 A 
ATOM     81  C   UNL A   1      33.025  26.613  22.350  1.00  0.00     0.005 A 
ATOM     82  C   UNL A   1      31.061  25.499  23.185  1.00  0.00     0.005 A 
ATOM     83  C   UNL A   1      32.397  25.421  22.758  1.00  0.00    -0.039 A 
BRANCH  83  84
ATOM     84  C   UNL A   1      33.207  24.120  22.781  1.00  0.00     0.074 C 
ATOM     85  C   UNL A   1      34.543  24.376  23.511  1.00  0.00     0.020 C 
ATOM     86  C   UNL A   1      32.485  22.919  23.446  1.00  0.00     0.270 C 
ATOM     87  C   UNL A   1      35.360  23.096  23.624  1.00  0.00     0.062 C 
ATOM     88  N   UNL A   1      33.314  21.728  23.671  1.00  0.00    -0.333 N 
ATOM     89  C   UNL A   1      34.571  22.019  24.357  1.00  0.00     0.262 C 
ATOM     90  H   UNL A   1      33.576  21.396  22.742  1.00  0.00     0.348 HD
BRANCH  88  91
ATOM     91  C   UNL A   1      32.560  20.633  24.323  1.00  0.00     0.284 C 
BRANCH  91  92
ATOM     92  C   UNL A   1      32.263  19.317  23.546  1.00  0.00     0.180 C 
BRANCH  92  93
ATOM     93  N   UNL A   1      32.743  18.094  24.175  1.00  0.00    -0.337 N 
ATOM     94  C   UNL A   1      32.533  17.793  25.569  1.00  0.00     0.120 C 
ATOM     95  C   UNL A   1      33.413  17.097  23.494  1.00  0.00     0.222 C 
ATOM     96  C   UNL A   1      33.318  16.515  25.810  1.00  0.00     0.031 C 
ATOM     97  C   UNL A   1      33.609  15.939  24.431  1.00  0.00     0.102 C 
ATOM     98  O   UNL A   1      33.733  17.110  22.314  1.00  0.00    -0.275 OA
ENDBRANCH  92  93
ENDBRANCH  91  92
ENDBRANCH  88  91
ENDBRANCH  83  84
ENDBRANCH  75  78
ENDBRANCH  73  74
ENDBRANCH   1  73
TORSDOF 15
ENDMDL
MODEL 2
REMARK VINA RESULT:     -12.8      4.968     11.281
REMARK SMILES O=C(NCCCCNC(=O)c1ccc([C@H]2CCC[N@@H+](CCN3CCCC3=O)C2)cc1)c1ccc(-c2c3nc(c(-c4c(F)c(F)c(F)c(F)c4F)c4ccc([nH]4)c(-c4c(F)c(F)c(F)c(F)c4F)c4nc(c(-c5c(F)c(F)c(F)c(F)c5F)c5ccc2[nH]5)C=C4)C=C3)cc1
REMARK SMILES IDX 6 1 5 2 4 3 3 4 1 5 2 6 31 8 32 9 93 10 33 11 92 12 34 13
REMARK SMILES IDX 35 14 36 15 86 16 37 17 91 18 85 19 87 20 38 21 90 22 84 23
REMARK SMILES IDX 83 24 39 26 71 27 51 28 70 29 52 30 55 31 69 32 88 33 53 34
REMARK SMILES IDX 54 35 68 37 89 38 56 39 40 40 41 41 49 42 42 43 43 44 47 45
REMARK SMILES IDX 50 46 44 47 45 48 48 49 46 50 72 51 73 52 81 53 74 54 75 55
REMARK SMILES IDX 79 56 82 57 76 58 77 59 80 60 78 61 57 62 58 63 66 64 59 65
REMARK SMILES IDX 60 66 64 67 67 68 61 69 62 70 65 71 63 72 7 73 8 74 9 75
REMARK SMILES IDX 10 77 11 78 12 79 30 80 13 81 29 82 14 83 15 84 16 85 28 86
REMARK SMILES IDX 17 87 19 88 18 89 20 91 21 92 22 93 23 94 26 95 24 96 25 97
REMARK SMILES IDX 27 98
REMARK H PARENT 3 7 87 25 55 36 8 76 19 90
REMARK Flexibility Score: inf
ROOT
ATOM      1  C   UNL A   1      36.790  20.842  24.671  1.00  0.00     0.023 C 
ENDROOT
BRANCH   1   2
ATOM      2  C   UNL A   1      37.817  19.749  24.951  1.00  0.00     0.023 C 
BRANCH   2   3
ATOM      3  C   UNL A   1      39.044  20.202  25.725  1.00  0.00     0.116 C 
BRANCH   3   4
ATOM      4  N   UNL A   1      40.068  19.173  25.839  1.00  0.00    -0.352 N 
ATOM      5  O   UNL A   1      42.163  18.345  26.035  1.00  0.00    -0.269 OA
ATOM      6  C   UNL A   1      41.414  19.313  26.094  1.00  0.00     0.251 C 
ATOM      7  H   UNL A   1      39.754  18.248  25.718  1.00  0.00     0.163 HD
BRANCH   6   8
ATOM      8  C   UNL A   1      41.955  20.653  26.412  1.00  0.00     0.039 A 
ATOM      9  C   UNL A   1      42.250  20.992  27.733  1.00  0.00     0.014 A 
ATOM     10  C   UNL A   1      42.135  21.589  25.389  1.00  0.00     0.014 A 
ATOM     11  C   UNL A   1      42.542  22.309  28.052  1.00  0.00     0.010 A 
ATOM     12  C   UNL A   1      42.550  22.888  25.703  1.00  0.00     0.010 A 
ATOM     13  C   UNL A   1      42.727  23.268  27.042  1.00  0.00    -0.014 A 
BRANCH  13  14
ATOM     14  C   UNL A   1      43.197  24.623  27.430  1.00  0.00     0.031 A 
ATOM     15  C   UNL A   1      44.613  25.070  27.199  1.00  0.00     0.074 A 
ATOM     16  C   UNL A   1      42.292  25.477  27.949  1.00  0.00     0.049 A 
ATOM     17  N   UNL A   1      45.155  26.238  27.441  1.00  0.00    -0.248 NA
ATOM     18  C   UNL A   1      45.546  24.085  26.633  1.00  0.00     0.031 C 
ATOM     19  C   UNL A   1      40.892  25.147  28.231  1.00  0.00     0.029 A 
ATOM     20  N   UNL A   1      42.396  26.797  28.303  1.00  0.00    -0.354 N 
ATOM     21  C   UNL A   1      46.488  26.129  27.066  1.00  0.00     0.074 A 
ATOM     22  C   UNL A   1      46.684  24.768  26.610  1.00  0.00     0.031 C 
ATOM     23  C   UNL A   1      40.254  26.245  28.655  1.00  0.00     0.029 A 
ATOM     24  C   UNL A   1      41.215  27.336  28.756  1.00  0.00     0.049 A 
ATOM     25  H   UNL A   1      43.235  27.309  28.241  1.00  0.00     0.167 HD
ATOM     26  C   UNL A   1      47.452  27.082  27.091  1.00  0.00     0.037 A 
ATOM     27  C   UNL A   1      40.939  28.565  29.225  1.00  0.00     0.037 A 
ATOM     28  C   UNL A   1      47.245  28.435  27.543  1.00  0.00     0.049 A 
ATOM     29  C   UNL A   1      42.040  29.583  29.275  1.00  0.00     0.074 A 
ATOM     30  C   UNL A   1      48.155  29.479  27.589  1.00  0.00     0.029 A 
ATOM     31  N   UNL A   1      46.045  28.934  28.032  1.00  0.00    -0.354 N 
ATOM     32  N   UNL A   1      43.287  29.474  28.885  1.00  0.00    -0.248 NA
ATOM     33  C   UNL A   1      41.697  30.896  29.834  1.00  0.00     0.031 C 
ATOM     34  C   UNL A   1      47.521  30.590  28.156  1.00  0.00     0.029 A 
ATOM     35  C   UNL A   1      46.200  30.261  28.405  1.00  0.00     0.049 A 
ATOM     36  H   UNL A   1      45.208  28.421  28.104  1.00  0.00     0.167 HD
ATOM     37  C   UNL A   1      43.871  30.706  29.134  1.00  0.00     0.074 A 
ATOM     38  C   UNL A   1      42.833  31.559  29.675  1.00  0.00     0.031 C 
ATOM     39  C   UNL A   1      45.156  31.096  28.943  1.00  0.00     0.037 A 
BRANCH  26  40
ATOM     40  C   UNL A   1      48.830  26.705  26.624  1.00  0.00     0.064 A 
ATOM     41  C   UNL A   1      49.238  26.899  25.296  1.00  0.00     0.173 A 
ATOM     42  C   UNL A   1      49.784  26.225  27.536  1.00  0.00     0.173 A 
ATOM     43  F   UNL A   1      48.365  27.348  24.381  1.00  0.00    -0.203 F 
ATOM     44  C   UNL A   1      50.541  26.613  24.895  1.00  0.00     0.198 A 
ATOM     45  C   UNL A   1      51.095  25.967  27.138  1.00  0.00     0.198 A 
ATOM     46  F   UNL A   1      49.452  26.028  28.821  1.00  0.00    -0.203 F 
ATOM     47  F   UNL A   1      50.898  26.777  23.613  1.00  0.00    -0.200 F 
ATOM     48  C   UNL A   1      51.471  26.158  25.818  1.00  0.00     0.200 A 
ATOM     49  F   UNL A   1      51.995  25.544  28.035  1.00  0.00    -0.200 F 
ATOM     50  F   UNL A   1      52.729  25.903  25.434  1.00  0.00    -0.200 F 
ENDBRANCH  26  40
BRANCH  27  51
ATOM     51  C   UNL A   1      39.572  28.887  29.714  1.00  0.00     0.064 A 
ATOM     52  C   UNL A   1      38.617  29.472  28.871  1.00  0.00     0.173 A 
ATOM     53  C   UNL A   1      39.199  28.634  31.043  1.00  0.00     0.173 A 
ATOM     54  F   UNL A   1      38.928  29.749  27.596  1.00  0.00    -0.203 F 
ATOM     55  C   UNL A   1      37.356  29.825  29.349  1.00  0.00     0.198 A 
ATOM     56  C   UNL A   1      37.926  28.949  31.508  1.00  0.00     0.198 A 
ATOM     57  F   UNL A   1      40.071  28.066  31.890  1.00  0.00    -0.203 F 
ATOM     58  F   UNL A   1      36.487  30.444  28.540  1.00  0.00    -0.200 F 
ATOM     59  C   UNL A   1      37.010  29.558  30.665  1.00  0.00     0.200 A 
ATOM     60  F   UNL A   1      37.589  28.666  32.774  1.00  0.00    -0.200 F 
ATOM     61  F   UNL A   1      35.798  29.897  31.123  1.00  0.00    -0.200 F 
ENDBRANCH  27  51
BRANCH  39  62
ATOM     62  C   UNL A   1      45.492  32.516  29.299  1.00  0.00     0.064 A 
ATOM     63  C   UNL A   1      45.970  32.865  30.572  1.00  0.00     0.173 A 
ATOM     64  C   UNL A   1      45.330  33.543  28.356  1.00  0.00     0.173 A 
ATOM     65  F   UNL A   1      46.124  31.923  31.516  1.00  0.00    -0.203 F 
ATOM     66  C   UNL A   1      46.231  34.192  30.900  1.00  0.00     0.198 A 
ATOM     67  C   UNL A   1      45.628  34.864  28.676  1.00  0.00     0.198 A 
ATOM     68  F   UNL A   1      44.883  33.264  27.122  1.00  0.00    -0.203 F 
ATOM     69  F   UNL A   1      46.617  34.509  32.144  1.00  0.00    -0.200 F 
ATOM     70  C   UNL A   1      46.065  35.189  29.951  1.00  0.00     0.200 A 
ATOM     71  F   UNL A   1      45.483  35.824  27.753  1.00  0.00    -0.200 F 
ATOM     72  F   UNL A   1      46.314  36.466  30.270  1.00  0.00    -0.200 F 
ENDBRANCH  39  62
ENDBRANCH  13  14
ENDBRANCH   6   8
ENDBRANCH   3   4
ENDBRANCH   2   3
ENDBRANCH   1   2
BRANCH   1  73
ATOM     73  C   UNL A   1      35.703  21.001  25.732  1.00  0.00     0.116 C 
BRANCH  73  74
ATOM     74  N   UNL A   1      34.485  20.273  25.408  1.00  0.00    -0.352 N 
ATOM     75  C   UNL A   1      33.181  20.705  25.394  1.00  0.00     0.251 C 
ATOM     76  H   UNL A   1      34.616  19.329  25.162  1.00  0.00     0.163 HD
ATOM     77  O   UNL A   1      32.269  19.900  25.241  1.00  0.00    -0.269 OA
BRANCH  75  78
ATOM     78  C   UNL A   1      32.876  22.135  25.598  1.00  0.00     0.039 A 
ATOM     79  C   UNL A   1      32.965  23.007  24.515  1.00  0.00     0.014 A 
ATOM     80  C   UNL A   1      32.501  22.619  26.851  1.00  0.00     0.014 A 
ATOM     81  C   UNL A   1      32.551  24.333  24.658  1.00  0.00     0.005 A 
ATOM     82  C   UNL A   1      32.075  23.940  26.985  1.00  0.00     0.005 A 
ATOM     83  C   UNL A   1      32.034  24.805  25.879  1.00  0.00    -0.039 A 
BRANCH  83  84
ATOM     84  C   UNL A   1      31.398  26.199  25.931  1.00  0.00     0.074 C 
ATOM     85  C   UNL A   1      32.248  27.103  26.847  1.00  0.00     0.020 C 
ATOM     86  C   UNL A   1      31.230  26.885  24.550  1.00  0.00     0.270 C 
ATOM     87  C   UNL A   1      31.699  28.523  26.879  1.00  0.00     0.062 C 
ATOM     88  N   UNL A   1      30.823  28.296  24.589  1.00  0.00    -0.333 N 
ATOM     89  C   UNL A   1      31.651  29.112  25.474  1.00  0.00     0.262 C 
ATOM     90  H   UNL A   1      29.890  28.301  25.000  1.00  0.00     0.348 HD
BRANCH  88  91
ATOM     91  C   UNL A   1      30.702  28.884  23.235  1.00  0.00     0.284 C 
BRANCH  91  92
ATOM     92  C   UNL A   1      29.296  29.109  22.604  1.00  0.00     0.180 C 
BRANCH  92  93
ATOM     93  N   UNL A   1      28.875  30.498  22.490  1.00  0.00    -0.337 N 
ATOM     94  C   UNL A   1      29.100  31.476  23.526  1.00  0.00     0.120 C 
ATOM     95  C   UNL A   1      28.251  31.018  21.373  1.00  0.00     0.222 C 
ATOM     96  C   UNL A   1      28.376  32.721  23.045  1.00  0.00     0.031 C 
ATOM     97  C   UNL A   1      28.110  32.502  21.562  1.00  0.00     0.102 C 
ATOM     98  O   UNL A   1      27.929  30.402  20.366  1.00  0.00    -0.275 OA
ENDBRANCH  92  93
ENDBRANCH  91  92
ENDBRANCH  88  91
ENDBRANCH  83  84
ENDBRANCH  75  78
ENDBRANCH  73  74
ENDBRANCH   1  73
TORSDOF 15
ENDMDL
MODEL 3
REMARK VINA RESULT:     -12.8      4.839     10.641
REMARK SMILES O=C(NCCCCNC(=O)c1ccc([C@H]2CCC[N@@H+](CCN3CCCC3=O)C2)cc1)c1ccc(-c2c3nc(c(-c4c(F)c(F)c(F)c(F)c4F)c4ccc([nH]4)c(-c4c(F)c(F)c(F)c(F)c4F)c4nc(c(-c5c(F)c(F)c(F)c(F)c5F)c5ccc2[nH]5)C=C4)C=C3)cc1
REMARK SMILES IDX 6 1 5 2 4 3 3 4 1 5 2 6 31 8 32 9 93 10 33 11 92 12 34 13
REMARK SMILES IDX 35 14 36 15 86 16 37 17 91 18 85 19 87 20 38 21 90 22 84 23
REMARK SMILES IDX 83 24 39 26 71 27 51 28 70 29 52 30 55 31 69 32 88 33 53 34
REMARK SMILES IDX 54 35 68 37 89 38 56 39 40 40 41 41 49 42 42 43 43 44 47 45
REMARK SMILES IDX 50 46 44 47 45 48 48 49 46 50 72 51 73 52 81 53 74 54 75 55
REMARK SMILES IDX 79 56 82 57 76 58 77 59 80 60 78 61 57 62 58 63 66 64 59 65
REMARK SMILES IDX 60 66 64 67 67 68 61 69 62 70 65 71 63 72 7 73 8 74 9 75
REMARK SMILES IDX 10 77 11 78 12 79 30 80 13 81 29 82 14 83 15 84 16 85 28 86
REMARK SMILES IDX 17 87 19 88 18 89 20 91 21 92 22 93 23 94 26 95 24 96 25 97
REMARK SMILES IDX 27 98
REMARK H PARENT 3 7 87 25 55 36 8 76 19 90
REMARK Flexibility Score: inf
ROOT
ATOM      1  C   UNL A   1      37.168  21.095  24.456  1.00  0.00     0.023 C 
ENDROOT
BRANCH   1   2
ATOM      2  C   UNL A   1      37.943  19.890  24.980  1.00  0.00     0.023 C 
BRANCH   2   3
ATOM      3  C   UNL A   1      39.099  20.222  25.908  1.00  0.00     0.116 C 
BRANCH   3   4
ATOM      4  N   UNL A   1      40.163  19.227  25.885  1.00  0.00    -0.352 N 
ATOM      5  O   UNL A   1      42.293  18.468  25.906  1.00  0.00    -0.269 OA
ATOM      6  C   UNL A   1      41.515  19.399  26.083  1.00  0.00     0.251 C 
ATOM      7  H   UNL A   1      39.875  18.303  25.702  1.00  0.00     0.163 HD
BRANCH   6   8
ATOM      8  C   UNL A   1      42.026  20.728  26.484  1.00  0.00     0.039 A 
ATOM      9  C   UNL A   1      42.123  21.061  27.835  1.00  0.00     0.014 A 
ATOM     10  C   UNL A   1      42.375  21.661  25.504  1.00  0.00     0.014 A 
ATOM     11  C   UNL A   1      42.386  22.372  28.200  1.00  0.00     0.010 A 
ATOM     12  C   UNL A   1      42.761  22.953  25.881  1.00  0.00     0.010 A 
ATOM     13  C   UNL A   1      42.739  23.328  27.233  1.00  0.00    -0.014 A 
BRANCH  13  14
ATOM     14  C   UNL A   1      43.169  24.674  27.692  1.00  0.00     0.031 A 
ATOM     15  C   UNL A   1      44.618  25.070  27.750  1.00  0.00     0.074 A 
ATOM     16  C   UNL A   1      42.209  25.567  28.006  1.00  0.00     0.049 A 
ATOM     17  N   UNL A   1      45.141  26.224  28.083  1.00  0.00    -0.248 NA
ATOM     18  C   UNL A   1      45.611  24.044  27.397  1.00  0.00     0.031 C 
ATOM     19  C   UNL A   1      40.770  25.288  28.002  1.00  0.00     0.029 A 
ATOM     20  N   UNL A   1      42.286  26.889  28.359  1.00  0.00    -0.354 N 
ATOM     21  C   UNL A   1      46.517  26.064  27.988  1.00  0.00     0.074 A 
ATOM     22  C   UNL A   1      46.753  24.690  27.598  1.00  0.00     0.031 C 
ATOM     23  C   UNL A   1      40.100  26.414  28.274  1.00  0.00     0.029 A 
ATOM     24  C   UNL A   1      41.059  27.475  28.555  1.00  0.00     0.049 A 
ATOM     25  H   UNL A   1      43.138  27.372  28.462  1.00  0.00     0.167 HD
ATOM     26  C   UNL A   1      47.490  26.985  28.197  1.00  0.00     0.037 A 
ATOM     27  C   UNL A   1      40.737  28.721  28.944  1.00  0.00     0.037 A 
ATOM     28  C   UNL A   1      47.244  28.353  28.582  1.00  0.00     0.049 A 
ATOM     29  C   UNL A   1      41.841  29.703  29.205  1.00  0.00     0.074 A 
ATOM     30  C   UNL A   1      48.163  29.367  28.800  1.00  0.00     0.029 A 
ATOM     31  N   UNL A   1      45.989  28.900  28.811  1.00  0.00    -0.354 N 
ATOM     32  N   UNL A   1      43.136  29.546  29.078  1.00  0.00    -0.248 NA
ATOM     33  C   UNL A   1      41.439  31.036  29.667  1.00  0.00     0.031 C 
ATOM     34  C   UNL A   1      47.468  30.509  29.213  1.00  0.00     0.029 A 
ATOM     35  C   UNL A   1      46.112  30.228  29.192  1.00  0.00     0.049 A 
ATOM     36  H   UNL A   1      45.137  28.416  28.717  1.00  0.00     0.167 HD
ATOM     37  C   UNL A   1      43.701  30.763  29.427  1.00  0.00     0.074 A 
ATOM     38  C   UNL A   1      42.606  31.659  29.735  1.00  0.00     0.031 C 
ATOM     39  C   UNL A   1      45.011  31.107  29.497  1.00  0.00     0.037 A 
BRANCH  26  40
ATOM     40  C   UNL A   1      48.920  26.555  28.026  1.00  0.00     0.064 A 
ATOM     41  C   UNL A   1      49.534  26.522  26.765  1.00  0.00     0.173 A 
ATOM     42  C   UNL A   1      49.713  26.254  29.145  1.00  0.00     0.173 A 
ATOM     43  F   UNL A   1      48.821  26.792  25.660  1.00  0.00    -0.203 F 
ATOM     44  C   UNL A   1      50.881  26.191  26.630  1.00  0.00     0.198 A 
ATOM     45  C   UNL A   1      51.067  25.952  29.009  1.00  0.00     0.198 A 
ATOM     46  F   UNL A   1      49.180  26.278  30.377  1.00  0.00    -0.203 F 
ATOM     47  F   UNL A   1      51.436  26.137  25.410  1.00  0.00    -0.200 F 
ATOM     48  C   UNL A   1      51.648  25.917  27.751  1.00  0.00     0.200 A 
ATOM     49  F   UNL A   1      51.809  25.705  30.096  1.00  0.00    -0.200 F 
ATOM     50  F   UNL A   1      52.947  25.619  27.620  1.00  0.00    -0.200 F 
ENDBRANCH  26  40
BRANCH  27  51
ATOM     51  C   UNL A   1      39.311  29.096  29.140  1.00  0.00     0.064 A 
ATOM     52  C   UNL A   1      38.517  29.524  28.068  1.00  0.00     0.173 A 
ATOM     53  C   UNL A   1      38.719  29.055  30.413  1.00  0.00     0.173 A 
ATOM     54  F   UNL A   1      39.039  29.596  26.834  1.00  0.00    -0.203 F 
ATOM     55  C   UNL A   1      37.199  29.930  28.266  1.00  0.00     0.198 A 
ATOM     56  C   UNL A   1      37.391  29.421  30.602  1.00  0.00     0.198 A 
ATOM     57  F   UNL A   1      39.432  28.644  31.473  1.00  0.00    -0.203 F 
ATOM     58  F   UNL A   1      36.484  30.398  27.235  1.00  0.00    -0.200 F 
ATOM     59  C   UNL A   1      36.635  29.873  29.531  1.00  0.00     0.200 A 
ATOM     60  F   UNL A   1      36.845  29.342  31.823  1.00  0.00    -0.200 F 
ATOM     61  F   UNL A   1      35.369  30.264  29.722  1.00  0.00    -0.200 F 
ENDBRANCH  27  51
BRANCH  39  62
ATOM     62  C   UNL A   1      45.319  32.522  29.896  1.00  0.00     0.064 A 
ATOM     63  C   UNL A   1      45.409  33.553  28.947  1.00  0.00     0.173 A 
ATOM     64  C   UNL A   1      45.531  32.851  31.243  1.00  0.00     0.173 A 
ATOM     65  F   UNL A   1      45.233  33.287  27.643  1.00  0.00    -0.203 F 
ATOM     66  C   UNL A   1      45.742  34.849  29.328  1.00  0.00     0.198 A 
ATOM     67  C   UNL A   1      45.827  34.156  31.625  1.00  0.00     0.198 A 
ATOM     68  F   UNL A   1      45.450  31.905  32.192  1.00  0.00    -0.203 F 
ATOM     69  F   UNL A   1      45.894  35.801  28.397  1.00  0.00    -0.200 F 
ATOM     70  C   UNL A   1      45.946  35.150  30.667  1.00  0.00     0.200 A 
ATOM     71  F   UNL A   1      46.007  34.449  32.920  1.00  0.00    -0.200 F 
ATOM     72  F   UNL A   1      46.269  36.399  31.031  1.00  0.00    -0.200 F 
ENDBRANCH  39  62
ENDBRANCH  13  14
ENDBRANCH   6   8
ENDBRANCH   3   4
ENDBRANCH   2   3
ENDBRANCH   1   2
BRANCH   1  73
ATOM     73  C   UNL A   1      35.858  21.393  25.182  1.00  0.00     0.116 C 
BRANCH  73  74
ATOM     74  N   UNL A   1      35.018  20.215  25.340  1.00  0.00    -0.352 N 
ATOM     75  C   UNL A   1      33.661  20.075  25.178  1.00  0.00     0.251 C 
ATOM     76  H   UNL A   1      35.495  19.394  25.601  1.00  0.00     0.163 HD
ATOM     77  O   UNL A   1      33.108  19.031  25.506  1.00  0.00    -0.269 OA
BRANCH  75  78
ATOM     78  C   UNL A   1      32.864  21.197  24.643  1.00  0.00     0.039 A 
ATOM     79  C   UNL A   1      32.264  22.085  25.533  1.00  0.00     0.014 A 
ATOM     80  C   UNL A   1      32.709  21.378  23.269  1.00  0.00     0.014 A 
ATOM     81  C   UNL A   1      31.620  23.224  25.045  1.00  0.00     0.005 A 
ATOM     82  C   UNL A   1      32.079  22.526  22.788  1.00  0.00     0.005 A 
ATOM     83  C   UNL A   1      31.577  23.500  23.665  1.00  0.00    -0.039 A 
BRANCH  83  84
ATOM     84  C   UNL A   1      31.051  24.860  23.193  1.00  0.00     0.074 C 
ATOM     85  C   UNL A   1      29.945  25.333  24.160  1.00  0.00     0.020 C 
ATOM     86  C   UNL A   1      32.132  25.967  23.075  1.00  0.00     0.270 C 
ATOM     87  C   UNL A   1      29.435  26.715  23.777  1.00  0.00     0.062 C 
ATOM     88  N   UNL A   1      31.625  27.324  22.832  1.00  0.00    -0.333 N 
ATOM     89  C   UNL A   1      30.575  27.724  23.766  1.00  0.00     0.262 C 
ATOM     90  H   UNL A   1      31.182  27.291  21.914  1.00  0.00     0.348 HD
BRANCH  88  91
ATOM     91  C   UNL A   1      32.714  28.324  22.749  1.00  0.00     0.284 C 
BRANCH  91  92
ATOM     92  C   UNL A   1      33.874  28.304  23.787  1.00  0.00     0.180 C 
BRANCH  92  93
ATOM     93  N   UNL A   1      33.490  28.581  25.164  1.00  0.00    -0.337 N 
ATOM     94  C   UNL A   1      33.048  29.878  25.612  1.00  0.00     0.120 C 
ATOM     95  C   UNL A   1      33.480  27.624  26.161  1.00  0.00     0.222 C 
ATOM     96  C   UNL A   1      32.901  29.737  27.117  1.00  0.00     0.031 C 
ATOM     97  C   UNL A   1      32.885  28.240  27.395  1.00  0.00     0.102 C 
ATOM     98  O   UNL A   1      33.824  26.456  26.052  1.00  0.00    -0.275 OA
ENDBRANCH  92  93
ENDBRANCH  91  92
ENDBRANCH  88  91
ENDBRANCH  83  84
ENDBRANCH  75  78
ENDBRANCH  73  74
ENDBRANCH   1  73
TORSDOF 15
ENDMDL
