MODEL 1
REMARK VINA RESULT:     -13.3      0.000      0.000
REMARK SMILES O=C(NCCCCNC(=O)[C@@H]1CCCC[C@H]1C(=O)Nc1ccc(NC(=O)c2ccco2)cc1)c1ccc(-c2c3nc(c(-c4c(F)c(F)c(F)c(F)c4F)c4ccc([nH]4)c(-c4c(F)c(F)c(F)c(F)c4F)c4nc(c(-c5c(F)c(F)c(F)c(F)c5F)c5ccc2[nH]5)C=C4)C=C3)cc1
REMARK SMILES IDX 6 1 5 2 4 3 3 4 1 5 2 6 34 8 35 9 96 10 36 11 95 12 37 13
REMARK SMILES IDX 38 14 39 15 89 16 40 17 94 18 88 19 90 20 41 21 93 22 87 23
REMARK SMILES IDX 86 24 42 26 74 27 54 28 73 29 55 30 58 31 72 32 91 33 56 34
REMARK SMILES IDX 57 35 71 37 92 38 59 39 43 40 44 41 52 42 45 43 46 44 50 45
REMARK SMILES IDX 53 46 47 47 48 48 51 49 49 50 75 51 76 52 84 53 77 54 78 55
REMARK SMILES IDX 82 56 85 57 79 58 80 59 83 60 81 61 60 62 61 63 69 64 62 65
REMARK SMILES IDX 63 66 67 67 70 68 64 69 65 70 68 71 66 72 7 73 8 74 9 75
REMARK SMILES IDX 10 77 11 78 12 79 16 80 13 81 15 82 14 83 17 84 18 85 19 86
REMARK SMILES IDX 20 88 21 89 33 90 22 91 32 92 23 93 24 94 25 95 26 97 27 98
REMARK SMILES IDX 28 99 31 100 29 101 30 102
REMARK H PARENT 3 7 90 25 58 36 8 76 19 87 24 96
REMARK Flexibility Score: inf
ROOT
ATOM      1  C   UNL A   1      32.413  30.339  26.947  1.00  0.00     0.023 C 
ENDROOT
BRANCH   1   2
ATOM      2  C   UNL A   1      31.972  31.797  26.926  1.00  0.00     0.023 C 
BRANCH   2   3
ATOM      3  C   UNL A   1      33.025  32.785  27.385  1.00  0.00     0.116 C 
BRANCH   3   4
ATOM      4  N   UNL A   1      32.514  34.115  27.684  1.00  0.00    -0.352 N 
ATOM      5  O   UNL A   1      32.449  36.076  28.831  1.00  0.00    -0.269 OA
ATOM      6  C   UNL A   1      32.995  34.999  28.624  1.00  0.00     0.251 C 
ATOM      7  H   UNL A   1      31.741  34.417  27.155  1.00  0.00     0.163 HD
BRANCH   6   8
ATOM      8  C   UNL A   1      34.164  34.584  29.423  1.00  0.00     0.039 A 
ATOM      9  C   UNL A   1      35.446  34.756  28.902  1.00  0.00     0.014 A 
ATOM     10  C   UNL A   1      33.966  33.909  30.629  1.00  0.00     0.014 A 
ATOM     11  C   UNL A   1      36.509  34.090  29.488  1.00  0.00     0.010 A 
ATOM     12  C   UNL A   1      35.060  33.330  31.279  1.00  0.00     0.010 A 
ATOM     13  C   UNL A   1      36.331  33.379  30.690  1.00  0.00    -0.014 A 
BRANCH  13  14
ATOM     14  C   UNL A   1      37.522  32.755  31.316  1.00  0.00     0.031 A 
ATOM     15  C   UNL A   1      37.940  33.086  32.720  1.00  0.00     0.074 A 
ATOM     16  C   UNL A   1      38.173  31.806  30.615  1.00  0.00     0.049 A 
ATOM     17  N   UNL A   1      38.913  32.571  33.428  1.00  0.00    -0.248 NA
ATOM     18  C   UNL A   1      37.180  34.133  33.421  1.00  0.00     0.031 C 
ATOM     19  C   UNL A   1      37.858  31.422  29.236  1.00  0.00     0.029 A 
ATOM     20  N   UNL A   1      39.192  30.965  30.970  1.00  0.00    -0.354 N 
ATOM     21  C   UNL A   1      38.901  33.245  34.643  1.00  0.00     0.074 A 
ATOM     22  C   UNL A   1      37.831  34.217  34.574  1.00  0.00     0.031 C 
ATOM     23  C   UNL A   1      38.608  30.368  28.892  1.00  0.00     0.029 A 
ATOM     24  C   UNL A   1      39.505  30.049  29.995  1.00  0.00     0.049 A 
ATOM     25  H   UNL A   1      39.655  31.011  31.837  1.00  0.00     0.167 HD
ATOM     26  C   UNL A   1      39.711  33.063  35.714  1.00  0.00     0.037 A 
ATOM     27  C   UNL A   1      40.418  29.062  29.988  1.00  0.00     0.037 A 
ATOM     28  C   UNL A   1      40.760  32.075  35.779  1.00  0.00     0.049 A 
ATOM     29  C   UNL A   1      41.269  28.858  31.204  1.00  0.00     0.074 A 
ATOM     30  C   UNL A   1      41.641  31.815  36.816  1.00  0.00     0.029 A 
ATOM     31  N   UNL A   1      41.062  31.177  34.765  1.00  0.00    -0.354 N 
ATOM     32  N   UNL A   1      41.255  29.514  32.338  1.00  0.00    -0.248 NA
ATOM     33  C   UNL A   1      42.269  27.787  31.136  1.00  0.00     0.031 C 
ATOM     34  C   UNL A   1      42.492  30.777  36.419  1.00  0.00     0.029 A 
ATOM     35  C   UNL A   1      42.117  30.365  35.151  1.00  0.00     0.049 A 
ATOM     36  H   UNL A   1      40.595  31.124  33.900  1.00  0.00     0.167 HD
ATOM     37  C   UNL A   1      42.253  28.947  33.116  1.00  0.00     0.074 A 
ATOM     38  C   UNL A   1      42.820  27.862  32.339  1.00  0.00     0.031 C 
ATOM     39  C   UNL A   1      42.675  29.305  34.352  1.00  0.00     0.037 A 
BRANCH  26  40
ATOM     40  C   UNL A   1      39.511  33.953  36.904  1.00  0.00     0.064 A 
ATOM     41  C   UNL A   1      38.783  33.531  38.025  1.00  0.00     0.173 A 
ATOM     42  C   UNL A   1      40.110  35.222  36.951  1.00  0.00     0.173 A 
ATOM     43  F   UNL A   1      38.180  32.333  38.025  1.00  0.00    -0.203 F 
ATOM     44  C   UNL A   1      38.654  34.347  39.146  1.00  0.00     0.198 A 
ATOM     45  C   UNL A   1      39.998  36.028  38.081  1.00  0.00     0.198 A 
ATOM     46  F   UNL A   1      40.822  35.672  35.907  1.00  0.00    -0.203 F 
ATOM     47  F   UNL A   1      37.931  33.934  40.196  1.00  0.00    -0.200 F 
ATOM     48  C   UNL A   1      39.268  35.591  39.177  1.00  0.00     0.200 A 
ATOM     49  F   UNL A   1      40.600  37.224  38.114  1.00  0.00    -0.200 F 
ATOM     50  F   UNL A   1      39.153  36.372  40.261  1.00  0.00    -0.200 F 
ENDBRANCH  26  40
BRANCH  27  51
ATOM     51  C   UNL A   1      40.562  28.209  28.783  1.00  0.00     0.064 A 
ATOM     52  C   UNL A   1      39.852  27.008  28.657  1.00  0.00     0.173 A 
ATOM     53  C   UNL A   1      41.384  28.599  27.715  1.00  0.00     0.173 A 
ATOM     54  F   UNL A   1      39.066  26.587  29.658  1.00  0.00    -0.203 F 
ATOM     55  C   UNL A   1      39.965  26.225  27.511  1.00  0.00     0.198 A 
ATOM     56  C   UNL A   1      41.473  27.831  26.558  1.00  0.00     0.198 A 
ATOM     57  F   UNL A   1      42.076  29.746  27.785  1.00  0.00    -0.203 F 
ATOM     58  F   UNL A   1      39.301  25.064  27.427  1.00  0.00    -0.200 F 
ATOM     59  C   UNL A   1      40.768  26.642  26.459  1.00  0.00     0.200 A 
ATOM     60  F   UNL A   1      42.232  28.249  25.536  1.00  0.00    -0.200 F 
ATOM     61  F   UNL A   1      40.864  25.896  25.350  1.00  0.00    -0.200 F 
ENDBRANCH  27  51
BRANCH  39  62
ATOM     62  C   UNL A   1      43.816  28.517  34.921  1.00  0.00     0.064 A 
ATOM     63  C   UNL A   1      45.146  28.915  34.716  1.00  0.00     0.173 A 
ATOM     64  C   UNL A   1      43.580  27.357  35.670  1.00  0.00     0.173 A 
ATOM     65  F   UNL A   1      45.417  30.009  33.988  1.00  0.00    -0.203 F 
ATOM     66  C   UNL A   1      46.201  28.160  35.217  1.00  0.00     0.198 A 
ATOM     67  C   UNL A   1      44.638  26.617  36.189  1.00  0.00     0.198 A 
ATOM     68  F   UNL A   1      42.325  26.939  35.893  1.00  0.00    -0.203 F 
ATOM     69  F   UNL A   1      47.464  28.529  34.965  1.00  0.00    -0.200 F 
ATOM     70  C   UNL A   1      45.947  27.014  35.955  1.00  0.00     0.200 A 
ATOM     71  F   UNL A   1      44.393  25.512  36.907  1.00  0.00    -0.200 F 
ATOM     72  F   UNL A   1      46.965  26.283  36.429  1.00  0.00    -0.200 F 
ENDBRANCH  39  62
ENDBRANCH  13  14
ENDBRANCH   6   8
ENDBRANCH   3   4
ENDBRANCH   2   3
ENDBRANCH   1   2
BRANCH   1  73
ATOM     73  C   UNL A   1      32.625  29.682  25.582  1.00  0.00     0.116 C 
BRANCH  73  74
ATOM     74  N   UNL A   1      31.436  29.801  24.768  1.00  0.00    -0.356 N 
ATOM     75  C   UNL A   1      30.969  29.075  23.730  1.00  0.00     0.223 C 
ATOM     76  H   UNL A   1      30.857  30.556  25.019  1.00  0.00     0.163 HD
ATOM     77  O   UNL A   1      29.968  29.530  23.162  1.00  0.00    -0.275 OA
BRANCH  75  78
ATOM     78  C   UNL A   1      31.506  27.714  23.294  1.00  0.00     0.091 C 
ATOM     79  C   UNL A   1      32.396  27.852  22.047  1.00  0.00     0.014 C 
ATOM     80  C   UNL A   1      30.586  26.499  23.160  1.00  0.00     0.091 C 
ATOM     81  C   UNL A   1      33.226  26.578  21.852  1.00  0.00     0.001 C 
ATOM     82  C   UNL A   1      31.403  25.210  22.976  1.00  0.00     0.014 C 
ATOM     83  C   UNL A   1      32.349  25.329  21.777  1.00  0.00     0.001 C 
BRANCH  80  84
ATOM     84  C   UNL A   1      29.440  26.306  24.150  1.00  0.00     0.228 C 
ATOM     85  O   UNL A   1      28.280  26.338  23.712  1.00  0.00    -0.274 OA
ATOM     86  N   UNL A   1      29.564  26.004  25.474  1.00  0.00    -0.326 N 
ATOM     87  H   UNL A   1      28.851  26.321  26.076  1.00  0.00     0.169 HD
BRANCH  86  88
ATOM     88  C   UNL A   1      30.611  25.288  26.052  1.00  0.00     0.041 A 
ATOM     89  C   UNL A   1      30.363  23.972  26.420  1.00  0.00     0.028 A 
ATOM     90  C   UNL A   1      31.873  25.824  26.253  1.00  0.00     0.028 A 
ATOM     91  C   UNL A   1      31.427  23.139  26.755  1.00  0.00     0.028 A 
ATOM     92  C   UNL A   1      32.944  24.978  26.540  1.00  0.00     0.028 A 
ATOM     93  C   UNL A   1      32.739  23.604  26.691  1.00  0.00     0.041 A 
BRANCH  93  94
ATOM     94  N   UNL A   1      33.885  22.793  26.716  1.00  0.00    -0.319 N 
ATOM     95  C   UNL A   1      34.361  21.813  25.865  1.00  0.00     0.291 C 
ATOM     96  H   UNL A   1      34.465  22.956  27.495  1.00  0.00     0.170 HD
ATOM     97  O   UNL A   1      35.456  21.318  26.140  1.00  0.00    -0.265 OA
BRANCH  95  98
ATOM     98  C   UNL A   1      33.615  21.436  24.692  1.00  0.00     0.191 A 
ATOM     99  C   UNL A   1      33.284  22.117  23.533  1.00  0.00     0.056 A 
ATOM    100  O   UNL A   1      33.077  20.178  24.652  1.00  0.00    -0.459 OA
ATOM    101  C   UNL A   1      32.472  21.240  22.769  1.00  0.00     0.043 A 
ATOM    102  C   UNL A   1      32.386  20.071  23.490  1.00  0.00     0.196 A 
ENDBRANCH  95  98
ENDBRANCH  93  94
ENDBRANCH  86  88
ENDBRANCH  80  84
ENDBRANCH  75  78
ENDBRANCH  73  74
ENDBRANCH   1  73
TORSDOF 15
ENDMDL
MODEL 2
REMARK VINA RESULT:     -13.1      1.241      2.165
REMARK SMILES O=C(NCCCCNC(=O)[C@@H]1CCCC[C@H]1C(=O)Nc1ccc(NC(=O)c2ccco2)cc1)c1ccc(-c2c3nc(c(-c4c(F)c(F)c(F)c(F)c4F)c4ccc([nH]4)c(-c4c(F)c(F)c(F)c(F)c4F)c4nc(c(-c5c(F)c(F)c(F)c(F)c5F)c5ccc2[nH]5)C=C4)C=C3)cc1
REMARK SMILES IDX 6 1 5 2 4 3 3 4 1 5 2 6 34 8 35 9 96 10 36 11 95 12 37 13
REMARK SMILES IDX 38 14 39 15 89 16 40 17 94 18 88 19 90 20 41 21 93 22 87 23
REMARK SMILES IDX 86 24 42 26 74 27 54 28 73 29 55 30 58 31 72 32 91 33 56 34
REMARK SMILES IDX 57 35 71 37 92 38 59 39 43 40 44 41 52 42 45 43 46 44 50 45
REMARK SMILES IDX 53 46 47 47 48 48 51 49 49 50 75 51 76 52 84 53 77 54 78 55
REMARK SMILES IDX 82 56 85 57 79 58 80 59 83 60 81 61 60 62 61 63 69 64 62 65
REMARK SMILES IDX 63 66 67 67 70 68 64 69 65 70 68 71 66 72 7 73 8 74 9 75
REMARK SMILES IDX 10 77 11 78 12 79 16 80 13 81 15 82 14 83 17 84 18 85 19 86
REMARK SMILES IDX 20 88 21 89 33 90 22 91 32 92 23 93 24 94 25 95 26 97 27 98
REMARK SMILES IDX 28 99 31 100 29 101 30 102
REMARK H PARENT 3 7 90 25 58 36 8 76 19 87 24 96
REMARK Flexibility Score: inf
ROOT
ATOM      1  C   UNL A   1      32.332  30.041  26.982  1.00  0.00     0.023 C 
ENDROOT
BRANCH   1   2
ATOM      2  C   UNL A   1      31.930  31.507  26.883  1.00  0.00     0.023 C 
BRANCH   2   3
ATOM      3  C   UNL A   1      32.997  32.489  27.320  1.00  0.00     0.116 C 
BRANCH   3   4
ATOM      4  N   UNL A   1      32.507  33.833  27.589  1.00  0.00    -0.352 N 
ATOM      5  O   UNL A   1      32.476  35.822  28.687  1.00  0.00    -0.269 OA
ATOM      6  C   UNL A   1      33.006  34.733  28.504  1.00  0.00     0.251 C 
ATOM      7  H   UNL A   1      31.736  34.133  27.056  1.00  0.00     0.163 HD
BRANCH   6   8
ATOM      8  C   UNL A   1      34.173  34.322  29.307  1.00  0.00     0.039 A 
ATOM      9  C   UNL A   1      35.457  34.628  28.858  1.00  0.00     0.014 A 
ATOM     10  C   UNL A   1      33.981  33.520  30.434  1.00  0.00     0.014 A 
ATOM     11  C   UNL A   1      36.543  33.981  29.422  1.00  0.00     0.010 A 
ATOM     12  C   UNL A   1      35.090  32.956  31.072  1.00  0.00     0.010 A 
ATOM     13  C   UNL A   1      36.375  33.147  30.542  1.00  0.00    -0.014 A 
BRANCH  13  14
ATOM     14  C   UNL A   1      37.584  32.545  31.155  1.00  0.00     0.031 A 
ATOM     15  C   UNL A   1      38.025  32.903  32.545  1.00  0.00     0.074 A 
ATOM     16  C   UNL A   1      38.232  31.593  30.456  1.00  0.00     0.049 A 
ATOM     17  N   UNL A   1      39.018  32.409  33.242  1.00  0.00    -0.248 NA
ATOM     18  C   UNL A   1      37.267  33.952  33.245  1.00  0.00     0.031 C 
ATOM     19  C   UNL A   1      37.894  31.184  29.090  1.00  0.00     0.029 A 
ATOM     20  N   UNL A   1      39.267  30.768  30.803  1.00  0.00    -0.354 N 
ATOM     21  C   UNL A   1      39.021  33.102  34.446  1.00  0.00     0.074 A 
ATOM     22  C   UNL A   1      37.939  34.061  34.383  1.00  0.00     0.031 C 
ATOM     23  C   UNL A   1      38.650  30.133  28.747  1.00  0.00     0.029 A 
ATOM     24  C   UNL A   1      39.571  29.840  29.838  1.00  0.00     0.049 A 
ATOM     25  H   UNL A   1      39.746  30.833  31.661  1.00  0.00     0.167 HD
ATOM     26  C   UNL A   1      39.854  32.945  35.504  1.00  0.00     0.037 A 
ATOM     27  C   UNL A   1      40.495  28.864  29.828  1.00  0.00     0.037 A 
ATOM     28  C   UNL A   1      40.915  31.970  35.564  1.00  0.00     0.049 A 
ATOM     29  C   UNL A   1      41.372  28.688  31.030  1.00  0.00     0.074 A 
ATOM     30  C   UNL A   1      41.818  31.736  36.587  1.00  0.00     0.029 A 
ATOM     31  N   UNL A   1      41.207  31.060  34.558  1.00  0.00    -0.354 N 
ATOM     32  N   UNL A   1      41.372  29.362  32.154  1.00  0.00    -0.248 NA
ATOM     33  C   UNL A   1      42.382  27.627  30.959  1.00  0.00     0.031 C 
ATOM     34  C   UNL A   1      42.673  30.701  36.190  1.00  0.00     0.029 A 
ATOM     35  C   UNL A   1      42.279  30.265  34.936  1.00  0.00     0.049 A 
ATOM     36  H   UNL A   1      40.724  30.989  33.703  1.00  0.00     0.167 HD
ATOM     37  C   UNL A   1      42.391  28.818  32.921  1.00  0.00     0.074 A 
ATOM     38  C   UNL A   1      42.955  27.727  32.150  1.00  0.00     0.031 C 
ATOM     39  C   UNL A   1      42.833  29.199  34.143  1.00  0.00     0.037 A 
BRANCH  26  40
ATOM     40  C   UNL A   1      39.666  33.852  36.684  1.00  0.00     0.064 A 
ATOM     41  C   UNL A   1      38.876  33.479  37.781  1.00  0.00     0.173 A 
ATOM     42  C   UNL A   1      40.339  35.082  36.748  1.00  0.00     0.173 A 
ATOM     43  F   UNL A   1      38.202  32.320  37.762  1.00  0.00    -0.203 F 
ATOM     44  C   UNL A   1      38.757  34.308  38.894  1.00  0.00     0.198 A 
ATOM     45  C   UNL A   1      40.236  35.899  37.872  1.00  0.00     0.198 A 
ATOM     46  F   UNL A   1      41.112  35.484  35.728  1.00  0.00    -0.203 F 
ATOM     47  F   UNL A   1      37.975  33.944  39.919  1.00  0.00    -0.200 F 
ATOM     48  C   UNL A   1      39.443  35.513  38.942  1.00  0.00     0.200 A 
ATOM     49  F   UNL A   1      40.908  37.057  37.922  1.00  0.00    -0.200 F 
ATOM     50  F   UNL A   1      39.338  36.304  40.020  1.00  0.00    -0.200 F 
ENDBRANCH  26  40
BRANCH  27  51
ATOM     51  C   UNL A   1      40.626  27.993  28.633  1.00  0.00     0.064 A 
ATOM     52  C   UNL A   1      39.935  26.778  28.544  1.00  0.00     0.173 A 
ATOM     53  C   UNL A   1      41.414  28.381  27.540  1.00  0.00     0.173 A 
ATOM     54  F   UNL A   1      39.181  26.359  29.571  1.00  0.00    -0.203 F 
ATOM     55  C   UNL A   1      40.035  25.978  27.409  1.00  0.00     0.198 A 
ATOM     56  C   UNL A   1      41.489  27.595  26.393  1.00  0.00     0.198 A 
ATOM     57  F   UNL A   1      42.086  29.541  27.574  1.00  0.00    -0.203 F 
ATOM     58  F   UNL A   1      39.390  24.805  27.360  1.00  0.00    -0.200 F 
ATOM     59  C   UNL A   1      40.804  26.392  26.330  1.00  0.00     0.200 A 
ATOM     60  F   UNL A   1      42.215  28.010  25.346  1.00  0.00    -0.200 F 
ATOM     61  F   UNL A   1      40.887  25.630  25.231  1.00  0.00    -0.200 F 
ENDBRANCH  27  51
BRANCH  39  62
ATOM     62  C   UNL A   1      43.993  28.433  34.701  1.00  0.00     0.064 A 
ATOM     63  C   UNL A   1      43.797  27.263  35.451  1.00  0.00     0.173 A 
ATOM     64  C   UNL A   1      45.307  28.871  34.490  1.00  0.00     0.173 A 
ATOM     65  F   UNL A   1      42.555  26.819  35.694  1.00  0.00    -0.203 F 
ATOM     66  C   UNL A   1      44.877  26.577  35.996  1.00  0.00     0.198 A 
ATOM     67  C   UNL A   1      46.386  28.168  35.017  1.00  0.00     0.198 A 
ATOM     68  F   UNL A   1      45.544  29.983  33.777  1.00  0.00    -0.203 F 
ATOM     69  F   UNL A   1      44.665  25.492  36.754  1.00  0.00    -0.200 F 
ATOM     70  C   UNL A   1      46.170  27.027  35.776  1.00  0.00     0.200 A 
ATOM     71  F   UNL A   1      47.636  28.600  34.801  1.00  0.00    -0.200 F 
ATOM     72  F   UNL A   1      47.209  26.369  36.309  1.00  0.00    -0.200 F 
ENDBRANCH  39  62
ENDBRANCH  13  14
ENDBRANCH   6   8
ENDBRANCH   3   4
ENDBRANCH   2   3
ENDBRANCH   1   2
BRANCH   1  73
ATOM     73  C   UNL A   1      31.839  29.132  25.855  1.00  0.00     0.116 C 
BRANCH  73  74
ATOM     74  N   UNL A   1      31.378  27.868  26.385  1.00  0.00    -0.356 N 
ATOM     75  C   UNL A   1      31.273  26.637  25.839  1.00  0.00     0.223 C 
ATOM     76  H   UNL A   1      31.085  27.913  27.324  1.00  0.00     0.163 HD
ATOM     77  O   UNL A   1      30.707  25.786  26.536  1.00  0.00    -0.275 OA
BRANCH  75  78
ATOM     78  C   UNL A   1      31.886  26.209  24.507  1.00  0.00     0.091 C 
ATOM     79  C   UNL A   1      30.830  25.545  23.608  1.00  0.00     0.014 C 
ATOM     80  C   UNL A   1      33.202  25.430  24.450  1.00  0.00     0.091 C 
ATOM     81  C   UNL A   1      31.341  25.474  22.165  1.00  0.00     0.001 C 
ATOM     82  C   UNL A   1      33.736  25.360  23.010  1.00  0.00     0.014 C 
ATOM     83  C   UNL A   1      32.688  24.759  22.068  1.00  0.00     0.001 C 
BRANCH  80  84
ATOM     84  C   UNL A   1      34.312  25.747  25.449  1.00  0.00     0.228 C 
ATOM     85  O   UNL A   1      34.421  26.917  25.846  1.00  0.00    -0.274 OA
ATOM     86  N   UNL A   1      35.151  24.844  26.031  1.00  0.00    -0.326 N 
ATOM     87  H   UNL A   1      36.048  25.163  26.287  1.00  0.00     0.169 HD
BRANCH  86  88
ATOM     88  C   UNL A   1      34.854  23.508  26.295  1.00  0.00     0.041 A 
ATOM     89  C   UNL A   1      33.792  23.243  27.150  1.00  0.00     0.028 A 
ATOM     90  C   UNL A   1      35.555  22.453  25.733  1.00  0.00     0.028 A 
ATOM     91  C   UNL A   1      33.291  21.947  27.243  1.00  0.00     0.028 A 
ATOM     92  C   UNL A   1      35.022  21.165  25.787  1.00  0.00     0.028 A 
ATOM     93  C   UNL A   1      33.822  20.924  26.461  1.00  0.00     0.041 A 
BRANCH  93  94
ATOM     94  N   UNL A   1      33.221  19.672  26.251  1.00  0.00    -0.319 N 
ATOM     95  C   UNL A   1      32.549  19.122  25.176  1.00  0.00     0.291 C 
ATOM     96  H   UNL A   1      33.292  19.066  27.024  1.00  0.00     0.170 HD
ATOM     97  O   UNL A   1      32.185  17.949  25.285  1.00  0.00    -0.265 OA
BRANCH  95  98
ATOM     98  C   UNL A   1      32.334  19.888  23.975  1.00  0.00     0.191 A 
ATOM     99  C   UNL A   1      32.199  21.247  23.743  1.00  0.00     0.056 A 
ATOM    100  O   UNL A   1      32.207  19.208  22.794  1.00  0.00    -0.459 OA
ATOM    101  C   UNL A   1      31.938  21.393  22.356  1.00  0.00     0.043 A 
ATOM    102  C   UNL A   1      31.964  20.126  21.825  1.00  0.00     0.196 A 
ENDBRANCH  95  98
ENDBRANCH  93  94
ENDBRANCH  86  88
ENDBRANCH  80  84
ENDBRANCH  75  78
ENDBRANCH  73  74
ENDBRANCH   1  73
TORSDOF 15
ENDMDL
MODEL 3
REMARK VINA RESULT:     -13.1      1.404      2.572
REMARK SMILES O=C(NCCCCNC(=O)[C@@H]1CCCC[C@H]1C(=O)Nc1ccc(NC(=O)c2ccco2)cc1)c1ccc(-c2c3nc(c(-c4c(F)c(F)c(F)c(F)c4F)c4ccc([nH]4)c(-c4c(F)c(F)c(F)c(F)c4F)c4nc(c(-c5c(F)c(F)c(F)c(F)c5F)c5ccc2[nH]5)C=C4)C=C3)cc1
REMARK SMILES IDX 6 1 5 2 4 3 3 4 1 5 2 6 34 8 35 9 96 10 36 11 95 12 37 13
REMARK SMILES IDX 38 14 39 15 89 16 40 17 94 18 88 19 90 20 41 21 93 22 87 23
REMARK SMILES IDX 86 24 42 26 74 27 54 28 73 29 55 30 58 31 72 32 91 33 56 34
REMARK SMILES IDX 57 35 71 37 92 38 59 39 43 40 44 41 52 42 45 43 46 44 50 45
REMARK SMILES IDX 53 46 47 47 48 48 51 49 49 50 75 51 76 52 84 53 77 54 78 55
REMARK SMILES IDX 82 56 85 57 79 58 80 59 83 60 81 61 60 62 61 63 69 64 62 65
REMARK SMILES IDX 63 66 67 67 70 68 64 69 65 70 68 71 66 72 7 73 8 74 9 75
REMARK SMILES IDX 10 77 11 78 12 79 16 80 13 81 15 82 14 83 17 84 18 85 19 86
REMARK SMILES IDX 20 88 21 89 33 90 22 91 32 92 23 93 24 94 25 95 26 97 27 98
REMARK SMILES IDX 28 99 31 100 29 101 30 102
REMARK H PARENT 3 7 90 25 58 36 8 76 19 87 24 96
REMARK Flexibility Score: inf
ROOT
ATOM      1  C   UNL A   1      32.226  30.337  26.880  1.00  0.00     0.023 C 
ENDROOT
BRANCH   1   2
ATOM      2  C   UNL A   1      31.856  31.814  26.875  1.00  0.00     0.023 C 
BRANCH   2   3
ATOM      3  C   UNL A   1      32.938  32.742  27.386  1.00  0.00     0.116 C 
BRANCH   3   4
ATOM      4  N   UNL A   1      32.491  34.101  27.657  1.00  0.00    -0.352 N 
ATOM      5  O   UNL A   1      32.528  36.091  28.751  1.00  0.00    -0.269 OA
ATOM      6  C   UNL A   1      33.024  34.987  28.565  1.00  0.00     0.251 C 
ATOM      7  H   UNL A   1      31.723  34.422  27.131  1.00  0.00     0.163 HD
BRANCH   6   8
ATOM      8  C   UNL A   1      34.187  34.543  29.357  1.00  0.00     0.039 A 
ATOM      9  C   UNL A   1      35.472  34.702  28.838  1.00  0.00     0.014 A 
ATOM     10  C   UNL A   1      33.979  33.852  30.553  1.00  0.00     0.014 A 
ATOM     11  C   UNL A   1      36.524  34.012  29.414  1.00  0.00     0.010 A 
ATOM     12  C   UNL A   1      35.064  33.248  31.194  1.00  0.00     0.010 A 
ATOM     13  C   UNL A   1      36.336  33.286  30.605  1.00  0.00    -0.014 A 
BRANCH  13  14
ATOM     14  C   UNL A   1      37.517  32.634  31.221  1.00  0.00     0.031 A 
ATOM     15  C   UNL A   1      37.952  32.953  32.624  1.00  0.00     0.074 A 
ATOM     16  C   UNL A   1      38.143  31.674  30.513  1.00  0.00     0.049 A 
ATOM     17  N   UNL A   1      38.919  32.415  33.324  1.00  0.00    -0.248 NA
ATOM     18  C   UNL A   1      37.219  34.014  33.333  1.00  0.00     0.031 C 
ATOM     19  C   UNL A   1      37.810  31.301  29.136  1.00  0.00     0.029 A 
ATOM     20  N   UNL A   1      39.146  30.810  30.859  1.00  0.00    -0.354 N 
ATOM     21  C   UNL A   1      38.929  33.085  34.540  1.00  0.00     0.074 A 
ATOM     22  C   UNL A   1      37.879  34.080  34.481  1.00  0.00     0.031 C 
ATOM     23  C   UNL A   1      38.535  30.232  28.784  1.00  0.00     0.029 A 
ATOM     24  C   UNL A   1      39.433  29.890  29.880  1.00  0.00     0.049 A 
ATOM     25  H   UNL A   1      39.616  30.844  31.724  1.00  0.00     0.167 HD
ATOM     26  C   UNL A   1      39.742  32.883  35.605  1.00  0.00     0.037 A 
ATOM     27  C   UNL A   1      40.324  28.884  29.864  1.00  0.00     0.037 A 
ATOM     28  C   UNL A   1      40.770  31.873  35.660  1.00  0.00     0.049 A 
ATOM     29  C   UNL A   1      41.179  28.659  31.073  1.00  0.00     0.074 A 
ATOM     30  C   UNL A   1      41.652  31.591  36.690  1.00  0.00     0.029 A 
ATOM     31  N   UNL A   1      41.046  30.971  34.642  1.00  0.00    -0.354 N 
ATOM     32  N   UNL A   1      41.187  29.312  32.209  1.00  0.00    -0.248 NA
ATOM     33  C   UNL A   1      42.155  27.566  30.996  1.00  0.00     0.031 C 
ATOM     34  C   UNL A   1      42.478  30.536  36.285  1.00  0.00     0.029 A 
ATOM     35  C   UNL A   1      42.086  30.136  35.018  1.00  0.00     0.049 A 
ATOM     36  H   UNL A   1      40.572  30.931  33.780  1.00  0.00     0.167 HD
ATOM     37  C   UNL A   1      42.177  28.721  32.978  1.00  0.00     0.074 A 
ATOM     38  C   UNL A   1      42.715  27.626  32.195  1.00  0.00     0.031 C 
ATOM     39  C   UNL A   1      42.616  29.066  34.213  1.00  0.00     0.037 A 
BRANCH  26  40
ATOM     40  C   UNL A   1      39.570  33.774  36.799  1.00  0.00     0.064 A 
ATOM     41  C   UNL A   1      40.147  35.051  36.853  1.00  0.00     0.173 A 
ATOM     42  C   UNL A   1      38.762  33.373  37.874  1.00  0.00     0.173 A 
ATOM     43  F   UNL A   1      40.938  35.476  35.857  1.00  0.00    -0.203 F 
ATOM     44  C   UNL A   1      39.931  35.890  37.944  1.00  0.00     0.198 A 
ATOM     45  C   UNL A   1      38.529  34.222  38.954  1.00  0.00     0.198 A 
ATOM     46  F   UNL A   1      38.182  32.164  37.870  1.00  0.00    -0.203 F 
ATOM     47  F   UNL A   1      40.515  37.095  37.988  1.00  0.00    -0.200 F 
ATOM     48  C   UNL A   1      39.116  35.479  38.989  1.00  0.00     0.200 A 
ATOM     49  F   UNL A   1      37.735  33.828  39.957  1.00  0.00    -0.200 F 
ATOM     50  F   UNL A   1      38.899  36.292  40.033  1.00  0.00    -0.200 F 
ENDBRANCH  26  40
BRANCH  27  51
ATOM     51  C   UNL A   1      40.442  28.031  28.655  1.00  0.00     0.064 A 
ATOM     52  C   UNL A   1      41.258  28.407  27.581  1.00  0.00     0.173 A 
ATOM     53  C   UNL A   1      39.769  26.804  28.569  1.00  0.00     0.173 A 
ATOM     54  F   UNL A   1      41.909  29.579  27.612  1.00  0.00    -0.203 F 
ATOM     55  C   UNL A   1      41.392  27.589  26.462  1.00  0.00     0.198 A 
ATOM     56  C   UNL A   1      39.927  25.973  27.463  1.00  0.00     0.198 A 
ATOM     57  F   UNL A   1      38.983  26.396  29.577  1.00  0.00    -0.203 F 
ATOM     58  F   UNL A   1      42.154  27.985  25.433  1.00  0.00    -0.200 F 
ATOM     59  C   UNL A   1      40.734  26.369  26.408  1.00  0.00     0.200 A 
ATOM     60  F   UNL A   1      39.307  24.786  27.426  1.00  0.00    -0.200 F 
ATOM     61  F   UNL A   1      40.875  25.575  25.338  1.00  0.00    -0.200 F 
ENDBRANCH  27  51
BRANCH  39  62
ATOM     62  C   UNL A   1      43.743  28.253  34.771  1.00  0.00     0.064 A 
ATOM     63  C   UNL A   1      45.079  28.631  34.571  1.00  0.00     0.173 A 
ATOM     64  C   UNL A   1      43.488  27.087  35.507  1.00  0.00     0.173 A 
ATOM     65  F   UNL A   1      45.369  29.728  33.857  1.00  0.00    -0.203 F 
ATOM     66  C   UNL A   1      46.121  27.852  35.063  1.00  0.00     0.198 A 
ATOM     67  C   UNL A   1      44.533  26.323  36.017  1.00  0.00     0.198 A 
ATOM     68  F   UNL A   1      42.226  26.687  35.725  1.00  0.00    -0.203 F 
ATOM     69  F   UNL A   1      47.391  28.203  34.815  1.00  0.00    -0.200 F 
ATOM     70  C   UNL A   1      45.848  26.702  35.787  1.00  0.00     0.200 A 
ATOM     71  F   UNL A   1      44.269  25.214  36.721  1.00  0.00    -0.200 F 
ATOM     72  F   UNL A   1      46.854  25.947  36.252  1.00  0.00    -0.200 F 
ENDBRANCH  39  62
ENDBRANCH  13  14
ENDBRANCH   6   8
ENDBRANCH   3   4
ENDBRANCH   2   3
ENDBRANCH   1   2
BRANCH   1  73
ATOM     73  C   UNL A   1      32.122  29.612  25.538  1.00  0.00     0.116 C 
BRANCH  73  74
ATOM     74  N   UNL A   1      31.175  28.522  25.618  1.00  0.00    -0.356 N 
ATOM     75  C   UNL A   1      31.063  27.363  24.935  1.00  0.00     0.223 C 
ATOM     76  H   UNL A   1      30.479  28.650  26.303  1.00  0.00     0.163 HD
ATOM     77  O   UNL A   1      30.044  26.699  25.165  1.00  0.00    -0.275 OA
BRANCH  75  78
ATOM     78  C   UNL A   1      32.129  26.778  24.011  1.00  0.00     0.091 C 
ATOM     79  C   UNL A   1      31.652  26.792  22.549  1.00  0.00     0.014 C 
ATOM     80  C   UNL A   1      32.824  25.453  24.333  1.00  0.00     0.091 C 
ATOM     81  C   UNL A   1      32.841  26.575  21.608  1.00  0.00     0.001 C 
ATOM     82  C   UNL A   1      34.029  25.226  23.406  1.00  0.00     0.014 C 
ATOM     83  C   UNL A   1      33.605  25.292  21.935  1.00  0.00     0.001 C 
BRANCH  80  84
ATOM     84  C   UNL A   1      33.153  25.106  25.783  1.00  0.00     0.228 C 
ATOM     85  O   UNL A   1      32.883  25.943  26.657  1.00  0.00    -0.274 OA
ATOM     86  N   UNL A   1      33.636  23.914  26.234  1.00  0.00    -0.326 N 
ATOM     87  H   UNL A   1      34.197  23.934  27.044  1.00  0.00     0.169 HD
BRANCH  86  88
ATOM     88  C   UNL A   1      33.407  22.668  25.651  1.00  0.00     0.041 A 
ATOM     89  C   UNL A   1      32.129  22.135  25.756  1.00  0.00     0.028 A 
ATOM     90  C   UNL A   1      34.385  21.964  24.967  1.00  0.00     0.028 A 
ATOM     91  C   UNL A   1      31.778  21.034  24.980  1.00  0.00     0.028 A 
ATOM     92  C   UNL A   1      34.019  20.892  24.152  1.00  0.00     0.028 A 
ATOM     93  C   UNL A   1      32.685  20.486  24.075  1.00  0.00     0.041 A 
BRANCH  93  94
ATOM     94  N   UNL A   1      32.357  19.584  23.049  1.00  0.00    -0.319 N 
ATOM     95  C   UNL A   1      32.550  18.224  22.898  1.00  0.00     0.291 C 
ATOM     96  H   UNL A   1      31.899  20.006  22.286  1.00  0.00     0.170 HD
ATOM     97  O   UNL A   1      32.083  17.703  21.883  1.00  0.00    -0.265 OA
BRANCH  95  98
ATOM     98  C   UNL A   1      33.231  17.463  23.913  1.00  0.00     0.191 A 
ATOM     99  C   UNL A   1      34.549  17.065  24.060  1.00  0.00     0.056 A 
ATOM    100  O   UNL A   1      32.491  16.986  24.961  1.00  0.00    -0.459 OA
ATOM    101  C   UNL A   1      34.602  16.274  25.237  1.00  0.00     0.043 A 
ATOM    102  C   UNL A   1      33.327  16.267  25.751  1.00  0.00     0.196 A 
ENDBRANCH  95  98
ENDBRANCH  93  94
ENDBRANCH  86  88
ENDBRANCH  80  84
ENDBRANCH  75  78
ENDBRANCH  73  74
ENDBRANCH   1  73
TORSDOF 15
ENDMDL
