MODEL 1
REMARK VINA RESULT:     -14.2      0.000      0.000
REMARK SMILES Cc1ccc(NS(=O)(=O)c2cc(C(=O)Nc3ccccc3C(=O)NCCCCNC(=O)c3ccc(-c4c5nc(c(-c6c(F)c(F)c(F)c(F)c6F)c6ccc([nH]6)c(-c6c(F)c(F)c(F)c(F)c6F)c6nc(c(-c7c(F)c(F)c(F)c(F)c7F)c7ccc4[nH]7)C=C6)C=C5)cc3)ccc2Br)cc1
REMARK SMILES IDX 25 1 24 2 22 3 23 4 21 6 16 7 17 8 18 9 20 10 19 11 15 12
REMARK SMILES IDX 13 13 14 14 12 16 10 17 11 18 97 19 96 20 98 21 95 22 7 23
REMARK SMILES IDX 8 24 9 25 6 26 5 28 1 29 2 30 3 31 100 32 4 33 99 34 26 35
REMARK SMILES IDX 27 36 28 37 29 38 30 39 31 41 32 42 33 43 94 44 34 45 93 46
REMARK SMILES IDX 35 47 36 48 37 49 87 50 38 51 92 52 86 53 88 54 39 55 91 56
REMARK SMILES IDX 85 57 84 58 40 60 72 61 52 62 71 63 53 64 56 65 70 66 89 67
REMARK SMILES IDX 54 68 55 69 69 71 90 72 57 73 41 74 42 75 50 76 43 77 44 78
REMARK SMILES IDX 48 79 51 80 45 81 46 82 49 83 47 84 73 85 74 86 82 87 75 88
REMARK SMILES IDX 76 89 80 90 83 91 77 92 78 93 81 94 79 95 58 96 59 97 67 98
REMARK SMILES IDX 60 99 61 100 65 101 68 102 62 103 63 104 66 105 64 106
REMARK H PARENT 24 5 15 15 6 27 29 40 88 59 56 70
REMARK Flexibility Score: inf
ROOT
ATOM      1  C   UNL A   1      34.143  29.109  26.663  1.00  0.00     0.116 C 
ENDROOT
BRANCH   1   2
ATOM      2  N   UNL A   1      33.094  28.883  27.634  1.00  0.00    -0.352 N 
ATOM      3  C   UNL A   1      31.806  28.430  27.422  1.00  0.00     0.253 C 
ATOM      4  O   UNL A   1      31.126  28.066  28.375  1.00  0.00    -0.269 OA
ATOM      5  H   UNL A   1      33.330  29.076  28.571  1.00  0.00     0.163 HD
BRANCH   3   6
ATOM      6  C   UNL A   1      31.206  28.512  26.063  1.00  0.00     0.063 A 
ATOM      7  C   UNL A   1      30.548  27.010  25.269  1.00  0.00     0.054 A 
ATOM      8  C   UNL A   1      29.741  27.252  23.411  1.00  0.00     0.027 A 
ATOM      9  C   UNL A   1      29.612  28.914  22.724  1.00  0.00     0.002 A 
ATOM     10  C   UNL A   1      31.051  30.060  25.219  1.00  0.00     0.016 A 
ATOM     11  C   UNL A   1      30.259  30.252  23.643  1.00  0.00     0.001 A 
BRANCH   7  12
ATOM     12  N   UNL A   1      30.658  25.842  26.220  1.00  0.00    -0.321 N 
ATOM     13  C   UNL A   1      31.566  24.771  26.388  1.00  0.00     0.255 C 
ATOM     14  O   UNL A   1      31.383  23.999  27.335  1.00  0.00    -0.269 OA
ATOM     15  H   UNL A   1      29.927  25.822  26.879  1.00  0.00     0.170 HD
BRANCH  13  16
ATOM     16  C   UNL A   1      32.840  24.583  25.615  1.00  0.00     0.041 A 
ATOM     17  C   UNL A   1      34.701  23.032  25.313  1.00  0.00     0.102 A 
ATOM     18  C   UNL A   1      33.741  23.665  26.062  1.00  0.00     0.037 A 
ATOM     19  C   UNL A   1      35.096  23.661  24.154  1.00  0.00     0.038 A 
ATOM     20  C   UNL A   1      34.345  24.778  23.719  1.00  0.00     0.018 A 
ATOM     21  Br  UNL A   1      36.663  23.187  23.219  1.00  0.00    -0.049 Br
ATOM     22  C   UNL A   1      33.168  25.181  24.403  1.00  0.00     0.015 A 
BRANCH  17  23
ATOM     23  S   UNL A   1      35.134  21.398  25.904  1.00  0.00     0.263 S 
ATOM     24  O   UNL A   1      34.122  20.997  26.859  1.00  0.00    -0.201 OA
ATOM     25  O   UNL A   1      36.532  21.431  26.267  1.00  0.00    -0.201 OA
BRANCH  23  26
ATOM     26  N   UNL A   1      34.930  20.297  24.586  1.00  0.00    -0.280 N 
ATOM     27  H   UNL A   1      35.049  20.679  23.687  1.00  0.00     0.180 HD
BRANCH  26  28
ATOM     28  C   UNL A   1      34.588  18.808  24.636  1.00  0.00     0.049 A 
ATOM     29  C   UNL A   1      32.434  14.274  25.690  1.00  0.00     0.044 C 
ATOM     30  C   UNL A   1      33.072  15.551  25.226  1.00  0.00    -0.051 A 
ATOM     31  C   UNL A   1      32.081  16.999  24.931  1.00  0.00     0.005 A 
ATOM     32  C   UNL A   1      34.813  15.557  25.232  1.00  0.00     0.005 A 
ATOM     33  C   UNL A   1      32.778  18.601  24.627  1.00  0.00     0.027 A 
ATOM     34  C   UNL A   1      35.659  17.101  24.937  1.00  0.00     0.027 A 
ENDBRANCH  26  28
ENDBRANCH  23  26
ENDBRANCH  17  23
ENDBRANCH  13  16
ENDBRANCH   7  12
ENDBRANCH   3   6
ENDBRANCH   1   2
BRANCH   1  35
ATOM     35  C   UNL A   1      35.552  29.328  27.174  1.00  0.00     0.023 C 
BRANCH  35  36
ATOM     36  C   UNL A   1      35.945  30.691  27.655  1.00  0.00     0.023 C 
BRANCH  36  37
ATOM     37  C   UNL A   1      35.731  30.853  29.126  1.00  0.00     0.116 C 
BRANCH  37  38
ATOM     38  N   UNL A   1      34.791  31.881  29.521  1.00  0.00    -0.352 N 
ATOM     39  C   UNL A   1      34.986  32.902  30.436  1.00  0.00     0.251 C 
ATOM     40  H   UNL A   1      33.907  31.851  29.088  1.00  0.00     0.163 HD
ATOM     41  O   UNL A   1      34.015  33.527  30.850  1.00  0.00    -0.269 OA
BRANCH  39  42
ATOM     42  C   UNL A   1      36.373  33.379  30.756  1.00  0.00     0.039 A 
ATOM     43  C   UNL A   1      37.200  33.553  29.640  1.00  0.00     0.014 A 
ATOM     44  C   UNL A   1      36.953  32.942  31.931  1.00  0.00     0.014 A 
ATOM     45  C   UNL A   1      38.430  32.917  29.616  1.00  0.00     0.010 A 
ATOM     46  C   UNL A   1      37.926  32.005  31.808  1.00  0.00     0.010 A 
ATOM     47  C   UNL A   1      38.685  32.023  30.644  1.00  0.00    -0.014 A 
BRANCH  47  48
ATOM     48  C   UNL A   1      39.895  31.272  30.836  1.00  0.00     0.031 A 
ATOM     49  C   UNL A   1      39.832  29.952  30.151  1.00  0.00     0.074 A 
ATOM     50  C   UNL A   1      40.941  31.999  31.299  1.00  0.00     0.049 A 
ATOM     51  N   UNL A   1      40.480  28.909  30.505  1.00  0.00    -0.248 NA
ATOM     52  C   UNL A   1      38.910  29.634  29.036  1.00  0.00     0.031 C 
ATOM     53  C   UNL A   1      42.377  31.773  31.217  1.00  0.00     0.029 A 
ATOM     54  N   UNL A   1      40.854  33.149  32.116  1.00  0.00    -0.354 N 
ATOM     55  C   UNL A   1      40.470  28.059  29.410  1.00  0.00     0.074 A 
ATOM     56  C   UNL A   1      39.311  28.416  28.653  1.00  0.00     0.031 C 
ATOM     57  C   UNL A   1      42.988  32.445  32.215  1.00  0.00     0.029 A 
ATOM     58  C   UNL A   1      41.949  33.074  33.012  1.00  0.00     0.049 A 
ATOM     59  H   UNL A   1      40.173  33.858  32.072  1.00  0.00     0.167 HD
ATOM     60  C   UNL A   1      41.607  27.354  29.157  1.00  0.00     0.037 A 
ATOM     61  C   UNL A   1      41.719  32.836  34.341  1.00  0.00     0.037 A 
ATOM     62  C   UNL A   1      42.603  27.770  30.136  1.00  0.00     0.049 A 
ATOM     63  C   UNL A   1      42.166  31.438  34.689  1.00  0.00     0.074 A 
ATOM     64  C   UNL A   1      43.631  28.694  30.072  1.00  0.00     0.029 A 
ATOM     65  N   UNL A   1      42.341  27.547  31.474  1.00  0.00    -0.354 N 
ATOM     66  N   UNL A   1      42.108  30.436  33.851  1.00  0.00    -0.248 NA
ATOM     67  C   UNL A   1      42.850  31.103  35.934  1.00  0.00     0.031 C 
ATOM     68  C   UNL A   1      43.983  29.025  31.407  1.00  0.00     0.029 A 
ATOM     69  C   UNL A   1      43.141  28.337  32.264  1.00  0.00     0.049 A 
ATOM     70  H   UNL A   1      41.673  26.909  31.815  1.00  0.00     0.167 HD
ATOM     71  C   UNL A   1      42.798  29.378  34.382  1.00  0.00     0.074 A 
ATOM     72  C   UNL A   1      43.219  29.835  35.693  1.00  0.00     0.031 C 
ATOM     73  C   UNL A   1      43.047  28.220  33.703  1.00  0.00     0.037 A 
BRANCH  60  74
ATOM     74  C   UNL A   1      42.001  26.529  27.956  1.00  0.00     0.064 A 
ATOM     75  C   UNL A   1      41.379  25.268  27.765  1.00  0.00     0.173 A 
ATOM     76  C   UNL A   1      42.929  26.879  26.962  1.00  0.00     0.173 A 
ATOM     77  F   UNL A   1      40.423  24.822  28.592  1.00  0.00    -0.203 F 
ATOM     78  C   UNL A   1      41.692  24.415  26.710  1.00  0.00     0.198 A 
ATOM     79  C   UNL A   1      43.237  26.023  25.893  1.00  0.00     0.198 A 
ATOM     80  F   UNL A   1      43.551  28.062  26.961  1.00  0.00    -0.203 F 
ATOM     81  F   UNL A   1      41.073  23.231  26.611  1.00  0.00    -0.200 F 
ATOM     82  C   UNL A   1      42.625  24.790  25.772  1.00  0.00     0.200 A 
ATOM     83  F   UNL A   1      44.133  26.407  24.971  1.00  0.00    -0.200 F 
ATOM     84  F   UNL A   1      42.917  23.978  24.749  1.00  0.00    -0.200 F 
ENDBRANCH  60  74
BRANCH  61  85
ATOM     85  C   UNL A   1      40.474  33.539  34.788  1.00  0.00     0.064 A 
ATOM     86  C   UNL A   1      39.421  32.695  35.206  1.00  0.00     0.173 A 
ATOM     87  C   UNL A   1      40.526  34.825  35.341  1.00  0.00     0.173 A 
ATOM     88  F   UNL A   1      39.298  31.467  34.675  1.00  0.00    -0.203 F 
ATOM     89  C   UNL A   1      38.633  33.020  36.307  1.00  0.00     0.198 A 
ATOM     90  C   UNL A   1      39.691  35.166  36.412  1.00  0.00     0.198 A 
ATOM     91  F   UNL A   1      41.478  35.689  34.963  1.00  0.00    -0.203 F 
ATOM     92  F   UNL A   1      37.796  32.105  36.822  1.00  0.00    -0.200 F 
ATOM     93  C   UNL A   1      38.804  34.237  36.939  1.00  0.00     0.200 A 
ATOM     94  F   UNL A   1      39.822  36.363  37.002  1.00  0.00    -0.200 F 
ATOM     95  F   UNL A   1      38.147  34.494  38.078  1.00  0.00    -0.200 F 
ENDBRANCH  61  85
BRANCH  73  96
ATOM     96  C   UNL A   1      43.335  26.879  34.334  1.00  0.00     0.064 A 
ATOM     97  C   UNL A   1      42.335  26.039  34.842  1.00  0.00     0.173 A 
ATOM     98  C   UNL A   1      44.638  26.311  34.304  1.00  0.00     0.173 A 
ATOM     99  F   UNL A   1      41.037  26.359  34.761  1.00  0.00    -0.203 F 
ATOM    100  C   UNL A   1      42.630  24.798  35.405  1.00  0.00     0.198 A 
ATOM    101  C   UNL A   1      44.909  25.028  34.765  1.00  0.00     0.198 A 
ATOM    102  F   UNL A   1      45.698  26.958  33.801  1.00  0.00    -0.203 F 
ATOM    103  F   UNL A   1      41.649  24.086  35.973  1.00  0.00    -0.200 F 
ATOM    104  C   UNL A   1      43.913  24.289  35.359  1.00  0.00     0.200 A 
ATOM    105  F   UNL A   1      46.138  24.517  34.616  1.00  0.00    -0.200 F 
ATOM    106  F   UNL A   1      44.184  23.082  35.866  1.00  0.00    -0.200 F 
ENDBRANCH  73  96
ENDBRANCH  47  48
ENDBRANCH  39  42
ENDBRANCH  37  38
ENDBRANCH  36  37
ENDBRANCH  35  36
ENDBRANCH   1  35
TORSDOF 16
ENDMDL
MODEL 2
REMARK VINA RESULT:     -14.1      3.449      9.667
REMARK SMILES Cc1ccc(NS(=O)(=O)c2cc(C(=O)Nc3ccccc3C(=O)NCCCCNC(=O)c3ccc(-c4c5nc(c(-c6c(F)c(F)c(F)c(F)c6F)c6ccc([nH]6)c(-c6c(F)c(F)c(F)c(F)c6F)c6nc(c(-c7c(F)c(F)c(F)c(F)c7F)c7ccc4[nH]7)C=C6)C=C5)cc3)ccc2Br)cc1
REMARK SMILES IDX 25 1 24 2 22 3 23 4 21 6 16 7 17 8 18 9 20 10 19 11 15 12
REMARK SMILES IDX 13 13 14 14 12 16 10 17 11 18 97 19 96 20 98 21 95 22 7 23
REMARK SMILES IDX 8 24 9 25 6 26 5 28 1 29 2 30 3 31 100 32 4 33 99 34 26 35
REMARK SMILES IDX 27 36 28 37 29 38 30 39 31 41 32 42 33 43 94 44 34 45 93 46
REMARK SMILES IDX 35 47 36 48 37 49 87 50 38 51 92 52 86 53 88 54 39 55 91 56
REMARK SMILES IDX 85 57 84 58 40 60 72 61 52 62 71 63 53 64 56 65 70 66 89 67
REMARK SMILES IDX 54 68 55 69 69 71 90 72 57 73 41 74 42 75 50 76 43 77 44 78
REMARK SMILES IDX 48 79 51 80 45 81 46 82 49 83 47 84 73 85 74 86 82 87 75 88
REMARK SMILES IDX 76 89 80 90 83 91 77 92 78 93 81 94 79 95 58 96 59 97 67 98
REMARK SMILES IDX 60 99 61 100 65 101 68 102 62 103 63 104 66 105 64 106
REMARK H PARENT 24 5 15 15 6 27 29 40 88 59 56 70
REMARK Flexibility Score: inf
ROOT
ATOM      1  C   UNL A   1      35.485  23.164  24.068  1.00  0.00     0.116 C 
ENDROOT
BRANCH   1   2
ATOM      2  N   UNL A   1      34.970  23.221  25.419  1.00  0.00    -0.352 N 
ATOM      3  C   UNL A   1      34.593  22.178  26.243  1.00  0.00     0.253 C 
ATOM      4  O   UNL A   1      34.407  22.383  27.437  1.00  0.00    -0.269 OA
ATOM      5  H   UNL A   1      34.877  24.123  25.803  1.00  0.00     0.163 HD
BRANCH   3   6
ATOM      6  C   UNL A   1      34.285  20.845  25.657  1.00  0.00     0.063 A 
ATOM      7  C   UNL A   1      32.552  20.328  25.440  1.00  0.00     0.054 A 
ATOM      8  C   UNL A   1      32.256  18.485  24.616  1.00  0.00     0.027 A 
ATOM      9  C   UNL A   1      33.685  17.543  24.047  1.00  0.00     0.002 A 
ATOM     10  C   UNL A   1      35.573  19.767  25.096  1.00  0.00     0.016 A 
ATOM     11  C   UNL A   1      35.281  18.210  24.298  1.00  0.00     0.001 A 
BRANCH   7  12
ATOM     12  N   UNL A   1      31.631  21.451  25.854  1.00  0.00    -0.321 N 
ATOM     13  C   UNL A   1      31.193  22.658  25.259  1.00  0.00     0.255 C 
ATOM     14  O   UNL A   1      30.366  23.339  25.872  1.00  0.00    -0.269 OA
ATOM     15  H   UNL A   1      31.242  21.311  26.748  1.00  0.00     0.170 HD
BRANCH  13  16
ATOM     16  C   UNL A   1      31.518  23.104  23.862  1.00  0.00     0.041 A 
ATOM     17  C   UNL A   1      31.743  25.104  22.481  1.00  0.00     0.102 A 
ATOM     18  C   UNL A   1      31.172  24.367  23.488  1.00  0.00     0.037 A 
ATOM     19  C   UNL A   1      32.390  24.402  21.489  1.00  0.00     0.038 A 
ATOM     20  C   UNL A   1      32.603  23.018  21.691  1.00  0.00     0.018 A 
ATOM     21  Br  UNL A   1      32.866  25.173  19.836  1.00  0.00    -0.049 Br
ATOM     22  C   UNL A   1      32.245  22.392  22.914  1.00  0.00     0.015 A 
BRANCH  17  23
ATOM     23  S   UNL A   1      31.690  26.874  22.746  1.00  0.00     0.263 S 
ATOM     24  O   UNL A   1      30.555  27.392  22.010  1.00  0.00    -0.201 OA
ATOM     25  O   UNL A   1      33.023  27.382  22.517  1.00  0.00    -0.201 OA
BRANCH  23  26
ATOM     26  N   UNL A   1      31.274  27.139  24.404  1.00  0.00    -0.280 N 
ATOM     27  H   UNL A   1      30.455  26.692  24.717  1.00  0.00     0.180 HD
BRANCH  26  28
ATOM     28  C   UNL A   1      32.013  27.979  25.446  1.00  0.00     0.049 A 
ATOM     29  C   UNL A   1      34.349  31.798  27.948  1.00  0.00     0.044 C 
ATOM     30  C   UNL A   1      33.593  30.643  27.359  1.00  0.00    -0.051 A 
ATOM     31  C   UNL A   1      32.097  30.921  26.437  1.00  0.00     0.005 A 
ATOM     32  C   UNL A   1      34.401  29.103  27.447  1.00  0.00     0.005 A 
ATOM     33  C   UNL A   1      31.288  29.650  25.503  1.00  0.00     0.027 A 
ATOM     34  C   UNL A   1      33.700  27.723  26.559  1.00  0.00     0.027 A 
ENDBRANCH  26  28
ENDBRANCH  23  26
ENDBRANCH  17  23
ENDBRANCH  13  16
ENDBRANCH   7  12
ENDBRANCH   3   6
ENDBRANCH   1   2
BRANCH   1  35
ATOM     35  C   UNL A   1      36.964  22.895  23.881  1.00  0.00     0.023 C 
BRANCH  35  36
ATOM     36  C   UNL A   1      37.909  23.228  24.994  1.00  0.00     0.023 C 
BRANCH  36  37
ATOM     37  C   UNL A   1      38.164  22.057  25.887  1.00  0.00     0.116 C 
BRANCH  37  38
ATOM     38  N   UNL A   1      39.400  22.091  26.641  1.00  0.00    -0.352 N 
ATOM     39  C   UNL A   1      40.192  23.191  26.921  1.00  0.00     0.251 C 
ATOM     40  H   UNL A   1      39.716  21.228  26.995  1.00  0.00     0.163 HD
ATOM     41  O   UNL A   1      41.332  23.016  27.342  1.00  0.00    -0.269 OA
BRANCH  39  42
ATOM     42  C   UNL A   1      39.603  24.572  26.915  1.00  0.00     0.039 A 
ATOM     43  C   UNL A   1      40.328  25.510  26.171  1.00  0.00     0.014 A 
ATOM     44  C   UNL A   1      38.960  25.007  28.057  1.00  0.00     0.014 A 
ATOM     45  C   UNL A   1      40.717  26.690  26.784  1.00  0.00     0.010 A 
ATOM     46  C   UNL A   1      39.624  25.919  28.810  1.00  0.00     0.010 A 
ATOM     47  C   UNL A   1      40.487  26.784  28.148  1.00  0.00    -0.014 A 
BRANCH  47  48
ATOM     48  C   UNL A   1      40.784  27.916  28.982  1.00  0.00     0.031 A 
ATOM     49  C   UNL A   1      39.742  28.972  28.861  1.00  0.00     0.074 A 
ATOM     50  C   UNL A   1      41.731  27.686  29.924  1.00  0.00     0.049 A 
ATOM     51  N   UNL A   1      39.934  30.219  29.062  1.00  0.00    -0.248 NA
ATOM     52  C   UNL A   1      38.364  28.732  28.370  1.00  0.00     0.031 C 
ATOM     53  C   UNL A   1      42.006  28.352  31.189  1.00  0.00     0.029 A 
ATOM     54  N   UNL A   1      42.798  26.764  29.821  1.00  0.00    -0.354 N 
ATOM     55  C   UNL A   1      38.679  30.776  29.254  1.00  0.00     0.074 A 
ATOM     56  C   UNL A   1      37.763  29.909  28.579  1.00  0.00     0.031 C 
ATOM     57  C   UNL A   1      43.295  28.139  31.530  1.00  0.00     0.029 A 
ATOM     58  C   UNL A   1      43.906  27.378  30.454  1.00  0.00     0.049 A 
ATOM     59  H   UNL A   1      42.775  25.876  29.396  1.00  0.00     0.167 HD
ATOM     60  C   UNL A   1      38.566  31.750  30.198  1.00  0.00     0.037 A 
ATOM     61  C   UNL A   1      44.970  27.792  29.699  1.00  0.00     0.037 A 
ATOM     62  C   UNL A   1      39.871  31.895  30.830  1.00  0.00     0.049 A 
ATOM     63  C   UNL A   1      44.990  29.299  29.636  1.00  0.00     0.074 A 
ATOM     64  C   UNL A   1      40.394  31.371  31.998  1.00  0.00     0.029 A 
ATOM     65  N   UNL A   1      40.939  32.287  30.046  1.00  0.00    -0.354 N 
ATOM     66  N   UNL A   1      43.907  30.032  29.652  1.00  0.00    -0.248 NA
ATOM     67  C   UNL A   1      46.216  30.088  29.708  1.00  0.00     0.031 C 
ATOM     68  C   UNL A   1      41.809  31.454  31.900  1.00  0.00     0.029 A 
ATOM     69  C   UNL A   1      42.130  31.985  30.662  1.00  0.00     0.049 A 
ATOM     70  H   UNL A   1      40.858  32.724  29.167  1.00  0.00     0.167 HD
ATOM     71  C   UNL A   1      44.268  31.344  29.821  1.00  0.00     0.074 A 
ATOM     72  C   UNL A   1      45.718  31.330  29.824  1.00  0.00     0.031 C 
ATOM     73  C   UNL A   1      43.371  32.355  30.018  1.00  0.00     0.037 A 
BRANCH  60  74
ATOM     74  C   UNL A   1      37.340  32.396  30.797  1.00  0.00     0.064 A 
ATOM     75  C   UNL A   1      36.624  33.344  30.022  1.00  0.00     0.173 A 
ATOM     76  C   UNL A   1      36.795  32.149  32.069  1.00  0.00     0.173 A 
ATOM     77  F   UNL A   1      36.980  33.637  28.764  1.00  0.00    -0.203 F 
ATOM     78  C   UNL A   1      35.501  34.020  30.491  1.00  0.00     0.198 A 
ATOM     79  C   UNL A   1      35.657  32.825  32.537  1.00  0.00     0.198 A 
ATOM     80  F   UNL A   1      37.313  31.235  32.895  1.00  0.00    -0.203 F 
ATOM     81  F   UNL A   1      34.892  34.916  29.702  1.00  0.00    -0.200 F 
ATOM     82  C   UNL A   1      35.016  33.763  31.751  1.00  0.00     0.200 A 
ATOM     83  F   UNL A   1      35.179  32.552  33.760  1.00  0.00    -0.200 F 
ATOM     84  F   UNL A   1      33.928  34.402  32.199  1.00  0.00    -0.200 F 
ENDBRANCH  60  74
BRANCH  61  85
ATOM     85  C   UNL A   1      45.227  26.824  28.585  1.00  0.00     0.064 A 
ATOM     86  C   UNL A   1      44.974  27.318  27.286  1.00  0.00     0.173 A 
ATOM     87  C   UNL A   1      46.184  25.808  28.712  1.00  0.00     0.173 A 
ATOM     88  F   UNL A   1      44.036  28.261  27.100  1.00  0.00    -0.203 F 
ATOM     89  C   UNL A   1      45.817  27.007  26.222  1.00  0.00     0.198 A 
ATOM     90  C   UNL A   1      46.992  25.460  27.623  1.00  0.00     0.198 A 
ATOM     91  F   UNL A   1      46.448  25.271  29.911  1.00  0.00    -0.203 F 
ATOM     92  F   UNL A   1      45.692  27.663  25.057  1.00  0.00    -0.200 F 
ATOM     93  C   UNL A   1      46.857  26.115  26.407  1.00  0.00     0.200 A 
ATOM     94  F   UNL A   1      47.974  24.562  27.784  1.00  0.00    -0.200 F 
ATOM     95  F   UNL A   1      47.750  25.920  25.427  1.00  0.00    -0.200 F 
ENDBRANCH  61  85
BRANCH  73  96
ATOM     96  C   UNL A   1      43.618  33.814  29.721  1.00  0.00     0.064 A 
ATOM     97  C   UNL A   1      43.714  34.795  30.717  1.00  0.00     0.173 A 
ATOM     98  C   UNL A   1      43.931  34.260  28.408  1.00  0.00     0.173 A 
ATOM     99  F   UNL A   1      43.634  34.489  32.018  1.00  0.00    -0.203 F 
ATOM    100  C   UNL A   1      43.959  36.134  30.412  1.00  0.00     0.198 A 
ATOM    101  C   UNL A   1      44.283  35.574  28.124  1.00  0.00     0.198 A 
ATOM    102  F   UNL A   1      43.939  33.440  27.348  1.00  0.00    -0.203 F 
ATOM    103  F   UNL A   1      43.932  37.044  31.394  1.00  0.00    -0.200 F 
ATOM    104  C   UNL A   1      44.252  36.521  29.120  1.00  0.00     0.200 A 
ATOM    105  F   UNL A   1      44.664  35.904  26.883  1.00  0.00    -0.200 F 
ATOM    106  F   UNL A   1      44.523  37.800  28.839  1.00  0.00    -0.200 F 
ENDBRANCH  73  96
ENDBRANCH  47  48
ENDBRANCH  39  42
ENDBRANCH  37  38
ENDBRANCH  36  37
ENDBRANCH  35  36
ENDBRANCH   1  35
TORSDOF 16
ENDMDL
MODEL 3
REMARK VINA RESULT:     -14.1      1.701      2.132
REMARK SMILES Cc1ccc(NS(=O)(=O)c2cc(C(=O)Nc3ccccc3C(=O)NCCCCNC(=O)c3ccc(-c4c5nc(c(-c6c(F)c(F)c(F)c(F)c6F)c6ccc([nH]6)c(-c6c(F)c(F)c(F)c(F)c6F)c6nc(c(-c7c(F)c(F)c(F)c(F)c7F)c7ccc4[nH]7)C=C6)C=C5)cc3)ccc2Br)cc1
REMARK SMILES IDX 25 1 24 2 22 3 23 4 21 6 16 7 17 8 18 9 20 10 19 11 15 12
REMARK SMILES IDX 13 13 14 14 12 16 10 17 11 18 97 19 96 20 98 21 95 22 7 23
REMARK SMILES IDX 8 24 9 25 6 26 5 28 1 29 2 30 3 31 100 32 4 33 99 34 26 35
REMARK SMILES IDX 27 36 28 37 29 38 30 39 31 41 32 42 33 43 94 44 34 45 93 46
REMARK SMILES IDX 35 47 36 48 37 49 87 50 38 51 92 52 86 53 88 54 39 55 91 56
REMARK SMILES IDX 85 57 84 58 40 60 72 61 52 62 71 63 53 64 56 65 70 66 89 67
REMARK SMILES IDX 54 68 55 69 69 71 90 72 57 73 41 74 42 75 50 76 43 77 44 78
REMARK SMILES IDX 48 79 51 80 45 81 46 82 49 83 47 84 73 85 74 86 82 87 75 88
REMARK SMILES IDX 76 89 80 90 83 91 77 92 78 93 81 94 79 95 58 96 59 97 67 98
REMARK SMILES IDX 60 99 61 100 65 101 68 102 62 103 63 104 66 105 64 106
REMARK H PARENT 24 5 15 15 6 27 29 40 88 59 56 70
REMARK Flexibility Score: inf
ROOT
ATOM      1  C   UNL A   1      33.372  28.052  26.627  1.00  0.00     0.116 C 
ENDROOT
BRANCH   1   2
ATOM      2  N   UNL A   1      34.072  27.914  25.368  1.00  0.00    -0.352 N 
ATOM      3  C   UNL A   1      33.822  28.553  24.169  1.00  0.00     0.253 C 
ATOM      4  O   UNL A   1      34.654  28.503  23.270  1.00  0.00    -0.269 OA
ATOM      5  H   UNL A   1      34.827  27.281  25.366  1.00  0.00     0.163 HD
BRANCH   3   6
ATOM      6  C   UNL A   1      32.495  29.180  23.926  1.00  0.00     0.063 A 
ATOM      7  C   UNL A   1      31.566  28.780  22.411  1.00  0.00     0.054 A 
ATOM      8  C   UNL A   1      29.755  29.695  22.195  1.00  0.00     0.027 A 
ATOM      9  C   UNL A   1      29.132  30.727  23.537  1.00  0.00     0.002 A 
ATOM     10  C   UNL A   1      31.759  30.265  25.116  1.00  0.00     0.016 A 
ATOM     11  C   UNL A   1      30.141  30.971  24.942  1.00  0.00     0.001 A 
BRANCH   7  12
ATOM     12  N   UNL A   1      32.315  27.737  21.616  1.00  0.00    -0.321 N 
ATOM     13  C   UNL A   1      32.564  26.353  21.765  1.00  0.00     0.255 C 
ATOM     14  O   UNL A   1      33.188  25.776  20.869  1.00  0.00    -0.269 OA
ATOM     15  H   UNL A   1      32.726  28.107  20.801  1.00  0.00     0.170 HD
BRANCH  13  16
ATOM     16  C   UNL A   1      31.985  25.478  22.841  1.00  0.00     0.041 A 
ATOM     17  C   UNL A   1      32.601  24.216  24.837  1.00  0.00     0.102 A 
ATOM     18  C   UNL A   1      32.834  24.710  23.579  1.00  0.00     0.037 A 
ATOM     19  C   UNL A   1      31.286  24.091  25.220  1.00  0.00     0.038 A 
ATOM     20  C   UNL A   1      30.298  24.673  24.391  1.00  0.00     0.018 A 
ATOM     21  Br  UNL A   1      30.747  23.065  26.708  1.00  0.00    -0.049 Br
ATOM     22  C   UNL A   1      30.657  25.439  23.251  1.00  0.00     0.015 A 
BRANCH  17  23
ATOM     23  S   UNL A   1      34.080  23.991  25.823  1.00  0.00     0.263 S 
ATOM     24  O   UNL A   1      33.665  23.550  27.138  1.00  0.00    -0.201 OA
ATOM     25  O   UNL A   1      34.890  25.175  25.654  1.00  0.00    -0.201 OA
BRANCH  23  26
ATOM     26  N   UNL A   1      34.937  22.637  25.174  1.00  0.00    -0.280 N 
ATOM     27  H   UNL A   1      35.866  22.809  24.899  1.00  0.00     0.180 HD
BRANCH  26  28
ATOM     28  C   UNL A   1      34.438  21.205  24.971  1.00  0.00     0.049 A 
ATOM     29  C   UNL A   1      33.927  16.325  23.480  1.00  0.00     0.044 C 
ATOM     30  C   UNL A   1      34.032  17.703  24.066  1.00  0.00    -0.051 A 
ATOM     31  C   UNL A   1      35.616  18.366  24.532  1.00  0.00     0.005 A 
ATOM     32  C   UNL A   1      32.566  18.641  24.029  1.00  0.00     0.005 A 
ATOM     33  C   UNL A   1      35.856  20.061  24.992  1.00  0.00     0.027 A 
ATOM     34  C   UNL A   1      32.650  20.368  24.471  1.00  0.00     0.027 A 
ENDBRANCH  26  28
ENDBRANCH  23  26
ENDBRANCH  17  23
ENDBRANCH  13  16
ENDBRANCH   7  12
ENDBRANCH   3   6
ENDBRANCH   1   2
BRANCH   1  35
ATOM     35  C   UNL A   1      33.922  29.030  27.644  1.00  0.00     0.023 C 
BRANCH  35  36
ATOM     36  C   UNL A   1      35.384  29.353  27.623  1.00  0.00     0.023 C 
BRANCH  36  37
ATOM     37  C   UNL A   1      35.755  30.357  28.666  1.00  0.00     0.116 C 
BRANCH  37  38
ATOM     38  N   UNL A   1      34.786  31.405  28.912  1.00  0.00    -0.352 N 
ATOM     39  C   UNL A   1      34.897  32.474  29.785  1.00  0.00     0.251 C 
ATOM     40  H   UNL A   1      33.948  31.350  28.398  1.00  0.00     0.163 HD
ATOM     41  O   UNL A   1      33.893  33.120  30.069  1.00  0.00    -0.269 OA
BRANCH  39  42
ATOM     42  C   UNL A   1      36.249  32.969  30.211  1.00  0.00     0.039 A 
ATOM     43  C   UNL A   1      37.135  33.218  29.157  1.00  0.00     0.014 A 
ATOM     44  C   UNL A   1      36.770  32.488  31.396  1.00  0.00     0.014 A 
ATOM     45  C   UNL A   1      38.382  32.615  29.177  1.00  0.00     0.010 A 
ATOM     46  C   UNL A   1      37.774  31.582  31.287  1.00  0.00     0.010 A 
ATOM     47  C   UNL A   1      38.600  31.678  30.174  1.00  0.00    -0.014 A 
BRANCH  47  48
ATOM     48  C   UNL A   1      39.817  30.948  30.402  1.00  0.00     0.031 A 
ATOM     49  C   UNL A   1      39.775  29.604  29.764  1.00  0.00     0.074 A 
ATOM     50  C   UNL A   1      40.850  31.704  30.848  1.00  0.00     0.049 A 
ATOM     51  N   UNL A   1      40.432  28.583  30.160  1.00  0.00    -0.248 NA
ATOM     52  C   UNL A   1      38.866  29.236  28.653  1.00  0.00     0.031 C 
ATOM     53  C   UNL A   1      42.289  31.492  30.785  1.00  0.00     0.029 A 
ATOM     54  N   UNL A   1      40.743  32.881  31.623  1.00  0.00    -0.354 N 
ATOM     55  C   UNL A   1      40.442  27.694  29.096  1.00  0.00     0.074 A 
ATOM     56  C   UNL A   1      39.285  28.011  28.317  1.00  0.00     0.031 C 
ATOM     57  C   UNL A   1      42.884  32.206  31.764  1.00  0.00     0.029 A 
ATOM     58  C   UNL A   1      41.831  32.850  32.529  1.00  0.00     0.049 A 
ATOM     59  H   UNL A   1      40.054  33.580  31.548  1.00  0.00     0.167 HD
ATOM     60  C   UNL A   1      41.589  26.994  28.877  1.00  0.00     0.037 A 
ATOM     61  C   UNL A   1      41.592  32.657  33.864  1.00  0.00     0.037 A 
ATOM     62  C   UNL A   1      42.571  27.456  29.849  1.00  0.00     0.049 A 
ATOM     63  C   UNL A   1      42.053  31.278  34.265  1.00  0.00     0.074 A 
ATOM     64  C   UNL A   1      43.588  28.389  29.760  1.00  0.00     0.029 A 
ATOM     65  N   UNL A   1      42.300  27.278  31.192  1.00  0.00    -0.354 N 
ATOM     66  N   UNL A   1      42.013  30.246  33.462  1.00  0.00    -0.248 NA
ATOM     67  C   UNL A   1      42.730  30.995  35.527  1.00  0.00     0.031 C 
ATOM     68  C   UNL A   1      43.925  28.772  31.086  1.00  0.00     0.029 A 
ATOM     69  C   UNL A   1      43.084  28.104  31.960  1.00  0.00     0.049 A 
ATOM     70  H   UNL A   1      41.636  26.644  31.549  1.00  0.00     0.167 HD
ATOM     71  C   UNL A   1      42.711  29.216  34.037  1.00  0.00     0.074 A 
ATOM     72  C   UNL A   1      43.116  29.723  35.333  1.00  0.00     0.031 C 
ATOM     73  C   UNL A   1      42.980  28.038  33.401  1.00  0.00     0.037 A 
BRANCH  60  74
ATOM     74  C   UNL A   1      42.002  26.131  27.710  1.00  0.00     0.064 A 
ATOM     75  C   UNL A   1      41.442  24.833  27.593  1.00  0.00     0.173 A 
ATOM     76  C   UNL A   1      42.892  26.480  26.680  1.00  0.00     0.173 A 
ATOM     77  F   UNL A   1      40.527  24.380  28.460  1.00  0.00    -0.203 F 
ATOM     78  C   UNL A   1      41.780  23.946  26.574  1.00  0.00     0.198 A 
ATOM     79  C   UNL A   1      43.225  25.588  25.648  1.00  0.00     0.198 A 
ATOM     80  F   UNL A   1      43.453  27.691  26.609  1.00  0.00    -0.203 F 
ATOM     81  F   UNL A   1      41.221  22.728  26.545  1.00  0.00    -0.200 F 
ATOM     82  C   UNL A   1      42.674  24.321  25.600  1.00  0.00     0.200 A 
ATOM     83  F   UNL A   1      44.082  25.971  24.689  1.00  0.00    -0.200 F 
ATOM     84  F   UNL A   1      42.989  23.476  24.610  1.00  0.00    -0.200 F 
ENDBRANCH  60  74
BRANCH  61  85
ATOM     85  C   UNL A   1      40.336  33.360  34.276  1.00  0.00     0.064 A 
ATOM     86  C   UNL A   1      39.264  32.516  34.642  1.00  0.00     0.173 A 
ATOM     87  C   UNL A   1      40.374  34.638  34.850  1.00  0.00     0.173 A 
ATOM     88  F   UNL A   1      39.154  31.297  34.088  1.00  0.00    -0.203 F 
ATOM     89  C   UNL A   1      38.437  32.829  35.718  1.00  0.00     0.198 A 
ATOM     90  C   UNL A   1      39.502  34.967  35.894  1.00  0.00     0.198 A 
ATOM     91  F   UNL A   1      41.344  35.501  34.521  1.00  0.00    -0.203 F 
ATOM     92  F   UNL A   1      37.577  31.912  36.187  1.00  0.00    -0.200 F 
ATOM     93  C   UNL A   1      38.592  34.036  36.375  1.00  0.00     0.200 A 
ATOM     94  F   UNL A   1      39.617  36.154  36.507  1.00  0.00    -0.200 F 
ATOM     95  F   UNL A   1      37.894  34.280  37.492  1.00  0.00    -0.200 F 
ENDBRANCH  61  85
BRANCH  73  96
ATOM     96  C   UNL A   1      43.278  26.723  34.081  1.00  0.00     0.064 A 
ATOM     97  C   UNL A   1      42.307  25.971  34.758  1.00  0.00     0.173 A 
ATOM     98  C   UNL A   1      44.539  26.083  33.937  1.00  0.00     0.173 A 
ATOM     99  F   UNL A   1      41.026  26.357  34.809  1.00  0.00    -0.203 F 
ATOM    100  C   UNL A   1      42.609  24.752  35.363  1.00  0.00     0.198 A 
ATOM    101  C   UNL A   1      44.802  24.818  34.447  1.00  0.00     0.198 A 
ATOM    102  F   UNL A   1      45.560  26.640  33.271  1.00  0.00    -0.203 F 
ATOM    103  F   UNL A   1      41.670  24.131  36.089  1.00  0.00    -0.200 F 
ATOM    104  C   UNL A   1      43.851  24.172  35.201  1.00  0.00     0.200 A 
ATOM    105  F   UNL A   1      45.979  24.232  34.189  1.00  0.00    -0.200 F 
ATOM    106  F   UNL A   1      44.124  22.984  35.752  1.00  0.00    -0.200 F 
ENDBRANCH  73  96
ENDBRANCH  47  48
ENDBRANCH  39  42
ENDBRANCH  37  38
ENDBRANCH  36  37
ENDBRANCH  35  36
ENDBRANCH   1  35
TORSDOF 16
ENDMDL
