MODEL 1
REMARK VINA RESULT:     -12.1      0.000      0.000
REMARK SMILES O=C(NCCCCNC(=O)c1ccc(CNC(=O)c2ccc(Cl)cc2)o1)c1ccc(-c2c3nc(c(-c4c(F)c(F)c(F)c(F)c4F)c4ccc([nH]4)c(-c4c(F)c(F)c(F)c(F)c4F)c4nc(c(-c5c(F)c(F)c(F)c(F)c5F)c5ccc2[nH]5)C=C4)C=C3)cc1
REMARK SMILES IDX 6 1 5 2 4 3 3 4 1 5 2 6 27 8 28 9 89 10 29 11 88 12 30 13
REMARK SMILES IDX 31 14 32 15 82 16 33 17 87 18 81 19 83 20 34 21 86 22 80 23
REMARK SMILES IDX 79 24 35 26 67 27 47 28 66 29 48 30 51 31 65 32 84 33 49 34
REMARK SMILES IDX 50 35 64 37 85 38 52 39 36 40 37 41 45 42 38 43 39 44 43 45
REMARK SMILES IDX 46 46 40 47 41 48 44 49 42 50 68 51 69 52 77 53 70 54 71 55
REMARK SMILES IDX 75 56 78 57 72 58 73 59 76 60 74 61 53 62 54 63 62 64 55 65
REMARK SMILES IDX 56 66 60 67 63 68 57 69 58 70 61 71 59 72 7 73 8 74 9 75
REMARK SMILES IDX 10 77 11 78 12 79 26 80 13 81 14 82 15 83 16 84 17 85 18 87
REMARK SMILES IDX 19 88 20 89 25 90 21 91 24 92 22 93 23 94
REMARK H PARENT 3 7 83 25 51 36 8 76 16 86
REMARK Flexibility Score: inf
ROOT
ATOM      1  C   UNL A   1      30.639  31.715  25.442  1.00  0.00     0.023 C 
ENDROOT
BRANCH   1   2
ATOM      2  C   UNL A   1      31.352  31.654  26.794  1.00  0.00     0.023 C 
BRANCH   2   3
ATOM      3  C   UNL A   1      32.623  32.490  26.900  1.00  0.00     0.116 C 
BRANCH   3   4
ATOM      4  N   UNL A   1      32.373  33.831  27.403  1.00  0.00    -0.352 N 
ATOM      5  O   UNL A   1      32.556  35.597  28.789  1.00  0.00    -0.269 OA
ATOM      6  C   UNL A   1      33.005  34.520  28.407  1.00  0.00     0.251 C 
ATOM      7  H   UNL A   1      31.642  34.316  26.958  1.00  0.00     0.163 HD
BRANCH   6   8
ATOM      8  C   UNL A   1      34.215  33.962  29.050  1.00  0.00     0.039 A 
ATOM      9  C   UNL A   1      35.491  34.422  28.712  1.00  0.00     0.014 A 
ATOM     10  C   UNL A   1      34.061  32.977  30.029  1.00  0.00     0.014 A 
ATOM     11  C   UNL A   1      36.615  33.816  29.265  1.00  0.00     0.010 A 
ATOM     12  C   UNL A   1      35.188  32.415  30.632  1.00  0.00     0.010 A 
ATOM     13  C   UNL A   1      36.474  32.811  30.235  1.00  0.00    -0.014 A 
BRANCH  13  14
ATOM     14  C   UNL A   1      37.677  32.218  30.867  1.00  0.00     0.031 A 
ATOM     15  C   UNL A   1      38.464  31.145  30.173  1.00  0.00     0.074 A 
ATOM     16  C   UNL A   1      38.047  32.646  32.088  1.00  0.00     0.049 A 
ATOM     17  N   UNL A   1      39.515  30.489  30.594  1.00  0.00    -0.248 NA
ATOM     18  C   UNL A   1      38.004  30.748  28.835  1.00  0.00     0.031 C 
ATOM     19  C   UNL A   1      37.347  33.667  32.868  1.00  0.00     0.029 A 
ATOM     20  N   UNL A   1      39.095  32.272  32.890  1.00  0.00    -0.354 N 
ATOM     21  C   UNL A   1      39.831  29.589  29.587  1.00  0.00     0.074 A 
ATOM     22  C   UNL A   1      38.847  29.767  28.539  1.00  0.00     0.031 C 
ATOM     23  C   UNL A   1      37.988  33.846  34.031  1.00  0.00     0.029 A 
ATOM     24  C   UNL A   1      39.116  32.921  34.098  1.00  0.00     0.049 A 
ATOM     25  H   UNL A   1      39.767  31.603  32.624  1.00  0.00     0.167 HD
ATOM     26  C   UNL A   1      40.851  28.699  29.541  1.00  0.00     0.037 A 
ATOM     27  C   UNL A   1      39.936  32.772  35.155  1.00  0.00     0.037 A 
ATOM     28  C   UNL A   1      41.840  28.542  30.576  1.00  0.00     0.049 A 
ATOM     29  C   UNL A   1      41.056  31.777  35.082  1.00  0.00     0.074 A 
ATOM     30  C   UNL A   1      42.953  27.719  30.590  1.00  0.00     0.029 A 
ATOM     31  N   UNL A   1      41.829  29.219  31.787  1.00  0.00    -0.354 N 
ATOM     32  N   UNL A   1      41.376  30.968  34.102  1.00  0.00    -0.248 NA
ATOM     33  C   UNL A   1      41.928  31.672  36.260  1.00  0.00     0.031 C 
ATOM     34  C   UNL A   1      43.592  27.867  31.827  1.00  0.00     0.029 A 
ATOM     35  C   UNL A   1      42.899  28.811  32.568  1.00  0.00     0.049 A 
ATOM     36  H   UNL A   1      41.160  29.889  32.053  1.00  0.00     0.167 HD
ATOM     37  C   UNL A   1      42.488  30.265  34.536  1.00  0.00     0.074 A 
ATOM     38  C   UNL A   1      42.798  30.753  35.865  1.00  0.00     0.031 C 
ATOM     39  C   UNL A   1      43.188  29.300  33.891  1.00  0.00     0.037 A 
BRANCH  26  40
ATOM     40  C   UNL A   1      40.943  27.810  28.336  1.00  0.00     0.064 A 
ATOM     41  C   UNL A   1      40.273  26.580  28.272  1.00  0.00     0.173 A 
ATOM     42  C   UNL A   1      41.685  28.214  27.215  1.00  0.00     0.173 A 
ATOM     43  F   UNL A   1      39.560  26.146  29.323  1.00  0.00    -0.203 F 
ATOM     44  C   UNL A   1      40.362  25.774  27.140  1.00  0.00     0.198 A 
ATOM     45  C   UNL A   1      41.752  27.415  26.075  1.00  0.00     0.198 A 
ATOM     46  F   UNL A   1      42.340  29.384  27.222  1.00  0.00    -0.203 F 
ATOM     47  F   UNL A   1      39.748  24.582  27.118  1.00  0.00    -0.200 F 
ATOM     48  C   UNL A   1      41.097  26.194  26.041  1.00  0.00     0.200 A 
ATOM     49  F   UNL A   1      42.455  27.827  25.011  1.00  0.00    -0.200 F 
ATOM     50  F   UNL A   1      41.180  25.417  24.952  1.00  0.00    -0.200 F 
ENDBRANCH  26  40
BRANCH  27  51
ATOM     51  C   UNL A   1      39.701  33.592  36.369  1.00  0.00     0.064 A 
ATOM     52  C   UNL A   1      40.298  34.850  36.515  1.00  0.00     0.173 A 
ATOM     53  C   UNL A   1      38.827  33.156  37.375  1.00  0.00     0.173 A 
ATOM     54  F   UNL A   1      41.153  35.298  35.586  1.00  0.00    -0.203 F 
ATOM     55  C   UNL A   1      40.025  35.645  37.627  1.00  0.00     0.198 A 
ATOM     56  C   UNL A   1      38.538  33.962  38.473  1.00  0.00     0.198 A 
ATOM     57  F   UNL A   1      38.226  31.962  37.271  1.00  0.00    -0.203 F 
ATOM     58  F   UNL A   1      40.621  36.838  37.756  1.00  0.00    -0.200 F 
ATOM     59  C   UNL A   1      39.139  35.205  38.599  1.00  0.00     0.200 A 
ATOM     60  F   UNL A   1      37.667  33.539  39.401  1.00  0.00    -0.200 F 
ATOM     61  F   UNL A   1      38.863  35.979  39.657  1.00  0.00    -0.200 F 
ENDBRANCH  27  51
BRANCH  39  62
ATOM     62  C   UNL A   1      44.364  28.712  34.610  1.00  0.00     0.064 A 
ATOM     63  C   UNL A   1      45.631  29.310  34.546  1.00  0.00     0.173 A 
ATOM     64  C   UNL A   1      44.211  27.570  35.410  1.00  0.00     0.173 A 
ATOM     65  F   UNL A   1      45.828  30.393  33.781  1.00  0.00    -0.203 F 
ATOM     66  C   UNL A   1      46.707  28.775  35.247  1.00  0.00     0.198 A 
ATOM     67  C   UNL A   1      45.285  27.051  36.126  1.00  0.00     0.198 A 
ATOM     68  F   UNL A   1      43.018  26.966  35.504  1.00  0.00    -0.203 F 
ATOM     69  F   UNL A   1      47.918  29.342  35.148  1.00  0.00    -0.200 F 
ATOM     70  C   UNL A   1      46.533  27.651  36.042  1.00  0.00     0.200 A 
ATOM     71  F   UNL A   1      45.114  25.970  36.900  1.00  0.00    -0.200 F 
ATOM     72  F   UNL A   1      47.569  27.143  36.723  1.00  0.00    -0.200 F 
ENDBRANCH  39  62
ENDBRANCH  13  14
ENDBRANCH   6   8
ENDBRANCH   3   4
ENDBRANCH   2   3
ENDBRANCH   1   2
BRANCH   1  73
ATOM     73  C   UNL A   1      30.623  30.409  24.650  1.00  0.00     0.116 C 
BRANCH  73  74
ATOM     74  N   UNL A   1      30.171  30.602  23.284  1.00  0.00    -0.349 N 
ATOM     75  C   UNL A   1      29.632  29.673  22.421  1.00  0.00     0.286 C 
ATOM     76  H   UNL A   1      30.260  31.515  22.928  1.00  0.00     0.163 HD
ATOM     77  O   UNL A   1      29.471  30.007  21.248  1.00  0.00    -0.266 OA
BRANCH  75  78
ATOM     78  C   UNL A   1      29.295  28.371  22.943  1.00  0.00     0.191 A 
ATOM     79  C   UNL A   1      28.144  27.870  23.522  1.00  0.00     0.056 A 
ATOM     80  O   UNL A   1      30.255  27.400  22.924  1.00  0.00    -0.454 OA
ATOM     81  C   UNL A   1      28.425  26.533  23.896  1.00  0.00     0.048 A 
ATOM     82  C   UNL A   1      29.730  26.295  23.524  1.00  0.00     0.124 A 
BRANCH  82  83
ATOM     83  C   UNL A   1      30.650  25.146  23.698  1.00  0.00     0.191 C 
BRANCH  83  84
ATOM     84  N   UNL A   1      30.380  24.488  24.959  1.00  0.00    -0.345 N 
ATOM     85  C   UNL A   1      30.913  24.758  26.192  1.00  0.00     0.251 C 
ATOM     86  H   UNL A   1      29.727  23.752  24.926  1.00  0.00     0.164 HD
ATOM     87  O   UNL A   1      30.664  24.038  27.154  1.00  0.00    -0.269 OA
BRANCH  85  88
ATOM     88  C   UNL A   1      31.824  25.909  26.363  1.00  0.00     0.039 A 
ATOM     89  C   UNL A   1      33.161  25.846  25.956  1.00  0.00     0.015 A 
ATOM     90  C   UNL A   1      31.313  27.081  26.932  1.00  0.00     0.015 A 
ATOM     91  C   UNL A   1      34.004  26.937  26.178  1.00  0.00     0.021 A 
ATOM     92  C   UNL A   1      32.156  28.173  27.145  1.00  0.00     0.021 A 
ATOM     93  C   UNL A   1      33.500  28.092  26.779  1.00  0.00     0.041 A 
ATOM     94  Cl  UNL A   1      34.547  29.426  27.069  1.00  0.00    -0.084 Cl
ENDBRANCH  85  88
ENDBRANCH  83  84
ENDBRANCH  82  83
ENDBRANCH  75  78
ENDBRANCH  73  74
ENDBRANCH   1  73
TORSDOF 14
ENDMDL
MODEL 2
REMARK VINA RESULT:     -12.1      5.564     10.904
REMARK SMILES O=C(NCCCCNC(=O)c1ccc(CNC(=O)c2ccc(Cl)cc2)o1)c1ccc(-c2c3nc(c(-c4c(F)c(F)c(F)c(F)c4F)c4ccc([nH]4)c(-c4c(F)c(F)c(F)c(F)c4F)c4nc(c(-c5c(F)c(F)c(F)c(F)c5F)c5ccc2[nH]5)C=C4)C=C3)cc1
REMARK SMILES IDX 6 1 5 2 4 3 3 4 1 5 2 6 27 8 28 9 89 10 29 11 88 12 30 13
REMARK SMILES IDX 31 14 32 15 82 16 33 17 87 18 81 19 83 20 34 21 86 22 80 23
REMARK SMILES IDX 79 24 35 26 67 27 47 28 66 29 48 30 51 31 65 32 84 33 49 34
REMARK SMILES IDX 50 35 64 37 85 38 52 39 36 40 37 41 45 42 38 43 39 44 43 45
REMARK SMILES IDX 46 46 40 47 41 48 44 49 42 50 68 51 69 52 77 53 70 54 71 55
REMARK SMILES IDX 75 56 78 57 72 58 73 59 76 60 74 61 53 62 54 63 62 64 55 65
REMARK SMILES IDX 56 66 60 67 63 68 57 69 58 70 61 71 59 72 7 73 8 74 9 75
REMARK SMILES IDX 10 77 11 78 12 79 26 80 13 81 14 82 15 83 16 84 17 85 18 87
REMARK SMILES IDX 19 88 20 89 25 90 21 91 24 92 22 93 23 94
REMARK H PARENT 3 7 83 25 51 36 8 76 16 86
REMARK Flexibility Score: inf
ROOT
ATOM      1  C   UNL A   1      36.703  19.054  24.909  1.00  0.00     0.023 C 
ENDROOT
BRANCH   1   2
ATOM      2  C   UNL A   1      37.900  19.981  24.687  1.00  0.00     0.023 C 
BRANCH   2   3
ATOM      3  C   UNL A   1      38.821  20.157  25.890  1.00  0.00     0.116 C 
BRANCH   3   4
ATOM      4  N   UNL A   1      39.915  19.199  25.905  1.00  0.00    -0.352 N 
ATOM      5  O   UNL A   1      42.051  18.486  25.913  1.00  0.00    -0.269 OA
ATOM      6  C   UNL A   1      41.260  19.410  26.077  1.00  0.00     0.251 C 
ATOM      7  H   UNL A   1      39.651  18.260  25.772  1.00  0.00     0.163 HD
BRANCH   6   8
ATOM      8  C   UNL A   1      41.765  20.753  26.436  1.00  0.00     0.039 A 
ATOM      9  C   UNL A   1      42.101  21.070  27.756  1.00  0.00     0.014 A 
ATOM     10  C   UNL A   1      41.929  21.702  25.424  1.00  0.00     0.014 A 
ATOM     11  C   UNL A   1      42.488  22.367  28.081  1.00  0.00     0.010 A 
ATOM     12  C   UNL A   1      42.379  22.985  25.741  1.00  0.00     0.010 A 
ATOM     13  C   UNL A   1      42.635  23.335  27.075  1.00  0.00    -0.014 A 
BRANCH  13  14
ATOM     14  C   UNL A   1      43.111  24.696  27.422  1.00  0.00     0.031 A 
ATOM     15  C   UNL A   1      42.177  25.714  28.008  1.00  0.00     0.074 A 
ATOM     16  C   UNL A   1      44.397  25.014  27.188  1.00  0.00     0.049 A 
ATOM     17  N   UNL A   1      42.412  26.960  28.334  1.00  0.00    -0.248 NA
ATOM     18  C   UNL A   1      40.793  25.281  28.250  1.00  0.00     0.031 C 
ATOM     19  C   UNL A   1      45.392  24.115  26.602  1.00  0.00     0.029 A 
ATOM     20  N   UNL A   1      45.087  26.180  27.404  1.00  0.00    -0.354 N 
ATOM     21  C   UNL A   1      41.206  27.466  28.797  1.00  0.00     0.074 A 
ATOM     22  C   UNL A   1      40.233  26.399  28.694  1.00  0.00     0.031 C 
ATOM     23  C   UNL A   1      46.565  24.757  26.514  1.00  0.00     0.029 A 
ATOM     24  C   UNL A   1      46.394  26.124  26.993  1.00  0.00     0.049 A 
ATOM     25  H   UNL A   1      44.683  26.978  27.815  1.00  0.00     0.167 HD
ATOM     26  C   UNL A   1      40.940  28.707  29.271  1.00  0.00     0.037 A 
ATOM     27  C   UNL A   1      47.346  27.076  26.979  1.00  0.00     0.037 A 
ATOM     28  C   UNL A   1      41.917  29.758  29.393  1.00  0.00     0.049 A 
ATOM     29  C   UNL A   1      47.025  28.444  27.505  1.00  0.00     0.074 A 
ATOM     30  C   UNL A   1      41.761  31.025  29.927  1.00  0.00     0.029 A 
ATOM     31  N   UNL A   1      43.234  29.664  28.967  1.00  0.00    -0.354 N 
ATOM     32  N   UNL A   1      45.895  28.895  27.990  1.00  0.00    -0.248 NA
ATOM     33  C   UNL A   1      48.110  29.435  27.480  1.00  0.00     0.031 C 
ATOM     34  C   UNL A   1      42.972  31.713  29.786  1.00  0.00     0.029 A 
ATOM     35  C   UNL A   1      43.894  30.861  29.199  1.00  0.00     0.049 A 
ATOM     36  H   UNL A   1      43.640  28.866  28.559  1.00  0.00     0.167 HD
ATOM     37  C   UNL A   1      46.130  30.217  28.337  1.00  0.00     0.074 A 
ATOM     38  C   UNL A   1      47.517  30.492  28.020  1.00  0.00     0.031 C 
ATOM     39  C   UNL A   1      45.272  31.120  28.869  1.00  0.00     0.037 A 
BRANCH  26  40
ATOM     40  C   UNL A   1      39.527  29.006  29.678  1.00  0.00     0.064 A 
ATOM     41  C   UNL A   1      38.579  29.483  28.762  1.00  0.00     0.173 A 
ATOM     42  C   UNL A   1      39.109  28.777  30.998  1.00  0.00     0.173 A 
ATOM     43  F   UNL A   1      38.934  29.727  27.491  1.00  0.00    -0.203 F 
ATOM     44  C   UNL A   1      37.270  29.744  29.157  1.00  0.00     0.198 A 
ATOM     45  C   UNL A   1      37.793  29.017  31.384  1.00  0.00     0.198 A 
ATOM     46  F   UNL A   1      39.976  28.316  31.912  1.00  0.00    -0.203 F 
ATOM     47  F   UNL A   1      36.391  30.239  28.274  1.00  0.00    -0.200 F 
ATOM     48  C   UNL A   1      36.876  29.506  30.466  1.00  0.00     0.200 A 
ATOM     49  F   UNL A   1      37.412  28.778  32.648  1.00  0.00    -0.200 F 
ATOM     50  F   UNL A   1      35.615  29.756  30.844  1.00  0.00    -0.200 F 
ENDBRANCH  26  40
BRANCH  27  51
ATOM     51  C   UNL A   1      48.686  26.746  26.435  1.00  0.00     0.064 A 
ATOM     52  C   UNL A   1      49.658  26.132  27.233  1.00  0.00     0.173 A 
ATOM     53  C   UNL A   1      48.994  26.984  25.087  1.00  0.00     0.173 A 
ATOM     54  F   UNL A   1      49.411  25.901  28.530  1.00  0.00    -0.203 F 
ATOM     55  C   UNL A   1      50.893  25.766  26.701  1.00  0.00     0.198 A 
ATOM     56  C   UNL A   1      50.220  26.596  24.552  1.00  0.00     0.198 A 
ATOM     57  F   UNL A   1      48.090  27.562  24.283  1.00  0.00    -0.203 F 
ATOM     58  F   UNL A   1      51.815  25.195  27.489  1.00  0.00    -0.200 F 
ATOM     59  C   UNL A   1      51.169  25.988  25.360  1.00  0.00     0.200 A 
ATOM     60  F   UNL A   1      50.475  26.798  23.252  1.00  0.00    -0.200 F 
ATOM     61  F   UNL A   1      52.349  25.617  24.846  1.00  0.00    -0.200 F 
ENDBRANCH  27  51
BRANCH  39  62
ATOM     62  C   UNL A   1      45.809  32.490  29.150  1.00  0.00     0.064 A 
ATOM     63  C   UNL A   1      46.452  32.787  30.360  1.00  0.00     0.173 A 
ATOM     64  C   UNL A   1      45.725  33.501  28.182  1.00  0.00     0.173 A 
ATOM     65  F   UNL A   1      46.542  31.857  31.323  1.00  0.00    -0.203 F 
ATOM     66  C   UNL A   1      46.979  34.053  30.596  1.00  0.00     0.198 A 
ATOM     67  C   UNL A   1      46.271  34.759  28.412  1.00  0.00     0.198 A 
ATOM     68  F   UNL A   1      45.121  33.263  27.007  1.00  0.00    -0.203 F 
ATOM     69  F   UNL A   1      47.563  34.327  31.771  1.00  0.00    -0.200 F 
ATOM     70  C   UNL A   1      46.896  35.036  29.619  1.00  0.00     0.200 A 
ATOM     71  F   UNL A   1      46.197  35.705  27.466  1.00  0.00    -0.200 F 
ATOM     72  F   UNL A   1      47.412  36.252  29.845  1.00  0.00    -0.200 F 
ENDBRANCH  39  62
ENDBRANCH  13  14
ENDBRANCH   6   8
ENDBRANCH   3   4
ENDBRANCH   2   3
ENDBRANCH   1   2
BRANCH   1  73
ATOM     73  C   UNL A   1      35.334  19.729  24.859  1.00  0.00     0.116 C 
BRANCH  73  74
ATOM     74  N   UNL A   1      34.268  18.840  25.284  1.00  0.00    -0.349 N 
ATOM     75  C   UNL A   1      32.925  18.910  24.989  1.00  0.00     0.286 C 
ATOM     76  H   UNL A   1      34.541  18.087  25.857  1.00  0.00     0.163 HD
ATOM     77  O   UNL A   1      32.166  18.151  25.590  1.00  0.00    -0.266 OA
BRANCH  75  78
ATOM     78  C   UNL A   1      32.493  19.868  24.001  1.00  0.00     0.191 A 
ATOM     79  C   UNL A   1      32.392  19.804  22.624  1.00  0.00     0.056 A 
ATOM     80  O   UNL A   1      32.122  21.112  24.427  1.00  0.00    -0.454 OA
ATOM     81  C   UNL A   1      31.962  21.081  22.187  1.00  0.00     0.048 A 
ATOM     82  C   UNL A   1      31.824  21.850  23.322  1.00  0.00     0.124 A 
BRANCH  82  83
ATOM     83  C   UNL A   1      31.492  23.275  23.556  1.00  0.00     0.191 C 
BRANCH  83  84
ATOM     84  N   UNL A   1      31.989  24.082  22.463  1.00  0.00    -0.345 N 
ATOM     85  C   UNL A   1      33.235  24.631  22.307  1.00  0.00     0.251 C 
ATOM     86  H   UNL A   1      31.350  24.258  21.735  1.00  0.00     0.164 HD
ATOM     87  O   UNL A   1      33.475  25.386  21.370  1.00  0.00    -0.269 OA
BRANCH  85  88
ATOM     88  C   UNL A   1      34.296  24.338  23.294  1.00  0.00     0.039 A 
ATOM     89  C   UNL A   1      34.318  24.965  24.545  1.00  0.00     0.015 A 
ATOM     90  C   UNL A   1      35.277  23.400  22.956  1.00  0.00     0.015 A 
ATOM     91  C   UNL A   1      35.363  24.700  25.433  1.00  0.00     0.021 A 
ATOM     92  C   UNL A   1      36.316  23.131  23.849  1.00  0.00     0.021 A 
ATOM     93  C   UNL A   1      36.361  23.790  25.078  1.00  0.00     0.041 A 
ATOM     94  Cl  UNL A   1      37.658  23.482  26.166  1.00  0.00    -0.084 Cl
ENDBRANCH  85  88
ENDBRANCH  83  84
ENDBRANCH  82  83
ENDBRANCH  75  78
ENDBRANCH  73  74
ENDBRANCH   1  73
TORSDOF 14
ENDMDL
MODEL 3
REMARK VINA RESULT:     -12.0      0.292      7.391
REMARK SMILES O=C(NCCCCNC(=O)c1ccc(CNC(=O)c2ccc(Cl)cc2)o1)c1ccc(-c2c3nc(c(-c4c(F)c(F)c(F)c(F)c4F)c4ccc([nH]4)c(-c4c(F)c(F)c(F)c(F)c4F)c4nc(c(-c5c(F)c(F)c(F)c(F)c5F)c5ccc2[nH]5)C=C4)C=C3)cc1
REMARK SMILES IDX 6 1 5 2 4 3 3 4 1 5 2 6 27 8 28 9 89 10 29 11 88 12 30 13
REMARK SMILES IDX 31 14 32 15 82 16 33 17 87 18 81 19 83 20 34 21 86 22 80 23
REMARK SMILES IDX 79 24 35 26 67 27 47 28 66 29 48 30 51 31 65 32 84 33 49 34
REMARK SMILES IDX 50 35 64 37 85 38 52 39 36 40 37 41 45 42 38 43 39 44 43 45
REMARK SMILES IDX 46 46 40 47 41 48 44 49 42 50 68 51 69 52 77 53 70 54 71 55
REMARK SMILES IDX 75 56 78 57 72 58 73 59 76 60 74 61 53 62 54 63 62 64 55 65
REMARK SMILES IDX 56 66 60 67 63 68 57 69 58 70 61 71 59 72 7 73 8 74 9 75
REMARK SMILES IDX 10 77 11 78 12 79 26 80 13 81 14 82 15 83 16 84 17 85 18 87
REMARK SMILES IDX 19 88 20 89 25 90 21 91 24 92 22 93 23 94
REMARK H PARENT 3 7 83 25 51 36 8 76 16 86
REMARK Flexibility Score: inf
ROOT
ATOM      1  C   UNL A   1      30.609  31.698  25.416  1.00  0.00     0.023 C 
ENDROOT
BRANCH   1   2
ATOM      2  C   UNL A   1      31.313  31.630  26.773  1.00  0.00     0.023 C 
BRANCH   2   3
ATOM      3  C   UNL A   1      32.623  32.406  26.868  1.00  0.00     0.116 C 
BRANCH   3   4
ATOM      4  N   UNL A   1      32.436  33.768  27.342  1.00  0.00    -0.352 N 
ATOM      5  O   UNL A   1      32.686  35.548  28.699  1.00  0.00    -0.269 OA
ATOM      6  C   UNL A   1      33.085  34.442  28.346  1.00  0.00     0.251 C 
ATOM      7  H   UNL A   1      31.740  34.283  26.873  1.00  0.00     0.163 HD
BRANCH   6   8
ATOM      8  C   UNL A   1      34.250  33.832  29.022  1.00  0.00     0.039 A 
ATOM      9  C   UNL A   1      35.542  34.327  28.824  1.00  0.00     0.014 A 
ATOM     10  C   UNL A   1      34.036  32.761  29.893  1.00  0.00     0.014 A 
ATOM     11  C   UNL A   1      36.630  33.679  29.401  1.00  0.00     0.010 A 
ATOM     12  C   UNL A   1      35.122  32.150  30.524  1.00  0.00     0.010 A 
ATOM     13  C   UNL A   1      36.429  32.587  30.261  1.00  0.00    -0.014 A 
BRANCH  13  14
ATOM     14  C   UNL A   1      37.589  31.945  30.924  1.00  0.00     0.031 A 
ATOM     15  C   UNL A   1      38.022  32.363  32.299  1.00  0.00     0.074 A 
ATOM     16  C   UNL A   1      38.265  30.986  30.265  1.00  0.00     0.049 A 
ATOM     17  N   UNL A   1      39.034  31.938  33.011  1.00  0.00    -0.248 NA
ATOM     18  C   UNL A   1      37.219  33.404  32.957  1.00  0.00     0.031 C 
ATOM     19  C   UNL A   1      37.951  30.513  28.916  1.00  0.00     0.029 A 
ATOM     20  N   UNL A   1      39.359  30.245  30.633  1.00  0.00    -0.354 N 
ATOM     21  C   UNL A   1      39.005  32.671  34.189  1.00  0.00     0.074 A 
ATOM     22  C   UNL A   1      37.885  33.583  34.090  1.00  0.00     0.031 C 
ATOM     23  C   UNL A   1      38.825  29.555  28.573  1.00  0.00     0.029 A 
ATOM     24  C   UNL A   1      39.785  29.380  29.658  1.00  0.00     0.049 A 
ATOM     25  H   UNL A   1      39.794  30.325  31.513  1.00  0.00     0.167 HD
ATOM     26  C   UNL A   1      39.835  32.584  35.256  1.00  0.00     0.037 A 
ATOM     27  C   UNL A   1      40.848  28.554  29.627  1.00  0.00     0.037 A 
ATOM     28  C   UNL A   1      40.933  31.658  35.359  1.00  0.00     0.049 A 
ATOM     29  C   UNL A   1      41.755  28.479  30.819  1.00  0.00     0.074 A 
ATOM     30  C   UNL A   1      41.787  31.444  36.427  1.00  0.00     0.029 A 
ATOM     31  N   UNL A   1      41.335  30.795  34.349  1.00  0.00    -0.354 N 
ATOM     32  N   UNL A   1      41.686  29.139  31.949  1.00  0.00    -0.248 NA
ATOM     33  C   UNL A   1      42.888  27.547  30.733  1.00  0.00     0.031 C 
ATOM     34  C   UNL A   1      42.731  30.483  36.050  1.00  0.00     0.029 A 
ATOM     35  C   UNL A   1      42.442  30.068  34.759  1.00  0.00     0.049 A 
ATOM     36  H   UNL A   1      40.899  30.712  33.471  1.00  0.00     0.167 HD
ATOM     37  C   UNL A   1      42.756  28.699  32.713  1.00  0.00     0.074 A 
ATOM     38  C   UNL A   1      43.452  27.703  31.923  1.00  0.00     0.031 C 
ATOM     39  C   UNL A   1      43.128  29.088  33.957  1.00  0.00     0.037 A 
BRANCH  26  40
ATOM     40  C   UNL A   1      39.599  33.528  36.398  1.00  0.00     0.064 A 
ATOM     41  C   UNL A   1      38.798  33.176  37.494  1.00  0.00     0.173 A 
ATOM     42  C   UNL A   1      40.211  34.791  36.409  1.00  0.00     0.173 A 
ATOM     43  F   UNL A   1      38.182  31.984  37.524  1.00  0.00    -0.203 F 
ATOM     44  C   UNL A   1      38.598  34.062  38.549  1.00  0.00     0.198 A 
ATOM     45  C   UNL A   1      40.028  35.666  37.477  1.00  0.00     0.198 A 
ATOM     46  F   UNL A   1      40.990  35.174  35.388  1.00  0.00    -0.203 F 
ATOM     47  F   UNL A   1      37.796  33.721  39.567  1.00  0.00    -0.200 F 
ATOM     48  C   UNL A   1      39.217  35.304  38.542  1.00  0.00     0.200 A 
ATOM     49  F   UNL A   1      40.634  36.862  37.473  1.00  0.00    -0.200 F 
ATOM     50  F   UNL A   1      39.025  36.155  39.559  1.00  0.00    -0.200 F 
ENDBRANCH  26  40
BRANCH  27  51
ATOM     51  C   UNL A   1      41.097  27.747  28.408  1.00  0.00     0.064 A 
ATOM     52  C   UNL A   1      40.461  26.515  28.216  1.00  0.00     0.173 A 
ATOM     53  C   UNL A   1      41.929  28.225  27.385  1.00  0.00     0.173 A 
ATOM     54  F   UNL A   1      39.671  26.013  29.175  1.00  0.00    -0.203 F 
ATOM     55  C   UNL A   1      40.648  25.789  27.041  1.00  0.00     0.198 A 
ATOM     56  C   UNL A   1      42.096  27.510  26.202  1.00  0.00     0.198 A 
ATOM     57  F   UNL A   1      42.551  29.405  27.522  1.00  0.00    -0.203 F 
ATOM     58  F   UNL A   1      40.043  24.603  26.887  1.00  0.00    -0.200 F 
ATOM     59  C   UNL A   1      41.456  26.291  26.032  1.00  0.00     0.200 A 
ATOM     60  F   UNL A   1      42.864  28.008  25.223  1.00  0.00    -0.200 F 
ATOM     61  F   UNL A   1      41.619  25.602  24.895  1.00  0.00    -0.200 F 
ENDBRANCH  27  51
BRANCH  39  62
ATOM     62  C   UNL A   1      44.338  28.430  34.546  1.00  0.00     0.064 A 
ATOM     63  C   UNL A   1      44.237  27.236  35.274  1.00  0.00     0.173 A 
ATOM     64  C   UNL A   1      45.615  28.971  34.338  1.00  0.00     0.173 A 
ATOM     65  F   UNL A   1      43.035  26.690  35.512  1.00  0.00    -0.203 F 
ATOM     66  C   UNL A   1      45.373  26.615  35.785  1.00  0.00     0.198 A 
ATOM     67  C   UNL A   1      46.750  28.336  34.832  1.00  0.00     0.198 A 
ATOM     68  F   UNL A   1      45.762  30.111  33.645  1.00  0.00    -0.203 F 
ATOM     69  F   UNL A   1      45.253  25.490  36.505  1.00  0.00    -0.200 F 
ATOM     70  C   UNL A   1      46.628  27.160  35.558  1.00  0.00     0.200 A 
ATOM     71  F   UNL A   1      47.963  28.859  34.606  1.00  0.00    -0.200 F 
ATOM     72  F   UNL A   1      47.721  26.555  36.044  1.00  0.00    -0.200 F 
ENDBRANCH  39  62
ENDBRANCH  13  14
ENDBRANCH   6   8
ENDBRANCH   3   4
ENDBRANCH   2   3
ENDBRANCH   1   2
BRANCH   1  73
ATOM     73  C   UNL A   1      30.558  30.385  24.638  1.00  0.00     0.116 C 
BRANCH  73  74
ATOM     74  N   UNL A   1      30.079  30.570  23.281  1.00  0.00    -0.349 N 
ATOM     75  C   UNL A   1      29.533  29.634  22.430  1.00  0.00     0.286 C 
ATOM     76  H   UNL A   1      30.154  31.483  22.921  1.00  0.00     0.163 HD
ATOM     77  O   UNL A   1      29.347  29.964  21.260  1.00  0.00    -0.266 OA
BRANCH  75  78
ATOM     78  C   UNL A   1      29.218  28.331  22.962  1.00  0.00     0.191 A 
ATOM     79  C   UNL A   1      28.084  27.822  23.568  1.00  0.00     0.056 A 
ATOM     80  O   UNL A   1      30.184  27.366  22.921  1.00  0.00    -0.454 OA
ATOM     81  C   UNL A   1      28.383  26.488  23.937  1.00  0.00     0.048 A 
ATOM     82  C   UNL A   1      29.681  26.258  23.534  1.00  0.00     0.124 A 
BRANCH  82  83
ATOM     83  C   UNL A   1      30.613  25.117  23.689  1.00  0.00     0.191 C 
BRANCH  83  84
ATOM     84  N   UNL A   1      30.369  24.452  24.951  1.00  0.00    -0.345 N 
ATOM     85  C   UNL A   1      30.923  24.721  26.176  1.00  0.00     0.251 C 
ATOM     86  H   UNL A   1      29.721  23.712  24.928  1.00  0.00     0.164 HD
ATOM     87  O   UNL A   1      30.695  23.996  27.140  1.00  0.00    -0.269 OA
BRANCH  85  88
ATOM     88  C   UNL A   1      31.828  25.878  26.336  1.00  0.00     0.039 A 
ATOM     89  C   UNL A   1      33.162  25.821  25.916  1.00  0.00     0.015 A 
ATOM     90  C   UNL A   1      31.316  27.049  26.905  1.00  0.00     0.015 A 
ATOM     91  C   UNL A   1      34.001  26.917  26.127  1.00  0.00     0.021 A 
ATOM     92  C   UNL A   1      32.156  28.146  27.108  1.00  0.00     0.021 A 
ATOM     93  C   UNL A   1      33.496  28.071  26.729  1.00  0.00     0.041 A 
ATOM     94  Cl  UNL A   1      34.539  29.412  27.006  1.00  0.00    -0.084 Cl
ENDBRANCH  85  88
ENDBRANCH  83  84
ENDBRANCH  82  83
ENDBRANCH  75  78
ENDBRANCH  73  74
ENDBRANCH   1  73
TORSDOF 14
ENDMDL
