MODEL 1
REMARK VINA RESULT:     -12.0      0.000      0.000
REMARK SMILES N#Cc1ccc(Sc2csc(C(=O)NCCCCNC(=O)c3ccc(-c4c5nc(c(-c6c(F)c(F)c(F)c(F)c6F)c6ccc([nH]6)c(-c6c(F)c(F)c(F)c(F)c6F)c6nc(c(-c7c(F)c(F)c(F)c(F)c7F)c7ccc4[nH]7)C=C6)C=C5)cc3)c2)c(F)c1
REMARK SMILES IDX 16 1 15 2 14 3 12 4 13 5 11 7 8 8 9 9 85 10 10 11 7 12 6 13
REMARK SMILES IDX 3 14 4 15 88 16 5 17 86 18 87 19 2 20 1 21 17 22 18 23 19 24
REMARK SMILES IDX 20 25 21 27 22 28 23 29 84 30 24 31 83 32 25 33 26 34 27 35
REMARK SMILES IDX 77 36 28 37 82 38 76 39 78 40 29 41 81 42 75 43 74 44 30 46
REMARK SMILES IDX 62 47 42 48 61 49 43 50 46 51 60 52 79 53 44 54 45 55 59 57
REMARK SMILES IDX 80 58 47 59 31 60 32 61 40 62 33 63 34 64 38 65 41 66 35 67
REMARK SMILES IDX 36 68 39 69 37 70 63 71 64 72 72 73 65 74 66 75 70 76 73 77
REMARK SMILES IDX 67 78 68 79 71 80 69 81 48 82 49 83 57 84 50 85 51 86 55 87
REMARK SMILES IDX 58 88 52 89 53 90 56 91 54 92
REMARK H PARENT 14 6 19 26 78 45 46 56
REMARK Flexibility Score: inf
ROOT
ATOM      1  C   UNL A   1      32.463  30.108  26.616  1.00  0.00     0.023 C 
ENDROOT
BRANCH   1   2
ATOM      2  C   UNL A   1      31.992  29.507  25.292  1.00  0.00     0.116 C 
BRANCH   2   3
ATOM      3  N   UNL A   1      33.058  29.534  24.314  1.00  0.00    -0.351 N 
ATOM      4  C   UNL A   1      33.531  28.597  23.428  1.00  0.00     0.261 C 
ATOM      5  O   UNL A   1      34.470  28.982  22.726  1.00  0.00    -0.268 OA
ATOM      6  H   UNL A   1      33.539  30.393  24.276  1.00  0.00     0.163 HD
BRANCH   4   7
ATOM      7  C   UNL A   1      32.933  27.271  23.312  1.00  0.00     0.093 A 
ATOM      8  C   UNL A   1      32.322  25.029  23.563  1.00  0.00     0.024 A 
ATOM      9  C   UNL A   1      31.254  25.495  22.839  1.00  0.00     0.081 A 
ATOM     10  C   UNL A   1      33.325  26.019  23.752  1.00  0.00     0.041 A 
ATOM     11  S   UNL A   1      31.439  27.146  22.448  1.00  0.00    -0.137 S 
BRANCH   8  12
ATOM     12  S   UNL A   1      32.451  23.429  24.257  1.00  0.00    -0.086 SA
BRANCH  12  13
ATOM     13  C   UNL A   1      34.183  23.179  24.592  1.00  0.00     0.048 A 
ATOM     14  C   UNL A   1      36.852  22.640  25.325  1.00  0.00     0.055 A 
ATOM     15  C   UNL A   1      36.437  22.483  24.000  1.00  0.00     0.021 A 
ATOM     16  C   UNL A   1      35.949  23.110  26.278  1.00  0.00     0.060 A 
ATOM     17  C   UNL A   1      35.112  22.752  23.636  1.00  0.00     0.020 A 
ATOM     18  C   UNL A   1      34.633  23.374  25.906  1.00  0.00     0.138 A 
ATOM     19  F   UNL A   1      33.790  23.810  26.857  1.00  0.00    -0.206 F 
BRANCH  14  20
ATOM     20  C   UNL A   1      38.187  22.292  25.708  1.00  0.00     0.099 C 
ATOM     21  N   UNL A   1      39.264  21.991  26.018  1.00  0.00    -0.192 NA
ENDBRANCH  14  20
ENDBRANCH  12  13
ENDBRANCH   8  12
ENDBRANCH   4   7
ENDBRANCH   2   3
ENDBRANCH   1   2
BRANCH   1  22
ATOM     22  C   UNL A   1      31.989  31.547  26.831  1.00  0.00     0.023 C 
BRANCH  22  23
ATOM     23  C   UNL A   1      33.039  32.477  27.426  1.00  0.00     0.116 C 
BRANCH  23  24
ATOM     24  N   UNL A   1      32.565  33.841  27.611  1.00  0.00    -0.352 N 
ATOM     25  C   UNL A   1      33.026  34.772  28.514  1.00  0.00     0.251 C 
ATOM     26  H   UNL A   1      31.830  34.131  27.025  1.00  0.00     0.163 HD
ATOM     27  O   UNL A   1      32.465  35.850  28.663  1.00  0.00    -0.269 OA
BRANCH  25  28
ATOM     28  C   UNL A   1      34.203  34.416  29.326  1.00  0.00     0.039 A 
ATOM     29  C   UNL A   1      34.019  33.806  30.568  1.00  0.00     0.014 A 
ATOM     30  C   UNL A   1      35.481  34.579  28.788  1.00  0.00     0.014 A 
ATOM     31  C   UNL A   1      35.125  33.283  31.241  1.00  0.00     0.010 A 
ATOM     32  C   UNL A   1      36.562  33.977  29.413  1.00  0.00     0.010 A 
ATOM     33  C   UNL A   1      36.396  33.327  30.648  1.00  0.00    -0.014 A 
BRANCH  33  34
ATOM     34  C   UNL A   1      37.592  32.732  31.296  1.00  0.00     0.031 A 
ATOM     35  C   UNL A   1      38.285  31.578  30.629  1.00  0.00     0.074 A 
ATOM     36  C   UNL A   1      37.990  33.152  32.513  1.00  0.00     0.049 A 
ATOM     37  N   UNL A   1      39.228  30.795  31.087  1.00  0.00    -0.248 NA
ATOM     38  C   UNL A   1      37.825  31.233  29.272  1.00  0.00     0.031 C 
ATOM     39  C   UNL A   1      37.388  34.247  33.272  1.00  0.00     0.029 A 
ATOM     40  N   UNL A   1      38.985  32.684  33.336  1.00  0.00    -0.354 N 
ATOM     41  C   UNL A   1      39.454  29.858  30.089  1.00  0.00     0.074 A 
ATOM     42  C   UNL A   1      38.509  30.127  29.029  1.00  0.00     0.031 C 
ATOM     43  C   UNL A   1      38.033  34.377  34.443  1.00  0.00     0.029 A 
ATOM     44  C   UNL A   1      39.055  33.339  34.542  1.00  0.00     0.049 A 
ATOM     45  H   UNL A   1      39.591  31.950  33.085  1.00  0.00     0.167 HD
ATOM     46  C   UNL A   1      40.383  28.874  30.051  1.00  0.00     0.037 A 
ATOM     47  C   UNL A   1      39.837  33.109  35.616  1.00  0.00     0.037 A 
ATOM     48  C   UNL A   1      41.329  28.623  31.106  1.00  0.00     0.049 A 
ATOM     49  C   UNL A   1      40.831  31.976  35.569  1.00  0.00     0.074 A 
ATOM     50  C   UNL A   1      42.338  27.678  31.148  1.00  0.00     0.029 A 
ATOM     51  N   UNL A   1      41.376  29.317  32.305  1.00  0.00    -0.354 N 
ATOM     52  N   UNL A   1      41.071  31.123  34.603  1.00  0.00    -0.248 NA
ATOM     53  C   UNL A   1      41.667  31.775  36.763  1.00  0.00     0.031 C 
ATOM     54  C   UNL A   1      42.950  27.753  32.402  1.00  0.00     0.029 A 
ATOM     55  C   UNL A   1      42.381  28.802  33.107  1.00  0.00     0.049 A 
ATOM     56  H   UNL A   1      40.784  30.064  32.551  1.00  0.00     0.167 HD
ATOM     57  C   UNL A   1      42.114  30.321  35.050  1.00  0.00     0.074 A 
ATOM     58  C   UNL A   1      42.460  30.786  36.376  1.00  0.00     0.031 C 
ATOM     59  C   UNL A   1      42.735  29.297  34.414  1.00  0.00     0.037 A 
BRANCH  46  60
ATOM     60  C   UNL A   1      40.410  27.989  28.837  1.00  0.00     0.064 A 
ATOM     61  C   UNL A   1      41.164  28.316  27.699  1.00  0.00     0.173 A 
ATOM     62  C   UNL A   1      39.693  26.784  28.823  1.00  0.00     0.173 A 
ATOM     63  F   UNL A   1      41.859  29.463  27.654  1.00  0.00    -0.203 F 
ATOM     64  C   UNL A   1      41.166  27.489  26.578  1.00  0.00     0.198 A 
ATOM     65  C   UNL A   1      39.731  25.939  27.717  1.00  0.00     0.198 A 
ATOM     66  F   UNL A   1      38.960  26.418  29.885  1.00  0.00    -0.203 F 
ATOM     67  F   UNL A   1      41.841  27.855  25.480  1.00  0.00    -0.200 F 
ATOM     68  C   UNL A   1      40.457  26.297  26.592  1.00  0.00     0.200 A 
ATOM     69  F   UNL A   1      39.060  24.779  27.739  1.00  0.00    -0.200 F 
ATOM     70  F   UNL A   1      40.468  25.499  25.516  1.00  0.00    -0.200 F 
ENDBRANCH  46  60
BRANCH  47  71
ATOM     71  C   UNL A   1      39.722  33.969  36.824  1.00  0.00     0.064 A 
ATOM     72  C   UNL A   1      38.917  33.586  37.908  1.00  0.00     0.173 A 
ATOM     73  C   UNL A   1      40.392  35.198  36.917  1.00  0.00     0.173 A 
ATOM     74  F   UNL A   1      38.240  32.429  37.861  1.00  0.00    -0.203 F 
ATOM     75  C   UNL A   1      38.763  34.411  39.021  1.00  0.00     0.198 A 
ATOM     76  C   UNL A   1      40.266  36.006  38.046  1.00  0.00     0.198 A 
ATOM     77  F   UNL A   1      41.179  35.612  35.914  1.00  0.00    -0.203 F 
ATOM     78  F   UNL A   1      37.940  34.045  40.013  1.00  0.00    -0.200 F 
ATOM     79  C   UNL A   1      39.442  35.617  39.092  1.00  0.00     0.200 A 
ATOM     80  F   UNL A   1      40.938  37.162  38.119  1.00  0.00    -0.200 F 
ATOM     81  F   UNL A   1      39.294  36.409  40.162  1.00  0.00    -0.200 F 
ENDBRANCH  47  71
BRANCH  59  82
ATOM     82  C   UNL A   1      43.910  28.655  35.094  1.00  0.00     0.064 A 
ATOM     83  C   UNL A   1      43.770  27.553  35.950  1.00  0.00     0.173 A 
ATOM     84  C   UNL A   1      45.211  29.106  34.813  1.00  0.00     0.173 A 
ATOM     85  F   UNL A   1      42.550  27.090  36.261  1.00  0.00    -0.203 F 
ATOM     86  C   UNL A   1      44.886  26.938  36.513  1.00  0.00     0.198 A 
ATOM     87  C   UNL A   1      46.325  28.466  35.347  1.00  0.00     0.198 A 
ATOM     88  F   UNL A   1      45.401  30.151  33.994  1.00  0.00    -0.203 F 
ATOM     89  F   UNL A   1      44.728  25.913  37.360  1.00  0.00    -0.200 F 
ATOM     90  C   UNL A   1      46.162  27.387  36.201  1.00  0.00     0.200 A 
ATOM     91  F   UNL A   1      47.556  28.888  35.026  1.00  0.00    -0.200 F 
ATOM     92  F   UNL A   1      47.235  26.778  36.725  1.00  0.00    -0.200 F 
ENDBRANCH  59  82
ENDBRANCH  33  34
ENDBRANCH  25  28
ENDBRANCH  23  24
ENDBRANCH  22  23
ENDBRANCH   1  22
TORSDOF 14
ENDMDL
MODEL 2
REMARK VINA RESULT:     -12.0      0.781      7.406
REMARK SMILES N#Cc1ccc(Sc2csc(C(=O)NCCCCNC(=O)c3ccc(-c4c5nc(c(-c6c(F)c(F)c(F)c(F)c6F)c6ccc([nH]6)c(-c6c(F)c(F)c(F)c(F)c6F)c6nc(c(-c7c(F)c(F)c(F)c(F)c7F)c7ccc4[nH]7)C=C6)C=C5)cc3)c2)c(F)c1
REMARK SMILES IDX 16 1 15 2 14 3 12 4 13 5 11 7 8 8 9 9 85 10 10 11 7 12 6 13
REMARK SMILES IDX 3 14 4 15 88 16 5 17 86 18 87 19 2 20 1 21 17 22 18 23 19 24
REMARK SMILES IDX 20 25 21 27 22 28 23 29 84 30 24 31 83 32 25 33 26 34 27 35
REMARK SMILES IDX 77 36 28 37 82 38 76 39 78 40 29 41 81 42 75 43 74 44 30 46
REMARK SMILES IDX 62 47 42 48 61 49 43 50 46 51 60 52 79 53 44 54 45 55 59 57
REMARK SMILES IDX 80 58 47 59 31 60 32 61 40 62 33 63 34 64 38 65 41 66 35 67
REMARK SMILES IDX 36 68 39 69 37 70 63 71 64 72 72 73 65 74 66 75 70 76 73 77
REMARK SMILES IDX 67 78 68 79 71 80 69 81 48 82 49 83 57 84 50 85 51 86 55 87
REMARK SMILES IDX 58 88 52 89 53 90 56 91 54 92
REMARK H PARENT 14 6 19 26 78 45 46 56
REMARK Flexibility Score: inf
ROOT
ATOM      1  C   UNL A   1      31.733  30.798  26.871  1.00  0.00     0.023 C 
ENDROOT
BRANCH   1   2
ATOM      2  C   UNL A   1      32.277  30.116  25.615  1.00  0.00     0.116 C 
BRANCH   2   3
ATOM      3  N   UNL A   1      31.234  29.976  24.621  1.00  0.00    -0.351 N 
ATOM      4  C   UNL A   1      30.989  29.027  23.659  1.00  0.00     0.261 C 
ATOM      5  O   UNL A   1      29.978  29.234  22.981  1.00  0.00    -0.268 OA
ATOM      6  H   UNL A   1      30.570  30.704  24.639  1.00  0.00     0.163 HD
BRANCH   4   7
ATOM      7  C   UNL A   1      31.843  27.856  23.492  1.00  0.00     0.093 A 
ATOM      8  C   UNL A   1      32.747  25.703  23.402  1.00  0.00     0.024 A 
ATOM      9  C   UNL A   1      33.633  26.374  22.599  1.00  0.00     0.081 A 
ATOM     10  C   UNL A   1      31.781  26.566  23.987  1.00  0.00     0.041 A 
ATOM     11  S   UNL A   1      33.253  28.036  22.504  1.00  0.00    -0.137 S 
BRANCH   8  12
ATOM     12  S   UNL A   1      32.723  23.972  23.654  1.00  0.00    -0.086 SA
BRANCH  12  13
ATOM     13  C   UNL A   1      34.376  23.527  24.147  1.00  0.00     0.048 A 
ATOM     14  C   UNL A   1      36.885  22.691  25.125  1.00  0.00     0.055 A 
ATOM     15  C   UNL A   1      36.576  22.562  23.767  1.00  0.00     0.021 A 
ATOM     16  C   UNL A   1      35.962  23.279  25.988  1.00  0.00     0.060 A 
ATOM     17  C   UNL A   1      35.330  22.979  23.283  1.00  0.00     0.020 A 
ATOM     18  C   UNL A   1      34.725  23.689  25.496  1.00  0.00     0.138 A 
ATOM     19  F   UNL A   1      33.857  24.235  26.364  1.00  0.00    -0.206 F 
BRANCH  14  20
ATOM     20  C   UNL A   1      38.130  22.196  25.630  1.00  0.00     0.099 C 
ATOM     21  N   UNL A   1      39.137  21.778  26.030  1.00  0.00    -0.192 NA
ENDBRANCH  14  20
ENDBRANCH  12  13
ENDBRANCH   8  12
ENDBRANCH   4   7
ENDBRANCH   2   3
ENDBRANCH   1   2
BRANCH   1  22
ATOM     22  C   UNL A   1      31.650  32.322  26.743  1.00  0.00     0.023 C 
BRANCH  22  23
ATOM     23  C   UNL A   1      32.804  33.073  27.394  1.00  0.00     0.116 C 
BRANCH  23  24
ATOM     24  N   UNL A   1      32.473  34.447  27.747  1.00  0.00    -0.352 N 
ATOM     25  C   UNL A   1      33.010  35.203  28.764  1.00  0.00     0.251 C 
ATOM     26  H   UNL A   1      31.785  34.885  27.196  1.00  0.00     0.163 HD
ATOM     27  O   UNL A   1      32.563  36.308  29.043  1.00  0.00    -0.269 OA
BRANCH  25  28
ATOM     28  C   UNL A   1      34.125  34.624  29.534  1.00  0.00     0.039 A 
ATOM     29  C   UNL A   1      33.861  33.984  30.745  1.00  0.00     0.014 A 
ATOM     30  C   UNL A   1      35.407  34.615  28.981  1.00  0.00     0.014 A 
ATOM     31  C   UNL A   1      34.878  33.259  31.370  1.00  0.00     0.010 A 
ATOM     32  C   UNL A   1      36.387  33.819  29.553  1.00  0.00     0.010 A 
ATOM     33  C   UNL A   1      36.135  33.136  30.755  1.00  0.00    -0.014 A 
BRANCH  33  34
ATOM     34  C   UNL A   1      37.229  32.327  31.348  1.00  0.00     0.031 A 
ATOM     35  C   UNL A   1      37.757  32.697  32.705  1.00  0.00     0.074 A 
ATOM     36  C   UNL A   1      37.812  31.341  30.638  1.00  0.00     0.049 A 
ATOM     37  N   UNL A   1      38.811  32.252  33.338  1.00  0.00    -0.248 NA
ATOM     38  C   UNL A   1      37.015  33.741  33.434  1.00  0.00     0.031 C 
ATOM     39  C   UNL A   1      37.406  30.902  29.304  1.00  0.00     0.029 A 
ATOM     40  N   UNL A   1      38.892  30.546  30.936  1.00  0.00    -0.354 N 
ATOM     41  C   UNL A   1      38.870  32.975  34.521  1.00  0.00     0.074 A 
ATOM     42  C   UNL A   1      37.787  33.931  34.491  1.00  0.00     0.031 C 
ATOM     43  C   UNL A   1      38.216  29.908  28.903  1.00  0.00     0.029 A 
ATOM     44  C   UNL A   1      39.233  29.679  29.926  1.00  0.00     0.049 A 
ATOM     45  H   UNL A   1      39.375  30.593  31.793  1.00  0.00     0.167 HD
ATOM     46  C   UNL A   1      39.739  32.838  35.551  1.00  0.00     0.037 A 
ATOM     47  C   UNL A   1      40.265  28.818  29.827  1.00  0.00     0.037 A 
ATOM     48  C   UNL A   1      40.805  31.873  35.577  1.00  0.00     0.049 A 
ATOM     49  C   UNL A   1      41.248  28.718  30.966  1.00  0.00     0.074 A 
ATOM     50  C   UNL A   1      41.715  31.624  36.589  1.00  0.00     0.029 A 
ATOM     51  N   UNL A   1      41.109  31.004  34.540  1.00  0.00    -0.354 N 
ATOM     52  N   UNL A   1      41.270  29.372  32.102  1.00  0.00    -0.248 NA
ATOM     53  C   UNL A   1      42.349  27.755  30.811  1.00  0.00     0.031 C 
ATOM     54  C   UNL A   1      42.613  30.655  36.137  1.00  0.00     0.029 A 
ATOM     55  C   UNL A   1      42.211  30.236  34.878  1.00  0.00     0.049 A 
ATOM     56  H   UNL A   1      40.617  30.942  33.690  1.00  0.00     0.167 HD
ATOM     57  C   UNL A   1      42.351  28.868  32.814  1.00  0.00     0.074 A 
ATOM     58  C   UNL A   1      42.963  27.854  31.982  1.00  0.00     0.031 C 
ATOM     59  C   UNL A   1      42.790  29.207  34.051  1.00  0.00     0.037 A 
BRANCH  46  60
ATOM     60  C   UNL A   1      39.578  33.762  36.724  1.00  0.00     0.064 A 
ATOM     61  C   UNL A   1      40.175  35.032  36.754  1.00  0.00     0.173 A 
ATOM     62  C   UNL A   1      38.793  33.383  37.823  1.00  0.00     0.173 A 
ATOM     63  F   UNL A   1      40.946  35.441  35.736  1.00  0.00    -0.203 F 
ATOM     64  C   UNL A   1      40.024  35.869  37.857  1.00  0.00     0.198 A 
ATOM     65  C   UNL A   1      38.610  34.239  38.905  1.00  0.00     0.198 A 
ATOM     66  F   UNL A   1      38.193  32.182  37.846  1.00  0.00    -0.203 F 
ATOM     67  F   UNL A   1      40.658  37.050  37.890  1.00  0.00    -0.200 F 
ATOM     68  C   UNL A   1      39.235  35.476  38.927  1.00  0.00     0.200 A 
ATOM     69  F   UNL A   1      37.831  33.864  39.930  1.00  0.00    -0.200 F 
ATOM     70  F   UNL A   1      39.084  36.287  39.983  1.00  0.00    -0.200 F 
ENDBRANCH  46  60
BRANCH  47  71
ATOM     71  C   UNL A   1      40.423  27.975  28.611  1.00  0.00     0.064 A 
ATOM     72  C   UNL A   1      39.823  26.710  28.529  1.00  0.00     0.173 A 
ATOM     73  C   UNL A   1      41.192  28.401  27.518  1.00  0.00     0.173 A 
ATOM     74  F   UNL A   1      39.094  26.247  29.555  1.00  0.00    -0.203 F 
ATOM     75  C   UNL A   1      40.011  25.892  27.415  1.00  0.00     0.198 A 
ATOM     76  C   UNL A   1      41.349  27.598  26.389  1.00  0.00     0.198 A 
ATOM     77  F   UNL A   1      41.783  29.604  27.539  1.00  0.00    -0.203 F 
ATOM     78  F   UNL A   1      39.475  24.664  27.391  1.00  0.00    -0.200 F 
ATOM     79  C   UNL A   1      40.769  26.339  26.344  1.00  0.00     0.200 A 
ATOM     80  F   UNL A   1      42.066  28.041  25.349  1.00  0.00    -0.200 F 
ATOM     81  F   UNL A   1      40.948  25.554  25.273  1.00  0.00    -0.200 F 
ENDBRANCH  47  71
BRANCH  59  82
ATOM     82  C   UNL A   1      43.937  28.428  34.630  1.00  0.00     0.064 A 
ATOM     83  C   UNL A   1      45.266  28.861  34.524  1.00  0.00     0.173 A 
ATOM     84  C   UNL A   1      43.683  27.265  35.376  1.00  0.00     0.173 A 
ATOM     85  F   UNL A   1      45.565  29.958  33.813  1.00  0.00    -0.203 F 
ATOM     86  C   UNL A   1      46.300  28.150  35.130  1.00  0.00     0.198 A 
ATOM     87  C   UNL A   1      44.714  26.579  36.011  1.00  0.00     0.198 A 
ATOM     88  F   UNL A   1      42.428  26.811  35.515  1.00  0.00    -0.203 F 
ATOM     89  F   UNL A   1      47.567  28.559  34.982  1.00  0.00    -0.200 F 
ATOM     90  C   UNL A   1      46.022  27.018  35.882  1.00  0.00     0.200 A 
ATOM     91  F   UNL A   1      44.439  25.498  36.755  1.00  0.00    -0.200 F 
ATOM     92  F   UNL A   1      47.016  26.350  36.483  1.00  0.00    -0.200 F 
ENDBRANCH  59  82
ENDBRANCH  33  34
ENDBRANCH  25  28
ENDBRANCH  23  24
ENDBRANCH  22  23
ENDBRANCH   1  22
TORSDOF 14
ENDMDL
MODEL 3
REMARK VINA RESULT:     -11.8      1.303      2.183
REMARK SMILES N#Cc1ccc(Sc2csc(C(=O)NCCCCNC(=O)c3ccc(-c4c5nc(c(-c6c(F)c(F)c(F)c(F)c6F)c6ccc([nH]6)c(-c6c(F)c(F)c(F)c(F)c6F)c6nc(c(-c7c(F)c(F)c(F)c(F)c7F)c7ccc4[nH]7)C=C6)C=C5)cc3)c2)c(F)c1
REMARK SMILES IDX 16 1 15 2 14 3 12 4 13 5 11 7 8 8 9 9 85 10 10 11 7 12 6 13
REMARK SMILES IDX 3 14 4 15 88 16 5 17 86 18 87 19 2 20 1 21 17 22 18 23 19 24
REMARK SMILES IDX 20 25 21 27 22 28 23 29 84 30 24 31 83 32 25 33 26 34 27 35
REMARK SMILES IDX 77 36 28 37 82 38 76 39 78 40 29 41 81 42 75 43 74 44 30 46
REMARK SMILES IDX 62 47 42 48 61 49 43 50 46 51 60 52 79 53 44 54 45 55 59 57
REMARK SMILES IDX 80 58 47 59 31 60 32 61 40 62 33 63 34 64 38 65 41 66 35 67
REMARK SMILES IDX 36 68 39 69 37 70 63 71 64 72 72 73 65 74 66 75 70 76 73 77
REMARK SMILES IDX 67 78 68 79 71 80 69 81 48 82 49 83 57 84 50 85 51 86 55 87
REMARK SMILES IDX 58 88 52 89 53 90 56 91 54 92
REMARK H PARENT 14 6 19 26 78 45 46 56
REMARK Flexibility Score: inf
ROOT
ATOM      1  C   UNL A   1      32.517  30.130  26.363  1.00  0.00     0.023 C 
ENDROOT
BRANCH   1   2
ATOM      2  C   UNL A   1      31.915  29.696  25.026  1.00  0.00     0.116 C 
BRANCH   2   3
ATOM      3  N   UNL A   1      32.954  29.535  24.030  1.00  0.00    -0.351 N 
ATOM      4  C   UNL A   1      33.569  28.427  23.500  1.00  0.00     0.261 C 
ATOM      5  O   UNL A   1      34.425  28.676  22.645  1.00  0.00    -0.268 OA
ATOM      6  H   UNL A   1      33.284  30.387  23.662  1.00  0.00     0.163 HD
BRANCH   4   7
ATOM      7  C   UNL A   1      33.201  27.073  23.897  1.00  0.00     0.093 A 
ATOM      8  C   UNL A   1      32.774  25.084  25.048  1.00  0.00     0.024 A 
ATOM      9  C   UNL A   1      32.022  24.880  23.918  1.00  0.00     0.081 A 
ATOM     10  C   UNL A   1      33.520  26.293  24.994  1.00  0.00     0.041 A 
ATOM     11  S   UNL A   1      32.172  26.183  22.826  1.00  0.00    -0.137 S 
BRANCH   8  12
ATOM     12  S   UNL A   1      32.791  24.041  26.451  1.00  0.00    -0.086 SA
BRANCH  12  13
ATOM     13  C   UNL A   1      33.114  22.400  25.838  1.00  0.00     0.048 A 
ATOM     14  C   UNL A   1      33.452  19.851  24.680  1.00  0.00     0.055 A 
ATOM     15  C   UNL A   1      34.565  20.628  25.018  1.00  0.00     0.021 A 
ATOM     16  C   UNL A   1      32.171  20.325  24.961  1.00  0.00     0.060 A 
ATOM     17  C   UNL A   1      34.396  21.893  25.595  1.00  0.00     0.020 A 
ATOM     18  C   UNL A   1      32.015  21.585  25.533  1.00  0.00     0.138 A 
ATOM     19  F   UNL A   1      30.763  22.011  25.772  1.00  0.00    -0.206 F 
BRANCH  14  20
ATOM     20  C   UNL A   1      33.627  18.591  24.023  1.00  0.00     0.099 C 
ATOM     21  N   UNL A   1      33.750  17.566  23.493  1.00  0.00    -0.192 NA
ENDBRANCH  14  20
ENDBRANCH  12  13
ENDBRANCH   8  12
ENDBRANCH   4   7
ENDBRANCH   2   3
ENDBRANCH   1   2
BRANCH   1  22
ATOM     22  C   UNL A   1      31.982  31.476  26.858  1.00  0.00     0.023 C 
BRANCH  22  23
ATOM     23  C   UNL A   1      33.040  32.392  27.460  1.00  0.00     0.116 C 
BRANCH  23  24
ATOM     24  N   UNL A   1      32.588  33.766  27.625  1.00  0.00    -0.352 N 
ATOM     25  C   UNL A   1      33.057  34.701  28.520  1.00  0.00     0.251 C 
ATOM     26  H   UNL A   1      31.862  34.061  27.029  1.00  0.00     0.163 HD
ATOM     27  O   UNL A   1      32.513  35.790  28.651  1.00  0.00    -0.269 OA
BRANCH  25  28
ATOM     28  C   UNL A   1      34.222  34.336  29.346  1.00  0.00     0.039 A 
ATOM     29  C   UNL A   1      34.020  33.692  30.567  1.00  0.00     0.014 A 
ATOM     30  C   UNL A   1      35.508  34.525  28.837  1.00  0.00     0.014 A 
ATOM     31  C   UNL A   1      35.118  33.162  31.249  1.00  0.00     0.010 A 
ATOM     32  C   UNL A   1      36.584  33.918  29.468  1.00  0.00     0.010 A 
ATOM     33  C   UNL A   1      36.400  33.234  30.681  1.00  0.00    -0.014 A 
BRANCH  33  34
ATOM     34  C   UNL A   1      37.590  32.634  31.337  1.00  0.00     0.031 A 
ATOM     35  C   UNL A   1      38.297  31.493  30.662  1.00  0.00     0.074 A 
ATOM     36  C   UNL A   1      37.968  33.036  32.566  1.00  0.00     0.049 A 
ATOM     37  N   UNL A   1      39.237  30.708  31.122  1.00  0.00    -0.248 NA
ATOM     38  C   UNL A   1      37.858  31.168  29.294  1.00  0.00     0.031 C 
ATOM     39  C   UNL A   1      37.350  34.117  33.333  1.00  0.00     0.029 A 
ATOM     40  N   UNL A   1      38.954  32.560  33.396  1.00  0.00    -0.354 N 
ATOM     41  C   UNL A   1      39.481  29.788  30.112  1.00  0.00     0.074 A 
ATOM     42  C   UNL A   1      38.550  30.069  29.043  1.00  0.00     0.031 C 
ATOM     43  C   UNL A   1      37.978  34.231  34.516  1.00  0.00     0.029 A 
ATOM     44  C   UNL A   1      39.003  33.196  34.613  1.00  0.00     0.049 A 
ATOM     45  H   UNL A   1      39.566  31.833  33.143  1.00  0.00     0.167 HD
ATOM     46  C   UNL A   1      40.415  28.808  30.072  1.00  0.00     0.037 A 
ATOM     47  C   UNL A   1      39.771  32.952  35.694  1.00  0.00     0.037 A 
ATOM     48  C   UNL A   1      41.347  28.545  31.136  1.00  0.00     0.049 A 
ATOM     49  C   UNL A   1      40.770  31.825  35.644  1.00  0.00     0.074 A 
ATOM     50  C   UNL A   1      42.360  27.604  31.179  1.00  0.00     0.029 A 
ATOM     51  N   UNL A   1      41.374  29.220  32.347  1.00  0.00    -0.354 N 
ATOM     52  N   UNL A   1      41.028  30.988  34.668  1.00  0.00    -0.248 NA
ATOM     53  C   UNL A   1      41.590  31.609  36.846  1.00  0.00     0.031 C 
ATOM     54  C   UNL A   1      42.953  27.661  32.442  1.00  0.00     0.029 A 
ATOM     55  C   UNL A   1      42.369  28.696  33.155  1.00  0.00     0.049 A 
ATOM     56  H   UNL A   1      40.775  29.960  32.596  1.00  0.00     0.167 HD
ATOM     57  C   UNL A   1      42.068  30.183  35.117  1.00  0.00     0.074 A 
ATOM     58  C   UNL A   1      42.393  30.629  36.455  1.00  0.00     0.031 C 
ATOM     59  C   UNL A   1      42.702  29.173  34.474  1.00  0.00     0.037 A 
BRANCH  46  60
ATOM     60  C   UNL A   1      40.463  27.942  28.846  1.00  0.00     0.064 A 
ATOM     61  C   UNL A   1      39.744  26.740  28.759  1.00  0.00     0.173 A 
ATOM     62  C   UNL A   1      41.219  28.334  27.731  1.00  0.00     0.173 A 
ATOM     63  F   UNL A   1      39.014  26.312  29.799  1.00  0.00    -0.203 F 
ATOM     64  C   UNL A   1      39.811  25.945  27.617  1.00  0.00     0.198 A 
ATOM     65  C   UNL A   1      41.251  27.558  26.576  1.00  0.00     0.198 A 
ATOM     66  F   UNL A   1      41.923  29.476  27.756  1.00  0.00    -0.203 F 
ATOM     67  F   UNL A   1      39.168  24.770  27.583  1.00  0.00    -0.200 F 
ATOM     68  C   UNL A   1      40.557  26.359  26.524  1.00  0.00     0.200 A 
ATOM     69  F   UNL A   1      41.957  27.969  25.514  1.00  0.00    -0.200 F 
ATOM     70  F   UNL A   1      40.614  25.596  25.423  1.00  0.00    -0.200 F 
ENDBRANCH  46  60
BRANCH  47  71
ATOM     71  C   UNL A   1      39.635  33.793  36.914  1.00  0.00     0.064 A 
ATOM     72  C   UNL A   1      38.808  33.395  37.975  1.00  0.00     0.173 A 
ATOM     73  C   UNL A   1      40.306  35.018  37.040  1.00  0.00     0.173 A 
ATOM     74  F   UNL A   1      38.128  32.241  37.897  1.00  0.00    -0.203 F 
ATOM     75  C   UNL A   1      38.634  34.202  39.098  1.00  0.00     0.198 A 
ATOM     76  C   UNL A   1      40.160  35.808  38.180  1.00  0.00     0.198 A 
ATOM     77  F   UNL A   1      41.114  35.446  36.059  1.00  0.00    -0.203 F 
ATOM     78  F   UNL A   1      37.791  33.822  40.069  1.00  0.00    -0.200 F 
ATOM     79  C   UNL A   1      39.315  35.405  39.202  1.00  0.00     0.200 A 
ATOM     80  F   UNL A   1      40.834  36.960  38.284  1.00  0.00    -0.200 F 
ATOM     81  F   UNL A   1      39.149  36.180  40.282  1.00  0.00    -0.200 F 
ENDBRANCH  47  71
BRANCH  59  82
ATOM     82  C   UNL A   1      43.871  28.524  35.162  1.00  0.00     0.064 A 
ATOM     83  C   UNL A   1      45.162  29.069  35.119  1.00  0.00     0.173 A 
ATOM     84  C   UNL A   1      43.668  27.377  35.947  1.00  0.00     0.173 A 
ATOM     85  F   UNL A   1      45.412  30.156  34.374  1.00  0.00    -0.203 F 
ATOM     86  C   UNL A   1      46.210  28.480  35.822  1.00  0.00     0.198 A 
ATOM     87  C   UNL A   1      44.709  26.813  36.678  1.00  0.00     0.198 A 
ATOM     88  F   UNL A   1      42.450  26.820  36.030  1.00  0.00    -0.203 F 
ATOM     89  F   UNL A   1      47.444  28.992  35.734  1.00  0.00    -0.200 F 
ATOM     90  C   UNL A   1      45.980  27.361  36.611  1.00  0.00     0.200 A 
ATOM     91  F   UNL A   1      44.478  25.746  37.456  1.00  0.00    -0.200 F 
ATOM     92  F   UNL A   1      46.985  26.811  37.305  1.00  0.00    -0.200 F 
ENDBRANCH  59  82
ENDBRANCH  33  34
ENDBRANCH  25  28
ENDBRANCH  23  24
ENDBRANCH  22  23
ENDBRANCH   1  22
TORSDOF 14
ENDMDL
