MODEL 1
REMARK VINA RESULT:     -12.1      0.000      0.000
REMARK SMILES Cc1cc(N[C@@H]2C=C[C@@H](C(=O)NCCCCNC(=O)c3ccc(-c4c5nc(c(-c6c(F)c(F)c(F)c(F)c6F)c6ccc([nH]6)c(-c6c(F)c(F)c(F)c(F)c6F)c6nc(c(-c7c(F)c(F)c(F)c(F)c7F)c7ccc4[nH]7)C=C6)C=C5)cc3)C2)nc(C)n1
REMARK SMILES IDX 14 1 13 2 12 3 10 4 11 5 9 7 6 8 7 9 83 10 8 11 5 12 4 14
REMARK SMILES IDX 1 15 2 16 3 17 87 18 85 19 84 20 86 21 15 22 16 23 17 24
REMARK SMILES IDX 18 25 19 27 20 28 21 29 82 30 22 31 81 32 23 33 24 34 25 35
REMARK SMILES IDX 75 36 26 37 80 38 74 39 76 40 27 41 79 42 73 43 72 44 28 46
REMARK SMILES IDX 60 47 40 48 59 49 41 50 44 51 58 52 77 53 42 54 43 55 57 57
REMARK SMILES IDX 78 58 45 59 29 60 30 61 38 62 31 63 32 64 36 65 39 66 33 67
REMARK SMILES IDX 34 68 37 69 35 70 61 71 62 72 70 73 63 74 64 75 68 76 71 77
REMARK SMILES IDX 65 78 66 79 69 80 67 81 46 82 47 83 55 84 48 85 49 86 53 87
REMARK SMILES IDX 56 88 50 89 51 90 54 91 52 92
REMARK H PARENT 12 6 5 13 17 26 76 45 44 56
REMARK Flexibility Score: inf
ROOT
ATOM      1  C   UNL A   1      31.620  30.861  26.093  1.00  0.00     0.023 C 
ENDROOT
BRANCH   1   2
ATOM      2  C   UNL A   1      32.266  29.809  26.987  1.00  0.00     0.116 C 
BRANCH   2   3
ATOM      3  N   UNL A   1      31.431  28.630  27.090  1.00  0.00    -0.356 N 
ATOM      4  C   UNL A   1      31.661  27.352  26.696  1.00  0.00     0.227 C 
ATOM      5  O   UNL A   1      30.761  26.530  26.893  1.00  0.00    -0.274 OA
ATOM      6  H   UNL A   1      30.557  28.780  27.516  1.00  0.00     0.163 HD
BRANCH   4   7
ATOM      7  C   UNL A   1      32.977  26.920  26.064  1.00  0.00     0.103 C 
ATOM      8  C   UNL A   1      33.809  25.033  24.729  1.00  0.00     0.104 C 
ATOM      9  C   UNL A   1      33.540  26.235  23.884  1.00  0.00    -0.006 C 
ATOM     10  C   UNL A   1      33.300  25.419  26.129  1.00  0.00     0.046 C 
ATOM     11  C   UNL A   1      33.069  27.264  24.604  1.00  0.00    -0.016 C 
BRANCH   8  12
ATOM     12  N   UNL A   1      35.200  24.658  24.675  1.00  0.00    -0.364 N 
ATOM     13  H   UNL A   1      35.810  25.393  24.436  1.00  0.00     0.162 HD
BRANCH  12  14
ATOM     14  C   UNL A   1      35.821  23.460  24.897  1.00  0.00     0.130 A 
ATOM     15  C   UNL A   1      39.016  21.882  26.020  1.00  0.00     0.067 C 
ATOM     16  C   UNL A   1      37.607  22.050  25.537  1.00  0.00     0.043 A 
ATOM     17  C   UNL A   1      37.143  23.313  25.237  1.00  0.00     0.070 A 
ATOM     18  N   UNL A   1      36.831  20.963  25.430  1.00  0.00    -0.238 NA
ATOM     19  C   UNL A   1      35.568  21.177  25.023  1.00  0.00     0.127 A 
ATOM     20  N   UNL A   1      35.028  22.387  24.770  1.00  0.00    -0.216 NA
ATOM     21  C   UNL A   1      34.697  19.981  24.812  1.00  0.00     0.090 C 
ENDBRANCH  12  14
ENDBRANCH   8  12
ENDBRANCH   4   7
ENDBRANCH   2   3
ENDBRANCH   1   2
BRANCH   1  22
ATOM     22  C   UNL A   1      31.402  32.209  26.776  1.00  0.00     0.023 C 
BRANCH  22  23
ATOM     23  C   UNL A   1      32.683  32.901  27.223  1.00  0.00     0.116 C 
BRANCH  23  24
ATOM     24  N   UNL A   1      32.439  34.258  27.690  1.00  0.00    -0.352 N 
ATOM     25  C   UNL A   1      33.045  34.918  28.728  1.00  0.00     0.251 C 
ATOM     26  H   UNL A   1      31.753  34.767  27.200  1.00  0.00     0.163 HD
ATOM     27  O   UNL A   1      32.631  36.003  29.122  1.00  0.00    -0.269 OA
BRANCH  25  28
ATOM     28  C   UNL A   1      34.203  34.281  29.373  1.00  0.00     0.039 A 
ATOM     29  C   UNL A   1      35.482  34.537  28.877  1.00  0.00     0.014 A 
ATOM     30  C   UNL A   1      34.009  33.476  30.500  1.00  0.00     0.014 A 
ATOM     31  C   UNL A   1      36.586  34.008  29.542  1.00  0.00     0.010 A 
ATOM     32  C   UNL A   1      35.111  32.998  31.193  1.00  0.00     0.010 A 
ATOM     33  C   UNL A   1      36.405  33.247  30.708  1.00  0.00    -0.014 A 
BRANCH  33  34
ATOM     34  C   UNL A   1      37.553  32.620  31.394  1.00  0.00     0.031 A 
ATOM     35  C   UNL A   1      38.271  31.489  30.717  1.00  0.00     0.074 A 
ATOM     36  C   UNL A   1      37.917  33.030  32.622  1.00  0.00     0.049 A 
ATOM     37  N   UNL A   1      39.248  30.743  31.161  1.00  0.00    -0.248 NA
ATOM     38  C   UNL A   1      37.807  31.135  29.365  1.00  0.00     0.031 C 
ATOM     39  C   UNL A   1      37.278  34.106  33.378  1.00  0.00     0.029 A 
ATOM     40  N   UNL A   1      38.910  32.579  33.452  1.00  0.00    -0.354 N 
ATOM     41  C   UNL A   1      39.512  29.834  30.147  1.00  0.00     0.074 A 
ATOM     42  C   UNL A   1      38.558  30.080  29.090  1.00  0.00     0.031 C 
ATOM     43  C   UNL A   1      37.907  34.243  34.559  1.00  0.00     0.029 A 
ATOM     44  C   UNL A   1      38.971  33.246  34.650  1.00  0.00     0.049 A 
ATOM     45  H   UNL A   1      39.522  31.846  33.212  1.00  0.00     0.167 HD
ATOM     46  C   UNL A   1      40.485  28.896  30.093  1.00  0.00     0.037 A 
ATOM     47  C   UNL A   1      39.792  33.064  35.700  1.00  0.00     0.037 A 
ATOM     48  C   UNL A   1      41.442  28.669  31.140  1.00  0.00     0.049 A 
ATOM     49  C   UNL A   1      40.843  31.988  35.630  1.00  0.00     0.074 A 
ATOM     50  C   UNL A   1      42.493  27.770  31.170  1.00  0.00     0.029 A 
ATOM     51  N   UNL A   1      41.464  29.353  32.346  1.00  0.00    -0.354 N 
ATOM     52  N   UNL A   1      41.112  31.157  34.652  1.00  0.00    -0.248 NA
ATOM     53  C   UNL A   1      41.704  31.826  36.810  1.00  0.00     0.031 C 
ATOM     54  C   UNL A   1      43.129  27.886  32.409  1.00  0.00     0.029 A 
ATOM     55  C   UNL A   1      42.499  28.883  33.137  1.00  0.00     0.049 A 
ATOM     56  H   UNL A   1      40.836  30.068  32.602  1.00  0.00     0.167 HD
ATOM     57  C   UNL A   1      42.178  30.383  35.091  1.00  0.00     0.074 A 
ATOM     58  C   UNL A   1      42.520  30.858  36.415  1.00  0.00     0.031 C 
ATOM     59  C   UNL A   1      42.813  29.368  34.456  1.00  0.00     0.037 A 
BRANCH  46  60
ATOM     60  C   UNL A   1      40.563  28.058  28.853  1.00  0.00     0.064 A 
ATOM     61  C   UNL A   1      39.847  26.856  28.740  1.00  0.00     0.173 A 
ATOM     62  C   UNL A   1      41.343  28.465  27.762  1.00  0.00     0.173 A 
ATOM     63  F   UNL A   1      39.104  26.413  29.765  1.00  0.00    -0.203 F 
ATOM     64  C   UNL A   1      39.927  26.082  27.586  1.00  0.00     0.198 A 
ATOM     65  C   UNL A   1      41.399  27.702  26.599  1.00  0.00     0.198 A 
ATOM     66  F   UNL A   1      42.047  29.606  27.823  1.00  0.00    -0.203 F 
ATOM     67  F   UNL A   1      39.271  24.916  27.516  1.00  0.00    -0.200 F 
ATOM     68  C   UNL A   1      40.697  26.509  26.514  1.00  0.00     0.200 A 
ATOM     69  F   UNL A   1      42.138  28.120  25.561  1.00  0.00    -0.200 F 
ATOM     70  F   UNL A   1      40.768  25.767  25.401  1.00  0.00    -0.200 F 
ENDBRANCH  46  60
BRANCH  47  71
ATOM     71  C   UNL A   1      39.673  33.938  36.894  1.00  0.00     0.064 A 
ATOM     72  C   UNL A   1      40.348  35.165  36.952  1.00  0.00     0.173 A 
ATOM     73  C   UNL A   1      38.883  33.573  37.993  1.00  0.00     0.173 A 
ATOM     74  F   UNL A   1      41.133  35.546  35.933  1.00  0.00    -0.203 F 
ATOM     75  C   UNL A   1      40.247  35.990  38.069  1.00  0.00     0.198 A 
ATOM     76  C   UNL A   1      38.765  34.409  39.102  1.00  0.00     0.198 A 
ATOM     77  F   UNL A   1      38.217  32.410  37.985  1.00  0.00    -0.203 F 
ATOM     78  F   UNL A   1      40.929  37.142  38.114  1.00  0.00    -0.200 F 
ATOM     79  C   UNL A   1      39.450  35.615  39.141  1.00  0.00     0.200 A 
ATOM     80  F   UNL A   1      37.986  34.048  40.131  1.00  0.00    -0.200 F 
ATOM     81  F   UNL A   1      39.348  36.412  40.214  1.00  0.00    -0.200 F 
ENDBRANCH  47  71
BRANCH  59  82
ATOM     82  C   UNL A   1      43.943  28.703  35.185  1.00  0.00     0.064 A 
ATOM     83  C   UNL A   1      43.730  27.566  35.977  1.00  0.00     0.173 A 
ATOM     84  C   UNL A   1      45.258  29.173  35.044  1.00  0.00     0.173 A 
ATOM     85  F   UNL A   1      42.489  27.089  36.152  1.00  0.00    -0.203 F 
ATOM     86  C   UNL A   1      44.792  26.931  36.615  1.00  0.00     0.198 A 
ATOM     87  C   UNL A   1      46.320  28.520  35.662  1.00  0.00     0.198 A 
ATOM     88  F   UNL A   1      45.513  30.254  34.292  1.00  0.00    -0.203 F 
ATOM     89  F   UNL A   1      44.562  25.867  37.396  1.00  0.00    -0.200 F 
ATOM     90  C   UNL A   1      46.086  27.403  36.450  1.00  0.00     0.200 A 
ATOM     91  F   UNL A   1      47.571  28.968  35.490  1.00  0.00    -0.200 F 
ATOM     92  F   UNL A   1      47.108  26.784  37.055  1.00  0.00    -0.200 F 
ENDBRANCH  59  82
ENDBRANCH  33  34
ENDBRANCH  25  28
ENDBRANCH  23  24
ENDBRANCH  22  23
ENDBRANCH   1  22
TORSDOF 13
ENDMDL
MODEL 2
REMARK VINA RESULT:     -12.1      5.673     11.256
REMARK SMILES Cc1cc(N[C@@H]2C=C[C@@H](C(=O)NCCCCNC(=O)c3ccc(-c4c5nc(c(-c6c(F)c(F)c(F)c(F)c6F)c6ccc([nH]6)c(-c6c(F)c(F)c(F)c(F)c6F)c6nc(c(-c7c(F)c(F)c(F)c(F)c7F)c7ccc4[nH]7)C=C6)C=C5)cc3)C2)nc(C)n1
REMARK SMILES IDX 14 1 13 2 12 3 10 4 11 5 9 7 6 8 7 9 83 10 8 11 5 12 4 14
REMARK SMILES IDX 1 15 2 16 3 17 87 18 85 19 84 20 86 21 15 22 16 23 17 24
REMARK SMILES IDX 18 25 19 27 20 28 21 29 82 30 22 31 81 32 23 33 24 34 25 35
REMARK SMILES IDX 75 36 26 37 80 38 74 39 76 40 27 41 79 42 73 43 72 44 28 46
REMARK SMILES IDX 60 47 40 48 59 49 41 50 44 51 58 52 77 53 42 54 43 55 57 57
REMARK SMILES IDX 78 58 45 59 29 60 30 61 38 62 31 63 32 64 36 65 39 66 33 67
REMARK SMILES IDX 34 68 37 69 35 70 61 71 62 72 70 73 63 74 64 75 68 76 71 77
REMARK SMILES IDX 65 78 66 79 69 80 67 81 46 82 47 83 55 84 48 85 49 86 53 87
REMARK SMILES IDX 56 88 50 89 51 90 54 91 52 92
REMARK H PARENT 12 6 5 13 17 26 76 45 44 56
REMARK Flexibility Score: inf
ROOT
ATOM      1  C   UNL A   1      37.196  21.173  24.700  1.00  0.00     0.023 C 
ENDROOT
BRANCH   1   2
ATOM      2  C   UNL A   1      35.704  20.887  24.821  1.00  0.00     0.116 C 
BRANCH   2   3
ATOM      3  N   UNL A   1      35.245  21.086  26.180  1.00  0.00    -0.356 N 
ATOM      4  C   UNL A   1      34.260  21.881  26.668  1.00  0.00     0.227 C 
ATOM      5  O   UNL A   1      34.081  21.874  27.889  1.00  0.00    -0.274 OA
ATOM      6  H   UNL A   1      35.725  20.560  26.859  1.00  0.00     0.163 HD
BRANCH   4   7
ATOM      7  C   UNL A   1      33.377  22.730  25.763  1.00  0.00     0.103 C 
ATOM      8  C   UNL A   1      31.146  23.754  25.858  1.00  0.00     0.104 C 
ATOM      9  C   UNL A   1      32.227  24.752  26.114  1.00  0.00    -0.006 C 
ATOM     10  C   UNL A   1      31.875  22.402  25.780  1.00  0.00     0.046 C 
ATOM     11  C   UNL A   1      33.446  24.197  26.082  1.00  0.00    -0.016 C 
BRANCH   8  12
ATOM     12  N   UNL A   1      30.385  24.099  24.682  1.00  0.00    -0.364 N 
ATOM     13  H   UNL A   1      29.643  23.483  24.484  1.00  0.00     0.162 HD
BRANCH  12  14
ATOM     14  C   UNL A   1      30.513  25.131  23.796  1.00  0.00     0.130 A 
ATOM     15  C   UNL A   1      29.452  28.643  23.083  1.00  0.00     0.067 C 
ATOM     16  C   UNL A   1      30.124  27.309  22.960  1.00  0.00     0.043 A 
ATOM     17  C   UNL A   1      29.813  26.311  23.859  1.00  0.00     0.070 A 
ATOM     18  N   UNL A   1      31.026  27.131  21.985  1.00  0.00    -0.238 NA
ATOM     19  C   UNL A   1      31.619  25.926  21.942  1.00  0.00     0.127 A 
ATOM     20  N   UNL A   1      31.410  24.925  22.822  1.00  0.00    -0.216 NA
ATOM     21  C   UNL A   1      32.570  25.662  20.819  1.00  0.00     0.090 C 
ENDBRANCH  12  14
ENDBRANCH   8  12
ENDBRANCH   4   7
ENDBRANCH   2   3
ENDBRANCH   1   2
BRANCH   1  22
ATOM     22  C   UNL A   1      38.086  19.957  24.951  1.00  0.00     0.023 C 
BRANCH  22  23
ATOM     23  C   UNL A   1      39.107  20.145  26.065  1.00  0.00     0.116 C 
BRANCH  23  24
ATOM     24  N   UNL A   1      40.188  19.173  25.988  1.00  0.00    -0.352 N 
ATOM     25  C   UNL A   1      41.539  19.403  26.037  1.00  0.00     0.251 C 
ATOM     26  H   UNL A   1      39.916  18.233  25.889  1.00  0.00     0.163 HD
ATOM     27  O   UNL A   1      42.346  18.513  25.797  1.00  0.00    -0.269 OA
BRANCH  25  28
ATOM     28  C   UNL A   1      41.999  20.759  26.374  1.00  0.00     0.039 A 
ATOM     29  C   UNL A   1      42.295  21.066  27.703  1.00  0.00     0.014 A 
ATOM     30  C   UNL A   1      42.184  21.698  25.354  1.00  0.00     0.014 A 
ATOM     31  C   UNL A   1      42.818  22.319  28.010  1.00  0.00     0.010 A 
ATOM     32  C   UNL A   1      42.757  22.925  25.655  1.00  0.00     0.010 A 
ATOM     33  C   UNL A   1      43.061  23.249  26.987  1.00  0.00    -0.014 A 
BRANCH  33  34
ATOM     34  C   UNL A   1      43.553  24.608  27.293  1.00  0.00     0.031 A 
ATOM     35  C   UNL A   1      42.590  25.617  27.846  1.00  0.00     0.074 A 
ATOM     36  C   UNL A   1      44.830  24.941  27.035  1.00  0.00     0.049 A 
ATOM     37  N   UNL A   1      42.779  26.882  28.114  1.00  0.00    -0.248 NA
ATOM     38  C   UNL A   1      41.223  25.141  28.112  1.00  0.00     0.031 C 
ATOM     39  C   UNL A   1      45.844  24.046  26.480  1.00  0.00     0.029 A 
ATOM     40  N   UNL A   1      45.487  26.133  27.200  1.00  0.00    -0.354 N 
ATOM     41  C   UNL A   1      41.557  27.351  28.575  1.00  0.00     0.074 A 
ATOM     42  C   UNL A   1      40.619  26.254  28.497  1.00  0.00     0.031 C 
ATOM     43  C   UNL A   1      47.003  24.717  26.365  1.00  0.00     0.029 A 
ATOM     44  C   UNL A   1      46.803  26.093  26.811  1.00  0.00     0.049 A 
ATOM     45  H   UNL A   1      45.058  26.940  27.565  1.00  0.00     0.167 HD
ATOM     46  C   UNL A   1      41.255  28.581  29.049  1.00  0.00     0.037 A 
ATOM     47  C   UNL A   1      47.734  27.065  26.811  1.00  0.00     0.037 A 
ATOM     48  C   UNL A   1      42.197  29.662  29.141  1.00  0.00     0.049 A 
ATOM     49  C   UNL A   1      47.362  28.436  27.309  1.00  0.00     0.074 A 
ATOM     50  C   UNL A   1      42.003  30.937  29.641  1.00  0.00     0.029 A 
ATOM     51  N   UNL A   1      43.517  29.591  28.722  1.00  0.00    -0.354 N 
ATOM     52  N   UNL A   1      46.214  28.862  27.779  1.00  0.00    -0.248 NA
ATOM     53  C   UNL A   1      48.415  29.461  27.274  1.00  0.00     0.031 C 
ATOM     54  C   UNL A   1      43.197  31.648  29.492  1.00  0.00     0.029 A 
ATOM     55  C   UNL A   1      44.146  30.806  28.934  1.00  0.00     0.049 A 
ATOM     56  H   UNL A   1      43.944  28.793  28.331  1.00  0.00     0.167 HD
ATOM     57  C   UNL A   1      46.408  30.197  28.109  1.00  0.00     0.074 A 
ATOM     58  C   UNL A   1      47.790  30.504  27.804  1.00  0.00     0.031 C 
ATOM     59  C   UNL A   1      45.521  31.088  28.614  1.00  0.00     0.037 A 
BRANCH  46  60
ATOM     60  C   UNL A   1      39.849  28.812  29.513  1.00  0.00     0.064 A 
ATOM     61  C   UNL A   1      38.866  29.309  28.643  1.00  0.00     0.173 A 
ATOM     62  C   UNL A   1      39.473  28.517  30.830  1.00  0.00     0.173 A 
ATOM     63  F   UNL A   1      39.182  29.626  27.378  1.00  0.00    -0.203 F 
ATOM     64  C   UNL A   1      37.563  29.523  29.082  1.00  0.00     0.198 A 
ATOM     65  C   UNL A   1      38.162  28.707  31.260  1.00  0.00     0.198 A 
ATOM     66  F   UNL A   1      40.376  28.042  31.701  1.00  0.00    -0.203 F 
ATOM     67  F   UNL A   1      36.652  30.040  28.247  1.00  0.00    -0.200 F 
ATOM     68  C   UNL A   1      37.210  29.215  30.387  1.00  0.00     0.200 A 
ATOM     69  F   UNL A   1      37.820  28.402  32.519  1.00  0.00    -0.200 F 
ATOM     70  F   UNL A   1      35.954  29.414  30.808  1.00  0.00    -0.200 F 
ENDBRANCH  46  60
BRANCH  47  71
ATOM     71  C   UNL A   1      49.115  26.768  26.351  1.00  0.00     0.064 A 
ATOM     72  C   UNL A   1      50.078  26.286  27.248  1.00  0.00     0.173 A 
ATOM     73  C   UNL A   1      49.497  26.952  25.016  1.00  0.00     0.173 A 
ATOM     74  F   UNL A   1      49.762  26.115  28.541  1.00  0.00    -0.203 F 
ATOM     75  C   UNL A   1      51.377  26.009  26.829  1.00  0.00     0.198 A 
ATOM     76  C   UNL A   1      50.791  26.653  24.592  1.00  0.00     0.198 A 
ATOM     77  F   UNL A   1      48.612  27.409  24.119  1.00  0.00    -0.203 F 
ATOM     78  F   UNL A   1      52.288  25.581  27.713  1.00  0.00    -0.200 F 
ATOM     79  C   UNL A   1      51.731  26.187  25.500  1.00  0.00     0.200 A 
ATOM     80  F   UNL A   1      51.127  26.817  23.305  1.00  0.00    -0.200 F 
ATOM     81  F   UNL A   1      52.979  25.915  25.095  1.00  0.00    -0.200 F 
ENDBRANCH  47  71
BRANCH  59  82
ATOM     82  C   UNL A   1      46.018  32.480  28.870  1.00  0.00     0.064 A 
ATOM     83  C   UNL A   1      45.901  33.485  27.899  1.00  0.00     0.173 A 
ATOM     84  C   UNL A   1      46.562  32.826  30.117  1.00  0.00     0.173 A 
ATOM     85  F   UNL A   1      45.401  33.198  26.689  1.00  0.00    -0.203 F 
ATOM     86  C   UNL A   1      46.326  34.784  28.162  1.00  0.00     0.198 A 
ATOM     87  C   UNL A   1      46.960  34.132  30.385  1.00  0.00     0.198 A 
ATOM     88  F   UNL A   1      46.688  31.901  31.080  1.00  0.00    -0.203 F 
ATOM     89  F   UNL A   1      46.239  35.721  27.208  1.00  0.00    -0.200 F 
ATOM     90  C   UNL A   1      46.847  35.108  29.406  1.00  0.00     0.200 A 
ATOM     91  F   UNL A   1      47.450  34.446  31.591  1.00  0.00    -0.200 F 
ATOM     92  F   UNL A   1      47.245  36.362  29.662  1.00  0.00    -0.200 F 
ENDBRANCH  59  82
ENDBRANCH  33  34
ENDBRANCH  25  28
ENDBRANCH  23  24
ENDBRANCH  22  23
ENDBRANCH   1  22
TORSDOF 13
ENDMDL
MODEL 3
REMARK VINA RESULT:     -12.1      1.225      2.306
REMARK SMILES Cc1cc(N[C@@H]2C=C[C@@H](C(=O)NCCCCNC(=O)c3ccc(-c4c5nc(c(-c6c(F)c(F)c(F)c(F)c6F)c6ccc([nH]6)c(-c6c(F)c(F)c(F)c(F)c6F)c6nc(c(-c7c(F)c(F)c(F)c(F)c7F)c7ccc4[nH]7)C=C6)C=C5)cc3)C2)nc(C)n1
REMARK SMILES IDX 14 1 13 2 12 3 10 4 11 5 9 7 6 8 7 9 83 10 8 11 5 12 4 14
REMARK SMILES IDX 1 15 2 16 3 17 87 18 85 19 84 20 86 21 15 22 16 23 17 24
REMARK SMILES IDX 18 25 19 27 20 28 21 29 82 30 22 31 81 32 23 33 24 34 25 35
REMARK SMILES IDX 75 36 26 37 80 38 74 39 76 40 27 41 79 42 73 43 72 44 28 46
REMARK SMILES IDX 60 47 40 48 59 49 41 50 44 51 58 52 77 53 42 54 43 55 57 57
REMARK SMILES IDX 78 58 45 59 29 60 30 61 38 62 31 63 32 64 36 65 39 66 33 67
REMARK SMILES IDX 34 68 37 69 35 70 61 71 62 72 70 73 63 74 64 75 68 76 71 77
REMARK SMILES IDX 65 78 66 79 69 80 67 81 46 82 47 83 55 84 48 85 49 86 53 87
REMARK SMILES IDX 56 88 50 89 51 90 54 91 52 92
REMARK H PARENT 12 6 5 13 17 26 76 45 44 56
REMARK Flexibility Score: inf
ROOT
ATOM      1  C   UNL A   1      31.477  30.590  26.661  1.00  0.00     0.023 C 
ENDROOT
BRANCH   1   2
ATOM      2  C   UNL A   1      32.099  30.020  25.392  1.00  0.00     0.116 C 
BRANCH   2   3
ATOM      3  N   UNL A   1      31.142  30.002  24.306  1.00  0.00    -0.356 N 
ATOM      4  C   UNL A   1      30.892  29.054  23.368  1.00  0.00     0.227 C 
ATOM      5  O   UNL A   1      30.018  29.301  22.533  1.00  0.00    -0.274 OA
ATOM      6  H   UNL A   1      30.582  30.808  24.236  1.00  0.00     0.163 HD
BRANCH   4   7
ATOM      7  C   UNL A   1      31.625  27.719  23.347  1.00  0.00     0.103 C 
ATOM      8  C   UNL A   1      32.212  26.005  21.688  1.00  0.00     0.104 C 
ATOM      9  C   UNL A   1      33.372  26.891  22.005  1.00  0.00    -0.006 C 
ATOM     10  C   UNL A   1      31.026  26.631  22.442  1.00  0.00     0.046 C 
ATOM     11  C   UNL A   1      33.054  27.840  22.897  1.00  0.00    -0.016 C 
BRANCH   8  12
ATOM     12  N   UNL A   1      32.492  24.634  22.035  1.00  0.00    -0.364 N 
ATOM     13  H   UNL A   1      32.063  23.970  21.449  1.00  0.00     0.162 HD
BRANCH  12  14
ATOM     14  C   UNL A   1      33.250  24.094  23.036  1.00  0.00     0.130 A 
ATOM     15  C   UNL A   1      33.182  22.974  26.601  1.00  0.00     0.067 C 
ATOM     16  C   UNL A   1      33.665  23.267  25.213  1.00  0.00     0.043 A 
ATOM     17  C   UNL A   1      32.832  23.927  24.334  1.00  0.00     0.070 A 
ATOM     18  N   UNL A   1      34.892  22.859  24.860  1.00  0.00    -0.238 NA
ATOM     19  C   UNL A   1      35.259  23.121  23.593  1.00  0.00     0.127 A 
ATOM     20  N   UNL A   1      34.477  23.707  22.663  1.00  0.00    -0.216 NA
ATOM     21  C   UNL A   1      36.651  22.756  23.187  1.00  0.00     0.090 C 
ENDBRANCH  12  14
ENDBRANCH   8  12
ENDBRANCH   4   7
ENDBRANCH   2   3
ENDBRANCH   1   2
BRANCH   1  22
ATOM     22  C   UNL A   1      31.399  32.116  26.685  1.00  0.00     0.023 C 
BRANCH  22  23
ATOM     23  C   UNL A   1      32.670  32.802  27.167  1.00  0.00     0.116 C 
BRANCH  23  24
ATOM     24  N   UNL A   1      32.421  34.164  27.615  1.00  0.00    -0.352 N 
ATOM     25  C   UNL A   1      33.024  34.840  28.644  1.00  0.00     0.251 C 
ATOM     26  H   UNL A   1      31.735  34.663  27.117  1.00  0.00     0.163 HD
ATOM     27  O   UNL A   1      32.607  35.929  29.022  1.00  0.00    -0.269 OA
BRANCH  25  28
ATOM     28  C   UNL A   1      34.184  34.216  29.298  1.00  0.00     0.039 A 
ATOM     29  C   UNL A   1      35.466  34.497  28.822  1.00  0.00     0.014 A 
ATOM     30  C   UNL A   1      33.988  33.397  30.415  1.00  0.00     0.014 A 
ATOM     31  C   UNL A   1      36.569  33.980  29.497  1.00  0.00     0.010 A 
ATOM     32  C   UNL A   1      35.090  32.931  31.118  1.00  0.00     0.010 A 
ATOM     33  C   UNL A   1      36.385  33.205  30.653  1.00  0.00    -0.014 A 
BRANCH  33  34
ATOM     34  C   UNL A   1      37.535  32.591  31.348  1.00  0.00     0.031 A 
ATOM     35  C   UNL A   1      38.263  31.460  30.682  1.00  0.00     0.074 A 
ATOM     36  C   UNL A   1      37.889  33.011  32.576  1.00  0.00     0.049 A 
ATOM     37  N   UNL A   1      39.243  30.725  31.135  1.00  0.00    -0.248 NA
ATOM     38  C   UNL A   1      37.809  31.095  29.330  1.00  0.00     0.031 C 
ATOM     39  C   UNL A   1      37.239  34.087  33.323  1.00  0.00     0.029 A 
ATOM     40  N   UNL A   1      38.881  32.571  33.413  1.00  0.00    -0.354 N 
ATOM     41  C   UNL A   1      39.519  29.811  30.128  1.00  0.00     0.074 A 
ATOM     42  C   UNL A   1      38.568  30.044  29.065  1.00  0.00     0.031 C 
ATOM     43  C   UNL A   1      37.861  34.235  34.505  1.00  0.00     0.029 A 
ATOM     44  C   UNL A   1      38.931  33.247  34.607  1.00  0.00     0.049 A 
ATOM     45  H   UNL A   1      39.500  31.842  33.181  1.00  0.00     0.167 HD
ATOM     46  C   UNL A   1      40.498  28.880  30.085  1.00  0.00     0.037 A 
ATOM     47  C   UNL A   1      39.749  33.077  35.663  1.00  0.00     0.037 A 
ATOM     48  C   UNL A   1      41.452  28.665  31.138  1.00  0.00     0.049 A 
ATOM     49  C   UNL A   1      40.808  32.008  35.604  1.00  0.00     0.074 A 
ATOM     50  C   UNL A   1      42.509  27.774  31.178  1.00  0.00     0.029 A 
ATOM     51  N   UNL A   1      41.463  29.357  32.340  1.00  0.00    -0.354 N 
ATOM     52  N   UNL A   1      41.087  31.173  34.633  1.00  0.00    -0.248 NA
ATOM     53  C   UNL A   1      41.663  31.859  36.790  1.00  0.00     0.031 C 
ATOM     54  C   UNL A   1      43.138  27.902  32.420  1.00  0.00     0.029 A 
ATOM     55  C   UNL A   1      42.498  28.899  33.139  1.00  0.00     0.049 A 
ATOM     56  H   UNL A   1      40.829  30.069  32.588  1.00  0.00     0.167 HD
ATOM     57  C   UNL A   1      42.156  30.409  35.082  1.00  0.00     0.074 A 
ATOM     58  C   UNL A   1      42.489  30.894  36.405  1.00  0.00     0.031 C 
ATOM     59  C   UNL A   1      42.802  29.394  34.456  1.00  0.00     0.037 A 
BRANCH  46  60
ATOM     60  C   UNL A   1      40.589  28.035  28.851  1.00  0.00     0.064 A 
ATOM     61  C   UNL A   1      39.885  26.825  28.743  1.00  0.00     0.173 A 
ATOM     62  C   UNL A   1      41.367  28.443  27.759  1.00  0.00     0.173 A 
ATOM     63  F   UNL A   1      39.144  26.381  29.769  1.00  0.00    -0.203 F 
ATOM     64  C   UNL A   1      39.976  26.044  27.594  1.00  0.00     0.198 A 
ATOM     65  C   UNL A   1      41.434  27.673  26.601  1.00  0.00     0.198 A 
ATOM     66  F   UNL A   1      42.060  29.591  27.815  1.00  0.00    -0.203 F 
ATOM     67  F   UNL A   1      39.332  24.871  27.530  1.00  0.00    -0.200 F 
ATOM     68  C   UNL A   1      40.744  26.472  26.522  1.00  0.00     0.200 A 
ATOM     69  F   UNL A   1      42.172  28.091  25.563  1.00  0.00    -0.200 F 
ATOM     70  F   UNL A   1      40.826  25.724  25.413  1.00  0.00    -0.200 F 
ENDBRANCH  46  60
BRANCH  47  71
ATOM     71  C   UNL A   1      39.618  33.957  36.851  1.00  0.00     0.064 A 
ATOM     72  C   UNL A   1      38.841  33.564  37.949  1.00  0.00     0.173 A 
ATOM     73  C   UNL A   1      40.265  35.199  36.918  1.00  0.00     0.173 A 
ATOM     74  F   UNL A   1      38.186  32.394  37.921  1.00  0.00    -0.203 F 
ATOM     75  C   UNL A   1      38.707  34.384  39.067  1.00  0.00     0.198 A 
ATOM     76  C   UNL A   1      40.149  36.010  38.046  1.00  0.00     0.198 A 
ATOM     77  F   UNL A   1      41.020  35.619  35.893  1.00  0.00    -0.203 F 
ATOM     78  F   UNL A   1      37.933  34.000  40.090  1.00  0.00    -0.200 F 
ATOM     79  C   UNL A   1      39.367  35.604  39.117  1.00  0.00     0.200 A 
ATOM     80  F   UNL A   1      40.795  37.182  38.094  1.00  0.00    -0.200 F 
ATOM     81  F   UNL A   1      39.243  36.391  40.195  1.00  0.00    -0.200 F 
ENDBRANCH  47  71
BRANCH  59  82
ATOM     82  C   UNL A   1      43.932  28.742  35.195  1.00  0.00     0.064 A 
ATOM     83  C   UNL A   1      45.252  29.197  35.056  1.00  0.00     0.173 A 
ATOM     84  C   UNL A   1      43.686  27.693  36.095  1.00  0.00     0.173 A 
ATOM     85  F   UNL A   1      45.536  30.187  34.198  1.00  0.00    -0.203 F 
ATOM     86  C   UNL A   1      46.288  28.614  35.779  1.00  0.00     0.198 A 
ATOM     87  C   UNL A   1      44.721  27.131  36.836  1.00  0.00     0.198 A 
ATOM     88  F   UNL A   1      42.441  27.228  36.267  1.00  0.00    -0.203 F 
ATOM     89  F   UNL A   1      47.546  29.039  35.604  1.00  0.00    -0.200 F 
ATOM     90  C   UNL A   1      46.021  27.588  36.674  1.00  0.00     0.200 A 
ATOM     91  F   UNL A   1      44.460  26.150  37.710  1.00  0.00    -0.200 F 
ATOM     92  F   UNL A   1      47.018  27.035  37.378  1.00  0.00    -0.200 F 
ENDBRANCH  59  82
ENDBRANCH  33  34
ENDBRANCH  25  28
ENDBRANCH  23  24
ENDBRANCH  22  23
ENDBRANCH   1  22
TORSDOF 13
ENDMDL
