MODEL 1
REMARK VINA RESULT:     -13.1      0.000      0.000
REMARK SMILES O=C(NCCCCNC(=O)[C@H]1CN(C(=O)N[C@H]2CCOC2)c2ccccc2O1)c1ccc(-c2c3nc(c(-c4c(F)c(F)c(F)c(F)c4F)c4ccc([nH]4)c(-c4c(F)c(F)c(F)c(F)c4F)c4nc(c(-c5c(F)c(F)c(F)c(F)c5F)c5ccc2[nH]5)C=C4)C=C3)cc1
REMARK SMILES IDX 5 1 4 2 3 3 1 4 2 5 29 7 30 8 91 9 31 10 90 11 32 12 33 13
REMARK SMILES IDX 34 14 84 15 35 16 89 17 83 18 85 19 36 20 88 21 82 22 81 23
REMARK SMILES IDX 37 25 69 26 49 27 68 28 50 29 53 30 67 31 86 32 51 33 52 34
REMARK SMILES IDX 66 36 87 37 54 38 38 39 39 40 47 41 40 42 41 43 45 44 48 45
REMARK SMILES IDX 42 46 43 47 46 48 44 49 70 50 71 51 79 52 72 53 73 54 77 55
REMARK SMILES IDX 80 56 74 57 75 58 78 59 76 60 55 61 56 62 64 63 57 64 58 65
REMARK SMILES IDX 62 66 65 67 59 68 60 69 63 70 61 71 6 72 7 73 8 74 9 75
REMARK SMILES IDX 10 77 11 78 12 79 28 80 13 81 27 82 22 83 26 84 23 85 25 86
REMARK SMILES IDX 24 87 14 88 15 89 16 90 17 92 18 93 21 94 19 95 20 96
REMARK H PARENT 3 6 85 24 53 35 8 76 16 91
REMARK Flexibility Score: inf
ROOT
ATOM      1  C   UNL A   1      33.185  28.937  24.016  1.00  0.00     0.023 C 
ENDROOT
BRANCH   1   2
ATOM      2  C   UNL A   1      33.338  29.118  25.515  1.00  0.00     0.116 C 
BRANCH   2   3
ATOM      3  N   UNL A   1      32.792  30.377  26.001  1.00  0.00    -0.352 N 
ATOM      4  O   UNL A   1      32.664  32.184  27.354  1.00  0.00    -0.269 OA
ATOM      5  C   UNL A   1      33.289  31.196  26.983  1.00  0.00     0.251 C 
ATOM      6  H   UNL A   1      31.961  30.680  25.569  1.00  0.00     0.163 HD
BRANCH   5   7
ATOM      7  C   UNL A   1      34.571  30.841  27.616  1.00  0.00     0.039 A 
ATOM      8  C   UNL A   1      34.769  29.561  28.140  1.00  0.00     0.014 A 
ATOM      9  C   UNL A   1      35.558  31.822  27.730  1.00  0.00     0.014 A 
ATOM     10  C   UNL A   1      35.903  29.300  28.896  1.00  0.00     0.010 A 
ATOM     11  C   UNL A   1      36.730  31.532  28.423  1.00  0.00     0.010 A 
ATOM     12  C   UNL A   1      36.896  30.280  29.034  1.00  0.00    -0.014 A 
BRANCH  12  13
ATOM     13  C   UNL A   1      38.136  29.965  29.777  1.00  0.00     0.031 A 
ATOM     14  C   UNL A   1      39.160  29.034  29.202  1.00  0.00     0.074 A 
ATOM     15  C   UNL A   1      38.317  30.526  30.986  1.00  0.00     0.049 A 
ATOM     16  N   UNL A   1      40.266  28.590  29.742  1.00  0.00    -0.248 NA
ATOM     17  C   UNL A   1      38.907  28.527  27.845  1.00  0.00     0.031 C 
ATOM     18  C   UNL A   1      37.381  31.448  31.634  1.00  0.00     0.029 A 
ATOM     19  N   UNL A   1      39.344  30.404  31.885  1.00  0.00    -0.354 N 
ATOM     20  C   UNL A   1      40.826  27.731  28.807  1.00  0.00     0.074 A 
ATOM     21  C   UNL A   1      39.932  27.704  27.669  1.00  0.00     0.031 C 
ATOM     22  C   UNL A   1      37.886  31.824  32.817  1.00  0.00     0.029 A 
ATOM     23  C   UNL A   1      39.146  31.123  33.036  1.00  0.00     0.049 A 
ATOM     24  H   UNL A   1      40.144  29.855  31.721  1.00  0.00     0.167 HD
ATOM     25  C   UNL A   1      41.984  27.033  28.896  1.00  0.00     0.037 A 
ATOM     26  C   UNL A   1      39.884  31.187  34.159  1.00  0.00     0.037 A 
ATOM     27  C   UNL A   1      42.871  27.085  30.030  1.00  0.00     0.049 A 
ATOM     28  C   UNL A   1      41.150  30.389  34.240  1.00  0.00     0.074 A 
ATOM     29  C   UNL A   1      44.084  26.443  30.209  1.00  0.00     0.029 A 
ATOM     30  N   UNL A   1      42.635  27.821  31.184  1.00  0.00    -0.354 N 
ATOM     31  N   UNL A   1      41.682  29.593  33.343  1.00  0.00    -0.248 NA
ATOM     32  C   UNL A   1      41.919  30.494  35.486  1.00  0.00     0.031 C 
ATOM     33  C   UNL A   1      44.562  26.759  31.485  1.00  0.00     0.029 A 
ATOM     34  C   UNL A   1      43.671  27.634  32.085  1.00  0.00     0.049 A 
ATOM     35  H   UNL A   1      41.848  28.392  31.339  1.00  0.00     0.167 HD
ATOM     36  C   UNL A   1      42.854  29.114  33.907  1.00  0.00     0.074 A 
ATOM     37  C   UNL A   1      42.962  29.720  35.220  1.00  0.00     0.031 C 
ATOM     38  C   UNL A   1      43.759  28.251  33.385  1.00  0.00     0.037 A 
BRANCH  25  39
ATOM     39  C   UNL A   1      42.343  26.134  27.750  1.00  0.00     0.064 A 
ATOM     40  C   UNL A   1      43.235  26.537  26.745  1.00  0.00     0.173 A 
ATOM     41  C   UNL A   1      41.808  24.839  27.672  1.00  0.00     0.173 A 
ATOM     42  F   UNL A   1      43.763  27.770  26.767  1.00  0.00    -0.203 F 
ATOM     43  C   UNL A   1      43.558  25.686  25.691  1.00  0.00     0.198 A 
ATOM     44  C   UNL A   1      42.154  23.982  26.629  1.00  0.00     0.198 A 
ATOM     45  F   UNL A   1      40.954  24.402  28.609  1.00  0.00    -0.203 F 
ATOM     46  F   UNL A   1      44.378  26.109  24.719  1.00  0.00    -0.200 F 
ATOM     47  C   UNL A   1      43.022  24.408  25.637  1.00  0.00     0.200 A 
ATOM     48  F   UNL A   1      41.642  22.744  26.584  1.00  0.00    -0.200 F 
ATOM     49  F   UNL A   1      43.337  23.591  24.623  1.00  0.00    -0.200 F 
ENDBRANCH  25  39
BRANCH  26  50
ATOM     50  C   UNL A   1      39.422  32.038  35.282  1.00  0.00     0.064 A 
ATOM     51  C   UNL A   1      39.722  33.406  35.317  1.00  0.00     0.173 A 
ATOM     52  C   UNL A   1      38.626  31.515  36.310  1.00  0.00     0.173 A 
ATOM     53  F   UNL A   1      40.492  33.947  34.361  1.00  0.00    -0.203 F 
ATOM     54  C   UNL A   1      39.244  34.218  36.342  1.00  0.00     0.198 A 
ATOM     55  C   UNL A   1      38.127  32.332  37.321  1.00  0.00     0.198 A 
ATOM     56  F   UNL A   1      38.302  30.212  36.312  1.00  0.00    -0.203 F 
ATOM     57  F   UNL A   1      39.564  35.519  36.367  1.00  0.00    -0.200 F 
ATOM     58  C   UNL A   1      38.440  33.683  37.338  1.00  0.00     0.200 A 
ATOM     59  F   UNL A   1      37.335  31.815  38.269  1.00  0.00    -0.200 F 
ATOM     60  F   UNL A   1      37.967  34.469  38.314  1.00  0.00    -0.200 F 
ENDBRANCH  26  50
BRANCH  38  61
ATOM     61  C   UNL A   1      44.961  27.938  34.223  1.00  0.00     0.064 A 
ATOM     62  C   UNL A   1      44.981  26.843  35.098  1.00  0.00     0.173 A 
ATOM     63  C   UNL A   1      46.120  28.722  34.117  1.00  0.00     0.173 A 
ATOM     64  F   UNL A   1      43.889  26.077  35.245  1.00  0.00    -0.203 F 
ATOM     65  C   UNL A   1      46.114  26.555  35.853  1.00  0.00     0.198 A 
ATOM     66  C   UNL A   1      47.259  28.415  34.855  1.00  0.00     0.198 A 
ATOM     67  F   UNL A   1      46.150  29.777  33.290  1.00  0.00    -0.203 F 
ATOM     68  F   UNL A   1      46.099  25.527  36.713  1.00  0.00    -0.200 F 
ATOM     69  C   UNL A   1      47.254  27.335  35.725  1.00  0.00     0.200 A 
ATOM     70  F   UNL A   1      48.363  29.164  34.724  1.00  0.00    -0.200 F 
ATOM     71  F   UNL A   1      48.346  27.051  36.448  1.00  0.00    -0.200 F 
ENDBRANCH  38  61
ENDBRANCH  12  13
ENDBRANCH   5   7
ENDBRANCH   2   3
ENDBRANCH   1   2
BRANCH   1  72
ATOM     72  C   UNL A   1      33.421  27.518  23.520  1.00  0.00     0.023 C 
BRANCH  72  73
ATOM     73  C   UNL A   1      32.165  26.762  23.078  1.00  0.00     0.116 C 
BRANCH  73  74
ATOM     74  N   UNL A   1      32.378  26.035  21.843  1.00  0.00    -0.353 N 
ATOM     75  C   UNL A   1      32.952  24.811  21.649  1.00  0.00     0.262 C 
ATOM     76  H   UNL A   1      32.067  26.489  21.027  1.00  0.00     0.163 HD
ATOM     77  O   UNL A   1      33.085  24.423  20.486  1.00  0.00    -0.271 OA
BRANCH  75  78
ATOM     78  C   UNL A   1      33.484  23.979  22.823  1.00  0.00     0.281 C 
ATOM     79  C   UNL A   1      32.882  22.589  22.784  1.00  0.00     0.183 C 
ATOM     80  O   UNL A   1      34.905  23.908  22.837  1.00  0.00    -0.477 OA
ATOM     81  N   UNL A   1      33.161  21.895  24.024  1.00  0.00    -0.287 N 
ATOM     82  C   UNL A   1      35.391  22.894  23.637  1.00  0.00     0.144 A 
ATOM     83  C   UNL A   1      34.590  21.906  24.269  1.00  0.00     0.088 A 
ATOM     84  C   UNL A   1      36.782  22.892  23.766  1.00  0.00     0.049 A 
ATOM     85  C   UNL A   1      35.242  20.927  25.025  1.00  0.00     0.030 A 
ATOM     86  C   UNL A   1      37.407  21.902  24.515  1.00  0.00     0.004 A 
ATOM     87  C   UNL A   1      36.640  20.922  25.140  1.00  0.00     0.002 A 
BRANCH  81  88
ATOM     88  C   UNL A   1      32.254  21.304  24.859  1.00  0.00     0.322 C 
ATOM     89  O   UNL A   1      31.882  20.131  24.737  1.00  0.00    -0.248 OA
ATOM     90  N   UNL A   1      31.694  21.909  25.927  1.00  0.00    -0.333 N 
ATOM     91  H   UNL A   1      31.138  21.250  26.401  1.00  0.00     0.165 HD
BRANCH  90  92
ATOM     92  C   UNL A   1      31.611  23.187  26.642  1.00  0.00     0.112 C 
ATOM     93  C   UNL A   1      32.786  24.138  26.528  1.00  0.00     0.056 C 
ATOM     94  C   UNL A   1      30.361  24.019  26.411  1.00  0.00     0.185 C 
ATOM     95  C   UNL A   1      32.155  25.518  26.433  1.00  0.00     0.162 C 
ATOM     96  O   UNL A   1      30.734  25.393  26.561  1.00  0.00    -0.379 OA
ENDBRANCH  90  92
ENDBRANCH  81  88
ENDBRANCH  75  78
ENDBRANCH  73  74
ENDBRANCH  72  73
ENDBRANCH   1  72
TORSDOF 13
ENDMDL
MODEL 2
REMARK VINA RESULT:     -13.1      0.336      1.609
REMARK SMILES O=C(NCCCCNC(=O)[C@H]1CN(C(=O)N[C@H]2CCOC2)c2ccccc2O1)c1ccc(-c2c3nc(c(-c4c(F)c(F)c(F)c(F)c4F)c4ccc([nH]4)c(-c4c(F)c(F)c(F)c(F)c4F)c4nc(c(-c5c(F)c(F)c(F)c(F)c5F)c5ccc2[nH]5)C=C4)C=C3)cc1
REMARK SMILES IDX 5 1 4 2 3 3 1 4 2 5 29 7 30 8 91 9 31 10 90 11 32 12 33 13
REMARK SMILES IDX 34 14 84 15 35 16 89 17 83 18 85 19 36 20 88 21 82 22 81 23
REMARK SMILES IDX 37 25 69 26 49 27 68 28 50 29 53 30 67 31 86 32 51 33 52 34
REMARK SMILES IDX 66 36 87 37 54 38 38 39 39 40 47 41 40 42 41 43 45 44 48 45
REMARK SMILES IDX 42 46 43 47 46 48 44 49 70 50 71 51 79 52 72 53 73 54 77 55
REMARK SMILES IDX 80 56 74 57 75 58 78 59 76 60 55 61 56 62 64 63 57 64 58 65
REMARK SMILES IDX 62 66 65 67 59 68 60 69 63 70 61 71 6 72 7 73 8 74 9 75
REMARK SMILES IDX 10 77 11 78 12 79 28 80 13 81 27 82 22 83 26 84 23 85 25 86
REMARK SMILES IDX 24 87 14 88 15 89 16 90 17 92 18 93 21 94 19 95 20 96
REMARK H PARENT 3 6 85 24 53 35 8 76 16 91
REMARK Flexibility Score: inf
ROOT
ATOM      1  C   UNL A   1      33.247  28.940  23.972  1.00  0.00     0.023 C 
ENDROOT
BRANCH   1   2
ATOM      2  C   UNL A   1      33.406  29.157  25.465  1.00  0.00     0.116 C 
BRANCH   2   3
ATOM      3  N   UNL A   1      32.849  30.421  25.925  1.00  0.00    -0.352 N 
ATOM      4  O   UNL A   1      32.681  32.236  27.262  1.00  0.00    -0.269 OA
ATOM      5  C   UNL A   1      33.314  31.243  26.919  1.00  0.00     0.251 C 
ATOM      6  H   UNL A   1      32.036  30.726  25.461  1.00  0.00     0.163 HD
BRANCH   5   7
ATOM      7  C   UNL A   1      34.571  30.887  27.601  1.00  0.00     0.039 A 
ATOM      8  C   UNL A   1      34.756  29.598  28.108  1.00  0.00     0.014 A 
ATOM      9  C   UNL A   1      35.543  31.872  27.776  1.00  0.00     0.014 A 
ATOM     10  C   UNL A   1      35.859  29.330  28.907  1.00  0.00     0.010 A 
ATOM     11  C   UNL A   1      36.687  31.578  28.514  1.00  0.00     0.010 A 
ATOM     12  C   UNL A   1      36.837  30.315  29.108  1.00  0.00    -0.014 A 
BRANCH  12  13
ATOM     13  C   UNL A   1      38.046  29.995  29.898  1.00  0.00     0.031 A 
ATOM     14  C   UNL A   1      39.104  29.087  29.348  1.00  0.00     0.074 A 
ATOM     15  C   UNL A   1      38.168  30.530  31.125  1.00  0.00     0.049 A 
ATOM     16  N   UNL A   1      40.189  28.641  29.926  1.00  0.00    -0.248 NA
ATOM     17  C   UNL A   1      38.916  28.609  27.969  1.00  0.00     0.031 C 
ATOM     18  C   UNL A   1      37.195  31.428  31.752  1.00  0.00     0.029 A 
ATOM     19  N   UNL A   1      39.155  30.397  32.066  1.00  0.00    -0.354 N 
ATOM     20  C   UNL A   1      40.799  27.809  28.997  1.00  0.00     0.074 A 
ATOM     21  C   UNL A   1      39.956  27.800  27.821  1.00  0.00     0.031 C 
ATOM     22  C   UNL A   1      37.642  31.782  32.964  1.00  0.00     0.029 A 
ATOM     23  C   UNL A   1      38.899  31.088  33.223  1.00  0.00     0.049 A 
ATOM     24  H   UNL A   1      39.967  29.859  31.925  1.00  0.00     0.167 HD
ATOM     25  C   UNL A   1      41.959  27.120  29.122  1.00  0.00     0.037 A 
ATOM     26  C   UNL A   1      39.586  31.133  34.378  1.00  0.00     0.037 A 
ATOM     27  C   UNL A   1      42.795  27.155  30.295  1.00  0.00     0.049 A 
ATOM     28  C   UNL A   1      40.856  30.345  34.498  1.00  0.00     0.074 A 
ATOM     29  C   UNL A   1      44.006  26.521  30.513  1.00  0.00     0.029 A 
ATOM     30  N   UNL A   1      42.500  27.863  31.454  1.00  0.00    -0.354 N 
ATOM     31  N   UNL A   1      41.435  29.575  33.608  1.00  0.00    -0.248 NA
ATOM     32  C   UNL A   1      41.568  30.429  35.778  1.00  0.00     0.031 C 
ATOM     33  C   UNL A   1      44.424  26.812  31.816  1.00  0.00     0.029 A 
ATOM     34  C   UNL A   1      43.498  27.665  32.395  1.00  0.00     0.049 A 
ATOM     35  H   UNL A   1      41.702  28.422  31.586  1.00  0.00     0.167 HD
ATOM     36  C   UNL A   1      42.586  29.095  34.212  1.00  0.00     0.074 A 
ATOM     37  C   UNL A   1      42.630  29.672  35.542  1.00  0.00     0.031 C 
ATOM     38  C   UNL A   1      43.522  28.252  33.711  1.00  0.00     0.037 A 
BRANCH  25  39
ATOM     39  C   UNL A   1      42.378  26.251  27.973  1.00  0.00     0.064 A 
ATOM     40  C   UNL A   1      43.294  26.693  27.007  1.00  0.00     0.173 A 
ATOM     41  C   UNL A   1      41.877  24.946  27.854  1.00  0.00     0.173 A 
ATOM     42  F   UNL A   1      43.792  27.937  27.069  1.00  0.00    -0.203 F 
ATOM     43  C   UNL A   1      43.673  25.870  25.950  1.00  0.00     0.198 A 
ATOM     44  C   UNL A   1      42.277  24.117  26.809  1.00  0.00     0.198 A 
ATOM     45  F   UNL A   1      41.001  24.472  28.753  1.00  0.00    -0.203 F 
ATOM     46  F   UNL A   1      44.514  26.329  25.014  1.00  0.00    -0.200 F 
ATOM     47  C   UNL A   1      43.169  24.581  25.854  1.00  0.00     0.200 A 
ATOM     48  F   UNL A   1      41.797  22.868  26.724  1.00  0.00    -0.200 F 
ATOM     49  F   UNL A   1      43.536  23.790  24.838  1.00  0.00    -0.200 F 
ENDBRANCH  25  39
BRANCH  26  50
ATOM     50  C   UNL A   1      39.067  31.954  35.498  1.00  0.00     0.064 A 
ATOM     51  C   UNL A   1      38.291  31.378  36.512  1.00  0.00     0.173 A 
ATOM     52  C   UNL A   1      39.383  33.316  35.608  1.00  0.00     0.173 A 
ATOM     53  F   UNL A   1      37.953  30.082  36.441  1.00  0.00    -0.203 F 
ATOM     54  C   UNL A   1      37.847  32.135  37.594  1.00  0.00     0.198 A 
ATOM     55  C   UNL A   1      38.961  34.066  36.703  1.00  0.00     0.198 A 
ATOM     56  F   UNL A   1      40.134  33.909  34.668  1.00  0.00    -0.203 F 
ATOM     57  F   UNL A   1      37.087  31.567  38.539  1.00  0.00    -0.200 F 
ATOM     58  C   UNL A   1      38.190  33.476  37.693  1.00  0.00     0.200 A 
ATOM     59  F   UNL A   1      39.311  35.355  36.805  1.00  0.00    -0.200 F 
ATOM     60  F   UNL A   1      37.778  34.199  38.742  1.00  0.00    -0.200 F 
ENDBRANCH  26  50
BRANCH  38  61
ATOM     61  C   UNL A   1      44.689  27.931  34.594  1.00  0.00     0.064 A 
ATOM     62  C   UNL A   1      45.836  28.738  34.618  1.00  0.00     0.173 A 
ATOM     63  C   UNL A   1      44.641  26.823  35.455  1.00  0.00     0.173 A 
ATOM     64  F   UNL A   1      45.933  29.796  33.800  1.00  0.00    -0.203 F 
ATOM     65  C   UNL A   1      46.902  28.436  35.461  1.00  0.00     0.198 A 
ATOM     66  C   UNL A   1      45.698  26.540  36.312  1.00  0.00     0.198 A 
ATOM     67  F   UNL A   1      43.564  26.025  35.469  1.00  0.00    -0.203 F 
ATOM     68  F   UNL A   1      48.005  29.196  35.440  1.00  0.00    -0.200 F 
ATOM     69  C   UNL A   1      46.830  27.343  36.312  1.00  0.00     0.200 A 
ATOM     70  F   UNL A   1      45.624  25.489  37.142  1.00  0.00    -0.200 F 
ATOM     71  F   UNL A   1      47.855  27.058  37.127  1.00  0.00    -0.200 F 
ENDBRANCH  38  61
ENDBRANCH  12  13
ENDBRANCH   5   7
ENDBRANCH   2   3
ENDBRANCH   1   2
BRANCH   1  72
ATOM     72  C   UNL A   1      33.407  27.495  23.520  1.00  0.00     0.023 C 
BRANCH  72  73
ATOM     73  C   UNL A   1      32.124  26.816  23.032  1.00  0.00     0.116 C 
BRANCH  73  74
ATOM     74  N   UNL A   1      32.335  26.084  21.800  1.00  0.00    -0.353 N 
ATOM     75  C   UNL A   1      32.900  24.856  21.610  1.00  0.00     0.262 C 
ATOM     76  H   UNL A   1      32.030  26.539  20.981  1.00  0.00     0.163 HD
ATOM     77  O   UNL A   1      33.033  24.463  20.448  1.00  0.00    -0.271 OA
BRANCH  75  78
ATOM     78  C   UNL A   1      33.422  24.022  22.787  1.00  0.00     0.281 C 
ATOM     79  C   UNL A   1      32.813  22.635  22.746  1.00  0.00     0.183 C 
ATOM     80  O   UNL A   1      34.842  23.944  22.809  1.00  0.00    -0.477 OA
ATOM     81  N   UNL A   1      33.082  21.941  23.988  1.00  0.00    -0.287 N 
ATOM     82  C   UNL A   1      35.319  22.928  23.613  1.00  0.00     0.144 A 
ATOM     83  C   UNL A   1      34.510  21.945  24.241  1.00  0.00     0.088 A 
ATOM     84  C   UNL A   1      36.710  22.920  23.749  1.00  0.00     0.049 A 
ATOM     85  C   UNL A   1      35.154  20.964  25.002  1.00  0.00     0.030 A 
ATOM     86  C   UNL A   1      37.326  21.928  24.502  1.00  0.00     0.004 A 
ATOM     87  C   UNL A   1      36.551  20.952  25.124  1.00  0.00     0.002 A 
BRANCH  81  88
ATOM     88  C   UNL A   1      32.168  21.355  24.819  1.00  0.00     0.322 C 
ATOM     89  O   UNL A   1      31.779  20.189  24.687  1.00  0.00    -0.248 OA
ATOM     90  N   UNL A   1      31.620  21.958  25.894  1.00  0.00    -0.333 N 
ATOM     91  H   UNL A   1      31.054  21.303  26.364  1.00  0.00     0.165 HD
BRANCH  90  92
ATOM     92  C   UNL A   1      31.557  23.230  26.623  1.00  0.00     0.112 C 
ATOM     93  C   UNL A   1      32.736  24.174  26.499  1.00  0.00     0.056 C 
ATOM     94  C   UNL A   1      30.309  24.072  26.420  1.00  0.00     0.185 C 
ATOM     95  C   UNL A   1      32.114  25.559  26.427  1.00  0.00     0.162 C 
ATOM     96  O   UNL A   1      30.694  25.443  26.576  1.00  0.00    -0.379 OA
ENDBRANCH  90  92
ENDBRANCH  81  88
ENDBRANCH  75  78
ENDBRANCH  73  74
ENDBRANCH  72  73
ENDBRANCH   1  72
TORSDOF 13
ENDMDL
MODEL 3
REMARK VINA RESULT:     -13.0      2.369      4.172
REMARK SMILES O=C(NCCCCNC(=O)[C@H]1CN(C(=O)N[C@H]2CCOC2)c2ccccc2O1)c1ccc(-c2c3nc(c(-c4c(F)c(F)c(F)c(F)c4F)c4ccc([nH]4)c(-c4c(F)c(F)c(F)c(F)c4F)c4nc(c(-c5c(F)c(F)c(F)c(F)c5F)c5ccc2[nH]5)C=C4)C=C3)cc1
REMARK SMILES IDX 5 1 4 2 3 3 1 4 2 5 29 7 30 8 91 9 31 10 90 11 32 12 33 13
REMARK SMILES IDX 34 14 84 15 35 16 89 17 83 18 85 19 36 20 88 21 82 22 81 23
REMARK SMILES IDX 37 25 69 26 49 27 68 28 50 29 53 30 67 31 86 32 51 33 52 34
REMARK SMILES IDX 66 36 87 37 54 38 38 39 39 40 47 41 40 42 41 43 45 44 48 45
REMARK SMILES IDX 42 46 43 47 46 48 44 49 70 50 71 51 79 52 72 53 73 54 77 55
REMARK SMILES IDX 80 56 74 57 75 58 78 59 76 60 55 61 56 62 64 63 57 64 58 65
REMARK SMILES IDX 62 66 65 67 59 68 60 69 63 70 61 71 6 72 7 73 8 74 9 75
REMARK SMILES IDX 10 77 11 78 12 79 28 80 13 81 27 82 22 83 26 84 23 85 25 86
REMARK SMILES IDX 24 87 14 88 15 89 16 90 17 92 18 93 21 94 19 95 20 96
REMARK H PARENT 3 6 85 24 53 35 8 76 16 91
REMARK Flexibility Score: inf
ROOT
ATOM      1  C   UNL A   1      31.395  32.260  26.623  1.00  0.00     0.023 C 
ENDROOT
BRANCH   1   2
ATOM      2  C   UNL A   1      32.544  32.926  27.357  1.00  0.00     0.116 C 
BRANCH   2   3
ATOM      3  N   UNL A   1      32.286  34.321  27.684  1.00  0.00    -0.352 N 
ATOM      4  O   UNL A   1      32.547  36.253  28.827  1.00  0.00    -0.269 OA
ATOM      5  C   UNL A   1      32.942  35.118  28.587  1.00  0.00     0.251 C 
ATOM      6  H   UNL A   1      31.546  34.747  27.194  1.00  0.00     0.163 HD
BRANCH   5   7
ATOM      7  C   UNL A   1      34.109  34.566  29.298  1.00  0.00     0.039 A 
ATOM      8  C   UNL A   1      35.389  34.689  28.753  1.00  0.00     0.014 A 
ATOM      9  C   UNL A   1      33.902  33.875  30.493  1.00  0.00     0.014 A 
ATOM     10  C   UNL A   1      36.448  34.007  29.335  1.00  0.00     0.010 A 
ATOM     11  C   UNL A   1      34.982  33.255  31.118  1.00  0.00     0.010 A 
ATOM     12  C   UNL A   1      36.254  33.293  30.527  1.00  0.00    -0.014 A 
BRANCH  12  13
ATOM     13  C   UNL A   1      37.406  32.633  31.180  1.00  0.00     0.031 A 
ATOM     14  C   UNL A   1      38.136  31.515  30.500  1.00  0.00     0.074 A 
ATOM     15  C   UNL A   1      37.775  33.053  32.403  1.00  0.00     0.049 A 
ATOM     16  N   UNL A   1      39.117  30.776  30.951  1.00  0.00    -0.248 NA
ATOM     17  C   UNL A   1      37.705  31.174  29.135  1.00  0.00     0.031 C 
ATOM     18  C   UNL A   1      37.130  34.135  33.150  1.00  0.00     0.029 A 
ATOM     19  N   UNL A   1      38.776  32.622  33.233  1.00  0.00    -0.354 N 
ATOM     20  C   UNL A   1      39.401  29.866  29.943  1.00  0.00     0.074 A 
ATOM     21  C   UNL A   1      38.481  30.135  28.859  1.00  0.00     0.031 C 
ATOM     22  C   UNL A   1      37.764  34.298  34.319  1.00  0.00     0.029 A 
ATOM     23  C   UNL A   1      38.815  33.293  34.429  1.00  0.00     0.049 A 
ATOM     24  H   UNL A   1      39.403  31.903  32.995  1.00  0.00     0.167 HD
ATOM     25  C   UNL A   1      40.349  28.898  29.929  1.00  0.00     0.037 A 
ATOM     26  C   UNL A   1      39.593  33.100  35.509  1.00  0.00     0.037 A 
ATOM     27  C   UNL A   1      41.268  28.655  31.011  1.00  0.00     0.049 A 
ATOM     28  C   UNL A   1      40.620  32.008  35.476  1.00  0.00     0.074 A 
ATOM     29  C   UNL A   1      42.288  27.721  31.087  1.00  0.00     0.029 A 
ATOM     30  N   UNL A   1      41.276  29.352  32.212  1.00  0.00    -0.354 N 
ATOM     31  N   UNL A   1      40.894  31.163  34.511  1.00  0.00    -0.248 NA
ATOM     32  C   UNL A   1      41.444  31.839  36.679  1.00  0.00     0.031 C 
ATOM     33  C   UNL A   1      42.885  27.826  32.347  1.00  0.00     0.029 A 
ATOM     34  C   UNL A   1      42.270  28.856  33.041  1.00  0.00     0.049 A 
ATOM     35  H   UNL A   1      40.666  30.089  32.441  1.00  0.00     0.167 HD
ATOM     36  C   UNL A   1      41.931  30.374  34.981  1.00  0.00     0.074 A 
ATOM     37  C   UNL A   1      42.246  30.848  36.314  1.00  0.00     0.031 C 
ATOM     38  C   UNL A   1      42.567  29.347  34.364  1.00  0.00     0.037 A 
BRANCH  25  39
ATOM     39  C   UNL A   1      40.420  28.013  28.720  1.00  0.00     0.064 A 
ATOM     40  C   UNL A   1      39.735  26.790  28.656  1.00  0.00     0.173 A 
ATOM     41  C   UNL A   1      41.162  28.408  27.597  1.00  0.00     0.173 A 
ATOM     42  F   UNL A   1      39.022  26.361  29.708  1.00  0.00    -0.203 F 
ATOM     43  C   UNL A   1      39.811  25.985  27.523  1.00  0.00     0.198 A 
ATOM     44  C   UNL A   1      41.216  27.611  26.455  1.00  0.00     0.198 A 
ATOM     45  F   UNL A   1      41.833  29.569  27.603  1.00  0.00    -0.203 F 
ATOM     46  F   UNL A   1      39.184  24.800  27.502  1.00  0.00    -0.200 F 
ATOM     47  C   UNL A   1      40.546  26.397  26.422  1.00  0.00     0.200 A 
ATOM     48  F   UNL A   1      41.919  28.016  25.389  1.00  0.00    -0.200 F 
ATOM     49  F   UNL A   1      40.616  25.622  25.332  1.00  0.00    -0.200 F 
ENDBRANCH  25  39
BRANCH  26  50
ATOM     50  C   UNL A   1      39.410  33.966  36.698  1.00  0.00     0.064 A 
ATOM     51  C   UNL A   1      38.648  33.534  37.791  1.00  0.00     0.173 A 
ATOM     52  C   UNL A   1      40.041  35.216  36.791  1.00  0.00     0.173 A 
ATOM     53  F   UNL A   1      38.016  32.352  37.740  1.00  0.00    -0.203 F 
ATOM     54  C   UNL A   1      38.519  34.323  38.931  1.00  0.00     0.198 A 
ATOM     55  C   UNL A   1      39.932  35.992  37.941  1.00  0.00     0.198 A 
ATOM     56  F   UNL A   1      40.791  35.666  35.774  1.00  0.00    -0.203 F 
ATOM     57  F   UNL A   1      37.765  33.899  39.954  1.00  0.00    -0.200 F 
ATOM     58  C   UNL A   1      39.168  35.547  39.010  1.00  0.00     0.200 A 
ATOM     59  F   UNL A   1      40.577  37.163  38.020  1.00  0.00    -0.200 F 
ATOM     60  F   UNL A   1      39.058  36.296  40.114  1.00  0.00    -0.200 F 
ENDBRANCH  26  50
BRANCH  38  61
ATOM     61  C   UNL A   1      43.686  28.692  35.113  1.00  0.00     0.064 A 
ATOM     62  C   UNL A   1      43.464  27.585  35.945  1.00  0.00     0.173 A 
ATOM     63  C   UNL A   1      45.003  29.155  34.965  1.00  0.00     0.173 A 
ATOM     64  F   UNL A   1      42.220  27.121  36.131  1.00  0.00    -0.203 F 
ATOM     65  C   UNL A   1      44.520  26.976  36.617  1.00  0.00     0.198 A 
ATOM     66  C   UNL A   1      46.057  28.527  35.619  1.00  0.00     0.198 A 
ATOM     67  F   UNL A   1      45.265  30.208  34.177  1.00  0.00    -0.203 F 
ATOM     68  F   UNL A   1      44.281  25.944  37.439  1.00  0.00    -0.200 F 
ATOM     69  C   UNL A   1      45.815  27.441  36.448  1.00  0.00     0.200 A 
ATOM     70  F   UNL A   1      47.311  28.972  35.448  1.00  0.00    -0.200 F 
ATOM     71  F   UNL A   1      46.831  26.849  37.091  1.00  0.00    -0.200 F 
ENDBRANCH  38  61
ENDBRANCH  12  13
ENDBRANCH   5   7
ENDBRANCH   2   3
ENDBRANCH   1   2
BRANCH   1  72
ATOM     72  C   UNL A   1      31.667  30.827  26.185  1.00  0.00     0.023 C 
BRANCH  72  73
ATOM     73  C   UNL A   1      31.868  29.822  27.323  1.00  0.00     0.116 C 
BRANCH  73  74
ATOM     74  N   UNL A   1      33.272  29.601  27.605  1.00  0.00    -0.353 N 
ATOM     75  C   UNL A   1      34.138  28.713  27.034  1.00  0.00     0.262 C 
ATOM     76  H   UNL A   1      33.656  30.170  28.311  1.00  0.00     0.163 HD
ATOM     77  O   UNL A   1      35.283  28.662  27.491  1.00  0.00    -0.271 OA
BRANCH  75  78
ATOM     78  C   UNL A   1      33.691  27.760  25.919  1.00  0.00     0.281 C 
ATOM     79  C   UNL A   1      34.406  28.106  24.628  1.00  0.00     0.183 C 
ATOM     80  O   UNL A   1      33.903  26.394  26.257  1.00  0.00    -0.477 OA
ATOM     81  N   UNL A   1      33.796  27.399  23.521  1.00  0.00    -0.287 N 
ATOM     82  C   UNL A   1      33.858  25.550  25.165  1.00  0.00     0.144 A 
ATOM     83  C   UNL A   1      33.772  25.979  23.813  1.00  0.00     0.088 A 
ATOM     84  C   UNL A   1      33.933  24.194  25.494  1.00  0.00     0.049 A 
ATOM     85  C   UNL A   1      33.766  24.995  22.820  1.00  0.00     0.030 A 
ATOM     86  C   UNL A   1      33.936  23.237  24.486  1.00  0.00     0.004 A 
ATOM     87  C   UNL A   1      33.855  23.636  23.155  1.00  0.00     0.002 A 
BRANCH  81  88
ATOM     88  C   UNL A   1      33.310  27.942  22.365  1.00  0.00     0.322 C 
ATOM     89  O   UNL A   1      33.972  28.026  21.323  1.00  0.00    -0.248 OA
ATOM     90  N   UNL A   1      32.054  28.407  22.209  1.00  0.00    -0.333 N 
ATOM     91  H   UNL A   1      31.934  28.674  21.269  1.00  0.00     0.165 HD
BRANCH  90  92
ATOM     92  C   UNL A   1      30.798  28.660  22.925  1.00  0.00     0.112 C 
ATOM     93  C   UNL A   1      29.890  29.751  22.394  1.00  0.00     0.056 C 
ATOM     94  C   UNL A   1      29.911  27.457  23.195  1.00  0.00     0.185 C 
ATOM     95  C   UNL A   1      28.484  29.199  22.566  1.00  0.00     0.162 C 
ATOM     96  O   UNL A   1      28.558  27.925  23.216  1.00  0.00    -0.379 OA
ENDBRANCH  90  92
ENDBRANCH  81  88
ENDBRANCH  75  78
ENDBRANCH  73  74
ENDBRANCH  72  73
ENDBRANCH   1  72
TORSDOF 13
ENDMDL
