MODEL 1
REMARK VINA RESULT:     -12.8      0.000      0.000
REMARK SMILES C[C@@H](CC(=O)NCCCCNC(=O)c1ccc(-c2c3nc(c(-c4c(F)c(F)c(F)c(F)c4F)c4ccc([nH]4)c(-c4c(F)c(F)c(F)c(F)c4F)c4nc(c(-c5c(F)c(F)c(F)c(F)c5F)c5ccc2[nH]5)C=C4)C=C3)cc1)NC(=O)/C=C/c1cc(Cl)cc(Cl)c1
REMARK SMILES IDX 7 1 6 2 4 3 5 4 3 6 2 7 1 8 77 9 78 10 79 12 80 13 81 14
REMARK SMILES IDX 82 15 83 16 89 17 84 18 87 19 85 20 86 21 88 22 8 23 9 24
REMARK SMILES IDX 10 25 11 26 12 27 13 29 14 30 15 31 76 32 16 33 75 34 17 35
REMARK SMILES IDX 18 36 19 37 69 38 20 39 74 40 68 41 70 42 21 43 73 44 67 45
REMARK SMILES IDX 66 46 22 48 54 49 34 50 53 51 35 52 38 53 52 54 71 55 36 56
REMARK SMILES IDX 37 57 51 59 72 60 39 61 23 62 24 63 32 64 25 65 26 66 30 67
REMARK SMILES IDX 33 68 27 69 28 70 31 71 29 72 55 73 56 74 64 75 57 76 58 77
REMARK SMILES IDX 62 78 65 79 59 80 60 81 63 82 61 83 40 84 41 85 49 86 42 87
REMARK SMILES IDX 43 88 47 89 50 90 44 91 45 92 48 93 46 94
REMARK H PARENT 6 5 77 11 11 28 70 47 38 58
REMARK Flexibility Score: inf
ROOT
ATOM      1  C   UNL A   1      32.644  29.750  26.954  1.00  0.00     0.116 C 
ENDROOT
BRANCH   1   2
ATOM      2  N   UNL A   1      31.854  28.558  27.193  1.00  0.00    -0.356 N 
ATOM      3  C   UNL A   1      31.992  27.306  26.677  1.00  0.00     0.222 C 
ATOM      4  O   UNL A   1      31.057  26.517  26.813  1.00  0.00    -0.275 OA
ATOM      5  H   UNL A   1      31.106  28.672  27.821  1.00  0.00     0.163 HD
BRANCH   3   6
ATOM      6  C   UNL A   1      33.276  26.879  25.996  1.00  0.00     0.124 C 
BRANCH   6   7
ATOM      7  C   UNL A   1      33.216  25.615  25.124  1.00  0.00     0.088 C 
ATOM      8  C   UNL A   1      33.943  24.427  25.745  1.00  0.00     0.031 C 
BRANCH   7   9
ATOM      9  N   UNL A   1      33.706  25.812  23.764  1.00  0.00    -0.350 N 
ATOM     10  C   UNL A   1      33.086  26.276  22.643  1.00  0.00     0.244 C 
ATOM     11  H   UNL A   1      34.650  25.568  23.634  1.00  0.00     0.164 HD
ATOM     12  O   UNL A   1      33.682  26.234  21.567  1.00  0.00    -0.270 OA
BRANCH  10  13
ATOM     13  C   UNL A   1      31.746  26.925  22.684  1.00  0.00     0.072 C 
ATOM     14  C   UNL A   1      31.499  28.239  22.642  1.00  0.00     0.014 C 
BRANCH  14  15
ATOM     15  C   UNL A   1      30.187  28.873  22.618  1.00  0.00    -0.023 A 
ATOM     16  C   UNL A   1      29.124  28.212  23.244  1.00  0.00     0.028 A 
ATOM     17  C   UNL A   1      29.949  30.012  21.849  1.00  0.00     0.028 A 
ATOM     18  C   UNL A   1      27.824  28.684  23.082  1.00  0.00     0.043 A 
ATOM     19  C   UNL A   1      28.641  30.471  21.695  1.00  0.00     0.043 A 
ATOM     20  Cl  UNL A   1      26.518  27.836  23.815  1.00  0.00    -0.084 Cl
ATOM     21  C   UNL A   1      27.574  29.809  22.304  1.00  0.00     0.041 A 
ATOM     22  Cl  UNL A   1      28.335  31.840  20.700  1.00  0.00    -0.084 Cl
ENDBRANCH  14  15
ENDBRANCH  10  13
ENDBRANCH   7   9
ENDBRANCH   6   7
ENDBRANCH   3   6
ENDBRANCH   1   2
BRANCH   1  23
ATOM     23  C   UNL A   1      31.839  30.760  26.133  1.00  0.00     0.023 C 
BRANCH  23  24
ATOM     24  C   UNL A   1      31.483  32.044  26.866  1.00  0.00     0.023 C 
BRANCH  24  25
ATOM     25  C   UNL A   1      32.679  32.821  27.373  1.00  0.00     0.116 C 
BRANCH  25  26
ATOM     26  N   UNL A   1      32.385  34.219  27.652  1.00  0.00    -0.352 N 
ATOM     27  C   UNL A   1      33.001  35.044  28.563  1.00  0.00     0.251 C 
ATOM     28  H   UNL A   1      31.656  34.622  27.125  1.00  0.00     0.163 HD
ATOM     29  O   UNL A   1      32.590  36.176  28.774  1.00  0.00    -0.269 OA
BRANCH  27  30
ATOM     30  C   UNL A   1      34.150  34.505  29.316  1.00  0.00     0.039 A 
ATOM     31  C   UNL A   1      33.913  33.765  30.474  1.00  0.00     0.014 A 
ATOM     32  C   UNL A   1      35.442  34.636  28.799  1.00  0.00     0.014 A 
ATOM     33  C   UNL A   1      34.972  33.089  31.077  1.00  0.00     0.010 A 
ATOM     34  C   UNL A   1      36.470  33.880  29.339  1.00  0.00     0.010 A 
ATOM     35  C   UNL A   1      36.249  33.109  30.490  1.00  0.00    -0.014 A 
BRANCH  35  36
ATOM     36  C   UNL A   1      37.382  32.356  31.077  1.00  0.00     0.031 A 
ATOM     37  C   UNL A   1      37.865  32.707  32.457  1.00  0.00     0.074 A 
ATOM     38  C   UNL A   1      38.019  31.421  30.349  1.00  0.00     0.049 A 
ATOM     39  N   UNL A   1      38.889  32.238  33.122  1.00  0.00    -0.248 NA
ATOM     40  C   UNL A   1      37.122  33.760  33.168  1.00  0.00     0.031 C 
ATOM     41  C   UNL A   1      37.685  31.041  28.974  1.00  0.00     0.029 A 
ATOM     42  N   UNL A   1      39.090  30.623  30.661  1.00  0.00    -0.354 N 
ATOM     43  C   UNL A   1      38.925  32.955  34.310  1.00  0.00     0.074 A 
ATOM     44  C   UNL A   1      37.864  33.934  34.250  1.00  0.00     0.031 C 
ATOM     45  C   UNL A   1      38.514  30.062  28.575  1.00  0.00     0.029 A 
ATOM     46  C   UNL A   1      39.454  29.768  29.651  1.00  0.00     0.049 A 
ATOM     47  H   UNL A   1      39.554  30.660  31.530  1.00  0.00     0.167 HD
ATOM     48  C   UNL A   1      39.748  32.789  35.371  1.00  0.00     0.037 A 
ATOM     49  C   UNL A   1      40.436  28.848  29.605  1.00  0.00     0.037 A 
ATOM     50  C   UNL A   1      40.769  31.780  35.445  1.00  0.00     0.049 A 
ATOM     51  C   UNL A   1      41.314  28.655  30.813  1.00  0.00     0.074 A 
ATOM     52  C   UNL A   1      41.610  31.477  36.500  1.00  0.00     0.029 A 
ATOM     53  N   UNL A   1      41.079  30.900  34.418  1.00  0.00    -0.354 N 
ATOM     54  N   UNL A   1      41.293  29.290  31.959  1.00  0.00    -0.248 NA
ATOM     55  C   UNL A   1      42.343  27.611  30.723  1.00  0.00     0.031 C 
ATOM     56  C   UNL A   1      42.452  30.434  36.100  1.00  0.00     0.029 A 
ATOM     57  C   UNL A   1      42.107  30.060  34.811  1.00  0.00     0.049 A 
ATOM     58  H   UNL A   1      40.634  30.876  33.540  1.00  0.00     0.167 HD
ATOM     59  C   UNL A   1      42.285  28.707  32.736  1.00  0.00     0.074 A 
ATOM     60  C   UNL A   1      42.879  27.656  31.934  1.00  0.00     0.031 C 
ATOM     61  C   UNL A   1      42.672  29.013  33.998  1.00  0.00     0.037 A 
BRANCH  48  62
ATOM     62  C   UNL A   1      39.561  33.712  36.539  1.00  0.00     0.064 A 
ATOM     63  C   UNL A   1      40.166  34.978  36.579  1.00  0.00     0.173 A 
ATOM     64  C   UNL A   1      38.763  33.332  37.627  1.00  0.00     0.173 A 
ATOM     65  F   UNL A   1      40.955  35.382  35.571  1.00  0.00    -0.203 F 
ATOM     66  C   UNL A   1      40.006  35.814  37.680  1.00  0.00     0.198 A 
ATOM     67  C   UNL A   1      38.580  34.185  38.713  1.00  0.00     0.198 A 
ATOM     68  F   UNL A   1      38.161  32.133  37.640  1.00  0.00    -0.203 F 
ATOM     69  F   UNL A   1      40.642  36.994  37.720  1.00  0.00    -0.200 F 
ATOM     70  C   UNL A   1      39.208  35.420  38.742  1.00  0.00     0.200 A 
ATOM     71  F   UNL A   1      37.801  33.807  39.736  1.00  0.00    -0.200 F 
ATOM     72  F   UNL A   1      39.053  36.228  39.801  1.00  0.00    -0.200 F 
ENDBRANCH  48  62
BRANCH  49  73
ATOM     73  C   UNL A   1      40.612  28.006  28.393  1.00  0.00     0.064 A 
ATOM     74  C   UNL A   1      41.402  28.450  27.323  1.00  0.00     0.173 A 
ATOM     75  C   UNL A   1      40.000  26.751  28.277  1.00  0.00     0.173 A 
ATOM     76  F   UNL A   1      41.992  29.652  27.381  1.00  0.00    -0.203 F 
ATOM     77  C   UNL A   1      41.556  27.677  26.174  1.00  0.00     0.198 A 
ATOM     78  C   UNL A   1      40.175  25.968  27.137  1.00  0.00     0.198 A 
ATOM     79  F   UNL A   1      39.240  26.279  29.276  1.00  0.00    -0.203 F 
ATOM     80  F   UNL A   1      42.282  28.144  25.148  1.00  0.00    -0.200 F 
ATOM     81  C   UNL A   1      40.947  26.435  26.084  1.00  0.00     0.200 A 
ATOM     82  F   UNL A   1      39.595  24.763  27.058  1.00  0.00    -0.200 F 
ATOM     83  F   UNL A   1      41.098  25.691  24.979  1.00  0.00    -0.200 F 
ENDBRANCH  49  73
BRANCH  61  84
ATOM     84  C   UNL A   1      43.764  28.181  34.601  1.00  0.00     0.064 A 
ATOM     85  C   UNL A   1      43.482  27.000  35.302  1.00  0.00     0.173 A 
ATOM     86  C   UNL A   1      45.107  28.550  34.439  1.00  0.00     0.173 A 
ATOM     87  F   UNL A   1      42.212  26.615  35.495  1.00  0.00    -0.203 F 
ATOM     88  C   UNL A   1      44.509  26.229  35.841  1.00  0.00     0.198 A 
ATOM     89  C   UNL A   1      46.131  27.762  34.955  1.00  0.00     0.198 A 
ATOM     90  F   UNL A   1      45.426  29.667  33.770  1.00  0.00    -0.203 F 
ATOM     91  F   UNL A   1      44.217  25.127  36.546  1.00  0.00    -0.200 F 
ATOM     92  C   UNL A   1      45.831  26.607  35.661  1.00  0.00     0.200 A 
ATOM     93  F   UNL A   1      47.409  28.122  34.770  1.00  0.00    -0.200 F 
ATOM     94  F   UNL A   1      46.818  25.859  36.174  1.00  0.00    -0.200 F 
ENDBRANCH  61  84
ENDBRANCH  35  36
ENDBRANCH  27  30
ENDBRANCH  25  26
ENDBRANCH  24  25
ENDBRANCH  23  24
ENDBRANCH   1  23
TORSDOF 15
ENDMDL
MODEL 2
REMARK VINA RESULT:     -12.5      1.718      2.599
REMARK SMILES C[C@@H](CC(=O)NCCCCNC(=O)c1ccc(-c2c3nc(c(-c4c(F)c(F)c(F)c(F)c4F)c4ccc([nH]4)c(-c4c(F)c(F)c(F)c(F)c4F)c4nc(c(-c5c(F)c(F)c(F)c(F)c5F)c5ccc2[nH]5)C=C4)C=C3)cc1)NC(=O)/C=C/c1cc(Cl)cc(Cl)c1
REMARK SMILES IDX 7 1 6 2 4 3 5 4 3 6 2 7 1 8 77 9 78 10 79 12 80 13 81 14
REMARK SMILES IDX 82 15 83 16 89 17 84 18 87 19 85 20 86 21 88 22 8 23 9 24
REMARK SMILES IDX 10 25 11 26 12 27 13 29 14 30 15 31 76 32 16 33 75 34 17 35
REMARK SMILES IDX 18 36 19 37 69 38 20 39 74 40 68 41 70 42 21 43 73 44 67 45
REMARK SMILES IDX 66 46 22 48 54 49 34 50 53 51 35 52 38 53 52 54 71 55 36 56
REMARK SMILES IDX 37 57 51 59 72 60 39 61 23 62 24 63 32 64 25 65 26 66 30 67
REMARK SMILES IDX 33 68 27 69 28 70 31 71 29 72 55 73 56 74 64 75 57 76 58 77
REMARK SMILES IDX 62 78 65 79 59 80 60 81 63 82 61 83 40 84 41 85 49 86 42 87
REMARK SMILES IDX 43 88 47 89 50 90 44 91 45 92 48 93 46 94
REMARK H PARENT 6 5 77 11 11 28 70 47 38 58
REMARK Flexibility Score: inf
ROOT
ATOM      1  C   UNL A   1      31.448  26.642  26.262  1.00  0.00     0.116 C 
ENDROOT
BRANCH   1   2
ATOM      2  N   UNL A   1      32.710  25.996  25.959  1.00  0.00    -0.356 N 
ATOM      3  C   UNL A   1      32.951  24.762  25.439  1.00  0.00     0.222 C 
ATOM      4  O   UNL A   1      34.098  24.317  25.510  1.00  0.00    -0.275 OA
ATOM      5  H   UNL A   1      33.512  26.529  26.161  1.00  0.00     0.163 HD
BRANCH   3   6
ATOM      6  C   UNL A   1      31.855  23.976  24.751  1.00  0.00     0.124 C 
BRANCH   6   7
ATOM      7  C   UNL A   1      32.044  23.678  23.255  1.00  0.00     0.088 C 
ATOM      8  C   UNL A   1      32.498  22.248  22.984  1.00  0.00     0.031 C 
BRANCH   7   9
ATOM      9  N   UNL A   1      32.952  24.599  22.579  1.00  0.00    -0.350 N 
ATOM     10  C   UNL A   1      32.737  25.818  22.010  1.00  0.00     0.244 C 
ATOM     11  H   UNL A   1      33.883  24.285  22.527  1.00  0.00     0.164 HD
ATOM     12  O   UNL A   1      33.650  26.356  21.383  1.00  0.00    -0.270 OA
BRANCH  10  13
ATOM     13  C   UNL A   1      31.468  26.574  22.200  1.00  0.00     0.072 C 
ATOM     14  C   UNL A   1      31.352  27.888  22.421  1.00  0.00     0.014 C 
BRANCH  14  15
ATOM     15  C   UNL A   1      30.110  28.639  22.544  1.00  0.00    -0.023 A 
ATOM     16  C   UNL A   1      29.025  28.021  23.179  1.00  0.00     0.028 A 
ATOM     17  C   UNL A   1      29.939  29.864  21.899  1.00  0.00     0.028 A 
ATOM     18  C   UNL A   1      27.770  28.623  23.148  1.00  0.00     0.043 A 
ATOM     19  C   UNL A   1      28.675  30.453  21.875  1.00  0.00     0.043 A 
ATOM     20  Cl  UNL A   1      26.433  27.833  23.889  1.00  0.00    -0.084 Cl
ATOM     21  C   UNL A   1      27.586  29.837  22.493  1.00  0.00     0.041 A 
ATOM     22  Cl  UNL A   1      28.445  31.934  21.030  1.00  0.00    -0.084 Cl
ENDBRANCH  14  15
ENDBRANCH  10  13
ENDBRANCH   7   9
ENDBRANCH   6   7
ENDBRANCH   3   6
ENDBRANCH   1   2
BRANCH   1  23
ATOM     23  C   UNL A   1      31.697  28.030  26.858  1.00  0.00     0.023 C 
BRANCH  23  24
ATOM     24  C   UNL A   1      31.760  29.161  25.845  1.00  0.00     0.023 C 
BRANCH  24  25
ATOM     25  C   UNL A   1      32.984  30.043  25.975  1.00  0.00     0.116 C 
BRANCH  25  26
ATOM     26  N   UNL A   1      32.687  31.375  26.483  1.00  0.00    -0.352 N 
ATOM     27  C   UNL A   1      33.417  32.116  27.383  1.00  0.00     0.251 C 
ATOM     28  H   UNL A   1      31.864  31.795  26.140  1.00  0.00     0.163 HD
ATOM     29  O   UNL A   1      33.003  33.185  27.806  1.00  0.00    -0.269 OA
BRANCH  27  30
ATOM     30  C   UNL A   1      34.697  31.559  27.858  1.00  0.00     0.039 A 
ATOM     31  C   UNL A   1      35.798  32.406  27.986  1.00  0.00     0.014 A 
ATOM     32  C   UNL A   1      34.760  30.230  28.286  1.00  0.00     0.014 A 
ATOM     33  C   UNL A   1      36.948  31.935  28.618  1.00  0.00     0.010 A 
ATOM     34  C   UNL A   1      35.864  29.799  29.006  1.00  0.00     0.010 A 
ATOM     35  C   UNL A   1      36.973  30.642  29.168  1.00  0.00    -0.014 A 
BRANCH  35  36
ATOM     36  C   UNL A   1      38.161  30.133  29.893  1.00  0.00     0.031 A 
ATOM     37  C   UNL A   1      38.412  30.584  31.305  1.00  0.00     0.074 A 
ATOM     38  C   UNL A   1      39.044  29.336  29.264  1.00  0.00     0.049 A 
ATOM     39  N   UNL A   1      39.429  30.331  32.088  1.00  0.00    -0.248 NA
ATOM     40  C   UNL A   1      37.404  31.475  31.903  1.00  0.00     0.031 C 
ATOM     41  C   UNL A   1      38.943  28.887  27.873  1.00  0.00     0.029 A 
ATOM     42  N   UNL A   1      40.210  28.768  29.711  1.00  0.00    -0.354 N 
ATOM     43  C   UNL A   1      39.194  31.051  33.251  1.00  0.00     0.074 A 
ATOM     44  C   UNL A   1      37.975  31.800  33.051  1.00  0.00     0.031 C 
ATOM     45  C   UNL A   1      39.985  28.088  27.592  1.00  0.00     0.029 A 
ATOM     46  C   UNL A   1      40.842  27.994  28.770  1.00  0.00     0.049 A 
ATOM     47  H   UNL A   1      40.560  28.904  30.622  1.00  0.00     0.167 HD
ATOM     48  C   UNL A   1      39.913  31.060  34.397  1.00  0.00     0.037 A 
ATOM     49  C   UNL A   1      41.984  27.286  28.855  1.00  0.00     0.037 A 
ATOM     50  C   UNL A   1      41.097  30.273  34.608  1.00  0.00     0.049 A 
ATOM     51  C   UNL A   1      42.746  27.281  30.153  1.00  0.00     0.074 A 
ATOM     52  C   UNL A   1      41.862  30.151  35.755  1.00  0.00     0.029 A 
ATOM     53  N   UNL A   1      41.684  29.464  33.646  1.00  0.00    -0.354 N 
ATOM     54  N   UNL A   1      42.476  27.908  31.272  1.00  0.00    -0.248 NA
ATOM     55  C   UNL A   1      43.963  26.460  30.203  1.00  0.00     0.031 C 
ATOM     56  C   UNL A   1      42.930  29.292  35.476  1.00  0.00     0.029 A 
ATOM     57  C   UNL A   1      42.808  28.846  34.170  1.00  0.00     0.049 A 
ATOM     58  H   UNL A   1      41.350  29.345  32.727  1.00  0.00     0.167 HD
ATOM     59  C   UNL A   1      43.472  27.539  32.166  1.00  0.00     0.074 A 
ATOM     60  C   UNL A   1      44.344  26.620  31.462  1.00  0.00     0.031 C 
ATOM     61  C   UNL A   1      43.652  27.926  33.452  1.00  0.00     0.037 A 
BRANCH  48  62
ATOM     62  C   UNL A   1      39.423  31.937  35.512  1.00  0.00     0.064 A 
ATOM     63  C   UNL A   1      39.845  33.270  35.637  1.00  0.00     0.173 A 
ATOM     64  C   UNL A   1      38.516  31.444  36.461  1.00  0.00     0.173 A 
ATOM     65  F   UNL A   1      40.726  33.784  34.766  1.00  0.00    -0.203 F 
ATOM     66  C   UNL A   1      39.403  34.065  36.690  1.00  0.00     0.198 A 
ATOM     67  C   UNL A   1      38.052  32.253  37.495  1.00  0.00     0.198 A 
ATOM     68  F   UNL A   1      38.080  30.177  36.387  1.00  0.00    -0.203 F 
ATOM     69  F   UNL A   1      39.866  35.316  36.821  1.00  0.00    -0.200 F 
ATOM     70  C   UNL A   1      38.502  33.559  37.614  1.00  0.00     0.200 A 
ATOM     71  F   UNL A   1      37.174  31.765  38.382  1.00  0.00    -0.200 F 
ATOM     72  F   UNL A   1      38.076  34.327  38.626  1.00  0.00    -0.200 F 
ENDBRANCH  48  62
BRANCH  49  73
ATOM     73  C   UNL A   1      42.453  26.486  27.693  1.00  0.00     0.064 A 
ATOM     74  C   UNL A   1      41.947  25.200  27.460  1.00  0.00     0.173 A 
ATOM     75  C   UNL A   1      43.408  26.985  26.797  1.00  0.00     0.173 A 
ATOM     76  F   UNL A   1      41.045  24.673  28.301  1.00  0.00    -0.203 F 
ATOM     77  C   UNL A   1      42.394  24.434  26.385  1.00  0.00     0.198 A 
ATOM     78  C   UNL A   1      43.836  26.228  25.708  1.00  0.00     0.198 A 
ATOM     79  F   UNL A   1      43.917  28.213  26.972  1.00  0.00    -0.203 F 
ATOM     80  F   UNL A   1      41.926  23.191  26.211  1.00  0.00    -0.200 F 
ATOM     81  C   UNL A   1      43.335  24.951  25.507  1.00  0.00     0.200 A 
ATOM     82  F   UNL A   1      44.736  26.735  24.855  1.00  0.00    -0.200 F 
ATOM     83  F   UNL A   1      43.763  24.215  24.472  1.00  0.00    -0.200 F 
ENDBRANCH  49  73
BRANCH  61  84
ATOM     84  C   UNL A   1      44.813  27.331  34.191  1.00  0.00     0.064 A 
ATOM     85  C   UNL A   1      44.700  26.109  34.871  1.00  0.00     0.173 A 
ATOM     86  C   UNL A   1      46.060  27.971  34.183  1.00  0.00     0.173 A 
ATOM     87  F   UNL A   1      43.523  25.469  34.920  1.00  0.00    -0.203 F 
ATOM     88  C   UNL A   1      45.793  25.562  35.538  1.00  0.00     0.198 A 
ATOM     89  C   UNL A   1      47.157  27.406  34.826  1.00  0.00     0.198 A 
ATOM     90  F   UNL A   1      46.219  29.136  33.539  1.00  0.00    -0.203 F 
ATOM     91  F   UNL A   1      45.653  24.416  36.219  1.00  0.00    -0.200 F 
ATOM     92  C   UNL A   1      47.021  26.206  35.508  1.00  0.00     0.200 A 
ATOM     93  F   UNL A   1      48.346  28.023  34.787  1.00  0.00    -0.200 F 
ATOM     94  F   UNL A   1      48.073  25.673  36.145  1.00  0.00    -0.200 F 
ENDBRANCH  61  84
ENDBRANCH  35  36
ENDBRANCH  27  30
ENDBRANCH  25  26
ENDBRANCH  24  25
ENDBRANCH  23  24
ENDBRANCH   1  23
TORSDOF 15
ENDMDL
MODEL 3
REMARK VINA RESULT:     -12.4      0.725      7.521
REMARK SMILES C[C@@H](CC(=O)NCCCCNC(=O)c1ccc(-c2c3nc(c(-c4c(F)c(F)c(F)c(F)c4F)c4ccc([nH]4)c(-c4c(F)c(F)c(F)c(F)c4F)c4nc(c(-c5c(F)c(F)c(F)c(F)c5F)c5ccc2[nH]5)C=C4)C=C3)cc1)NC(=O)/C=C/c1cc(Cl)cc(Cl)c1
REMARK SMILES IDX 7 1 6 2 4 3 5 4 3 6 2 7 1 8 77 9 78 10 79 12 80 13 81 14
REMARK SMILES IDX 82 15 83 16 89 17 84 18 87 19 85 20 86 21 88 22 8 23 9 24
REMARK SMILES IDX 10 25 11 26 12 27 13 29 14 30 15 31 76 32 16 33 75 34 17 35
REMARK SMILES IDX 18 36 19 37 69 38 20 39 74 40 68 41 70 42 21 43 73 44 67 45
REMARK SMILES IDX 66 46 22 48 54 49 34 50 53 51 35 52 38 53 52 54 71 55 36 56
REMARK SMILES IDX 37 57 51 59 72 60 39 61 23 62 24 63 32 64 25 65 26 66 30 67
REMARK SMILES IDX 33 68 27 69 28 70 31 71 29 72 55 73 56 74 64 75 57 76 58 77
REMARK SMILES IDX 62 78 65 79 59 80 60 81 63 82 61 83 40 84 41 85 49 86 42 87
REMARK SMILES IDX 43 88 47 89 50 90 44 91 45 92 48 93 46 94
REMARK H PARENT 6 5 77 11 11 28 70 47 38 58
REMARK Flexibility Score: inf
ROOT
ATOM      1  C   UNL A   1      31.929  29.394  26.053  1.00  0.00     0.116 C 
ENDROOT
BRANCH   1   2
ATOM      2  N   UNL A   1      31.446  28.149  26.616  1.00  0.00    -0.356 N 
ATOM      3  C   UNL A   1      31.807  26.868  26.332  1.00  0.00     0.222 C 
ATOM      4  O   UNL A   1      31.084  25.958  26.740  1.00  0.00    -0.275 OA
ATOM      5  H   UNL A   1      30.753  28.245  27.308  1.00  0.00     0.163 HD
BRANCH   3   6
ATOM      6  C   UNL A   1      33.083  26.566  25.575  1.00  0.00     0.124 C 
BRANCH   6   7
ATOM      7  C   UNL A   1      33.084  25.318  24.679  1.00  0.00     0.088 C 
ATOM      8  C   UNL A   1      33.881  24.159  25.270  1.00  0.00     0.031 C 
BRANCH   7   9
ATOM      9  N   UNL A   1      33.550  25.567  23.318  1.00  0.00    -0.350 N 
ATOM     10  C   UNL A   1      32.921  26.108  22.238  1.00  0.00     0.244 C 
ATOM     11  H   UNL A   1      34.482  25.298  23.153  1.00  0.00     0.164 HD
ATOM     12  O   UNL A   1      33.491  26.101  21.147  1.00  0.00    -0.270 OA
BRANCH  10  13
ATOM     13  C   UNL A   1      31.606  26.800  22.345  1.00  0.00     0.072 C 
ATOM     14  C   UNL A   1      31.411  28.109  22.538  1.00  0.00     0.014 C 
BRANCH  14  15
ATOM     15  C   UNL A   1      30.127  28.796  22.579  1.00  0.00    -0.023 A 
ATOM     16  C   UNL A   1      29.054  28.152  23.206  1.00  0.00     0.028 A 
ATOM     17  C   UNL A   1      29.916  29.978  21.868  1.00  0.00     0.028 A 
ATOM     18  C   UNL A   1      27.771  28.683  23.102  1.00  0.00     0.043 A 
ATOM     19  C   UNL A   1      28.625  30.495  21.771  1.00  0.00     0.043 A 
ATOM     20  Cl  UNL A   1      26.450  27.857  23.834  1.00  0.00    -0.084 Cl
ATOM     21  C   UNL A   1      27.548  29.851  22.381  1.00  0.00     0.041 A 
ATOM     22  Cl  UNL A   1      28.350  31.919  20.846  1.00  0.00    -0.084 Cl
ENDBRANCH  14  15
ENDBRANCH  10  13
ENDBRANCH   7   9
ENDBRANCH   6   7
ENDBRANCH   3   6
ENDBRANCH   1   2
BRANCH   1  23
ATOM     23  C   UNL A   1      32.344  30.353  27.172  1.00  0.00     0.023 C 
BRANCH  23  24
ATOM     24  C   UNL A   1      32.004  31.813  26.924  1.00  0.00     0.023 C 
BRANCH  24  25
ATOM     25  C   UNL A   1      33.090  32.782  27.340  1.00  0.00     0.116 C 
BRANCH  25  26
ATOM     26  N   UNL A   1      32.591  34.116  27.642  1.00  0.00    -0.352 N 
ATOM     27  C   UNL A   1      33.020  34.974  28.628  1.00  0.00     0.251 C 
ATOM     28  H   UNL A   1      31.857  34.444  27.071  1.00  0.00     0.163 HD
ATOM     29  O   UNL A   1      32.447  36.031  28.843  1.00  0.00    -0.269 OA
BRANCH  27  30
ATOM     30  C   UNL A   1      34.170  34.556  29.453  1.00  0.00     0.039 A 
ATOM     31  C   UNL A   1      33.934  33.979  30.700  1.00  0.00     0.014 A 
ATOM     32  C   UNL A   1      35.463  34.631  28.930  1.00  0.00     0.014 A 
ATOM     33  C   UNL A   1      34.997  33.404  31.396  1.00  0.00     0.010 A 
ATOM     34  C   UNL A   1      36.497  33.968  29.574  1.00  0.00     0.010 A 
ATOM     35  C   UNL A   1      36.276  33.359  30.818  1.00  0.00    -0.014 A 
BRANCH  35  36
ATOM     36  C   UNL A   1      37.415  32.707  31.509  1.00  0.00     0.031 A 
ATOM     37  C   UNL A   1      38.125  31.564  30.840  1.00  0.00     0.074 A 
ATOM     38  C   UNL A   1      37.754  33.087  32.754  1.00  0.00     0.049 A 
ATOM     39  N   UNL A   1      39.083  30.801  31.299  1.00  0.00    -0.248 NA
ATOM     40  C   UNL A   1      37.669  31.203  29.488  1.00  0.00     0.031 C 
ATOM     41  C   UNL A   1      37.093  34.138  33.532  1.00  0.00     0.029 A 
ATOM     42  N   UNL A   1      38.737  32.625  33.591  1.00  0.00    -0.354 N 
ATOM     43  C   UNL A   1      39.320  29.859  30.306  1.00  0.00     0.074 A 
ATOM     44  C   UNL A   1      38.366  30.104  29.249  1.00  0.00     0.031 C 
ATOM     45  C   UNL A   1      37.711  34.261  34.719  1.00  0.00     0.029 A 
ATOM     46  C   UNL A   1      38.788  33.279  34.797  1.00  0.00     0.049 A 
ATOM     47  H   UNL A   1      39.350  31.892  33.349  1.00  0.00     0.167 HD
ATOM     48  C   UNL A   1      40.271  28.898  30.266  1.00  0.00     0.037 A 
ATOM     49  C   UNL A   1      39.616  33.105  35.844  1.00  0.00     0.037 A 
ATOM     50  C   UNL A   1      41.250  28.692  31.298  1.00  0.00     0.049 A 
ATOM     51  C   UNL A   1      40.691  32.055  35.759  1.00  0.00     0.074 A 
ATOM     52  C   UNL A   1      42.302  27.795  31.325  1.00  0.00     0.029 A 
ATOM     53  N   UNL A   1      41.299  29.405  32.487  1.00  0.00    -0.354 N 
ATOM     54  N   UNL A   1      40.953  31.217  34.785  1.00  0.00    -0.248 NA
ATOM     55  C   UNL A   1      41.591  31.935  36.913  1.00  0.00     0.031 C 
ATOM     56  C   UNL A   1      42.969  27.944  32.546  1.00  0.00     0.029 A 
ATOM     57  C   UNL A   1      42.358  28.962  33.261  1.00  0.00     0.049 A 
ATOM     58  H   UNL A   1      40.673  30.122  32.743  1.00  0.00     0.167 HD
ATOM     59  C   UNL A   1      42.061  30.489  35.196  1.00  0.00     0.074 A 
ATOM     60  C   UNL A   1      42.432  30.996  36.502  1.00  0.00     0.031 C 
ATOM     61  C   UNL A   1      42.713  29.491  34.553  1.00  0.00     0.037 A 
BRANCH  48  62
ATOM     62  C   UNL A   1      40.304  28.011  29.056  1.00  0.00     0.064 A 
ATOM     63  C   UNL A   1      39.594  26.800  29.014  1.00  0.00     0.173 A 
ATOM     64  C   UNL A   1      41.043  28.377  27.923  1.00  0.00     0.173 A 
ATOM     65  F   UNL A   1      38.886  26.395  30.079  1.00  0.00    -0.203 F 
ATOM     66  C   UNL A   1      39.653  25.974  27.895  1.00  0.00     0.198 A 
ATOM     67  C   UNL A   1      41.074  27.563  26.794  1.00  0.00     0.198 A 
ATOM     68  F   UNL A   1      41.739  29.525  27.910  1.00  0.00    -0.203 F 
ATOM     69  F   UNL A   1      39.014  24.795  27.902  1.00  0.00    -0.200 F 
ATOM     70  C   UNL A   1      40.387  26.359  26.784  1.00  0.00     0.200 A 
ATOM     71  F   UNL A   1      41.776  27.939  25.716  1.00  0.00    -0.200 F 
ATOM     72  F   UNL A   1      40.440  25.563  25.707  1.00  0.00    -0.200 F 
ENDBRANCH  48  62
BRANCH  49  73
ATOM     73  C   UNL A   1      39.493  33.975  37.043  1.00  0.00     0.064 A 
ATOM     74  C   UNL A   1      38.765  33.549  38.163  1.00  0.00     0.173 A 
ATOM     75  C   UNL A   1      40.094  35.240  37.096  1.00  0.00     0.173 A 
ATOM     76  F   UNL A   1      38.157  32.355  38.152  1.00  0.00    -0.203 F 
ATOM     77  C   UNL A   1      38.627  34.365  39.284  1.00  0.00     0.198 A 
ATOM     78  C   UNL A   1      39.976  36.045  38.227  1.00  0.00     0.198 A 
ATOM     79  F   UNL A   1      40.806  35.690  36.053  1.00  0.00    -0.203 F 
ATOM     80  F   UNL A   1      37.891  33.951  40.324  1.00  0.00    -0.200 F 
ATOM     81  C   UNL A   1      39.237  35.610  39.317  1.00  0.00     0.200 A 
ATOM     82  F   UNL A   1      40.576  37.242  38.261  1.00  0.00    -0.200 F 
ATOM     83  F   UNL A   1      39.105  36.394  40.397  1.00  0.00    -0.200 F 
ENDBRANCH  49  73
BRANCH  61  84
ATOM     84  C   UNL A   1      43.913  28.905  35.235  1.00  0.00     0.064 A 
ATOM     85  C   UNL A   1      45.205  29.391  34.990  1.00  0.00     0.173 A 
ATOM     86  C   UNL A   1      43.761  27.874  36.173  1.00  0.00     0.173 A 
ATOM     87  F   UNL A   1      45.401  30.366  34.089  1.00  0.00    -0.203 F 
ATOM     88  C   UNL A   1      46.307  28.848  35.645  1.00  0.00     0.198 A 
ATOM     89  C   UNL A   1      44.861  27.353  36.847  1.00  0.00     0.198 A 
ATOM     90  F   UNL A   1      42.544  27.382  36.446  1.00  0.00    -0.203 F 
ATOM     91  F   UNL A   1      47.539  29.296  35.364  1.00  0.00    -0.200 F 
ATOM     92  C   UNL A   1      46.133  27.836  36.577  1.00  0.00     0.200 A 
ATOM     93  F   UNL A   1      44.691  26.384  37.756  1.00  0.00    -0.200 F 
ATOM     94  F   UNL A   1      47.195  27.319  37.212  1.00  0.00    -0.200 F 
ENDBRANCH  61  84
ENDBRANCH  35  36
ENDBRANCH  27  30
ENDBRANCH  25  26
ENDBRANCH  24  25
ENDBRANCH  23  24
ENDBRANCH   1  23
TORSDOF 15
ENDMDL
