MODEL 1
REMARK VINA RESULT:     -12.6      0.000      0.000
REMARK SMILES O=C(NCCCCNC(=O)c1cncc(Nc2cccnc2)n1)c1ccc(-c2c3nc(c(-c4c(F)c(F)c(F)c(F)c4F)c4ccc([nH]4)c(-c4c(F)c(F)c(F)c(F)c4F)c4nc(c(-c5c(F)c(F)c(F)c(F)c5F)c5ccc2[nH]5)C=C4)C=C3)cc1
REMARK SMILES IDX 5 1 4 2 3 3 1 4 2 5 24 7 25 8 86 9 26 10 85 11 27 12 28 13
REMARK SMILES IDX 29 14 79 15 30 16 84 17 78 18 80 19 31 20 83 21 77 22 76 23
REMARK SMILES IDX 32 25 64 26 44 27 63 28 45 29 48 30 62 31 81 32 46 33 47 34
REMARK SMILES IDX 61 36 82 37 49 38 33 39 34 40 42 41 35 42 36 43 40 44 43 45
REMARK SMILES IDX 37 46 38 47 41 48 39 49 65 50 66 51 74 52 67 53 68 54 72 55
REMARK SMILES IDX 75 56 69 57 70 58 73 59 71 60 50 61 51 62 59 63 52 64 53 65
REMARK SMILES IDX 57 66 60 67 54 68 55 69 58 70 56 71 6 72 7 73 8 74 9 75
REMARK SMILES IDX 10 77 11 78 12 79 23 80 13 81 15 82 14 83 16 84 17 86 18 87
REMARK SMILES IDX 22 88 19 89 21 90 20 91
REMARK H PARENT 3 6 80 24 48 35 8 76 16 85
REMARK Flexibility Score: inf
ROOT
ATOM      1  C   UNL A   1      31.315  32.080  26.934  1.00  0.00     0.023 C 
ENDROOT
BRANCH   1   2
ATOM      2  C   UNL A   1      32.582  32.845  27.286  1.00  0.00     0.116 C 
BRANCH   2   3
ATOM      3  N   UNL A   1      32.338  34.236  27.640  1.00  0.00    -0.352 N 
ATOM      4  O   UNL A   1      32.560  36.148  28.822  1.00  0.00    -0.269 OA
ATOM      5  C   UNL A   1      32.983  35.024  28.566  1.00  0.00     0.251 C 
ATOM      6  H   UNL A   1      31.607  34.674  27.148  1.00  0.00     0.163 HD
BRANCH   5   7
ATOM      7  C   UNL A   1      34.170  34.504  29.278  1.00  0.00     0.039 A 
ATOM      8  C   UNL A   1      35.445  34.646  28.728  1.00  0.00     0.014 A 
ATOM      9  C   UNL A   1      34.005  33.845  30.501  1.00  0.00     0.014 A 
ATOM     10  C   UNL A   1      36.521  33.984  29.306  1.00  0.00     0.010 A 
ATOM     11  C   UNL A   1      35.110  33.263  31.134  1.00  0.00     0.010 A 
ATOM     12  C   UNL A   1      36.371  33.292  30.521  1.00  0.00    -0.014 A 
BRANCH  12  13
ATOM     13  C   UNL A   1      37.570  32.665  31.133  1.00  0.00     0.031 A 
ATOM     14  C   UNL A   1      38.020  33.014  32.524  1.00  0.00     0.074 A 
ATOM     15  C   UNL A   1      38.212  31.705  30.438  1.00  0.00     0.049 A 
ATOM     16  N   UNL A   1      38.989  32.487  33.233  1.00  0.00    -0.248 NA
ATOM     17  C   UNL A   1      37.302  34.100  33.211  1.00  0.00     0.031 C 
ATOM     18  C   UNL A   1      37.883  31.302  29.068  1.00  0.00     0.029 A 
ATOM     19  N   UNL A   1      39.240  30.871  30.791  1.00  0.00    -0.354 N 
ATOM     20  C   UNL A   1      39.003  33.177  34.437  1.00  0.00     0.074 A 
ATOM     21  C   UNL A   1      37.966  34.184  34.356  1.00  0.00     0.031 C 
ATOM     22  C   UNL A   1      38.646  30.256  28.723  1.00  0.00     0.029 A 
ATOM     23  C   UNL A   1      39.556  29.952  29.820  1.00  0.00     0.049 A 
ATOM     24  H   UNL A   1      39.707  30.925  31.656  1.00  0.00     0.167 HD
ATOM     25  C   UNL A   1      39.801  32.979  35.515  1.00  0.00     0.037 A 
ATOM     26  C   UNL A   1      40.478  28.972  29.812  1.00  0.00     0.037 A 
ATOM     27  C   UNL A   1      40.824  31.967  35.597  1.00  0.00     0.049 A 
ATOM     28  C   UNL A   1      41.332  28.765  31.027  1.00  0.00     0.074 A 
ATOM     29  C   UNL A   1      41.681  31.686  36.648  1.00  0.00     0.029 A 
ATOM     30  N   UNL A   1      41.127  31.066  34.587  1.00  0.00    -0.354 N 
ATOM     31  N   UNL A   1      41.320  29.415  32.165  1.00  0.00    -0.248 NA
ATOM     32  C   UNL A   1      42.327  27.687  30.958  1.00  0.00     0.031 C 
ATOM     33  C   UNL A   1      42.523  30.635  36.262  1.00  0.00     0.029 A 
ATOM     34  C   UNL A   1      42.162  30.234  34.986  1.00  0.00     0.049 A 
ATOM     35  H   UNL A   1      40.672  31.022  33.714  1.00  0.00     0.167 HD
ATOM     36  C   UNL A   1      42.304  28.830  32.946  1.00  0.00     0.074 A 
ATOM     37  C   UNL A   1      42.866  27.745  32.167  1.00  0.00     0.031 C 
ATOM     38  C   UNL A   1      42.717  29.169  34.192  1.00  0.00     0.037 A 
BRANCH  25  39
ATOM     39  C   UNL A   1      39.607  33.876  36.703  1.00  0.00     0.064 A 
ATOM     40  C   UNL A   1      38.795  33.497  37.783  1.00  0.00     0.173 A 
ATOM     41  C   UNL A   1      40.290  35.099  36.795  1.00  0.00     0.173 A 
ATOM     42  F   UNL A   1      38.112  32.343  37.741  1.00  0.00    -0.203 F 
ATOM     43  C   UNL A   1      38.663  34.316  38.902  1.00  0.00     0.198 A 
ATOM     44  C   UNL A   1      40.175  35.903  37.925  1.00  0.00     0.198 A 
ATOM     45  F   UNL A   1      41.084  35.505  35.792  1.00  0.00    -0.203 F 
ATOM     46  F   UNL A   1      37.858  33.947  39.909  1.00  0.00    -0.200 F 
ATOM     47  C   UNL A   1      39.360  35.513  38.976  1.00  0.00     0.200 A 
ATOM     48  F   UNL A   1      40.857  37.054  38.000  1.00  0.00    -0.200 F 
ATOM     49  F   UNL A   1      39.241  36.293  40.060  1.00  0.00    -0.200 F 
ENDBRANCH  25  39
BRANCH  26  50
ATOM     50  C   UNL A   1      40.631  28.120  28.605  1.00  0.00     0.064 A 
ATOM     51  C   UNL A   1      41.450  28.513  27.539  1.00  0.00     0.173 A 
ATOM     52  C   UNL A   1      39.974  26.885  28.506  1.00  0.00     0.173 A 
ATOM     53  F   UNL A   1      42.086  29.693  27.581  1.00  0.00    -0.203 F 
ATOM     54  C   UNL A   1      41.593  27.708  26.410  1.00  0.00     0.198 A 
ATOM     55  C   UNL A   1      40.143  26.068  27.391  1.00  0.00     0.198 A 
ATOM     56  F   UNL A   1      39.185  26.461  29.505  1.00  0.00    -0.203 F 
ATOM     57  F   UNL A   1      42.351  28.125  25.386  1.00  0.00    -0.200 F 
ATOM     58  C   UNL A   1      40.947  26.483  26.341  1.00  0.00     0.200 A 
ATOM     59  F   UNL A   1      39.530  24.877  27.337  1.00  0.00    -0.200 F 
ATOM     60  F   UNL A   1      41.093  25.706  25.260  1.00  0.00    -0.200 F 
ENDBRANCH  26  50
BRANCH  38  61
ATOM     61  C   UNL A   1      43.829  28.352  34.780  1.00  0.00     0.064 A 
ATOM     62  C   UNL A   1      45.171  28.727  34.617  1.00  0.00     0.173 A 
ATOM     63  C   UNL A   1      43.552  27.189  35.511  1.00  0.00     0.173 A 
ATOM     64  F   UNL A   1      45.486  29.824  33.911  1.00  0.00    -0.203 F 
ATOM     65  C   UNL A   1      46.199  27.947  35.140  1.00  0.00     0.198 A 
ATOM     66  C   UNL A   1      44.581  26.425  36.054  1.00  0.00     0.198 A 
ATOM     67  F   UNL A   1      42.284  26.792  35.696  1.00  0.00    -0.203 F 
ATOM     68  F   UNL A   1      47.476  28.294  34.926  1.00  0.00    -0.200 F 
ATOM     69  C   UNL A   1      45.903  26.799  35.860  1.00  0.00     0.200 A 
ATOM     70  F   UNL A   1      44.295  25.321  36.756  1.00  0.00    -0.200 F 
ATOM     71  F   UNL A   1      46.893  26.046  36.357  1.00  0.00    -0.200 F 
ENDBRANCH  38  61
ENDBRANCH  12  13
ENDBRANCH   5   7
ENDBRANCH   2   3
ENDBRANCH   1   2
BRANCH   1  72
ATOM     72  C   UNL A   1      31.463  31.048  25.819  1.00  0.00     0.023 C 
BRANCH  72  73
ATOM     73  C   UNL A   1      32.593  30.039  26.003  1.00  0.00     0.116 C 
BRANCH  73  74
ATOM     74  N   UNL A   1      33.313  29.761  24.771  1.00  0.00    -0.351 N 
ATOM     75  C   UNL A   1      32.954  28.911  23.746  1.00  0.00     0.271 C 
ATOM     76  H   UNL A   1      34.165  30.240  24.654  1.00  0.00     0.163 HD
ATOM     77  O   UNL A   1      33.698  28.760  22.782  1.00  0.00    -0.267 OA
BRANCH  75  78
ATOM     78  C   UNL A   1      31.654  28.213  23.815  1.00  0.00     0.148 A 
ATOM     79  C   UNL A   1      31.615  26.912  24.287  1.00  0.00     0.145 A 
ATOM     80  N   UNL A   1      30.564  28.867  23.331  1.00  0.00    -0.222 NA
ATOM     81  N   UNL A   1      30.485  26.177  24.251  1.00  0.00    -0.258 NA
ATOM     82  C   UNL A   1      29.412  28.164  23.323  1.00  0.00     0.149 A 
ATOM     83  C   UNL A   1      29.401  26.831  23.753  1.00  0.00     0.158 A 
BRANCH  82  84
ATOM     84  N   UNL A   1      28.293  28.821  22.812  1.00  0.00    -0.338 N 
ATOM     85  H   UNL A   1      27.492  28.253  22.736  1.00  0.00     0.168 HD
BRANCH  84  86
ATOM     86  C   UNL A   1      28.103  30.138  22.390  1.00  0.00     0.058 A 
ATOM     87  C   UNL A   1      28.179  30.527  21.051  1.00  0.00     0.029 A 
ATOM     88  C   UNL A   1      27.930  31.164  23.320  1.00  0.00     0.137 A 
ATOM     89  C   UNL A   1      28.118  31.875  20.702  1.00  0.00     0.022 A 
ATOM     90  N   UNL A   1      27.865  32.484  23.018  1.00  0.00    -0.263 NA
ATOM     91  C   UNL A   1      27.972  32.808  21.713  1.00  0.00     0.111 A 
ENDBRANCH  84  86
ENDBRANCH  82  84
ENDBRANCH  75  78
ENDBRANCH  73  74
ENDBRANCH  72  73
ENDBRANCH   1  72
TORSDOF 13
ENDMDL
MODEL 2
REMARK VINA RESULT:     -12.5      0.407      2.069
REMARK SMILES O=C(NCCCCNC(=O)c1cncc(Nc2cccnc2)n1)c1ccc(-c2c3nc(c(-c4c(F)c(F)c(F)c(F)c4F)c4ccc([nH]4)c(-c4c(F)c(F)c(F)c(F)c4F)c4nc(c(-c5c(F)c(F)c(F)c(F)c5F)c5ccc2[nH]5)C=C4)C=C3)cc1
REMARK SMILES IDX 5 1 4 2 3 3 1 4 2 5 24 7 25 8 86 9 26 10 85 11 27 12 28 13
REMARK SMILES IDX 29 14 79 15 30 16 84 17 78 18 80 19 31 20 83 21 77 22 76 23
REMARK SMILES IDX 32 25 64 26 44 27 63 28 45 29 48 30 62 31 81 32 46 33 47 34
REMARK SMILES IDX 61 36 82 37 49 38 33 39 34 40 42 41 35 42 36 43 40 44 43 45
REMARK SMILES IDX 37 46 38 47 41 48 39 49 65 50 66 51 74 52 67 53 68 54 72 55
REMARK SMILES IDX 75 56 69 57 70 58 73 59 71 60 50 61 51 62 59 63 52 64 53 65
REMARK SMILES IDX 57 66 60 67 54 68 55 69 58 70 56 71 6 72 7 73 8 74 9 75
REMARK SMILES IDX 10 77 11 78 12 79 23 80 13 81 15 82 14 83 16 84 17 86 18 87
REMARK SMILES IDX 22 88 19 89 21 90 20 91
REMARK H PARENT 3 6 80 24 48 35 8 76 16 85
REMARK Flexibility Score: inf
ROOT
ATOM      1  C   UNL A   1      31.436  32.084  26.900  1.00  0.00     0.023 C 
ENDROOT
BRANCH   1   2
ATOM      2  C   UNL A   1      32.680  32.872  27.283  1.00  0.00     0.116 C 
BRANCH   2   3
ATOM      3  N   UNL A   1      32.393  34.235  27.705  1.00  0.00    -0.352 N 
ATOM      4  O   UNL A   1      32.549  36.089  28.987  1.00  0.00    -0.269 OA
ATOM      5  C   UNL A   1      33.005  34.992  28.678  1.00  0.00     0.251 C 
ATOM      6  H   UNL A   1      31.655  34.678  27.227  1.00  0.00     0.163 HD
BRANCH   5   7
ATOM      7  C   UNL A   1      34.200  34.468  29.377  1.00  0.00     0.039 A 
ATOM      8  C   UNL A   1      35.473  34.652  28.837  1.00  0.00     0.014 A 
ATOM      9  C   UNL A   1      34.042  33.766  30.576  1.00  0.00     0.014 A 
ATOM     10  C   UNL A   1      36.559  33.989  29.396  1.00  0.00     0.010 A 
ATOM     11  C   UNL A   1      35.155  33.182  31.193  1.00  0.00     0.010 A 
ATOM     12  C   UNL A   1      36.417  33.254  30.586  1.00  0.00    -0.014 A 
BRANCH  12  13
ATOM     13  C   UNL A   1      37.625  32.627  31.181  1.00  0.00     0.031 A 
ATOM     14  C   UNL A   1      38.092  32.974  32.567  1.00  0.00     0.074 A 
ATOM     15  C   UNL A   1      38.259  31.670  30.475  1.00  0.00     0.049 A 
ATOM     16  N   UNL A   1      39.071  32.446  33.262  1.00  0.00    -0.248 NA
ATOM     17  C   UNL A   1      37.382  34.056  33.266  1.00  0.00     0.031 C 
ATOM     18  C   UNL A   1      37.913  31.270  29.109  1.00  0.00     0.029 A 
ATOM     19  N   UNL A   1      39.293  30.837  30.813  1.00  0.00    -0.354 N 
ATOM     20  C   UNL A   1      39.099  33.132  34.468  1.00  0.00     0.074 A 
ATOM     21  C   UNL A   1      38.060  34.139  34.403  1.00  0.00     0.031 C 
ATOM     22  C   UNL A   1      38.674  30.226  28.751  1.00  0.00     0.029 A 
ATOM     23  C   UNL A   1      39.598  29.921  29.836  1.00  0.00     0.049 A 
ATOM     24  H   UNL A   1      39.771  30.889  31.673  1.00  0.00     0.167 HD
ATOM     25  C   UNL A   1      39.911  32.933  35.535  1.00  0.00     0.037 A 
ATOM     26  C   UNL A   1      40.522  28.942  29.813  1.00  0.00     0.037 A 
ATOM     27  C   UNL A   1      40.937  31.923  35.601  1.00  0.00     0.049 A 
ATOM     28  C   UNL A   1      41.392  28.733  31.017  1.00  0.00     0.074 A 
ATOM     29  C   UNL A   1      41.808  31.640  36.640  1.00  0.00     0.029 A 
ATOM     30  N   UNL A   1      41.228  31.025  34.585  1.00  0.00    -0.354 N 
ATOM     31  N   UNL A   1      41.393  29.380  32.157  1.00  0.00    -0.248 NA
ATOM     32  C   UNL A   1      42.387  27.658  30.933  1.00  0.00     0.031 C 
ATOM     33  C   UNL A   1      42.646  30.592  36.241  1.00  0.00     0.029 A 
ATOM     34  C   UNL A   1      42.270  30.194  34.969  1.00  0.00     0.049 A 
ATOM     35  H   UNL A   1      40.762  30.983  33.718  1.00  0.00     0.167 HD
ATOM     36  C   UNL A   1      42.388  28.795  32.924  1.00  0.00     0.074 A 
ATOM     37  C   UNL A   1      42.942  27.713  32.134  1.00  0.00     0.031 C 
ATOM     38  C   UNL A   1      42.816  29.131  34.165  1.00  0.00     0.037 A 
BRANCH  25  39
ATOM     39  C   UNL A   1      39.731  33.827  36.728  1.00  0.00     0.064 A 
ATOM     40  C   UNL A   1      40.328  35.094  36.792  1.00  0.00     0.173 A 
ATOM     41  C   UNL A   1      38.898  33.440  37.791  1.00  0.00     0.173 A 
ATOM     42  F   UNL A   1      41.142  35.507  35.807  1.00  0.00    -0.203 F 
ATOM     43  C   UNL A   1      40.113  35.935  37.882  1.00  0.00     0.198 A 
ATOM     44  C   UNL A   1      38.665  34.293  38.866  1.00  0.00     0.198 A 
ATOM     45  F   UNL A   1      38.297  32.241  37.776  1.00  0.00    -0.203 F 
ATOM     46  F   UNL A   1      40.719  37.129  37.935  1.00  0.00    -0.200 F 
ATOM     47  C   UNL A   1      39.275  35.537  38.913  1.00  0.00     0.200 A 
ATOM     48  F   UNL A   1      37.846  33.912  39.857  1.00  0.00    -0.200 F 
ATOM     49  F   UNL A   1      39.058  36.353  39.954  1.00  0.00    -0.200 F 
ENDBRANCH  25  39
BRANCH  26  50
ATOM     50  C   UNL A   1      40.661  28.093  28.603  1.00  0.00     0.064 A 
ATOM     51  C   UNL A   1      39.988  26.869  28.495  1.00  0.00     0.173 A 
ATOM     52  C   UNL A   1      41.456  28.502  27.523  1.00  0.00     0.173 A 
ATOM     53  F   UNL A   1      39.230  26.428  29.509  1.00  0.00    -0.203 F 
ATOM     54  C   UNL A   1      40.120  26.077  27.355  1.00  0.00     0.198 A 
ATOM     55  C   UNL A   1      41.561  27.724  26.372  1.00  0.00     0.198 A 
ATOM     56  F   UNL A   1      42.112  29.670  27.575  1.00  0.00    -0.203 F 
ATOM     57  F   UNL A   1      39.499  24.891  27.293  1.00  0.00    -0.200 F 
ATOM     58  C   UNL A   1      40.899  26.509  26.292  1.00  0.00     0.200 A 
ATOM     59  F   UNL A   1      42.300  28.155  25.341  1.00  0.00    -0.200 F 
ATOM     60  F   UNL A   1      41.016  25.752  25.193  1.00  0.00    -0.200 F 
ENDBRANCH  26  50
BRANCH  38  61
ATOM     61  C   UNL A   1      43.937  28.316  34.736  1.00  0.00     0.064 A 
ATOM     62  C   UNL A   1      43.686  27.144  35.466  1.00  0.00     0.173 A 
ATOM     63  C   UNL A   1      45.270  28.705  34.551  1.00  0.00     0.173 A 
ATOM     64  F   UNL A   1      42.425  26.741  35.684  1.00  0.00    -0.203 F 
ATOM     65  C   UNL A   1      44.731  26.410  36.020  1.00  0.00     0.198 A 
ATOM     66  C   UNL A   1      46.315  27.954  35.085  1.00  0.00     0.198 A 
ATOM     67  F   UNL A   1      45.561  29.816  33.857  1.00  0.00    -0.203 F 
ATOM     68  F   UNL A   1      44.466  25.324  36.761  1.00  0.00    -0.200 F 
ATOM     69  C   UNL A   1      46.044  26.813  35.825  1.00  0.00     0.200 A 
ATOM     70  F   UNL A   1      47.583  28.340  34.890  1.00  0.00    -0.200 F 
ATOM     71  F   UNL A   1      47.048  26.109  36.363  1.00  0.00    -0.200 F 
ENDBRANCH  38  61
ENDBRANCH  12  13
ENDBRANCH   5   7
ENDBRANCH   2   3
ENDBRANCH   1   2
BRANCH   1  72
ATOM     72  C   UNL A   1      31.665  30.935  25.921  1.00  0.00     0.023 C 
BRANCH  72  73
ATOM     73  C   UNL A   1      32.582  29.822  26.420  1.00  0.00     0.116 C 
BRANCH  73  74
ATOM     74  N   UNL A   1      33.481  29.322  25.391  1.00  0.00    -0.351 N 
ATOM     75  C   UNL A   1      33.225  28.377  24.420  1.00  0.00     0.271 C 
ATOM     76  H   UNL A   1      34.387  29.709  25.387  1.00  0.00     0.163 HD
ATOM     77  O   UNL A   1      34.112  28.037  23.643  1.00  0.00    -0.267 OA
BRANCH  75  78
ATOM     78  C   UNL A   1      31.867  27.806  24.316  1.00  0.00     0.148 A 
ATOM     79  C   UNL A   1      31.628  26.543  24.831  1.00  0.00     0.145 A 
ATOM     80  N   UNL A   1      30.933  28.527  23.639  1.00  0.00    -0.222 NA
ATOM     81  N   UNL A   1      30.449  25.913  24.650  1.00  0.00    -0.258 NA
ATOM     82  C   UNL A   1      29.732  27.933  23.481  1.00  0.00     0.149 A 
ATOM     83  C   UNL A   1      29.524  26.633  23.962  1.00  0.00     0.158 A 
BRANCH  82  84
ATOM     84  N   UNL A   1      28.773  28.658  22.775  1.00  0.00    -0.338 N 
ATOM     85  H   UNL A   1      28.047  28.109  22.400  1.00  0.00     0.168 HD
BRANCH  84  86
ATOM     86  C   UNL A   1      28.658  30.023  22.503  1.00  0.00     0.058 A 
ATOM     87  C   UNL A   1      28.736  31.006  23.491  1.00  0.00     0.029 A 
ATOM     88  C   UNL A   1      28.346  30.467  21.217  1.00  0.00     0.137 A 
ATOM     89  C   UNL A   1      28.478  32.340  23.184  1.00  0.00     0.022 A 
ATOM     90  N   UNL A   1      28.089  31.755  20.881  1.00  0.00    -0.263 NA
ATOM     91  C   UNL A   1      28.151  32.661  21.879  1.00  0.00     0.111 A 
ENDBRANCH  84  86
ENDBRANCH  82  84
ENDBRANCH  75  78
ENDBRANCH  73  74
ENDBRANCH  72  73
ENDBRANCH   1  72
TORSDOF 13
ENDMDL
MODEL 3
REMARK VINA RESULT:     -12.3      2.703      4.934
REMARK SMILES O=C(NCCCCNC(=O)c1cncc(Nc2cccnc2)n1)c1ccc(-c2c3nc(c(-c4c(F)c(F)c(F)c(F)c4F)c4ccc([nH]4)c(-c4c(F)c(F)c(F)c(F)c4F)c4nc(c(-c5c(F)c(F)c(F)c(F)c5F)c5ccc2[nH]5)C=C4)C=C3)cc1
REMARK SMILES IDX 5 1 4 2 3 3 1 4 2 5 24 7 25 8 86 9 26 10 85 11 27 12 28 13
REMARK SMILES IDX 29 14 79 15 30 16 84 17 78 18 80 19 31 20 83 21 77 22 76 23
REMARK SMILES IDX 32 25 64 26 44 27 63 28 45 29 48 30 62 31 81 32 46 33 47 34
REMARK SMILES IDX 61 36 82 37 49 38 33 39 34 40 42 41 35 42 36 43 40 44 43 45
REMARK SMILES IDX 37 46 38 47 41 48 39 49 65 50 66 51 74 52 67 53 68 54 72 55
REMARK SMILES IDX 75 56 69 57 70 58 73 59 71 60 50 61 51 62 59 63 52 64 53 65
REMARK SMILES IDX 57 66 60 67 54 68 55 69 58 70 56 71 6 72 7 73 8 74 9 75
REMARK SMILES IDX 10 77 11 78 12 79 23 80 13 81 15 82 14 83 16 84 17 86 18 87
REMARK SMILES IDX 22 88 19 89 21 90 20 91
REMARK H PARENT 3 6 80 24 48 35 8 76 16 85
REMARK Flexibility Score: inf
ROOT
ATOM      1  C   UNL A   1      32.279  28.259  24.738  1.00  0.00     0.023 C 
ENDROOT
BRANCH   1   2
ATOM      2  C   UNL A   1      33.295  29.210  25.356  1.00  0.00     0.116 C 
BRANCH   2   3
ATOM      3  N   UNL A   1      32.695  30.413  25.913  1.00  0.00    -0.352 N 
ATOM      4  O   UNL A   1      32.439  32.125  27.365  1.00  0.00    -0.269 OA
ATOM      5  C   UNL A   1      33.141  31.210  26.942  1.00  0.00     0.251 C 
ATOM      6  H   UNL A   1      31.850  30.696  25.495  1.00  0.00     0.163 HD
BRANCH   5   7
ATOM      7  C   UNL A   1      34.458  30.945  27.563  1.00  0.00     0.039 A 
ATOM      8  C   UNL A   1      34.780  29.668  28.023  1.00  0.00     0.014 A 
ATOM      9  C   UNL A   1      35.374  31.993  27.708  1.00  0.00     0.014 A 
ATOM     10  C   UNL A   1      35.931  29.479  28.777  1.00  0.00     0.010 A 
ATOM     11  C   UNL A   1      36.581  31.775  28.382  1.00  0.00     0.010 A 
ATOM     12  C   UNL A   1      36.852  30.525  28.958  1.00  0.00    -0.014 A 
BRANCH  12  13
ATOM     13  C   UNL A   1      38.102  30.248  29.710  1.00  0.00     0.031 A 
ATOM     14  C   UNL A   1      38.295  30.721  31.124  1.00  0.00     0.074 A 
ATOM     15  C   UNL A   1      39.043  29.484  29.121  1.00  0.00     0.049 A 
ATOM     16  N   UNL A   1      39.288  30.479  31.945  1.00  0.00    -0.248 NA
ATOM     17  C   UNL A   1      37.249  31.585  31.692  1.00  0.00     0.031 C 
ATOM     18  C   UNL A   1      38.978  28.990  27.743  1.00  0.00     0.029 A 
ATOM     19  N   UNL A   1      40.212  28.958  29.607  1.00  0.00    -0.354 N 
ATOM     20  C   UNL A   1      38.993  31.163  33.116  1.00  0.00     0.074 A 
ATOM     21  C   UNL A   1      37.742  31.858  32.893  1.00  0.00     0.031 C 
ATOM     22  C   UNL A   1      40.023  28.181  27.517  1.00  0.00     0.029 A 
ATOM     23  C   UNL A   1      40.859  28.143  28.710  1.00  0.00     0.049 A 
ATOM     24  H   UNL A   1      40.554  29.145  30.511  1.00  0.00     0.167 HD
ATOM     25  C   UNL A   1      39.696  31.198  34.274  1.00  0.00     0.037 A 
ATOM     26  C   UNL A   1      42.002  27.444  28.831  1.00  0.00     0.037 A 
ATOM     27  C   UNL A   1      40.935  30.496  34.497  1.00  0.00     0.049 A 
ATOM     28  C   UNL A   1      42.747  27.486  30.132  1.00  0.00     0.074 A 
ATOM     29  C   UNL A   1      41.720  30.466  35.638  1.00  0.00     0.029 A 
ATOM     30  N   UNL A   1      41.569  29.695  33.559  1.00  0.00    -0.354 N 
ATOM     31  N   UNL A   1      42.444  28.124  31.237  1.00  0.00    -0.248 NA
ATOM     32  C   UNL A   1      43.992  26.711  30.205  1.00  0.00     0.031 C 
ATOM     33  C   UNL A   1      42.844  29.672  35.379  1.00  0.00     0.029 A 
ATOM     34  C   UNL A   1      42.739  29.174  34.092  1.00  0.00     0.049 A 
ATOM     35  H   UNL A   1      41.237  29.521  32.648  1.00  0.00     0.167 HD
ATOM     36  C   UNL A   1      43.460  27.832  32.134  1.00  0.00     0.074 A 
ATOM     37  C   UNL A   1      44.366  26.926  31.458  1.00  0.00     0.031 C 
ATOM     38  C   UNL A   1      43.635  28.284  33.399  1.00  0.00     0.037 A 
BRANCH  25  39
ATOM     39  C   UNL A   1      39.149  32.026  35.401  1.00  0.00     0.064 A 
ATOM     40  C   UNL A   1      38.383  31.453  36.427  1.00  0.00     0.173 A 
ATOM     41  C   UNL A   1      39.447  33.395  35.492  1.00  0.00     0.173 A 
ATOM     42  F   UNL A   1      38.061  30.151  36.382  1.00  0.00    -0.203 F 
ATOM     43  C   UNL A   1      37.923  32.222  37.494  1.00  0.00     0.198 A 
ATOM     44  C   UNL A   1      39.006  34.156  36.572  1.00  0.00     0.198 A 
ATOM     45  F   UNL A   1      40.181  33.991  34.540  1.00  0.00    -0.203 F 
ATOM     46  F   UNL A   1      37.167  31.659  38.447  1.00  0.00    -0.200 F 
ATOM     47  C   UNL A   1      38.242  33.571  37.570  1.00  0.00     0.200 A 
ATOM     48  F   UNL A   1      39.325  35.456  36.650  1.00  0.00    -0.200 F 
ATOM     49  F   UNL A   1      37.810  34.306  38.603  1.00  0.00    -0.200 F 
ENDBRANCH  25  39
BRANCH  26  50
ATOM     50  C   UNL A   1      42.500  26.648  27.681  1.00  0.00     0.064 A 
ATOM     51  C   UNL A   1      43.376  27.204  26.739  1.00  0.00     0.173 A 
ATOM     52  C   UNL A   1      42.123  25.308  27.514  1.00  0.00     0.173 A 
ATOM     53  F   UNL A   1      43.751  28.487  26.848  1.00  0.00    -0.203 F 
ATOM     54  C   UNL A   1      43.844  26.452  25.663  1.00  0.00     0.198 A 
ATOM     55  C   UNL A   1      42.617  24.548  26.456  1.00  0.00     0.198 A 
ATOM     56  F   UNL A   1      41.294  24.727  28.394  1.00  0.00    -0.203 F 
ATOM     57  F   UNL A   1      44.648  27.019  24.754  1.00  0.00    -0.200 F 
ATOM     58  C   UNL A   1      43.470  25.123  25.527  1.00  0.00     0.200 A 
ATOM     59  F   UNL A   1      42.268  23.260  26.339  1.00  0.00    -0.200 F 
ATOM     60  F   UNL A   1      43.929  24.398  24.498  1.00  0.00    -0.200 F 
ENDBRANCH  26  50
BRANCH  38  61
ATOM     61  C   UNL A   1      44.854  27.800  34.126  1.00  0.00     0.064 A 
ATOM     62  C   UNL A   1      46.061  28.513  34.076  1.00  0.00     0.173 A 
ATOM     63  C   UNL A   1      44.815  26.618  34.877  1.00  0.00     0.173 A 
ATOM     64  F   UNL A   1      46.151  29.641  33.355  1.00  0.00    -0.203 F 
ATOM     65  C   UNL A   1      47.197  28.040  34.729  1.00  0.00     0.198 A 
ATOM     66  C   UNL A   1      45.946  26.162  35.549  1.00  0.00     0.198 A 
ATOM     67  F   UNL A   1      43.683  25.903  34.958  1.00  0.00    -0.203 F 
ATOM     68  F   UNL A   1      48.355  28.708  34.622  1.00  0.00    -0.200 F 
ATOM     69  C   UNL A   1      47.137  26.867  35.467  1.00  0.00     0.200 A 
ATOM     70  F   UNL A   1      45.886  25.033  36.269  1.00  0.00    -0.200 F 
ATOM     71  F   UNL A   1      48.232  26.411  36.089  1.00  0.00    -0.200 F 
ENDBRANCH  38  61
ENDBRANCH  12  13
ENDBRANCH   5   7
ENDBRANCH   2   3
ENDBRANCH   1   2
BRANCH   1  72
ATOM     72  C   UNL A   1      31.300  27.620  25.719  1.00  0.00     0.023 C 
BRANCH  72  73
ATOM     73  C   UNL A   1      30.843  26.208  25.364  1.00  0.00     0.116 C 
BRANCH  73  74
ATOM     74  N   UNL A   1      30.887  25.295  26.496  1.00  0.00    -0.351 N 
ATOM     75  C   UNL A   1      31.545  24.087  26.593  1.00  0.00     0.271 C 
ATOM     76  H   UNL A   1      30.384  25.576  27.294  1.00  0.00     0.163 HD
ATOM     77  O   UNL A   1      31.450  23.415  27.615  1.00  0.00    -0.267 OA
BRANCH  75  78
ATOM     78  C   UNL A   1      32.381  23.633  25.463  1.00  0.00     0.148 A 
ATOM     79  C   UNL A   1      31.821  22.809  24.501  1.00  0.00     0.145 A 
ATOM     80  N   UNL A   1      33.694  23.989  25.471  1.00  0.00    -0.222 NA
ATOM     81  N   UNL A   1      32.563  22.255  23.521  1.00  0.00    -0.258 NA
ATOM     82  C   UNL A   1      34.448  23.478  24.475  1.00  0.00     0.149 A 
ATOM     83  C   UNL A   1      33.877  22.603  23.542  1.00  0.00     0.158 A 
BRANCH  82  84
ATOM     84  N   UNL A   1      35.799  23.824  24.486  1.00  0.00    -0.338 N 
ATOM     85  H   UNL A   1      36.026  24.580  23.898  1.00  0.00     0.168 HD
BRANCH  84  86
ATOM     86  C   UNL A   1      36.887  23.290  25.179  1.00  0.00     0.058 A 
ATOM     87  C   UNL A   1      37.676  24.040  26.053  1.00  0.00     0.029 A 
ATOM     88  C   UNL A   1      37.307  21.980  24.942  1.00  0.00     0.137 A 
ATOM     89  C   UNL A   1      38.829  23.494  26.612  1.00  0.00     0.022 A 
ATOM     90  N   UNL A   1      38.422  21.415  25.468  1.00  0.00    -0.263 NA
ATOM     91  C   UNL A   1      39.163  22.192  26.283  1.00  0.00     0.111 A 
ENDBRANCH  84  86
ENDBRANCH  82  84
ENDBRANCH  75  78
ENDBRANCH  73  74
ENDBRANCH  72  73
ENDBRANCH   1  72
TORSDOF 13
ENDMDL
