MODEL 1
REMARK VINA RESULT:     -12.0      0.000      0.000
REMARK SMILES CCc1c([N+](=O)[O-])cc(C(=O)NCCCCNC(=O)c2ccc(-c3c4nc(c(-c5c(F)c(F)c(F)c(F)c5F)c5ccc([nH]5)c(-c5c(F)c(F)c(F)c(F)c5F)c5nc(c(-c6c(F)c(F)c(F)c(F)c6F)c6ccc3[nH]6)C=C5)C=C4)cc2)n1C
REMARK SMILES IDX 15 1 14 2 13 3 12 4 10 5 11 6 9 8 3 9 4 10 83 11 8 12 84 13
REMARK SMILES IDX 2 14 1 15 5 16 6 17 7 18 16 19 17 20 18 21 19 23 20 24 21 25
REMARK SMILES IDX 82 26 22 27 81 28 23 29 24 30 25 31 75 32 26 33 80 34 74 35
REMARK SMILES IDX 76 36 27 37 79 38 73 39 72 40 28 42 60 43 40 44 59 45 41 46
REMARK SMILES IDX 44 47 58 48 77 49 42 50 43 51 57 53 78 54 45 55 29 56 30 57
REMARK SMILES IDX 38 58 31 59 32 60 36 61 39 62 33 63 34 64 37 65 35 66 61 67
REMARK SMILES IDX 62 68 70 69 63 70 64 71 68 72 71 73 65 74 66 75 69 76 67 77
REMARK SMILES IDX 46 78 47 79 55 80 48 81 49 82 53 83 56 84 50 85 51 86 54 87
REMARK SMILES IDX 52 88
REMARK H PARENT 12 7 17 22 76 41 44 52
REMARK Flexibility Score: inf
ROOT
ATOM      1  C   UNL A   1      31.597  31.884  26.863  1.00  0.00     0.023 C 
ENDROOT
BRANCH   1   2
ATOM      2  C   UNL A   1      31.844  30.377  26.824  1.00  0.00     0.023 C 
BRANCH   2   3
ATOM      3  C   UNL A   1      31.924  29.737  25.442  1.00  0.00     0.116 C 
BRANCH   3   4
ATOM      4  N   UNL A   1      30.867  30.115  24.531  1.00  0.00    -0.351 N 
ATOM      5  C   UNL A   1      30.265  29.401  23.519  1.00  0.00     0.268 C 
ATOM      6  O   UNL A   1      29.389  29.985  22.882  1.00  0.00    -0.268 OA
ATOM      7  H   UNL A   1      30.523  31.029  24.652  1.00  0.00     0.163 HD
BRANCH   5   8
ATOM      8  C   UNL A   1      30.702  28.059  23.174  1.00  0.00     0.114 A 
ATOM      9  C   UNL A   1      31.033  25.812  23.218  1.00  0.00     0.096 A 
ATOM     10  C   UNL A   1      31.989  26.354  22.357  1.00  0.00     0.290 A 
ATOM     11  N   UNL A   1      30.120  26.834  23.447  1.00  0.00    -0.338 N 
ATOM     12  C   UNL A   1      31.781  27.760  22.350  1.00  0.00     0.119 A 
ATOM     13  C   UNL A   1      28.717  26.627  23.742  1.00  0.00     0.150 C 
BRANCH   9  14
ATOM     14  C   UNL A   1      30.953  24.456  23.868  1.00  0.00     0.058 C 
ATOM     15  C   UNL A   1      31.653  24.320  25.206  1.00  0.00     0.011 C 
ENDBRANCH   9  14
BRANCH  10  16
ATOM     16  N   UNL A   1      33.054  25.665  21.657  1.00  0.00     0.064 N 
ATOM     17  O   UNL A   1      33.940  25.129  22.335  1.00  0.00    -0.258 OA
ATOM     18  O   UNL A   1      32.978  25.636  20.422  1.00  0.00    -0.258 OA
ENDBRANCH  10  16
ENDBRANCH   5   8
ENDBRANCH   3   4
ENDBRANCH   2   3
ENDBRANCH   1   2
BRANCH   1  19
ATOM     19  C   UNL A   1      32.786  32.764  27.238  1.00  0.00     0.116 C 
BRANCH  19  20
ATOM     20  N   UNL A   1      32.422  34.119  27.627  1.00  0.00    -0.352 N 
ATOM     21  C   UNL A   1      32.971  34.955  28.573  1.00  0.00     0.251 C 
ATOM     22  H   UNL A   1      31.659  34.498  27.135  1.00  0.00     0.163 HD
ATOM     23  O   UNL A   1      32.451  36.044  28.799  1.00  0.00    -0.269 OA
BRANCH  21  24
ATOM     24  C   UNL A   1      34.153  34.532  29.357  1.00  0.00     0.039 A 
ATOM     25  C   UNL A   1      33.956  33.982  30.627  1.00  0.00     0.014 A 
ATOM     26  C   UNL A   1      35.446  34.649  28.843  1.00  0.00     0.014 A 
ATOM     27  C   UNL A   1      35.043  33.456  31.333  1.00  0.00     0.010 A 
ATOM     28  C   UNL A   1      36.511  34.041  29.504  1.00  0.00     0.010 A 
ATOM     29  C   UNL A   1      36.321  33.429  30.752  1.00  0.00    -0.014 A 
BRANCH  29  30
ATOM     30  C   UNL A   1      37.458  32.741  31.422  1.00  0.00     0.031 A 
ATOM     31  C   UNL A   1      38.148  31.582  30.758  1.00  0.00     0.074 A 
ATOM     32  C   UNL A   1      37.826  33.118  32.663  1.00  0.00     0.049 A 
ATOM     33  N   UNL A   1      39.118  30.825  31.210  1.00  0.00    -0.248 NA
ATOM     34  C   UNL A   1      37.666  31.199  29.422  1.00  0.00     0.031 C 
ATOM     35  C   UNL A   1      37.197  34.186  33.444  1.00  0.00     0.029 A 
ATOM     36  N   UNL A   1      38.812  32.642  33.492  1.00  0.00    -0.354 N 
ATOM     37  C   UNL A   1      39.350  29.875  30.224  1.00  0.00     0.074 A 
ATOM     38  C   UNL A   1      38.380  30.110  29.176  1.00  0.00     0.031 C 
ATOM     39  C   UNL A   1      37.830  34.302  34.623  1.00  0.00     0.029 A 
ATOM     40  C   UNL A   1      38.882  33.294  34.701  1.00  0.00     0.049 A 
ATOM     41  H   UNL A   1      39.412  31.901  33.245  1.00  0.00     0.167 HD
ATOM     42  C   UNL A   1      40.301  28.913  30.182  1.00  0.00     0.037 A 
ATOM     43  C   UNL A   1      39.698  33.098  35.755  1.00  0.00     0.037 A 
ATOM     44  C   UNL A   1      41.282  28.697  31.213  1.00  0.00     0.049 A 
ATOM     45  C   UNL A   1      40.747  32.022  35.681  1.00  0.00     0.074 A 
ATOM     46  C   UNL A   1      42.330  27.792  31.232  1.00  0.00     0.029 A 
ATOM     47  N   UNL A   1      41.335  29.394  32.411  1.00  0.00    -0.354 N 
ATOM     48  N   UNL A   1      41.009  31.186  34.706  1.00  0.00    -0.248 NA
ATOM     49  C   UNL A   1      41.621  31.868  36.853  1.00  0.00     0.031 C 
ATOM     50  C   UNL A   1      42.983  27.904  32.462  1.00  0.00     0.029 A 
ATOM     51  C   UNL A   1      42.381  28.919  33.187  1.00  0.00     0.049 A 
ATOM     52  H   UNL A   1      40.720  30.116  32.672  1.00  0.00     0.167 HD
ATOM     53  C   UNL A   1      42.094  30.429  35.132  1.00  0.00     0.074 A 
ATOM     54  C   UNL A   1      42.452  30.918  36.447  1.00  0.00     0.031 C 
ATOM     55  C   UNL A   1      42.734  29.421  34.491  1.00  0.00     0.037 A 
BRANCH  42  56
ATOM     56  C   UNL A   1      40.335  28.020  28.973  1.00  0.00     0.064 A 
ATOM     57  C   UNL A   1      41.090  28.348  27.837  1.00  0.00     0.173 A 
ATOM     58  C   UNL A   1      39.641  26.801  28.968  1.00  0.00     0.173 A 
ATOM     59  F   UNL A   1      41.764  29.507  27.786  1.00  0.00    -0.203 F 
ATOM     60  C   UNL A   1      41.124  27.505  26.729  1.00  0.00     0.198 A 
ATOM     61  C   UNL A   1      39.703  25.944  27.872  1.00  0.00     0.198 A 
ATOM     62  F   UNL A   1      38.909  26.433  30.031  1.00  0.00    -0.203 F 
ATOM     63  F   UNL A   1      41.809  27.865  25.636  1.00  0.00    -0.200 F 
ATOM     64  C   UNL A   1      40.437  26.300  26.751  1.00  0.00     0.200 A 
ATOM     65  F   UNL A   1      39.052  24.773  27.900  1.00  0.00    -0.200 F 
ATOM     66  F   UNL A   1      40.478  25.485  25.687  1.00  0.00    -0.200 F 
ENDBRANCH  42  56
BRANCH  43  67
ATOM     67  C   UNL A   1      39.576  33.958  36.962  1.00  0.00     0.064 A 
ATOM     68  C   UNL A   1      38.815  33.545  38.066  1.00  0.00     0.173 A 
ATOM     69  C   UNL A   1      40.200  35.212  37.035  1.00  0.00     0.173 A 
ATOM     70  F   UNL A   1      38.182  32.363  38.038  1.00  0.00    -0.203 F 
ATOM     71  C   UNL A   1      38.663  34.364  39.184  1.00  0.00     0.198 A 
ATOM     72  C   UNL A   1      40.073  36.015  38.165  1.00  0.00     0.198 A 
ATOM     73  F   UNL A   1      40.943  35.652  36.010  1.00  0.00    -0.203 F 
ATOM     74  F   UNL A   1      37.889  33.965  40.202  1.00  0.00    -0.200 F 
ATOM     75  C   UNL A   1      39.297  35.596  39.235  1.00  0.00     0.200 A 
ATOM     76  F   UNL A   1      40.700  37.198  38.218  1.00  0.00    -0.200 F 
ATOM     77  F   UNL A   1      39.152  36.381  40.311  1.00  0.00    -0.200 F 
ENDBRANCH  43  67
BRANCH  55  78
ATOM     78  C   UNL A   1      43.914  28.802  35.185  1.00  0.00     0.064 A 
ATOM     79  C   UNL A   1      45.216  29.291  35.005  1.00  0.00     0.173 A 
ATOM     80  C   UNL A   1      43.732  27.730  36.072  1.00  0.00     0.173 A 
ATOM     81  F   UNL A   1      45.446  30.304  34.157  1.00  0.00    -0.203 F 
ATOM     82  C   UNL A   1      46.296  28.711  35.667  1.00  0.00     0.198 A 
ATOM     83  C   UNL A   1      44.809  27.176  36.757  1.00  0.00     0.198 A 
ATOM     84  F   UNL A   1      42.506  27.230  36.286  1.00  0.00    -0.203 F 
ATOM     85  F   UNL A   1      47.538  29.162  35.440  1.00  0.00    -0.200 F 
ATOM     86  C   UNL A   1      46.091  27.660  36.548  1.00  0.00     0.200 A 
ATOM     87  F   UNL A   1      44.606  26.170  37.620  1.00  0.00    -0.200 F 
ATOM     88  F   UNL A   1      47.130  27.110  37.190  1.00  0.00    -0.200 F 
ENDBRANCH  55  78
ENDBRANCH  29  30
ENDBRANCH  21  24
ENDBRANCH  19  20
ENDBRANCH   1  19
TORSDOF 13
ENDMDL
MODEL 2
REMARK VINA RESULT:     -12.0      0.120      2.039
REMARK SMILES CCc1c([N+](=O)[O-])cc(C(=O)NCCCCNC(=O)c2ccc(-c3c4nc(c(-c5c(F)c(F)c(F)c(F)c5F)c5ccc([nH]5)c(-c5c(F)c(F)c(F)c(F)c5F)c5nc(c(-c6c(F)c(F)c(F)c(F)c6F)c6ccc3[nH]6)C=C5)C=C4)cc2)n1C
REMARK SMILES IDX 15 1 14 2 13 3 12 4 10 5 11 6 9 8 3 9 4 10 83 11 8 12 84 13
REMARK SMILES IDX 2 14 1 15 5 16 6 17 7 18 16 19 17 20 18 21 19 23 20 24 21 25
REMARK SMILES IDX 82 26 22 27 81 28 23 29 24 30 25 31 75 32 26 33 80 34 74 35
REMARK SMILES IDX 76 36 27 37 79 38 73 39 72 40 28 42 60 43 40 44 59 45 41 46
REMARK SMILES IDX 44 47 58 48 77 49 42 50 43 51 57 53 78 54 45 55 29 56 30 57
REMARK SMILES IDX 38 58 31 59 32 60 36 61 39 62 33 63 34 64 37 65 35 66 61 67
REMARK SMILES IDX 62 68 70 69 63 70 64 71 68 72 71 73 65 74 66 75 69 76 67 77
REMARK SMILES IDX 46 78 47 79 55 80 48 81 49 82 53 83 56 84 50 85 51 86 54 87
REMARK SMILES IDX 52 88
REMARK H PARENT 12 7 17 22 76 41 44 52
REMARK Flexibility Score: inf
ROOT
ATOM      1  C   UNL A   1      31.587  31.894  26.829  1.00  0.00     0.023 C 
ENDROOT
BRANCH   1   2
ATOM      2  C   UNL A   1      31.815  30.385  26.746  1.00  0.00     0.023 C 
BRANCH   2   3
ATOM      3  C   UNL A   1      31.924  29.790  25.346  1.00  0.00     0.116 C 
BRANCH   3   4
ATOM      4  N   UNL A   1      30.840  30.130  24.451  1.00  0.00    -0.351 N 
ATOM      5  C   UNL A   1      30.225  29.382  23.472  1.00  0.00     0.268 C 
ATOM      6  O   UNL A   1      29.326  29.937  22.842  1.00  0.00    -0.268 OA
ATOM      7  H   UNL A   1      30.484  31.041  24.559  1.00  0.00     0.163 HD
BRANCH   5   8
ATOM      8  C   UNL A   1      30.675  28.038  23.150  1.00  0.00     0.114 A 
ATOM      9  C   UNL A   1      31.039  25.799  23.238  1.00  0.00     0.096 A 
ATOM     10  C   UNL A   1      31.970  26.333  22.347  1.00  0.00     0.290 A 
ATOM     11  N   UNL A   1      30.116  26.812  23.462  1.00  0.00    -0.338 N 
ATOM     12  C   UNL A   1      31.742  27.736  22.312  1.00  0.00     0.119 A 
ATOM     13  C   UNL A   1      28.722  26.593  23.790  1.00  0.00     0.150 C 
BRANCH   9  14
ATOM     14  C   UNL A   1      30.991  24.456  23.921  1.00  0.00     0.058 C 
ATOM     15  C   UNL A   1      31.321  24.455  25.401  1.00  0.00     0.011 C 
ENDBRANCH   9  14
BRANCH  10  16
ATOM     16  N   UNL A   1      33.031  25.643  21.642  1.00  0.00     0.064 N 
ATOM     17  O   UNL A   1      32.984  25.620  20.405  1.00  0.00    -0.258 OA
ATOM     18  O   UNL A   1      33.930  25.150  22.335  1.00  0.00    -0.258 OA
ENDBRANCH  10  16
ENDBRANCH   5   8
ENDBRANCH   3   4
ENDBRANCH   2   3
ENDBRANCH   1   2
BRANCH   1  19
ATOM     19  C   UNL A   1      32.771  32.741  27.289  1.00  0.00     0.116 C 
BRANCH  19  20
ATOM     20  N   UNL A   1      32.416  34.105  27.655  1.00  0.00    -0.352 N 
ATOM     21  C   UNL A   1      32.974  34.955  28.583  1.00  0.00     0.251 C 
ATOM     22  H   UNL A   1      31.654  34.480  27.159  1.00  0.00     0.163 HD
ATOM     23  O   UNL A   1      32.462  36.051  28.791  1.00  0.00    -0.269 OA
BRANCH  21  24
ATOM     24  C   UNL A   1      34.157  34.539  29.370  1.00  0.00     0.039 A 
ATOM     25  C   UNL A   1      33.966  34.070  30.673  1.00  0.00     0.014 A 
ATOM     26  C   UNL A   1      35.443  34.583  28.829  1.00  0.00     0.014 A 
ATOM     27  C   UNL A   1      35.049  33.550  31.390  1.00  0.00     0.010 A 
ATOM     28  C   UNL A   1      36.500  33.979  29.505  1.00  0.00     0.010 A 
ATOM     29  C   UNL A   1      36.314  33.447  30.790  1.00  0.00    -0.014 A 
BRANCH  29  30
ATOM     30  C   UNL A   1      37.441  32.762  31.480  1.00  0.00     0.031 A 
ATOM     31  C   UNL A   1      38.136  31.595  30.834  1.00  0.00     0.074 A 
ATOM     32  C   UNL A   1      37.795  33.148  32.722  1.00  0.00     0.049 A 
ATOM     33  N   UNL A   1      39.098  30.840  31.304  1.00  0.00    -0.248 NA
ATOM     34  C   UNL A   1      37.669  31.202  29.495  1.00  0.00     0.031 C 
ATOM     35  C   UNL A   1      37.160  34.224  33.487  1.00  0.00     0.029 A 
ATOM     36  N   UNL A   1      38.769  32.676  33.567  1.00  0.00    -0.354 N 
ATOM     37  C   UNL A   1      39.339  29.881  30.328  1.00  0.00     0.074 A 
ATOM     38  C   UNL A   1      38.382  30.110  29.267  1.00  0.00     0.031 C 
ATOM     39  C   UNL A   1      37.778  34.348  34.672  1.00  0.00     0.029 A 
ATOM     40  C   UNL A   1      38.827  33.338  34.771  1.00  0.00     0.049 A 
ATOM     41  H   UNL A   1      39.370  31.931  33.333  1.00  0.00     0.167 HD
ATOM     42  C   UNL A   1      40.288  28.916  30.306  1.00  0.00     0.037 A 
ATOM     43  C   UNL A   1      39.630  33.149  35.836  1.00  0.00     0.037 A 
ATOM     44  C   UNL A   1      41.256  28.706  31.350  1.00  0.00     0.049 A 
ATOM     45  C   UNL A   1      40.676  32.069  35.784  1.00  0.00     0.074 A 
ATOM     46  C   UNL A   1      42.300  27.798  31.390  1.00  0.00     0.029 A 
ATOM     47  N   UNL A   1      41.296  29.412  32.544  1.00  0.00    -0.354 N 
ATOM     48  N   UNL A   1      40.948  31.224  34.819  1.00  0.00    -0.248 NA
ATOM     49  C   UNL A   1      41.536  31.923  36.967  1.00  0.00     0.031 C 
ATOM     50  C   UNL A   1      42.940  27.918  32.627  1.00  0.00     0.029 A 
ATOM     51  C   UNL A   1      42.332  28.942  33.336  1.00  0.00     0.049 A 
ATOM     52  H   UNL A   1      40.680  30.139  32.791  1.00  0.00     0.167 HD
ATOM     53  C   UNL A   1      42.025  30.468  35.265  1.00  0.00     0.074 A 
ATOM     54  C   UNL A   1      42.369  30.967  36.580  1.00  0.00     0.031 C 
ATOM     55  C   UNL A   1      42.670  29.453  34.640  1.00  0.00     0.037 A 
BRANCH  42  56
ATOM     56  C   UNL A   1      40.334  28.013  29.105  1.00  0.00     0.064 A 
ATOM     57  C   UNL A   1      39.604  26.816  29.057  1.00  0.00     0.173 A 
ATOM     58  C   UNL A   1      41.081  28.370  27.973  1.00  0.00     0.173 A 
ATOM     59  F   UNL A   1      38.881  26.422  30.115  1.00  0.00    -0.203 F 
ATOM     60  C   UNL A   1      39.645  25.995  27.932  1.00  0.00     0.198 A 
ATOM     61  C   UNL A   1      41.095  27.564  26.837  1.00  0.00     0.198 A 
ATOM     62  F   UNL A   1      41.793  29.508  27.962  1.00  0.00    -0.203 F 
ATOM     63  F   UNL A   1      38.981  24.831  27.929  1.00  0.00    -0.200 F 
ATOM     64  C   UNL A   1      40.384  26.373  26.821  1.00  0.00     0.200 A 
ATOM     65  F   UNL A   1      41.796  27.939  25.759  1.00  0.00    -0.200 F 
ATOM     66  F   UNL A   1      40.415  25.587  25.736  1.00  0.00    -0.200 F 
ENDBRANCH  42  56
BRANCH  43  67
ATOM     67  C   UNL A   1      39.495  34.019  37.035  1.00  0.00     0.064 A 
ATOM     68  C   UNL A   1      40.116  35.276  37.086  1.00  0.00     0.173 A 
ATOM     69  C   UNL A   1      38.759  33.610  38.157  1.00  0.00     0.173 A 
ATOM     70  F   UNL A   1      40.847  35.703  36.047  1.00  0.00    -0.203 F 
ATOM     71  C   UNL A   1      40.027  36.078  38.222  1.00  0.00     0.198 A 
ATOM     72  C   UNL A   1      38.645  34.427  39.280  1.00  0.00     0.198 A 
ATOM     73  F   UNL A   1      38.141  32.421  38.159  1.00  0.00    -0.203 F 
ATOM     74  F   UNL A   1      40.673  37.251  38.262  1.00  0.00    -0.200 F 
ATOM     75  C   UNL A   1      39.287  35.656  39.316  1.00  0.00     0.200 A 
ATOM     76  F   UNL A   1      37.916  34.023  40.329  1.00  0.00    -0.200 F 
ATOM     77  F   UNL A   1      39.200  36.429  40.407  1.00  0.00    -0.200 F 
ENDBRANCH  43  67
BRANCH  55  78
ATOM     78  C   UNL A   1      43.840  28.837  35.353  1.00  0.00     0.064 A 
ATOM     79  C   UNL A   1      43.679  27.776  36.256  1.00  0.00     0.173 A 
ATOM     80  C   UNL A   1      45.143  29.289  35.097  1.00  0.00     0.173 A 
ATOM     81  F   UNL A   1      42.453  27.315  36.545  1.00  0.00    -0.203 F 
ATOM     82  C   UNL A   1      44.778  27.209  36.897  1.00  0.00     0.198 A 
ATOM     83  C   UNL A   1      46.241  28.698  35.715  1.00  0.00     0.198 A 
ATOM     84  F   UNL A   1      45.353  30.296  34.236  1.00  0.00    -0.203 F 
ATOM     85  F   UNL A   1      44.595  26.231  37.795  1.00  0.00    -0.200 F 
ATOM     86  C   UNL A   1      46.058  27.665  36.621  1.00  0.00     0.200 A 
ATOM     87  F   UNL A   1      47.479  29.130  35.435  1.00  0.00    -0.200 F 
ATOM     88  F   UNL A   1      47.114  27.113  37.233  1.00  0.00    -0.200 F 
ENDBRANCH  55  78
ENDBRANCH  29  30
ENDBRANCH  21  24
ENDBRANCH  19  20
ENDBRANCH   1  19
TORSDOF 13
ENDMDL
MODEL 3
REMARK VINA RESULT:     -11.9      6.105     11.610
REMARK SMILES CCc1c([N+](=O)[O-])cc(C(=O)NCCCCNC(=O)c2ccc(-c3c4nc(c(-c5c(F)c(F)c(F)c(F)c5F)c5ccc([nH]5)c(-c5c(F)c(F)c(F)c(F)c5F)c5nc(c(-c6c(F)c(F)c(F)c(F)c6F)c6ccc3[nH]6)C=C5)C=C4)cc2)n1C
REMARK SMILES IDX 15 1 14 2 13 3 12 4 10 5 11 6 9 8 3 9 4 10 83 11 8 12 84 13
REMARK SMILES IDX 2 14 1 15 5 16 6 17 7 18 16 19 17 20 18 21 19 23 20 24 21 25
REMARK SMILES IDX 82 26 22 27 81 28 23 29 24 30 25 31 75 32 26 33 80 34 74 35
REMARK SMILES IDX 76 36 27 37 79 38 73 39 72 40 28 42 60 43 40 44 59 45 41 46
REMARK SMILES IDX 44 47 58 48 77 49 42 50 43 51 57 53 78 54 45 55 29 56 30 57
REMARK SMILES IDX 38 58 31 59 32 60 36 61 39 62 33 63 34 64 37 65 35 66 61 67
REMARK SMILES IDX 62 68 70 69 63 70 64 71 68 72 71 73 65 74 66 75 69 76 67 77
REMARK SMILES IDX 46 78 47 79 55 80 48 81 49 82 53 83 56 84 50 85 51 86 54 87
REMARK SMILES IDX 52 88
REMARK H PARENT 12 7 17 22 76 41 44 52
REMARK Flexibility Score: inf
ROOT
ATOM      1  C   UNL A   1      38.105  19.941  24.975  1.00  0.00     0.023 C 
ENDROOT
BRANCH   1   2
ATOM      2  C   UNL A   1      37.178  21.117  24.667  1.00  0.00     0.023 C 
BRANCH   2   3
ATOM      3  C   UNL A   1      35.843  21.141  25.403  1.00  0.00     0.116 C 
BRANCH   3   4
ATOM      4  N   UNL A   1      34.989  19.999  25.157  1.00  0.00    -0.351 N 
ATOM      5  C   UNL A   1      33.632  19.932  24.938  1.00  0.00     0.268 C 
ATOM      6  O   UNL A   1      33.159  18.808  24.771  1.00  0.00    -0.268 OA
ATOM      7  H   UNL A   1      35.453  19.131  25.145  1.00  0.00     0.163 HD
BRANCH   5   8
ATOM      8  C   UNL A   1      32.797  21.120  24.985  1.00  0.00     0.114 A 
ATOM      9  C   UNL A   1      31.827  23.106  24.461  1.00  0.00     0.096 A 
ATOM     10  C   UNL A   1      31.590  22.876  25.817  1.00  0.00     0.290 A 
ATOM     11  N   UNL A   1      32.297  21.900  23.957  1.00  0.00    -0.338 N 
ATOM     12  C   UNL A   1      32.214  21.638  26.136  1.00  0.00     0.119 A 
ATOM     13  C   UNL A   1      32.112  21.456  22.590  1.00  0.00     0.150 C 
BRANCH   9  14
ATOM     14  C   UNL A   1      31.700  24.363  23.641  1.00  0.00     0.058 C 
ATOM     15  C   UNL A   1      30.284  24.807  23.326  1.00  0.00     0.011 C 
ENDBRANCH   9  14
BRANCH  10  16
ATOM     16  N   UNL A   1      30.920  23.740  26.767  1.00  0.00     0.064 N 
ATOM     17  O   UNL A   1      29.919  23.298  27.347  1.00  0.00    -0.258 OA
ATOM     18  O   UNL A   1      31.422  24.856  26.953  1.00  0.00    -0.258 OA
ENDBRANCH  10  16
ENDBRANCH   5   8
ENDBRANCH   3   4
ENDBRANCH   2   3
ENDBRANCH   1   2
BRANCH   1  19
ATOM     19  C   UNL A   1      39.323  20.239  25.844  1.00  0.00     0.116 C 
BRANCH  19  20
ATOM     20  N   UNL A   1      40.299  19.158  25.886  1.00  0.00    -0.352 N 
ATOM     21  C   UNL A   1      41.653  19.187  26.129  1.00  0.00     0.251 C 
ATOM     22  H   UNL A   1      39.930  18.263  25.712  1.00  0.00     0.163 HD
ATOM     23  O   UNL A   1      42.311  18.154  26.036  1.00  0.00    -0.269 OA
BRANCH  21  24
ATOM     24  C   UNL A   1      42.334  20.461  26.451  1.00  0.00     0.039 A 
ATOM     25  C   UNL A   1      42.933  21.184  25.415  1.00  0.00     0.014 A 
ATOM     26  C   UNL A   1      42.366  20.959  27.754  1.00  0.00     0.014 A 
ATOM     27  C   UNL A   1      43.468  22.451  25.670  1.00  0.00     0.010 A 
ATOM     28  C   UNL A   1      42.812  22.258  27.989  1.00  0.00     0.010 A 
ATOM     29  C   UNL A   1      43.360  23.023  26.947  1.00  0.00    -0.014 A 
BRANCH  29  30
ATOM     30  C   UNL A   1      43.788  24.425  27.203  1.00  0.00     0.031 A 
ATOM     31  C   UNL A   1      42.803  25.445  27.707  1.00  0.00     0.074 A 
ATOM     32  C   UNL A   1      45.051  24.799  26.915  1.00  0.00     0.049 A 
ATOM     33  N   UNL A   1      42.978  26.724  27.934  1.00  0.00    -0.248 NA
ATOM     34  C   UNL A   1      41.432  24.975  27.959  1.00  0.00     0.031 C 
ATOM     35  C   UNL A   1      46.087  23.924  26.362  1.00  0.00     0.029 A 
ATOM     36  N   UNL A   1      45.679  26.015  27.038  1.00  0.00    -0.354 N 
ATOM     37  C   UNL A   1      41.741  27.208  28.341  1.00  0.00     0.074 A 
ATOM     38  C   UNL A   1      40.811  26.102  28.271  1.00  0.00     0.031 C 
ATOM     39  C   UNL A   1      47.225  24.622  26.221  1.00  0.00     0.029 A 
ATOM     40  C   UNL A   1      46.993  26.002  26.635  1.00  0.00     0.049 A 
ATOM     41  H   UNL A   1      45.229  26.821  27.381  1.00  0.00     0.167 HD
ATOM     42  C   UNL A   1      41.417  28.454  28.761  1.00  0.00     0.037 A 
ATOM     43  C   UNL A   1      47.907  26.992  26.599  1.00  0.00     0.037 A 
ATOM     44  C   UNL A   1      42.349  29.546  28.856  1.00  0.00     0.049 A 
ATOM     45  C   UNL A   1      47.520  28.366  27.072  1.00  0.00     0.074 A 
ATOM     46  C   UNL A   1      42.133  30.828  29.334  1.00  0.00     0.029 A 
ATOM     47  N   UNL A   1      43.678  29.487  28.460  1.00  0.00    -0.354 N 
ATOM     48  N   UNL A   1      46.368  28.789  27.534  1.00  0.00    -0.248 NA
ATOM     49  C   UNL A   1      48.563  29.400  27.028  1.00  0.00     0.031 C 
ATOM     50  C   UNL A   1      43.314  31.559  29.179  1.00  0.00     0.029 A 
ATOM     51  C   UNL A   1      44.285  30.718  28.660  1.00  0.00     0.049 A 
ATOM     52  H   UNL A   1      44.123  28.690  28.091  1.00  0.00     0.167 HD
ATOM     53  C   UNL A   1      46.556  30.126  27.863  1.00  0.00     0.074 A 
ATOM     54  C   UNL A   1      47.938  30.439  27.564  1.00  0.00     0.031 C 
ATOM     55  C   UNL A   1      45.664  31.014  28.367  1.00  0.00     0.037 A 
BRANCH  42  56
ATOM     56  C   UNL A   1      39.990  28.704  29.162  1.00  0.00     0.064 A 
ATOM     57  C   UNL A   1      39.037  29.163  28.241  1.00  0.00     0.173 A 
ATOM     58  C   UNL A   1      39.560  28.437  30.471  1.00  0.00     0.173 A 
ATOM     59  F   UNL A   1      39.396  29.443  26.979  1.00  0.00    -0.203 F 
ATOM     60  C   UNL A   1      37.714  29.378  28.623  1.00  0.00     0.198 A 
ATOM     61  C   UNL A   1      38.230  28.622  30.841  1.00  0.00     0.198 A 
ATOM     62  F   UNL A   1      40.428  27.989  31.391  1.00  0.00    -0.203 F 
ATOM     63  F   UNL A   1      36.835  29.867  27.738  1.00  0.00    -0.200 F 
ATOM     64  C   UNL A   1      37.311  29.099  29.920  1.00  0.00     0.200 A 
ATOM     65  F   UNL A   1      37.838  28.337  32.090  1.00  0.00    -0.200 F 
ATOM     66  F   UNL A   1      36.036  29.297  30.283  1.00  0.00    -0.200 F 
ENDBRANCH  42  56
BRANCH  43  67
ATOM     67  C   UNL A   1      49.288  26.714  26.120  1.00  0.00     0.064 A 
ATOM     68  C   UNL A   1      49.649  26.949  24.785  1.00  0.00     0.173 A 
ATOM     69  C   UNL A   1      50.269  26.195  26.978  1.00  0.00     0.173 A 
ATOM     70  F   UNL A   1      48.741  27.426  23.921  1.00  0.00    -0.203 F 
ATOM     71  C   UNL A   1      50.929  26.653  24.321  1.00  0.00     0.198 A 
ATOM     72  C   UNL A   1      51.557  25.929  26.520  1.00  0.00     0.198 A 
ATOM     73  F   UNL A   1      49.979  25.957  28.265  1.00  0.00    -0.203 F 
ATOM     74  F   UNL A   1      51.230  26.840  23.029  1.00  0.00    -0.200 F 
ATOM     75  C   UNL A   1      51.884  26.148  25.190  1.00  0.00     0.200 A 
ATOM     76  F   UNL A   1      52.483  25.457  27.366  1.00  0.00    -0.200 F 
ATOM     77  F   UNL A   1      53.116  25.866  24.744  1.00  0.00    -0.200 F 
ENDBRANCH  43  67
BRANCH  55  78
ATOM     78  C   UNL A   1      46.162  32.399  28.665  1.00  0.00     0.064 A 
ATOM     79  C   UNL A   1      46.729  32.729  29.904  1.00  0.00     0.173 A 
ATOM     80  C   UNL A   1      46.108  33.398  27.681  1.00  0.00     0.173 A 
ATOM     81  F   UNL A   1      46.792  31.814  30.883  1.00  0.00    -0.203 F 
ATOM     82  C   UNL A   1      47.197  34.016  30.157  1.00  0.00     0.198 A 
ATOM     83  C   UNL A   1      46.607  34.674  27.926  1.00  0.00     0.198 A 
ATOM     84  F   UNL A   1      45.583  33.133  26.475  1.00  0.00    -0.203 F 
ATOM     85  F   UNL A   1      47.687  34.323  31.366  1.00  0.00    -0.200 F 
ATOM     86  C   UNL A   1      47.143  34.985  29.166  1.00  0.00     0.200 A 
ATOM     87  F   UNL A   1      46.568  35.604  26.962  1.00  0.00    -0.200 F 
ATOM     88  F   UNL A   1      47.602  36.220  29.409  1.00  0.00    -0.200 F 
ENDBRANCH  55  78
ENDBRANCH  29  30
ENDBRANCH  21  24
ENDBRANCH  19  20
ENDBRANCH   1  19
TORSDOF 13
ENDMDL
