MODEL 1
REMARK VINA RESULT:     -13.3      0.000      0.000
REMARK SMILES O=C(COc1nc(Nc2ccc(Cl)cc2Cl)nc2c1C[N@H+](Cc1ccccc1)CC2)NCCCCNC(=O)c1ccc(-c2c3nc(c(-c4c(F)c(F)c(F)c(F)c4F)c4ccc([nH]4)c(-c4c(F)c(F)c(F)c(F)c4F)c4nc(c(-c5c(F)c(F)c(F)c(F)c5F)c5ccc2[nH]5)C=C4)C=C3)cc1
REMARK SMILES IDX 32 1 31 2 1 3 2 4 3 6 4 7 5 8 6 9 19 10 7 11 18 12 20 13
REMARK SMILES IDX 17 14 30 15 21 16 29 17 8 19 9 21 10 22 15 23 11 24 14 25
REMARK SMILES IDX 16 26 12 27 13 28 22 29 23 30 24 31 28 32 25 33 27 34 26 35
REMARK SMILES IDX 33 36 34 37 35 38 36 39 37 40 38 42 39 43 40 44 101 45 41 46
REMARK SMILES IDX 100 47 42 48 43 49 44 50 94 51 45 52 99 53 93 54 95 55 46 56
REMARK SMILES IDX 98 57 92 58 91 59 47 61 79 62 59 63 78 64 60 65 63 66 77 67
REMARK SMILES IDX 96 68 61 69 62 70 76 72 97 73 64 74 48 75 49 76 57 77 50 78
REMARK SMILES IDX 51 79 55 80 58 81 52 82 53 83 56 84 54 85 80 86 81 87 89 88
REMARK SMILES IDX 82 89 83 90 87 91 90 92 84 93 85 94 88 95 86 96 65 97 66 98
REMARK SMILES IDX 74 99 67 100 68 101 72 102 75 103 69 104 70 105 73 106
REMARK SMILES IDX 71 107
REMARK H PARENT 31 5 21 18 8 20 36 41 95 60 63 71
REMARK Flexibility Score: inf
ROOT
ATOM      1  C   UNL A   1      32.673  30.269  26.063  1.00  0.00     0.116 C 
ENDROOT
BRANCH   1   2
ATOM      2  N   UNL A   1      33.006  29.522  24.873  1.00  0.00    -0.353 N 
ATOM      3  O   UNL A   1      34.464  28.074  25.906  1.00  0.00    -0.271 OA
ATOM      4  C   UNL A   1      33.827  28.414  24.912  1.00  0.00     0.258 C 
ATOM      5  H   UNL A   1      32.638  29.813  24.007  1.00  0.00     0.163 HD
BRANCH   4   6
ATOM      6  C   UNL A   1      33.967  27.685  23.573  1.00  0.00     0.331 C 
BRANCH   6   7
ATOM      7  O   UNL A   1      33.736  26.278  23.584  1.00  0.00    -0.467 OA
BRANCH   7   8
ATOM      8  C   UNL A   1      32.466  26.010  24.047  1.00  0.00     0.228 A 
ATOM      9  N   UNL A   1      31.455  26.591  23.393  1.00  0.00    -0.177 NA
ATOM     10  C   UNL A   1      32.309  25.090  25.056  1.00  0.00     0.090 A 
ATOM     11  C   UNL A   1      30.216  26.263  23.787  1.00  0.00     0.230 A 
ATOM     12  C   UNL A   1      31.003  24.811  25.396  1.00  0.00     0.064 A 
ATOM     13  C   UNL A   1      33.464  24.352  25.651  1.00  0.00     0.307 C 
ATOM     14  N   UNL A   1      29.952  25.413  24.794  1.00  0.00    -0.217 NA
ATOM     15  C   UNL A   1      30.711  23.826  26.497  1.00  0.00     0.118 C 
ATOM     16  N   UNL A   1      33.140  23.632  26.889  1.00  0.00    -0.327 N 
ATOM     17  C   UNL A   1      31.890  22.874  26.750  1.00  0.00     0.269 C 
ATOM     18  H   UNL A   1      32.975  24.325  27.618  1.00  0.00     0.348 HD
BRANCH  11  19
ATOM     19  N   UNL A   1      29.118  26.855  23.173  1.00  0.00    -0.323 N 
ATOM     20  H   UNL A   1      28.412  26.241  22.865  1.00  0.00     0.170 HD
BRANCH  19  21
ATOM     21  C   UNL A   1      28.894  28.215  22.936  1.00  0.00     0.060 A 
ATOM     22  C   UNL A   1      29.945  28.978  22.403  1.00  0.00     0.029 A 
ATOM     23  C   UNL A   1      27.652  28.847  23.145  1.00  0.00     0.066 A 
ATOM     24  C   UNL A   1      29.753  30.317  22.050  1.00  0.00     0.023 A 
ATOM     25  C   UNL A   1      27.470  30.197  22.826  1.00  0.00     0.043 A 
ATOM     26  Cl  UNL A   1      26.305  28.016  23.852  1.00  0.00    -0.082 Cl
ATOM     27  C   UNL A   1      28.514  30.916  22.256  1.00  0.00     0.042 A 
ATOM     28  Cl  UNL A   1      28.261  32.549  21.781  1.00  0.00    -0.084 Cl
ENDBRANCH  19  21
ENDBRANCH  11  19
BRANCH  16  29
ATOM     29  C   UNL A   1      34.273  22.825  27.383  1.00  0.00     0.299 C 
BRANCH  29  30
ATOM     30  C   UNL A   1      35.314  22.412  26.361  1.00  0.00     0.006 A 
ATOM     31  C   UNL A   1      36.422  23.234  26.104  1.00  0.00     0.009 A 
ATOM     32  C   UNL A   1      35.206  21.199  25.663  1.00  0.00     0.009 A 
ATOM     33  C   UNL A   1      37.413  22.831  25.206  1.00  0.00     0.001 A 
ATOM     34  C   UNL A   1      36.211  20.783  24.789  1.00  0.00     0.001 A 
ATOM     35  C   UNL A   1      37.316  21.598  24.564  1.00  0.00     0.000 A 
ENDBRANCH  29  30
ENDBRANCH  16  29
ENDBRANCH   7   8
ENDBRANCH   6   7
ENDBRANCH   4   6
ENDBRANCH   1   2
BRANCH   1  36
ATOM     36  C   UNL A   1      31.284  30.898  26.029  1.00  0.00     0.023 C 
BRANCH  36  37
ATOM     37  C   UNL A   1      31.239  32.387  26.371  1.00  0.00     0.023 C 
BRANCH  37  38
ATOM     38  C   UNL A   1      32.375  32.906  27.249  1.00  0.00     0.116 C 
BRANCH  38  39
ATOM     39  N   UNL A   1      32.214  34.297  27.643  1.00  0.00    -0.352 N 
ATOM     40  C   UNL A   1      32.932  35.042  28.548  1.00  0.00     0.251 C 
ATOM     41  H   UNL A   1      31.481  34.777  27.194  1.00  0.00     0.163 HD
ATOM     42  O   UNL A   1      32.582  36.185  28.824  1.00  0.00    -0.269 OA
BRANCH  40  43
ATOM     43  C   UNL A   1      34.110  34.457  29.229  1.00  0.00     0.039 A 
ATOM     44  C   UNL A   1      33.910  33.725  30.403  1.00  0.00     0.014 A 
ATOM     45  C   UNL A   1      35.401  34.622  28.718  1.00  0.00     0.014 A 
ATOM     46  C   UNL A   1      34.992  33.093  31.020  1.00  0.00     0.010 A 
ATOM     47  C   UNL A   1      36.468  33.937  29.295  1.00  0.00     0.010 A 
ATOM     48  C   UNL A   1      36.273  33.161  30.449  1.00  0.00    -0.014 A 
BRANCH  48  49
ATOM     49  C   UNL A   1      37.418  32.426  31.045  1.00  0.00     0.031 A 
ATOM     50  C   UNL A   1      37.933  32.799  32.406  1.00  0.00     0.074 A 
ATOM     51  C   UNL A   1      38.024  31.449  30.342  1.00  0.00     0.049 A 
ATOM     52  N   UNL A   1      38.950  32.308  33.069  1.00  0.00    -0.248 NA
ATOM     53  C   UNL A   1      37.224  33.880  33.106  1.00  0.00     0.031 C 
ATOM     54  C   UNL A   1      37.640  31.013  28.999  1.00  0.00     0.029 A 
ATOM     55  N   UNL A   1      39.094  30.648  30.658  1.00  0.00    -0.354 N 
ATOM     56  C   UNL A   1      39.003  33.020  34.259  1.00  0.00     0.074 A 
ATOM     57  C   UNL A   1      37.954  34.016  34.204  1.00  0.00     0.031 C 
ATOM     58  C   UNL A   1      38.438  30.003  28.620  1.00  0.00     0.029 A 
ATOM     59  C   UNL A   1      39.415  29.744  29.674  1.00  0.00     0.049 A 
ATOM     60  H   UNL A   1      39.584  30.716  31.508  1.00  0.00     0.167 HD
ATOM     61  C   UNL A   1      39.832  32.842  35.315  1.00  0.00     0.037 A 
ATOM     62  C   UNL A   1      40.387  28.813  29.627  1.00  0.00     0.037 A 
ATOM     63  C   UNL A   1      40.864  31.840  35.377  1.00  0.00     0.049 A 
ATOM     64  C   UNL A   1      41.318  28.657  30.798  1.00  0.00     0.074 A 
ATOM     65  C   UNL A   1      41.728  31.557  36.420  1.00  0.00     0.029 A 
ATOM     66  N   UNL A   1      41.170  30.957  34.353  1.00  0.00    -0.354 N 
ATOM     67  N   UNL A   1      41.331  29.307  31.935  1.00  0.00    -0.248 NA
ATOM     68  C   UNL A   1      42.372  27.639  30.678  1.00  0.00     0.031 C 
ATOM     69  C   UNL A   1      42.584  30.531  36.012  1.00  0.00     0.029 A 
ATOM     70  C   UNL A   1      42.225  30.142  34.732  1.00  0.00     0.049 A 
ATOM     71  H   UNL A   1      40.706  30.914  33.485  1.00  0.00     0.167 HD
ATOM     72  C   UNL A   1      42.375  28.766  32.673  1.00  0.00     0.074 A 
ATOM     73  C   UNL A   1      42.965  27.724  31.860  1.00  0.00     0.031 C 
ATOM     74  C   UNL A   1      42.803  29.107  33.913  1.00  0.00     0.037 A 
BRANCH  61  75
ATOM     75  C   UNL A   1      39.649  33.744  36.499  1.00  0.00     0.064 A 
ATOM     76  C   UNL A   1      38.825  33.378  37.574  1.00  0.00     0.173 A 
ATOM     77  C   UNL A   1      40.336  34.963  36.584  1.00  0.00     0.173 A 
ATOM     78  F   UNL A   1      38.138  32.226  37.536  1.00  0.00    -0.203 F 
ATOM     79  C   UNL A   1      38.677  34.210  38.681  1.00  0.00     0.198 A 
ATOM     80  C   UNL A   1      40.208  35.780  37.704  1.00  0.00     0.198 A 
ATOM     81  F   UNL A   1      41.141  35.358  35.586  1.00  0.00    -0.203 F 
ATOM     82  F   UNL A   1      37.851  33.859  39.676  1.00  0.00    -0.200 F 
ATOM     83  C   UNL A   1      39.374  35.407  38.747  1.00  0.00     0.200 A 
ATOM     84  F   UNL A   1      40.893  36.930  37.775  1.00  0.00    -0.200 F 
ATOM     85  F   UNL A   1      39.239  36.203  39.817  1.00  0.00    -0.200 F 
ENDBRANCH  61  75
BRANCH  62  86
ATOM     86  C   UNL A   1      40.498  27.927  28.440  1.00  0.00     0.064 A 
ATOM     87  C   UNL A   1      41.262  28.313  27.330  1.00  0.00     0.173 A 
ATOM     88  C   UNL A   1      39.872  26.673  28.399  1.00  0.00     0.173 A 
ATOM     89  F   UNL A   1      41.861  29.513  27.315  1.00  0.00    -0.203 F 
ATOM     90  C   UNL A   1      41.394  27.480  26.222  1.00  0.00     0.198 A 
ATOM     91  C   UNL A   1      40.023  25.831  27.299  1.00  0.00     0.198 A 
ATOM     92  F   UNL A   1      39.131  26.258  29.435  1.00  0.00    -0.203 F 
ATOM     93  F   UNL A   1      42.109  27.884  25.163  1.00  0.00    -0.200 F 
ATOM     94  C   UNL A   1      40.782  26.235  26.211  1.00  0.00     0.200 A 
ATOM     95  F   UNL A   1      39.440  24.624  27.297  1.00  0.00    -0.200 F 
ATOM     96  F   UNL A   1      40.919  25.428  25.150  1.00  0.00    -0.200 F 
ENDBRANCH  62  86
BRANCH  74  97
ATOM     97  C   UNL A   1      43.962  28.341  34.483  1.00  0.00     0.064 A 
ATOM     98  C   UNL A   1      43.774  27.126  35.156  1.00  0.00     0.173 A 
ATOM     99  C   UNL A   1      45.277  28.789  34.285  1.00  0.00     0.173 A 
ATOM    100  F   UNL A   1      42.536  26.663  35.380  1.00  0.00    -0.203 F 
ATOM    101  C   UNL A   1      44.862  26.390  35.619  1.00  0.00     0.198 A 
ATOM    102  C   UNL A   1      46.362  28.039  34.728  1.00  0.00     0.198 A 
ATOM    103  F   UNL A   1      45.510  29.943  33.642  1.00  0.00    -0.203 F 
ATOM    104  F   UNL A   1      44.659  25.245  36.285  1.00  0.00    -0.200 F 
ATOM    105  C   UNL A   1      46.155  26.842  35.397  1.00  0.00     0.200 A 
ATOM    106  F   UNL A   1      47.611  28.470  34.498  1.00  0.00    -0.200 F 
ATOM    107  F   UNL A   1      47.200  26.123  35.828  1.00  0.00    -0.200 F 
ENDBRANCH  74  97
ENDBRANCH  48  49
ENDBRANCH  40  43
ENDBRANCH  38  39
ENDBRANCH  37  38
ENDBRANCH  36  37
ENDBRANCH   1  36
TORSDOF 17
ENDMDL
MODEL 2
REMARK VINA RESULT:     -13.1      2.277      5.093
REMARK SMILES O=C(COc1nc(Nc2ccc(Cl)cc2Cl)nc2c1C[N@H+](Cc1ccccc1)CC2)NCCCCNC(=O)c1ccc(-c2c3nc(c(-c4c(F)c(F)c(F)c(F)c4F)c4ccc([nH]4)c(-c4c(F)c(F)c(F)c(F)c4F)c4nc(c(-c5c(F)c(F)c(F)c(F)c5F)c5ccc2[nH]5)C=C4)C=C3)cc1
REMARK SMILES IDX 32 1 31 2 1 3 2 4 3 6 4 7 5 8 6 9 19 10 7 11 18 12 20 13
REMARK SMILES IDX 17 14 30 15 21 16 29 17 8 19 9 21 10 22 15 23 11 24 14 25
REMARK SMILES IDX 16 26 12 27 13 28 22 29 23 30 24 31 28 32 25 33 27 34 26 35
REMARK SMILES IDX 33 36 34 37 35 38 36 39 37 40 38 42 39 43 40 44 101 45 41 46
REMARK SMILES IDX 100 47 42 48 43 49 44 50 94 51 45 52 99 53 93 54 95 55 46 56
REMARK SMILES IDX 98 57 92 58 91 59 47 61 79 62 59 63 78 64 60 65 63 66 77 67
REMARK SMILES IDX 96 68 61 69 62 70 76 72 97 73 64 74 48 75 49 76 57 77 50 78
REMARK SMILES IDX 51 79 55 80 58 81 52 82 53 83 56 84 54 85 80 86 81 87 89 88
REMARK SMILES IDX 82 89 83 90 87 91 90 92 84 93 85 94 88 95 86 96 65 97 66 98
REMARK SMILES IDX 74 99 67 100 68 101 72 102 75 103 69 104 70 105 73 106
REMARK SMILES IDX 71 107
REMARK H PARENT 31 5 21 18 8 20 36 41 95 60 63 71
REMARK Flexibility Score: inf
ROOT
ATOM      1  C   UNL A   1      34.220  32.340  29.024  1.00  0.00     0.116 C 
ENDROOT
BRANCH   1   2
ATOM      2  N   UNL A   1      34.304  31.206  28.134  1.00  0.00    -0.353 N 
ATOM      3  O   UNL A   1      32.188  31.436  27.261  1.00  0.00    -0.271 OA
ATOM      4  C   UNL A   1      33.291  30.893  27.251  1.00  0.00     0.258 C 
ATOM      5  H   UNL A   1      35.107  30.637  28.160  1.00  0.00     0.163 HD
BRANCH   4   6
ATOM      6  C   UNL A   1      33.612  29.730  26.309  1.00  0.00     0.331 C 
BRANCH   6   7
ATOM      7  O   UNL A   1      32.661  29.458  25.282  1.00  0.00    -0.467 OA
BRANCH   7   8
ATOM      8  C   UNL A   1      32.643  28.110  24.996  1.00  0.00     0.228 A 
ATOM      9  N   UNL A   1      33.710  27.402  25.379  1.00  0.00    -0.177 NA
ATOM     10  C   UNL A   1      31.506  27.563  24.451  1.00  0.00     0.090 A 
ATOM     11  C   UNL A   1      33.658  26.078  25.179  1.00  0.00     0.230 A 
ATOM     12  C   UNL A   1      31.538  26.196  24.282  1.00  0.00     0.064 A 
ATOM     13  C   UNL A   1      30.280  28.373  24.182  1.00  0.00     0.307 C 
ATOM     14  N   UNL A   1      32.616  25.448  24.611  1.00  0.00    -0.217 NA
ATOM     15  C   UNL A   1      30.350  25.489  23.682  1.00  0.00     0.118 C 
ATOM     16  N   UNL A   1      29.281  27.689  23.350  1.00  0.00    -0.327 N 
ATOM     17  C   UNL A   1      29.059  26.312  23.812  1.00  0.00     0.269 C 
ATOM     18  H   UNL A   1      29.659  27.616  22.406  1.00  0.00     0.348 HD
BRANCH  11  19
ATOM     19  N   UNL A   1      34.746  25.284  25.525  1.00  0.00    -0.323 N 
ATOM     20  H   UNL A   1      35.495  25.746  25.967  1.00  0.00     0.170 HD
BRANCH  19  21
ATOM     21  C   UNL A   1      34.908  23.911  25.318  1.00  0.00     0.060 A 
ATOM     22  C   UNL A   1      35.795  23.489  24.315  1.00  0.00     0.029 A 
ATOM     23  C   UNL A   1      34.277  22.926  26.105  1.00  0.00     0.066 A 
ATOM     24  C   UNL A   1      36.078  22.133  24.129  1.00  0.00     0.023 A 
ATOM     25  C   UNL A   1      34.531  21.567  25.894  1.00  0.00     0.043 A 
ATOM     26  Cl  UNL A   1      33.120  23.331  27.330  1.00  0.00    -0.082 Cl
ATOM     27  C   UNL A   1      35.450  21.180  24.925  1.00  0.00     0.042 A 
ATOM     28  Cl  UNL A   1      35.828  19.514  24.730  1.00  0.00    -0.084 Cl
ENDBRANCH  19  21
ENDBRANCH  11  19
BRANCH  16  29
ATOM     29  C   UNL A   1      28.040  28.473  23.201  1.00  0.00     0.299 C 
BRANCH  29  30
ATOM     30  C   UNL A   1      28.189  29.898  22.703  1.00  0.00     0.006 A 
ATOM     31  C   UNL A   1      28.239  30.167  21.327  1.00  0.00     0.009 A 
ATOM     32  C   UNL A   1      28.264  30.977  23.598  1.00  0.00     0.009 A 
ATOM     33  C   UNL A   1      28.318  31.482  20.862  1.00  0.00     0.001 A 
ATOM     34  C   UNL A   1      28.312  32.292  23.133  1.00  0.00     0.001 A 
ATOM     35  C   UNL A   1      28.336  32.543  21.764  1.00  0.00     0.000 A 
ENDBRANCH  29  30
ENDBRANCH  16  29
ENDBRANCH   7   8
ENDBRANCH   6   7
ENDBRANCH   4   6
ENDBRANCH   1   2
BRANCH   1  36
ATOM     36  C   UNL A   1      34.406  33.685  28.330  1.00  0.00     0.023 C 
BRANCH  36  37
ATOM     37  C   UNL A   1      33.247  34.667  28.500  1.00  0.00     0.023 C 
BRANCH  37  38
ATOM     38  C   UNL A   1      33.517  35.868  29.403  1.00  0.00     0.116 C 
BRANCH  38  39
ATOM     39  N   UNL A   1      32.552  36.009  30.483  1.00  0.00    -0.352 N 
ATOM     40  C   UNL A   1      32.622  35.570  31.784  1.00  0.00     0.251 C 
ATOM     41  H   UNL A   1      31.727  36.491  30.247  1.00  0.00     0.163 HD
ATOM     42  O   UNL A   1      31.656  35.697  32.531  1.00  0.00    -0.269 OA
BRANCH  40  43
ATOM     43  C   UNL A   1      33.845  34.904  32.283  1.00  0.00     0.039 A 
ATOM     44  C   UNL A   1      33.762  33.571  32.696  1.00  0.00     0.014 A 
ATOM     45  C   UNL A   1      35.068  35.579  32.343  1.00  0.00     0.014 A 
ATOM     46  C   UNL A   1      34.916  32.892  33.093  1.00  0.00     0.010 A 
ATOM     47  C   UNL A   1      36.230  34.884  32.674  1.00  0.00     0.010 A 
ATOM     48  C   UNL A   1      36.166  33.532  33.047  1.00  0.00    -0.014 A 
BRANCH  48  49
ATOM     49  C   UNL A   1      37.414  32.800  33.385  1.00  0.00     0.031 A 
ATOM     50  C   UNL A   1      38.143  33.095  34.664  1.00  0.00     0.074 A 
ATOM     51  C   UNL A   1      37.916  31.901  32.516  1.00  0.00     0.049 A 
ATOM     52  N   UNL A   1      39.270  32.597  35.107  1.00  0.00    -0.248 NA
ATOM     53  C   UNL A   1      37.536  34.095  35.555  1.00  0.00     0.031 C 
ATOM     54  C   UNL A   1      37.321  31.548  31.228  1.00  0.00     0.029 A 
ATOM     55  N   UNL A   1      39.045  31.121  32.586  1.00  0.00    -0.354 N 
ATOM     56  C   UNL A   1      39.507  33.224  36.323  1.00  0.00     0.074 A 
ATOM     57  C   UNL A   1      38.439  34.179  36.521  1.00  0.00     0.031 C 
ATOM     58  C   UNL A   1      38.069  30.599  30.643  1.00  0.00     0.029 A 
ATOM     59  C   UNL A   1      39.217  30.303  31.495  1.00  0.00     0.049 A 
ATOM     60  H   UNL A   1      39.671  31.146  33.345  1.00  0.00     0.167 HD
ATOM     61  C   UNL A   1      40.508  33.002  37.208  1.00  0.00     0.037 A 
ATOM     62  C   UNL A   1      40.191  29.416  31.214  1.00  0.00     0.037 A 
ATOM     63  C   UNL A   1      41.561  32.040  37.019  1.00  0.00     0.049 A 
ATOM     64  C   UNL A   1      41.311  29.213  32.197  1.00  0.00     0.074 A 
ATOM     65  C   UNL A   1      42.597  31.716  37.877  1.00  0.00     0.029 A 
ATOM     66  N   UNL A   1      41.711  31.244  35.893  1.00  0.00    -0.354 N 
ATOM     67  N   UNL A   1      41.500  29.780  33.362  1.00  0.00    -0.248 NA
ATOM     68  C   UNL A   1      42.355  28.247  31.823  1.00  0.00     0.031 C 
ATOM     69  C   UNL A   1      43.398  30.755  37.253  1.00  0.00     0.029 A 
ATOM     70  C   UNL A   1      42.836  30.446  36.025  1.00  0.00     0.049 A 
ATOM     71  H   UNL A   1      41.107  31.245  35.115  1.00  0.00     0.167 HD
ATOM     72  C   UNL A   1      42.669  29.228  33.871  1.00  0.00     0.074 A 
ATOM     73  C   UNL A   1      43.139  28.270  32.892  1.00  0.00     0.031 C 
ATOM     74  C   UNL A   1      43.293  29.495  35.043  1.00  0.00     0.037 A 
BRANCH  61  75
ATOM     75  C   UNL A   1      40.506  33.809  38.472  1.00  0.00     0.064 A 
ATOM     76  C   UNL A   1      39.760  33.410  39.592  1.00  0.00     0.173 A 
ATOM     77  C   UNL A   1      41.289  34.967  38.585  1.00  0.00     0.173 A 
ATOM     78  F   UNL A   1      38.987  32.315  39.531  1.00  0.00    -0.203 F 
ATOM     79  C   UNL A   1      39.781  34.152  40.769  1.00  0.00     0.198 A 
ATOM     80  C   UNL A   1      41.329  35.692  39.773  1.00  0.00     0.198 A 
ATOM     81  F   UNL A   1      42.024  35.391  37.546  1.00  0.00    -0.203 F 
ATOM     82  F   UNL A   1      39.027  33.774  41.812  1.00  0.00    -0.200 F 
ATOM     83  C   UNL A   1      40.571  35.288  40.861  1.00  0.00     0.200 A 
ATOM     84  F   UNL A   1      42.103  36.782  39.866  1.00  0.00    -0.200 F 
ATOM     85  F   UNL A   1      40.597  35.997  41.998  1.00  0.00    -0.200 F 
ENDBRANCH  61  75
BRANCH  62  86
ATOM     86  C   UNL A   1      40.121  28.623  29.960  1.00  0.00     0.064 A 
ATOM     87  C   UNL A   1      40.701  29.102  28.778  1.00  0.00     0.173 A 
ATOM     88  C   UNL A   1      39.504  27.364  29.922  1.00  0.00     0.173 A 
ATOM     89  F   UNL A   1      41.283  30.311  28.761  1.00  0.00    -0.203 F 
ATOM     90  C   UNL A   1      40.664  28.356  27.603  1.00  0.00     0.198 A 
ATOM     91  C   UNL A   1      39.487  26.608  28.752  1.00  0.00     0.198 A 
ATOM     92  F   UNL A   1      38.935  26.860  31.026  1.00  0.00    -0.203 F 
ATOM     93  F   UNL A   1      41.203  28.850  26.479  1.00  0.00    -0.200 F 
ATOM     94  C   UNL A   1      40.065  27.105  27.593  1.00  0.00     0.200 A 
ATOM     95  F   UNL A   1      38.918  25.394  28.748  1.00  0.00    -0.200 F 
ATOM     96  F   UNL A   1      40.040  26.381  26.465  1.00  0.00    -0.200 F 
ENDBRANCH  62  86
BRANCH  74  97
ATOM     97  C   UNL A   1      44.551  28.736  35.350  1.00  0.00     0.064 A 
ATOM     98  C   UNL A   1      44.515  27.494  35.998  1.00  0.00     0.173 A 
ATOM     99  C   UNL A   1      45.797  29.220  34.921  1.00  0.00     0.173 A 
ATOM    100  F   UNL A   1      43.350  26.995  36.438  1.00  0.00    -0.203 F 
ATOM    101  C   UNL A   1      45.682  26.767  36.216  1.00  0.00     0.198 A 
ATOM    102  C   UNL A   1      46.958  28.479  35.118  1.00  0.00     0.198 A 
ATOM    103  F   UNL A   1      45.883  30.400  34.290  1.00  0.00    -0.203 F 
ATOM    104  F   UNL A   1      45.629  25.594  36.863  1.00  0.00    -0.200 F 
ATOM    105  C   UNL A   1      46.901  27.255  35.767  1.00  0.00     0.200 A 
ATOM    106  F   UNL A   1      48.133  28.945  34.670  1.00  0.00    -0.200 F 
ATOM    107  F   UNL A   1      48.021  26.545  35.961  1.00  0.00    -0.200 F 
ENDBRANCH  74  97
ENDBRANCH  48  49
ENDBRANCH  40  43
ENDBRANCH  38  39
ENDBRANCH  37  38
ENDBRANCH  36  37
ENDBRANCH   1  36
TORSDOF 17
ENDMDL
MODEL 3
REMARK VINA RESULT:     -13.1      6.002     11.018
REMARK SMILES O=C(COc1nc(Nc2ccc(Cl)cc2Cl)nc2c1C[N@H+](Cc1ccccc1)CC2)NCCCCNC(=O)c1ccc(-c2c3nc(c(-c4c(F)c(F)c(F)c(F)c4F)c4ccc([nH]4)c(-c4c(F)c(F)c(F)c(F)c4F)c4nc(c(-c5c(F)c(F)c(F)c(F)c5F)c5ccc2[nH]5)C=C4)C=C3)cc1
REMARK SMILES IDX 32 1 31 2 1 3 2 4 3 6 4 7 5 8 6 9 19 10 7 11 18 12 20 13
REMARK SMILES IDX 17 14 30 15 21 16 29 17 8 19 9 21 10 22 15 23 11 24 14 25
REMARK SMILES IDX 16 26 12 27 13 28 22 29 23 30 24 31 28 32 25 33 27 34 26 35
REMARK SMILES IDX 33 36 34 37 35 38 36 39 37 40 38 42 39 43 40 44 101 45 41 46
REMARK SMILES IDX 100 47 42 48 43 49 44 50 94 51 45 52 99 53 93 54 95 55 46 56
REMARK SMILES IDX 98 57 92 58 91 59 47 61 79 62 59 63 78 64 60 65 63 66 77 67
REMARK SMILES IDX 96 68 61 69 62 70 76 72 97 73 64 74 48 75 49 76 57 77 50 78
REMARK SMILES IDX 51 79 55 80 58 81 52 82 53 83 56 84 54 85 80 86 81 87 89 88
REMARK SMILES IDX 82 89 83 90 87 91 90 92 84 93 85 94 88 95 86 96 65 97 66 98
REMARK SMILES IDX 74 99 67 100 68 101 72 102 75 103 69 104 70 105 73 106
REMARK SMILES IDX 71 107
REMARK H PARENT 31 5 21 18 8 20 36 41 95 60 63 71
REMARK Flexibility Score: inf
ROOT
ATOM      1  C   UNL A   1      40.313  22.074  27.119  1.00  0.00     0.116 C 
ENDROOT
BRANCH   1   2
ATOM      2  N   UNL A   1      39.384  22.877  26.359  1.00  0.00    -0.353 N 
ATOM      3  O   UNL A   1      38.046  21.126  25.700  1.00  0.00    -0.271 OA
ATOM      4  C   UNL A   1      38.261  22.334  25.771  1.00  0.00     0.258 C 
ATOM      5  H   UNL A   1      39.559  23.841  26.256  1.00  0.00     0.163 HD
BRANCH   4   6
ATOM      6  C   UNL A   1      37.336  23.360  25.110  1.00  0.00     0.331 C 
BRANCH   6   7
ATOM      7  O   UNL A   1      36.195  22.846  24.426  1.00  0.00    -0.467 OA
BRANCH   7   8
ATOM      8  C   UNL A   1      35.065  23.541  24.798  1.00  0.00     0.228 A 
ATOM      9  N   UNL A   1      35.254  24.757  25.320  1.00  0.00    -0.177 NA
ATOM     10  C   UNL A   1      33.833  23.005  24.511  1.00  0.00     0.090 A 
ATOM     11  C   UNL A   1      34.154  25.468  25.603  1.00  0.00     0.230 A 
ATOM     12  C   UNL A   1      32.757  23.804  24.832  1.00  0.00     0.064 A 
ATOM     13  C   UNL A   1      33.675  21.708  23.786  1.00  0.00     0.307 C 
ATOM     14  N   UNL A   1      32.902  25.020  25.407  1.00  0.00    -0.217 NA
ATOM     15  C   UNL A   1      31.357  23.314  24.571  1.00  0.00     0.118 C 
ATOM     16  N   UNL A   1      32.310  21.166  23.818  1.00  0.00    -0.327 N 
ATOM     17  C   UNL A   1      31.320  22.205  23.509  1.00  0.00     0.269 C 
ATOM     18  H   UNL A   1      32.119  20.863  24.772  1.00  0.00     0.348 HD
BRANCH  11  19
ATOM     19  N   UNL A   1      34.276  26.728  26.178  1.00  0.00    -0.323 N 
ATOM     20  H   UNL A   1      35.062  26.866  26.755  1.00  0.00     0.170 HD
BRANCH  19  21
ATOM     21  C   UNL A   1      33.418  27.824  26.038  1.00  0.00     0.060 A 
ATOM     22  C   UNL A   1      32.691  28.246  27.162  1.00  0.00     0.029 A 
ATOM     23  C   UNL A   1      33.291  28.566  24.846  1.00  0.00     0.066 A 
ATOM     24  C   UNL A   1      31.896  29.395  27.114  1.00  0.00     0.023 A 
ATOM     25  C   UNL A   1      32.467  29.694  24.788  1.00  0.00     0.043 A 
ATOM     26  Cl  UNL A   1      34.096  28.100  23.384  1.00  0.00    -0.082 Cl
ATOM     27  C   UNL A   1      31.795  30.117  25.928  1.00  0.00     0.042 A 
ATOM     28  Cl  UNL A   1      30.855  31.555  25.877  1.00  0.00    -0.084 Cl
ENDBRANCH  19  21
ENDBRANCH  11  19
BRANCH  16  29
ATOM     29  C   UNL A   1      32.170  19.947  22.998  1.00  0.00     0.299 C 
BRANCH  29  30
ATOM     30  C   UNL A   1      32.647  18.648  23.618  1.00  0.00     0.006 A 
ATOM     31  C   UNL A   1      33.337  17.704  22.843  1.00  0.00     0.009 A 
ATOM     32  C   UNL A   1      32.428  18.367  24.976  1.00  0.00     0.009 A 
ATOM     33  C   UNL A   1      33.830  16.532  23.423  1.00  0.00     0.001 A 
ATOM     34  C   UNL A   1      32.946  17.211  25.561  1.00  0.00     0.001 A 
ATOM     35  C   UNL A   1      33.650  16.295  24.784  1.00  0.00     0.000 A 
ENDBRANCH  29  30
ENDBRANCH  16  29
ENDBRANCH   7   8
ENDBRANCH   6   7
ENDBRANCH   4   6
ENDBRANCH   1   2
BRANCH   1  36
ATOM     36  C   UNL A   1      41.509  21.583  26.312  1.00  0.00     0.023 C 
BRANCH  36  37
ATOM     37  C   UNL A   1      41.464  20.105  25.923  1.00  0.00     0.023 C 
BRANCH  37  38
ATOM     38  C   UNL A   1      42.689  19.276  26.300  1.00  0.00     0.116 C 
BRANCH  38  39
ATOM     39  N   UNL A   1      43.497  18.882  25.155  1.00  0.00    -0.352 N 
ATOM     40  C   UNL A   1      44.403  19.615  24.427  1.00  0.00     0.251 C 
ATOM     41  H   UNL A   1      43.376  17.951  24.859  1.00  0.00     0.163 HD
ATOM     42  O   UNL A   1      44.920  19.136  23.422  1.00  0.00    -0.269 OA
BRANCH  40  43
ATOM     43  C   UNL A   1      44.732  21.002  24.823  1.00  0.00     0.039 A 
ATOM     44  C   UNL A   1      44.314  22.052  24.000  1.00  0.00     0.014 A 
ATOM     45  C   UNL A   1      45.444  21.274  25.996  1.00  0.00     0.014 A 
ATOM     46  C   UNL A   1      44.538  23.374  24.390  1.00  0.00     0.010 A 
ATOM     47  C   UNL A   1      45.607  22.592  26.418  1.00  0.00     0.010 A 
ATOM     48  C   UNL A   1      45.152  23.655  25.622  1.00  0.00    -0.014 A 
BRANCH  48  49
ATOM     49  C   UNL A   1      45.321  25.054  26.092  1.00  0.00     0.031 A 
ATOM     50  C   UNL A   1      46.665  25.721  26.016  1.00  0.00     0.074 A 
ATOM     51  C   UNL A   1      44.274  25.709  26.630  1.00  0.00     0.049 A 
ATOM     52  N   UNL A   1      47.019  26.915  26.421  1.00  0.00    -0.248 NA
ATOM     53  C   UNL A   1      47.759  24.938  25.424  1.00  0.00     0.031 C 
ATOM     54  C   UNL A   1      42.927  25.162  26.790  1.00  0.00     0.029 A 
ATOM     55  N   UNL A   1      44.180  26.979  27.146  1.00  0.00    -0.354 N 
ATOM     56  C   UNL A   1      48.374  27.023  26.136  1.00  0.00     0.074 A 
ATOM     57  C   UNL A   1      48.790  25.755  25.578  1.00  0.00     0.031 C 
ATOM     58  C   UNL A   1      42.133  26.099  27.332  1.00  0.00     0.029 A 
ATOM     59  C   UNL A   1      42.922  27.300  27.594  1.00  0.00     0.049 A 
ATOM     60  H   UNL A   1      44.943  27.600  27.190  1.00  0.00     0.167 HD
ATOM     61  C   UNL A   1      49.189  28.092  26.297  1.00  0.00     0.037 A 
ATOM     62  C   UNL A   1      42.456  28.433  28.154  1.00  0.00     0.037 A 
ATOM     63  C   UNL A   1      48.770  29.359  26.837  1.00  0.00     0.049 A 
ATOM     64  C   UNL A   1      43.390  29.595  28.355  1.00  0.00     0.074 A 
ATOM     65  C   UNL A   1      49.515  30.513  27.003  1.00  0.00     0.029 A 
ATOM     66  N   UNL A   1      47.492  29.638  27.297  1.00  0.00    -0.354 N 
ATOM     67  N   UNL A   1      44.658  29.700  28.042  1.00  0.00    -0.248 NA
ATOM     68  C   UNL A   1      42.829  30.796  28.991  1.00  0.00     0.031 C 
ATOM     69  C   UNL A   1      48.699  31.478  27.601  1.00  0.00     0.029 A 
ATOM     70  C   UNL A   1      47.433  30.940  27.768  1.00  0.00     0.049 A 
ATOM     71  H   UNL A   1      46.738  29.005  27.290  1.00  0.00     0.167 HD
ATOM     72  C   UNL A   1      45.041  30.979  28.421  1.00  0.00     0.074 A 
ATOM     73  C   UNL A   1      43.867  31.620  28.976  1.00  0.00     0.031 C 
ATOM     74  C   UNL A   1      46.258  31.567  28.317  1.00  0.00     0.037 A 
BRANCH  61  75
ATOM     75  C   UNL A   1      50.620  27.942  25.873  1.00  0.00     0.064 A 
ATOM     76  C   UNL A   1      51.000  28.074  24.529  1.00  0.00     0.173 A 
ATOM     77  C   UNL A   1      51.627  27.708  26.820  1.00  0.00     0.173 A 
ATOM     78  F   UNL A   1      50.072  28.288  23.583  1.00  0.00    -0.203 F 
ATOM     79  C   UNL A   1      52.333  27.956  24.145  1.00  0.00     0.198 A 
ATOM     80  C   UNL A   1      52.963  27.618  26.437  1.00  0.00     0.198 A 
ATOM     81  F   UNL A   1      51.319  27.578  28.119  1.00  0.00    -0.203 F 
ATOM     82  F   UNL A   1      52.667  28.044  22.850  1.00  0.00    -0.200 F 
ATOM     83  C   UNL A   1      53.313  27.735  25.101  1.00  0.00     0.200 A 
ATOM     84  F   UNL A   1      53.912  27.418  27.362  1.00  0.00    -0.200 F 
ATOM     85  F   UNL A   1      54.598  27.630  24.732  1.00  0.00    -0.200 F 
ENDBRANCH  61  75
BRANCH  62  86
ATOM     86  C   UNL A   1      41.021  28.533  28.524  1.00  0.00     0.064 A 
ATOM     87  C   UNL A   1      40.586  28.162  29.803  1.00  0.00     0.173 A 
ATOM     88  C   UNL A   1      40.064  29.025  27.625  1.00  0.00     0.173 A 
ATOM     89  F   UNL A   1      41.462  27.666  30.690  1.00  0.00    -0.203 F 
ATOM     90  C   UNL A   1      39.247  28.276  30.170  1.00  0.00     0.198 A 
ATOM     91  C   UNL A   1      38.729  29.160  28.000  1.00  0.00     0.198 A 
ATOM     92  F   UNL A   1      40.430  29.395  26.389  1.00  0.00    -0.203 F 
ATOM     93  F   UNL A   1      38.853  27.889  31.391  1.00  0.00    -0.200 F 
ATOM     94  C   UNL A   1      38.321  28.783  29.271  1.00  0.00     0.200 A 
ATOM     95  F   UNL A   1      37.839  29.662  27.133  1.00  0.00    -0.200 F 
ATOM     96  F   UNL A   1      37.035  28.905  29.627  1.00  0.00    -0.200 F 
ENDBRANCH  62  86
BRANCH  74  97
ATOM     97  C   UNL A   1      46.391  32.981  28.802  1.00  0.00     0.064 A 
ATOM     98  C   UNL A   1      46.797  33.268  30.113  1.00  0.00     0.173 A 
ATOM     99  C   UNL A   1      46.186  34.056  27.925  1.00  0.00     0.173 A 
ATOM    100  F   UNL A   1      46.993  32.275  30.992  1.00  0.00    -0.203 F 
ATOM    101  C   UNL A   1      46.984  34.583  30.531  1.00  0.00     0.198 A 
ATOM    102  C   UNL A   1      46.398  35.368  28.339  1.00  0.00     0.198 A 
ATOM    103  F   UNL A   1      45.803  33.833  26.659  1.00  0.00    -0.203 F 
ATOM    104  F   UNL A   1      47.345  34.837  31.796  1.00  0.00    -0.200 F 
ATOM    105  C   UNL A   1      46.794  35.631  29.641  1.00  0.00     0.200 A 
ATOM    106  F   UNL A   1      46.228  36.378  27.473  1.00  0.00    -0.200 F 
ATOM    107  F   UNL A   1      46.992  36.894  30.041  1.00  0.00    -0.200 F 
ENDBRANCH  74  97
ENDBRANCH  48  49
ENDBRANCH  40  43
ENDBRANCH  38  39
ENDBRANCH  37  38
ENDBRANCH  36  37
ENDBRANCH   1  36
TORSDOF 17
ENDMDL
