MODEL 1
REMARK VINA RESULT:     -12.4      0.000      0.000
REMARK SMILES Cc1cc(C(=O)NCCCCNC(=O)c2ccc(-c3c4nc(c(-c5c(F)c(F)c(F)c(F)c5F)c5ccc([nH]5)c(-c5c(F)c(F)c(F)c(F)c5F)c5nc(c(-c6c(F)c(F)c(F)c(F)c6F)c6ccc3[nH]6)C=C5)C=C4)cc2)c(C)n1[C@@H]1C[N@H+]2CC[C@@H]1CC2
REMARK SMILES IDX 10 1 9 2 8 3 7 4 5 5 6 6 4 8 1 9 2 10 3 11 80 12 78 13 79 14
REMARK SMILES IDX 81 15 82 16 86 17 83 18 87 19 85 20 88 21 84 22 11 24 12 25
REMARK SMILES IDX 13 26 14 28 15 29 16 30 77 31 17 32 76 33 18 34 19 35 20 36
REMARK SMILES IDX 70 37 21 38 75 39 69 40 71 41 22 42 74 43 68 44 67 45 23 47
REMARK SMILES IDX 55 48 35 49 54 50 36 51 39 52 53 53 72 54 37 55 38 56 52 58
REMARK SMILES IDX 73 59 40 60 24 61 25 62 33 63 26 64 27 65 31 66 34 67 28 68
REMARK SMILES IDX 29 69 32 70 30 71 56 72 57 73 65 74 58 75 59 76 63 77 66 78
REMARK SMILES IDX 60 79 61 80 64 81 62 82 41 83 42 84 50 85 43 86 44 87 48 88
REMARK SMILES IDX 51 89 45 90 46 91 49 92 47 93
REMARK H PARENT 7 7 83 23 12 27 71 46 39 57
REMARK Flexibility Score: inf
ROOT
ATOM      1  C   UNL A   1      34.013  31.853  28.221  1.00  0.00     0.023 C 
ENDROOT
BRANCH   1   2
ATOM      2  C   UNL A   1      33.940  30.668  27.239  1.00  0.00     0.023 C 
BRANCH   2   3
ATOM      3  C   UNL A   1      32.636  29.869  27.257  1.00  0.00     0.116 C 
BRANCH   3   4
ATOM      4  N   UNL A   1      31.868  30.056  26.039  1.00  0.00    -0.352 N 
ATOM      5  C   UNL A   1      31.393  29.205  25.071  1.00  0.00     0.253 C 
ATOM      6  O   UNL A   1      30.645  29.714  24.236  1.00  0.00    -0.269 OA
ATOM      7  H   UNL A   1      31.639  30.998  25.869  1.00  0.00     0.163 HD
BRANCH   5   8
ATOM      8  C   UNL A   1      31.721  27.774  25.063  1.00  0.00     0.060 A 
ATOM      9  C   UNL A   1      30.877  24.192  25.181  1.00  0.00     0.064 C 
ATOM     10  C   UNL A   1      31.564  25.511  25.130  1.00  0.00     0.016 A 
ATOM     11  C   UNL A   1      31.006  26.684  25.598  1.00  0.00     0.037 A 
ATOM     12  N   UNL A   1      32.814  25.822  24.615  1.00  0.00    -0.339 N 
ATOM     13  C   UNL A   1      32.889  27.220  24.522  1.00  0.00     0.028 A 
ATOM     14  C   UNL A   1      34.026  27.993  23.916  1.00  0.00     0.065 C 
BRANCH  12  15
ATOM     15  C   UNL A   1      33.909  24.908  24.263  1.00  0.00     0.145 C 
ATOM     16  C   UNL A   1      33.563  23.628  23.465  1.00  0.00     0.288 C 
ATOM     17  C   UNL A   1      34.870  24.530  25.426  1.00  0.00     0.029 C 
ATOM     18  N   UNL A   1      34.243  22.423  24.019  1.00  0.00    -0.333 N 
ATOM     19  C   UNL A   1      36.123  23.887  24.784  1.00  0.00     0.067 C 
ATOM     20  C   UNL A   1      34.267  23.430  26.308  1.00  0.00     0.067 C 
ATOM     21  C   UNL A   1      35.708  22.636  23.985  1.00  0.00     0.262 C 
ATOM     22  C   UNL A   1      33.836  22.242  25.430  1.00  0.00     0.262 C 
ATOM     23  H   UNL A   1      33.988  21.603  23.467  1.00  0.00     0.348 HD
ENDBRANCH  12  15
ENDBRANCH   5   8
ENDBRANCH   3   4
ENDBRANCH   2   3
ENDBRANCH   1   2
BRANCH   1  24
ATOM     24  C   UNL A   1      35.132  32.882  28.014  1.00  0.00     0.116 C 
BRANCH  24  25
ATOM     25  N   UNL A   1      35.850  33.237  29.216  1.00  0.00    -0.352 N 
ATOM     26  C   UNL A   1      36.821  32.492  29.853  1.00  0.00     0.251 C 
ATOM     27  H   UNL A   1      35.622  34.104  29.624  1.00  0.00     0.163 HD
ATOM     28  O   UNL A   1      37.382  32.944  30.846  1.00  0.00    -0.269 OA
BRANCH  26  29
ATOM     29  C   UNL A   1      37.174  31.125  29.368  1.00  0.00     0.039 A 
ATOM     30  C   UNL A   1      37.037  30.039  30.225  1.00  0.00     0.014 A 
ATOM     31  C   UNL A   1      37.853  30.943  28.153  1.00  0.00     0.014 A 
ATOM     32  C   UNL A   1      37.590  28.793  29.867  1.00  0.00     0.010 A 
ATOM     33  C   UNL A   1      38.453  29.695  27.817  1.00  0.00     0.010 A 
ATOM     34  C   UNL A   1      38.379  28.602  28.693  1.00  0.00    -0.014 A 
BRANCH  34  35
ATOM     35  C   UNL A   1      39.477  27.546  28.795  1.00  0.00     0.031 A 
ATOM     36  C   UNL A   1      40.388  27.991  29.890  1.00  0.00     0.074 A 
ATOM     37  C   UNL A   1      39.851  26.399  28.145  1.00  0.00     0.049 A 
ATOM     38  N   UNL A   1      40.970  29.158  29.909  1.00  0.00    -0.248 NA
ATOM     39  C   UNL A   1      40.433  27.251  31.154  1.00  0.00     0.031 C 
ATOM     40  C   UNL A   1      39.201  25.753  27.003  1.00  0.00     0.029 A 
ATOM     41  N   UNL A   1      40.922  25.523  28.392  1.00  0.00    -0.354 N 
ATOM     42  C   UNL A   1      41.706  29.165  31.069  1.00  0.00     0.074 A 
ATOM     43  C   UNL A   1      41.160  28.096  31.884  1.00  0.00     0.031 C 
ATOM     44  C   UNL A   1      39.809  24.570  26.714  1.00  0.00     0.029 A 
ATOM     45  C   UNL A   1      40.948  24.353  27.603  1.00  0.00     0.049 A 
ATOM     46  H   UNL A   1      41.610  25.714  29.070  1.00  0.00     0.167 HD
ATOM     47  C   UNL A   1      42.989  29.613  31.029  1.00  0.00     0.037 A 
ATOM     48  C   UNL A   1      41.828  23.301  27.622  1.00  0.00     0.037 A 
ATOM     49  C   UNL A   1      43.952  28.594  31.340  1.00  0.00     0.049 A 
ATOM     50  C   UNL A   1      43.024  23.666  28.404  1.00  0.00     0.074 A 
ATOM     51  C   UNL A   1      44.079  27.631  32.320  1.00  0.00     0.029 A 
ATOM     52  N   UNL A   1      44.753  28.178  30.299  1.00  0.00    -0.354 N 
ATOM     53  N   UNL A   1      43.995  24.366  27.909  1.00  0.00    -0.248 NA
ATOM     54  C   UNL A   1      43.232  23.190  29.770  1.00  0.00     0.031 C 
ATOM     55  C   UNL A   1      44.517  26.460  31.637  1.00  0.00     0.029 A 
ATOM     56  C   UNL A   1      44.828  26.801  30.327  1.00  0.00     0.049 A 
ATOM     57  H   UNL A   1      45.198  28.765  29.646  1.00  0.00     0.167 HD
ATOM     58  C   UNL A   1      44.663  24.808  29.007  1.00  0.00     0.074 A 
ATOM     59  C   UNL A   1      44.346  23.868  30.058  1.00  0.00     0.031 C 
ATOM     60  C   UNL A   1      44.994  26.121  29.063  1.00  0.00     0.037 A 
BRANCH  47  61
ATOM     61  C   UNL A   1      43.250  30.738  30.076  1.00  0.00     0.064 A 
ATOM     62  C   UNL A   1      43.344  30.469  28.709  1.00  0.00     0.173 A 
ATOM     63  C   UNL A   1      43.481  32.060  30.499  1.00  0.00     0.173 A 
ATOM     64  F   UNL A   1      43.064  29.241  28.243  1.00  0.00    -0.203 F 
ATOM     65  C   UNL A   1      43.713  31.467  27.807  1.00  0.00     0.198 A 
ATOM     66  C   UNL A   1      43.896  33.041  29.606  1.00  0.00     0.198 A 
ATOM     67  F   UNL A   1      43.265  32.414  31.777  1.00  0.00    -0.203 F 
ATOM     68  F   UNL A   1      43.766  31.194  26.496  1.00  0.00    -0.200 F 
ATOM     69  C   UNL A   1      44.018  32.742  28.260  1.00  0.00     0.200 A 
ATOM     70  F   UNL A   1      44.155  34.280  30.049  1.00  0.00    -0.200 F 
ATOM     71  F   UNL A   1      44.398  33.693  27.395  1.00  0.00    -0.200 F 
ENDBRANCH  47  61
BRANCH  48  72
ATOM     72  C   UNL A   1      41.959  21.925  27.020  1.00  0.00     0.064 A 
ATOM     73  C   UNL A   1      42.797  21.716  25.886  1.00  0.00     0.173 A 
ATOM     74  C   UNL A   1      41.618  20.773  27.733  1.00  0.00     0.173 A 
ATOM     75  F   UNL A   1      43.158  22.736  25.095  1.00  0.00    -0.203 F 
ATOM     76  C   UNL A   1      43.354  20.475  25.573  1.00  0.00     0.198 A 
ATOM     77  C   UNL A   1      42.146  19.514  27.389  1.00  0.00     0.198 A 
ATOM     78  F   UNL A   1      40.854  20.864  28.830  1.00  0.00    -0.203 F 
ATOM     79  F   UNL A   1      44.245  20.371  24.575  1.00  0.00    -0.200 F 
ATOM     80  C   UNL A   1      43.040  19.374  26.337  1.00  0.00     0.200 A 
ATOM     81  F   UNL A   1      41.844  18.440  28.132  1.00  0.00    -0.200 F 
ATOM     82  F   UNL A   1      43.620  18.192  26.083  1.00  0.00    -0.200 F 
ENDBRANCH  48  72
BRANCH  60  83
ATOM     83  C   UNL A   1      45.272  26.819  27.735  1.00  0.00     0.064 A 
ATOM     84  C   UNL A   1      44.330  27.100  26.714  1.00  0.00     0.173 A 
ATOM     85  C   UNL A   1      46.597  27.188  27.458  1.00  0.00     0.173 A 
ATOM     86  F   UNL A   1      43.012  26.961  26.908  1.00  0.00    -0.203 F 
ATOM     87  C   UNL A   1      44.718  27.585  25.462  1.00  0.00     0.198 A 
ATOM     88  C   UNL A   1      46.970  27.744  26.234  1.00  0.00     0.198 A 
ATOM     89  F   UNL A   1      47.542  27.041  28.399  1.00  0.00    -0.203 F 
ATOM     90  F   UNL A   1      43.805  27.748  24.493  1.00  0.00    -0.200 F 
ATOM     91  C   UNL A   1      46.039  27.908  25.224  1.00  0.00     0.200 A 
ATOM     92  F   UNL A   1      48.239  28.126  26.039  1.00  0.00    -0.200 F 
ATOM     93  F   UNL A   1      46.410  28.400  24.034  1.00  0.00    -0.200 F 
ENDBRANCH  60  83
ENDBRANCH  34  35
ENDBRANCH  26  29
ENDBRANCH  24  25
ENDBRANCH   1  24
TORSDOF 12
ENDMDL
MODEL 2
REMARK VINA RESULT:     -12.3      1.499      2.216
REMARK SMILES Cc1cc(C(=O)NCCCCNC(=O)c2ccc(-c3c4nc(c(-c5c(F)c(F)c(F)c(F)c5F)c5ccc([nH]5)c(-c5c(F)c(F)c(F)c(F)c5F)c5nc(c(-c6c(F)c(F)c(F)c(F)c6F)c6ccc3[nH]6)C=C5)C=C4)cc2)c(C)n1[C@@H]1C[N@H+]2CC[C@@H]1CC2
REMARK SMILES IDX 10 1 9 2 8 3 7 4 5 5 6 6 4 8 1 9 2 10 3 11 80 12 78 13 79 14
REMARK SMILES IDX 81 15 82 16 86 17 83 18 87 19 85 20 88 21 84 22 11 24 12 25
REMARK SMILES IDX 13 26 14 28 15 29 16 30 77 31 17 32 76 33 18 34 19 35 20 36
REMARK SMILES IDX 70 37 21 38 75 39 69 40 71 41 22 42 74 43 68 44 67 45 23 47
REMARK SMILES IDX 55 48 35 49 54 50 36 51 39 52 53 53 72 54 37 55 38 56 52 58
REMARK SMILES IDX 73 59 40 60 24 61 25 62 33 63 26 64 27 65 31 66 34 67 28 68
REMARK SMILES IDX 29 69 32 70 30 71 56 72 57 73 65 74 58 75 59 76 63 77 66 78
REMARK SMILES IDX 60 79 61 80 64 81 62 82 41 83 42 84 50 85 43 86 44 87 48 88
REMARK SMILES IDX 51 89 45 90 46 91 49 92 47 93
REMARK H PARENT 7 7 83 23 12 27 71 46 39 57
REMARK Flexibility Score: inf
ROOT
ATOM      1  C   UNL A   1      33.668  28.431  26.066  1.00  0.00     0.023 C 
ENDROOT
BRANCH   1   2
ATOM      2  C   UNL A   1      33.081  29.450  25.071  1.00  0.00     0.023 C 
BRANCH   2   3
ATOM      3  C   UNL A   1      31.555  29.553  25.047  1.00  0.00     0.116 C 
BRANCH   3   4
ATOM      4  N   UNL A   1      31.009  29.222  23.742  1.00  0.00    -0.352 N 
ATOM      5  C   UNL A   1      30.847  28.050  23.046  1.00  0.00     0.253 C 
ATOM      6  O   UNL A   1      30.204  28.138  22.000  1.00  0.00    -0.269 OA
ATOM      7  H   UNL A   1      30.685  30.011  23.250  1.00  0.00     0.163 HD
BRANCH   5   8
ATOM      8  C   UNL A   1      31.368  26.770  23.543  1.00  0.00     0.060 A 
ATOM      9  C   UNL A   1      31.018  23.379  24.933  1.00  0.00     0.064 C 
ATOM     10  C   UNL A   1      31.520  24.678  24.410  1.00  0.00     0.016 A 
ATOM     11  C   UNL A   1      30.788  25.849  24.437  1.00  0.00     0.037 A 
ATOM     12  N   UNL A   1      32.736  24.963  23.805  1.00  0.00    -0.339 N 
ATOM     13  C   UNL A   1      32.622  26.235  23.221  1.00  0.00     0.028 A 
ATOM     14  C   UNL A   1      33.666  26.898  22.368  1.00  0.00     0.065 C 
BRANCH  12  15
ATOM     15  C   UNL A   1      33.959  24.150  23.789  1.00  0.00     0.145 C 
ATOM     16  C   UNL A   1      33.826  22.636  23.497  1.00  0.00     0.288 C 
ATOM     17  C   UNL A   1      34.912  24.345  25.002  1.00  0.00     0.029 C 
ATOM     18  N   UNL A   1      34.639  21.811  24.434  1.00  0.00    -0.333 N 
ATOM     19  C   UNL A   1      36.267  23.703  24.617  1.00  0.00     0.067 C 
ATOM     20  C   UNL A   1      34.428  23.549  26.220  1.00  0.00     0.067 C 
ATOM     21  C   UNL A   1      36.061  22.206  24.315  1.00  0.00     0.262 C 
ATOM     22  C   UNL A   1      34.201  22.081  25.821  1.00  0.00     0.262 C 
ATOM     23  H   UNL A   1      34.522  20.823  24.209  1.00  0.00     0.348 HD
ENDBRANCH  12  15
ENDBRANCH   5   8
ENDBRANCH   3   4
ENDBRANCH   2   3
ENDBRANCH   1   2
BRANCH   1  24
ATOM     24  C   UNL A   1      34.366  28.978  27.317  1.00  0.00     0.116 C 
BRANCH  24  25
ATOM     25  N   UNL A   1      34.024  30.343  27.647  1.00  0.00    -0.352 N 
ATOM     26  C   UNL A   1      34.779  31.233  28.381  1.00  0.00     0.251 C 
ATOM     27  H   UNL A   1      33.158  30.671  27.312  1.00  0.00     0.163 HD
ATOM     28  O   UNL A   1      34.381  32.382  28.544  1.00  0.00    -0.269 OA
BRANCH  26  29
ATOM     29  C   UNL A   1      36.063  30.805  29.013  1.00  0.00     0.039 A 
ATOM     30  C   UNL A   1      37.262  31.033  28.347  1.00  0.00     0.014 A 
ATOM     31  C   UNL A   1      36.068  29.980  30.148  1.00  0.00     0.014 A 
ATOM     32  C   UNL A   1      38.446  30.425  28.812  1.00  0.00     0.010 A 
ATOM     33  C   UNL A   1      37.257  29.327  30.586  1.00  0.00     0.010 A 
ATOM     34  C   UNL A   1      38.466  29.495  29.895  1.00  0.00    -0.014 A 
BRANCH  34  35
ATOM     35  C   UNL A   1      39.532  28.404  29.814  1.00  0.00     0.031 A 
ATOM     36  C   UNL A   1      40.381  28.556  31.032  1.00  0.00     0.074 A 
ATOM     37  C   UNL A   1      39.921  27.422  28.942  1.00  0.00     0.049 A 
ATOM     38  N   UNL A   1      40.987  29.667  31.351  1.00  0.00    -0.248 NA
ATOM     39  C   UNL A   1      40.330  27.547  32.093  1.00  0.00     0.031 C 
ATOM     40  C   UNL A   1      39.331  27.076  27.647  1.00  0.00     0.029 A 
ATOM     41  N   UNL A   1      40.956  26.475  29.042  1.00  0.00    -0.354 N 
ATOM     42  C   UNL A   1      41.647  29.384  32.521  1.00  0.00     0.074 A 
ATOM     43  C   UNL A   1      41.028  28.178  33.038  1.00  0.00     0.031 C 
ATOM     44  C   UNL A   1      39.931  25.969  27.130  1.00  0.00     0.029 A 
ATOM     45  C   UNL A   1      41.005  25.515  28.008  1.00  0.00     0.049 A 
ATOM     46  H   UNL A   1      41.603  26.483  29.783  1.00  0.00     0.167 HD
ATOM     47  C   UNL A   1      42.940  29.784  32.658  1.00  0.00     0.037 A 
ATOM     48  C   UNL A   1      41.860  24.455  27.837  1.00  0.00     0.037 A 
ATOM     49  C   UNL A   1      43.859  28.687  32.782  1.00  0.00     0.049 A 
ATOM     50  C   UNL A   1      43.011  24.590  28.748  1.00  0.00     0.074 A 
ATOM     51  C   UNL A   1      43.902  27.522  33.521  1.00  0.00     0.029 A 
ATOM     52  N   UNL A   1      44.715  28.489  31.720  1.00  0.00    -0.354 N 
ATOM     53  N   UNL A   1      44.027  25.350  28.482  1.00  0.00    -0.248 NA
ATOM     54  C   UNL A   1      43.122  23.810  29.978  1.00  0.00     0.031 C 
ATOM     55  C   UNL A   1      44.357  26.522  32.614  1.00  0.00     0.029 A 
ATOM     56  C   UNL A   1      44.758  27.140  31.436  1.00  0.00     0.049 A 
ATOM     57  H   UNL A   1      45.213  29.193  31.245  1.00  0.00     0.167 HD
ATOM     58  C   UNL A   1      44.633  25.507  29.689  1.00  0.00     0.074 A 
ATOM     59  C   UNL A   1      44.230  24.364  30.476  1.00  0.00     0.031 C 
ATOM     60  C   UNL A   1      44.989  26.760  30.062  1.00  0.00     0.037 A 
BRANCH  47  61
ATOM     61  C   UNL A   1      43.285  31.085  32.004  1.00  0.00     0.064 A 
ATOM     62  C   UNL A   1      43.541  32.204  32.800  1.00  0.00     0.173 A 
ATOM     63  C   UNL A   1      43.293  31.261  30.608  1.00  0.00     0.173 A 
ATOM     64  F   UNL A   1      43.616  32.078  34.135  1.00  0.00    -0.203 F 
ATOM     65  C   UNL A   1      43.739  33.460  32.226  1.00  0.00     0.198 A 
ATOM     66  C   UNL A   1      43.440  32.521  30.040  1.00  0.00     0.198 A 
ATOM     67  F   UNL A   1      43.197  30.202  29.787  1.00  0.00    -0.203 F 
ATOM     68  F   UNL A   1      44.015  34.514  33.007  1.00  0.00    -0.200 F 
ATOM     69  C   UNL A   1      43.657  33.622  30.851  1.00  0.00     0.200 A 
ATOM     70  F   UNL A   1      43.395  32.662  28.707  1.00  0.00    -0.200 F 
ATOM     71  F   UNL A   1      43.821  34.835  30.303  1.00  0.00    -0.200 F 
ENDBRANCH  47  61
BRANCH  48  72
ATOM     72  C   UNL A   1      41.999  23.249  26.944  1.00  0.00     0.064 A 
ATOM     73  C   UNL A   1      42.893  23.277  25.835  1.00  0.00     0.173 A 
ATOM     74  C   UNL A   1      41.599  21.975  27.358  1.00  0.00     0.173 A 
ATOM     75  F   UNL A   1      43.314  24.439  25.315  1.00  0.00    -0.203 F 
ATOM     76  C   UNL A   1      43.444  22.123  25.274  1.00  0.00     0.198 A 
ATOM     77  C   UNL A   1      42.123  20.812  26.763  1.00  0.00     0.198 A 
ATOM     78  F   UNL A   1      40.778  21.838  28.409  1.00  0.00    -0.203 F 
ATOM     79  F   UNL A   1      44.386  22.222  24.324  1.00  0.00    -0.200 F 
ATOM     80  C   UNL A   1      43.069  20.887  25.751  1.00  0.00     0.200 A 
ATOM     81  F   UNL A   1      41.762  19.607  27.227  1.00  0.00    -0.200 F 
ATOM     82  F   UNL A   1      43.641  19.777  25.264  1.00  0.00    -0.200 F 
ENDBRANCH  48  72
BRANCH  60  83
ATOM     83  C   UNL A   1      45.365  27.731  28.946  1.00  0.00     0.064 A 
ATOM     84  C   UNL A   1      44.478  28.363  28.041  1.00  0.00     0.173 A 
ATOM     85  C   UNL A   1      46.728  28.003  28.753  1.00  0.00     0.173 A 
ATOM     86  F   UNL A   1      43.150  28.333  28.212  1.00  0.00    -0.203 F 
ATOM     87  C   UNL A   1      44.938  29.098  26.945  1.00  0.00     0.198 A 
ATOM     88  C   UNL A   1      47.181  28.800  27.701  1.00  0.00     0.198 A 
ATOM     89  F   UNL A   1      47.635  27.518  29.615  1.00  0.00    -0.203 F 
ATOM     90  F   UNL A   1      44.066  29.602  26.059  1.00  0.00    -0.200 F 
ATOM     91  C   UNL A   1      46.291  29.317  26.777  1.00  0.00     0.200 A 
ATOM     92  F   UNL A   1      48.489  29.071  27.592  1.00  0.00    -0.200 F 
ATOM     93  F   UNL A   1      46.735  30.045  25.743  1.00  0.00    -0.200 F 
ENDBRANCH  60  83
ENDBRANCH  34  35
ENDBRANCH  26  29
ENDBRANCH  24  25
ENDBRANCH   1  24
TORSDOF 12
ENDMDL
MODEL 3
REMARK VINA RESULT:     -12.3      1.470      2.412
REMARK SMILES Cc1cc(C(=O)NCCCCNC(=O)c2ccc(-c3c4nc(c(-c5c(F)c(F)c(F)c(F)c5F)c5ccc([nH]5)c(-c5c(F)c(F)c(F)c(F)c5F)c5nc(c(-c6c(F)c(F)c(F)c(F)c6F)c6ccc3[nH]6)C=C5)C=C4)cc2)c(C)n1[C@@H]1C[N@H+]2CC[C@@H]1CC2
REMARK SMILES IDX 10 1 9 2 8 3 7 4 5 5 6 6 4 8 1 9 2 10 3 11 80 12 78 13 79 14
REMARK SMILES IDX 81 15 82 16 86 17 83 18 87 19 85 20 88 21 84 22 11 24 12 25
REMARK SMILES IDX 13 26 14 28 15 29 16 30 77 31 17 32 76 33 18 34 19 35 20 36
REMARK SMILES IDX 70 37 21 38 75 39 69 40 71 41 22 42 74 43 68 44 67 45 23 47
REMARK SMILES IDX 55 48 35 49 54 50 36 51 39 52 53 53 72 54 37 55 38 56 52 58
REMARK SMILES IDX 73 59 40 60 24 61 25 62 33 63 26 64 27 65 31 66 34 67 28 68
REMARK SMILES IDX 29 69 32 70 30 71 56 72 57 73 65 74 58 75 59 76 63 77 66 78
REMARK SMILES IDX 60 79 61 80 64 81 62 82 41 83 42 84 50 85 43 86 44 87 48 88
REMARK SMILES IDX 51 89 45 90 46 91 49 92 47 93
REMARK H PARENT 7 7 83 23 12 27 71 46 39 57
REMARK Flexibility Score: inf
ROOT
ATOM      1  C   UNL A   1      33.780  28.459  26.069  1.00  0.00     0.023 C 
ENDROOT
BRANCH   1   2
ATOM      2  C   UNL A   1      33.136  29.480  25.110  1.00  0.00     0.023 C 
BRANCH   2   3
ATOM      3  C   UNL A   1      31.607  29.520  25.110  1.00  0.00     0.116 C 
BRANCH   3   4
ATOM      4  N   UNL A   1      31.056  29.233  23.798  1.00  0.00    -0.352 N 
ATOM      5  C   UNL A   1      30.880  28.082  23.068  1.00  0.00     0.253 C 
ATOM      6  O   UNL A   1      30.237  28.207  22.026  1.00  0.00    -0.269 OA
ATOM      7  H   UNL A   1      30.741  30.038  23.328  1.00  0.00     0.163 HD
BRANCH   5   8
ATOM      8  C   UNL A   1      31.388  26.784  23.528  1.00  0.00     0.060 A 
ATOM      9  C   UNL A   1      31.001  23.350  24.801  1.00  0.00     0.064 C 
ATOM     10  C   UNL A   1      31.517  24.663  24.327  1.00  0.00     0.016 A 
ATOM     11  C   UNL A   1      30.792  25.837  24.385  1.00  0.00     0.037 A 
ATOM     12  N   UNL A   1      32.741  24.959  23.746  1.00  0.00    -0.339 N 
ATOM     13  C   UNL A   1      32.642  26.250  23.203  1.00  0.00     0.028 A 
ATOM     14  C   UNL A   1      33.700  26.935  22.385  1.00  0.00     0.065 C 
BRANCH  12  15
ATOM     15  C   UNL A   1      33.959  24.139  23.716  1.00  0.00     0.145 C 
ATOM     16  C   UNL A   1      33.809  22.617  23.483  1.00  0.00     0.288 C 
ATOM     17  C   UNL A   1      34.956  24.372  24.887  1.00  0.00     0.029 C 
ATOM     18  N   UNL A   1      34.652  21.821  24.421  1.00  0.00    -0.333 N 
ATOM     19  C   UNL A   1      36.294  23.709  24.479  1.00  0.00     0.067 C 
ATOM     20  C   UNL A   1      34.511  23.623  26.150  1.00  0.00     0.067 C 
ATOM     21  C   UNL A   1      36.070  22.204  24.238  1.00  0.00     0.262 C 
ATOM     22  C   UNL A   1      34.264  22.142  25.812  1.00  0.00     0.262 C 
ATOM     23  H   UNL A   1      34.522  20.827  24.235  1.00  0.00     0.348 HD
ENDBRANCH  12  15
ENDBRANCH   5   8
ENDBRANCH   3   4
ENDBRANCH   2   3
ENDBRANCH   1   2
BRANCH   1  24
ATOM     24  C   UNL A   1      34.592  29.005  27.249  1.00  0.00     0.116 C 
BRANCH  24  25
ATOM     25  N   UNL A   1      34.176  30.310  27.711  1.00  0.00    -0.352 N 
ATOM     26  C   UNL A   1      34.889  31.169  28.522  1.00  0.00     0.251 C 
ATOM     27  H   UNL A   1      33.289  30.618  27.416  1.00  0.00     0.163 HD
ATOM     28  O   UNL A   1      34.428  32.272  28.797  1.00  0.00    -0.269 OA
BRANCH  26  29
ATOM     29  C   UNL A   1      36.204  30.759  29.099  1.00  0.00     0.039 A 
ATOM     30  C   UNL A   1      37.368  30.975  28.372  1.00  0.00     0.014 A 
ATOM     31  C   UNL A   1      36.267  29.958  30.251  1.00  0.00     0.014 A 
ATOM     32  C   UNL A   1      38.575  30.380  28.792  1.00  0.00     0.010 A 
ATOM     33  C   UNL A   1      37.477  29.318  30.645  1.00  0.00     0.010 A 
ATOM     34  C   UNL A   1      38.651  29.474  29.892  1.00  0.00    -0.014 A 
BRANCH  34  35
ATOM     35  C   UNL A   1      39.716  28.385  29.783  1.00  0.00     0.031 A 
ATOM     36  C   UNL A   1      40.620  28.562  30.958  1.00  0.00     0.074 A 
ATOM     37  C   UNL A   1      40.068  27.387  28.913  1.00  0.00     0.049 A 
ATOM     38  N   UNL A   1      41.236  29.681  31.227  1.00  0.00    -0.248 NA
ATOM     39  C   UNL A   1      40.621  27.574  32.040  1.00  0.00     0.031 C 
ATOM     40  C   UNL A   1      39.420  27.014  27.654  1.00  0.00     0.029 A 
ATOM     41  N   UNL A   1      41.109  26.445  28.984  1.00  0.00    -0.354 N 
ATOM     42  C   UNL A   1      41.950  29.422  32.371  1.00  0.00     0.074 A 
ATOM     43  C   UNL A   1      41.359  28.225  32.939  1.00  0.00     0.031 C 
ATOM     44  C   UNL A   1      39.999  25.898  27.132  1.00  0.00     0.029 A 
ATOM     45  C   UNL A   1      41.115  25.464  27.968  1.00  0.00     0.049 A 
ATOM     46  H   UNL A   1      41.790  26.468  29.695  1.00  0.00     0.167 HD
ATOM     47  C   UNL A   1      43.247  29.828  32.440  1.00  0.00     0.037 A 
ATOM     48  C   UNL A   1      41.964  24.404  27.778  1.00  0.00     0.037 A 
ATOM     49  C   UNL A   1      44.173  28.735  32.543  1.00  0.00     0.049 A 
ATOM     50  C   UNL A   1      43.155  24.559  28.632  1.00  0.00     0.074 A 
ATOM     51  C   UNL A   1      44.254  27.586  33.301  1.00  0.00     0.029 A 
ATOM     52  N   UNL A   1      44.981  28.519  31.447  1.00  0.00    -0.354 N 
ATOM     53  N   UNL A   1      44.155  25.316  28.305  1.00  0.00    -0.248 NA
ATOM     54  C   UNL A   1      43.326  23.803  29.871  1.00  0.00     0.031 C 
ATOM     55  C   UNL A   1      44.671  26.569  32.394  1.00  0.00     0.029 A 
ATOM     56  C   UNL A   1      45.015  27.165  31.188  1.00  0.00     0.049 A 
ATOM     57  H   UNL A   1      45.454  29.215  30.936  1.00  0.00     0.167 HD
ATOM     58  C   UNL A   1      44.816  25.498  29.479  1.00  0.00     0.074 A 
ATOM     59  C   UNL A   1      44.453  24.369  30.307  1.00  0.00     0.031 C 
ATOM     60  C   UNL A   1      45.184  26.759  29.812  1.00  0.00     0.037 A 
BRANCH  47  61
ATOM     61  C   UNL A   1      43.557  31.117  31.747  1.00  0.00     0.064 A 
ATOM     62  C   UNL A   1      43.999  32.209  32.497  1.00  0.00     0.173 A 
ATOM     63  C   UNL A   1      43.353  31.311  30.367  1.00  0.00     0.173 A 
ATOM     64  F   UNL A   1      44.277  32.061  33.802  1.00  0.00    -0.203 F 
ATOM     65  C   UNL A   1      44.174  33.460  31.906  1.00  0.00     0.198 A 
ATOM     66  C   UNL A   1      43.480  32.569  29.790  1.00  0.00     0.198 A 
ATOM     67  F   UNL A   1      43.069  30.270  29.567  1.00  0.00    -0.203 F 
ATOM     68  F   UNL A   1      44.630  34.486  32.637  1.00  0.00    -0.200 F 
ATOM     69  C   UNL A   1      43.885  33.645  30.561  1.00  0.00     0.200 A 
ATOM     70  F   UNL A   1      43.232  32.731  28.482  1.00  0.00    -0.200 F 
ATOM     71  F   UNL A   1      44.028  34.854  30.000  1.00  0.00    -0.200 F 
ENDBRANCH  47  61
BRANCH  48  72
ATOM     72  C   UNL A   1      42.066  23.180  26.903  1.00  0.00     0.064 A 
ATOM     73  C   UNL A   1      42.970  23.160  25.802  1.00  0.00     0.173 A 
ATOM     74  C   UNL A   1      41.615  21.929  27.331  1.00  0.00     0.173 A 
ATOM     75  F   UNL A   1      43.439  24.298  25.270  1.00  0.00    -0.203 F 
ATOM     76  C   UNL A   1      43.482  21.979  25.263  1.00  0.00     0.198 A 
ATOM     77  C   UNL A   1      42.100  20.738  26.757  1.00  0.00     0.198 A 
ATOM     78  F   UNL A   1      40.781  21.836  28.376  1.00  0.00    -0.203 F 
ATOM     79  F   UNL A   1      44.436  22.029  24.320  1.00  0.00    -0.200 F 
ATOM     80  C   UNL A   1      43.058  20.764  25.753  1.00  0.00     0.200 A 
ATOM     81  F   UNL A   1      41.691  19.554  27.233  1.00  0.00    -0.200 F 
ATOM     82  F   UNL A   1      43.593  19.627  25.286  1.00  0.00    -0.200 F 
ENDBRANCH  48  72
BRANCH  60  83
ATOM     83  C   UNL A   1      45.506  27.709  28.662  1.00  0.00     0.064 A 
ATOM     84  C   UNL A   1      46.790  27.997  28.137  1.00  0.00     0.173 A 
ATOM     85  C   UNL A   1      44.439  28.410  28.080  1.00  0.00     0.173 A 
ATOM     86  F   UNL A   1      47.871  27.282  28.474  1.00  0.00    -0.203 F 
ATOM     87  C   UNL A   1      46.995  29.013  27.200  1.00  0.00     0.198 A 
ATOM     88  C   UNL A   1      44.639  29.371  27.088  1.00  0.00     0.198 A 
ATOM     89  F   UNL A   1      43.179  28.138  28.451  1.00  0.00    -0.203 F 
ATOM     90  F   UNL A   1      48.239  29.316  26.799  1.00  0.00    -0.200 F 
ATOM     91  C   UNL A   1      45.918  29.698  26.674  1.00  0.00     0.200 A 
ATOM     92  F   UNL A   1      43.582  29.975  26.529  1.00  0.00    -0.200 F 
ATOM     93  F   UNL A   1      46.108  30.654  25.753  1.00  0.00    -0.200 F 
ENDBRANCH  60  83
ENDBRANCH  34  35
ENDBRANCH  26  29
ENDBRANCH  24  25
ENDBRANCH   1  24
TORSDOF 12
ENDMDL
