MODEL 1
REMARK VINA RESULT:     -12.1      0.000      0.000
REMARK SMILES CC1(C)[C@@H](CBr)CC[C@]1(C)C(=O)NCCCCNC(=O)c1ccc(-c2c3nc(c(-c4c(F)c(F)c(F)c(F)c4F)c4ccc([nH]4)c(-c4c(F)c(F)c(F)c(F)c4F)c4nc(c(-c5c(F)c(F)c(F)c(F)c5F)c5ccc2[nH]5)C=C4)C=C3)cc1
REMARK SMILES IDX 16 1 15 2 14 3 13 4 11 5 12 6 9 8 1 9 2 10 3 11 4 12 7 13
REMARK SMILES IDX 8 14 10 15 5 16 6 17 17 18 18 19 19 20 20 22 21 23 22 24
REMARK SMILES IDX 83 25 23 26 82 27 24 28 25 29 26 30 76 31 27 32 81 33 75 34
REMARK SMILES IDX 77 35 28 36 80 37 74 38 73 39 29 41 61 42 41 43 60 44 42 45
REMARK SMILES IDX 45 46 59 47 78 48 43 49 44 50 58 52 79 53 46 54 30 55 31 56
REMARK SMILES IDX 39 57 32 58 33 59 37 60 40 61 34 62 35 63 38 64 36 65 62 66
REMARK SMILES IDX 63 67 71 68 64 69 65 70 69 71 72 72 66 73 67 74 70 75 68 76
REMARK SMILES IDX 47 77 48 78 56 79 49 80 50 81 54 82 57 83 51 84 52 85 55 86
REMARK SMILES IDX 53 87
REMARK H PARENT 13 7 18 21 77 40 45 51
REMARK Flexibility Score: inf
ROOT
ATOM      1  C   UNL A   1      31.565  32.045  26.705  1.00  0.00     0.023 C 
ENDROOT
BRANCH   1   2
ATOM      2  C   UNL A   1      31.832  30.562  26.493  1.00  0.00     0.023 C 
BRANCH   2   3
ATOM      3  C   UNL A   1      31.350  30.005  25.154  1.00  0.00     0.116 C 
BRANCH   3   4
ATOM      4  N   UNL A   1      32.448  29.729  24.252  1.00  0.00    -0.356 N 
ATOM      5  C   UNL A   1      33.088  28.590  23.876  1.00  0.00     0.226 C 
ATOM      6  O   UNL A   1      34.022  28.767  23.085  1.00  0.00    -0.274 OA
ATOM      7  H   UNL A   1      32.808  30.537  23.819  1.00  0.00     0.163 HD
BRANCH   5   8
ATOM      8  C   UNL A   1      32.691  27.163  24.366  1.00  0.00     0.052 C 
ATOM      9  C   UNL A   1      31.762  27.192  26.854  1.00  0.00     0.012 C 
ATOM     10  C   UNL A   1      32.929  26.888  25.909  1.00  0.00    -0.018 C 
ATOM     11  C   UNL A   1      34.137  27.734  26.430  1.00  0.00     0.012 C 
ATOM     12  C   UNL A   1      33.364  25.376  25.990  1.00  0.00     0.006 C 
ATOM     13  C   UNL A   1      34.301  25.267  24.783  1.00  0.00     0.006 C 
ATOM     14  C   UNL A   1      33.644  26.102  23.686  1.00  0.00     0.017 C 
ATOM     15  C   UNL A   1      31.273  26.871  23.822  1.00  0.00     0.022 C 
BRANCH  12  16
ATOM     16  C   UNL A   1      32.336  24.240  25.883  1.00  0.00     0.084 C 
ATOM     17  Br  UNL A   1      32.613  22.756  27.100  1.00  0.00    -0.092 Br
ENDBRANCH  12  16
ENDBRANCH   5   8
ENDBRANCH   3   4
ENDBRANCH   2   3
ENDBRANCH   1   2
BRANCH   1  18
ATOM     18  C   UNL A   1      32.718  32.810  27.333  1.00  0.00     0.116 C 
BRANCH  18  19
ATOM     19  N   UNL A   1      32.394  34.198  27.646  1.00  0.00    -0.352 N 
ATOM     20  C   UNL A   1      32.971  35.020  28.582  1.00  0.00     0.251 C 
ATOM     21  H   UNL A   1      31.666  34.596  27.117  1.00  0.00     0.163 HD
ATOM     22  O   UNL A   1      32.524  36.140  28.803  1.00  0.00    -0.269 OA
BRANCH  20  23
ATOM     23  C   UNL A   1      34.121  34.511  29.351  1.00  0.00     0.039 A 
ATOM     24  C   UNL A   1      33.889  33.856  30.561  1.00  0.00     0.014 A 
ATOM     25  C   UNL A   1      35.409  34.599  28.818  1.00  0.00     0.014 A 
ATOM     26  C   UNL A   1      34.947  33.210  31.200  1.00  0.00     0.010 A 
ATOM     27  C   UNL A   1      36.440  33.884  29.408  1.00  0.00     0.010 A 
ATOM     28  C   UNL A   1      36.218  33.181  30.602  1.00  0.00    -0.014 A 
BRANCH  28  29
ATOM     29  C   UNL A   1      37.339  32.422  31.204  1.00  0.00     0.031 A 
ATOM     30  C   UNL A   1      37.832  32.788  32.573  1.00  0.00     0.074 A 
ATOM     31  C   UNL A   1      37.963  31.470  30.485  1.00  0.00     0.049 A 
ATOM     32  N   UNL A   1      38.857  32.319  33.237  1.00  0.00    -0.248 NA
ATOM     33  C   UNL A   1      37.097  33.851  33.275  1.00  0.00     0.031 C 
ATOM     34  C   UNL A   1      37.609  31.068  29.123  1.00  0.00     0.029 A 
ATOM     35  N   UNL A   1      39.037  30.677  30.797  1.00  0.00    -0.354 N 
ATOM     36  C   UNL A   1      38.900  33.044  34.420  1.00  0.00     0.074 A 
ATOM     37  C   UNL A   1      37.838  34.025  34.356  1.00  0.00     0.031 C 
ATOM     38  C   UNL A   1      38.430  30.082  28.728  1.00  0.00     0.029 A 
ATOM     39  C   UNL A   1      39.390  29.809  29.793  1.00  0.00     0.049 A 
ATOM     40  H   UNL A   1      39.511  30.725  31.659  1.00  0.00     0.167 HD
ATOM     41  C   UNL A   1      39.733  32.888  35.475  1.00  0.00     0.037 A 
ATOM     42  C   UNL A   1      40.379  28.897  29.742  1.00  0.00     0.037 A 
ATOM     43  C   UNL A   1      40.764  31.888  35.544  1.00  0.00     0.049 A 
ATOM     44  C   UNL A   1      41.289  28.738  30.929  1.00  0.00     0.074 A 
ATOM     45  C   UNL A   1      41.615  31.595  36.595  1.00  0.00     0.029 A 
ATOM     46  N   UNL A   1      41.082  31.013  34.516  1.00  0.00    -0.354 N 
ATOM     47  N   UNL A   1      41.280  29.382  32.070  1.00  0.00    -0.248 NA
ATOM     48  C   UNL A   1      42.347  27.725  30.819  1.00  0.00     0.031 C 
ATOM     49  C   UNL A   1      42.473  30.568  36.187  1.00  0.00     0.029 A 
ATOM     50  C   UNL A   1      42.130  30.193  34.898  1.00  0.00     0.049 A 
ATOM     51  H   UNL A   1      40.628  30.980  33.642  1.00  0.00     0.167 HD
ATOM     52  C   UNL A   1      42.310  28.838  32.824  1.00  0.00     0.074 A 
ATOM     53  C   UNL A   1      42.917  27.803  32.013  1.00  0.00     0.031 C 
ATOM     54  C   UNL A   1      42.716  29.166  34.075  1.00  0.00     0.037 A 
BRANCH  41  55
ATOM     55  C   UNL A   1      39.551  33.821  36.635  1.00  0.00     0.064 A 
ATOM     56  C   UNL A   1      40.154  35.088  36.662  1.00  0.00     0.173 A 
ATOM     57  C   UNL A   1      38.768  33.445  37.736  1.00  0.00     0.173 A 
ATOM     58  F   UNL A   1      40.927  35.489  35.640  1.00  0.00    -0.203 F 
ATOM     59  C   UNL A   1      40.015  35.926  37.765  1.00  0.00     0.198 A 
ATOM     60  C   UNL A   1      38.605  34.299  38.824  1.00  0.00     0.198 A 
ATOM     61  F   UNL A   1      38.166  32.245  37.761  1.00  0.00    -0.203 F 
ATOM     62  F   UNL A   1      40.654  37.103  37.794  1.00  0.00    -0.200 F 
ATOM     63  C   UNL A   1      39.237  35.533  38.843  1.00  0.00     0.200 A 
ATOM     64  F   UNL A   1      37.845  33.921  39.862  1.00  0.00    -0.200 F 
ATOM     65  F   UNL A   1      39.106  36.338  39.905  1.00  0.00    -0.200 F 
ENDBRANCH  41  55
BRANCH  42  66
ATOM     66  C   UNL A   1      40.526  28.035  28.543  1.00  0.00     0.064 A 
ATOM     67  C   UNL A   1      39.892  26.787  28.480  1.00  0.00     0.173 A 
ATOM     68  C   UNL A   1      41.282  28.441  27.433  1.00  0.00     0.173 A 
ATOM     69  F   UNL A   1      39.174  26.349  29.526  1.00  0.00    -0.203 F 
ATOM     70  C   UNL A   1      40.014  25.972  27.357  1.00  0.00     0.198 A 
ATOM     71  C   UNL A   1      41.386  27.634  26.302  1.00  0.00     0.198 A 
ATOM     72  F   UNL A   1      41.904  29.629  27.444  1.00  0.00    -0.203 F 
ATOM     73  F   UNL A   1      39.423  24.769  27.337  1.00  0.00    -0.200 F 
ATOM     74  C   UNL A   1      40.757  26.400  26.266  1.00  0.00     0.200 A 
ATOM     75  F   UNL A   1      42.094  28.056  25.245  1.00  0.00    -0.200 F 
ATOM     76  F   UNL A   1      40.869  25.618  25.184  1.00  0.00    -0.200 F 
ENDBRANCH  42  66
BRANCH  54  77
ATOM     77  C   UNL A   1      43.854  28.379  34.653  1.00  0.00     0.064 A 
ATOM     78  C   UNL A   1      43.638  27.182  35.349  1.00  0.00     0.173 A 
ATOM     79  C   UNL A   1      45.178  28.806  34.468  1.00  0.00     0.173 A 
ATOM     80  F   UNL A   1      42.390  26.743  35.566  1.00  0.00    -0.203 F 
ATOM     81  C   UNL A   1      44.707  26.449  35.856  1.00  0.00     0.198 A 
ATOM     82  C   UNL A   1      46.245  28.057  34.952  1.00  0.00     0.198 A 
ATOM     83  F   UNL A   1      45.435  29.943  33.804  1.00  0.00    -0.203 F 
ATOM     84  F   UNL A   1      44.478  25.327  36.552  1.00  0.00    -0.200 F 
ATOM     85  C   UNL A   1      46.010  26.882  35.650  1.00  0.00     0.200 A 
ATOM     86  F   UNL A   1      47.502  28.471  34.744  1.00  0.00    -0.200 F 
ATOM     87  F   UNL A   1      47.038  26.170  36.132  1.00  0.00    -0.200 F 
ENDBRANCH  54  77
ENDBRANCH  28  29
ENDBRANCH  20  23
ENDBRANCH  18  19
ENDBRANCH   1  18
TORSDOF 12
ENDMDL
MODEL 2
REMARK VINA RESULT:     -12.0      0.079      1.169
REMARK SMILES CC1(C)[C@@H](CBr)CC[C@]1(C)C(=O)NCCCCNC(=O)c1ccc(-c2c3nc(c(-c4c(F)c(F)c(F)c(F)c4F)c4ccc([nH]4)c(-c4c(F)c(F)c(F)c(F)c4F)c4nc(c(-c5c(F)c(F)c(F)c(F)c5F)c5ccc2[nH]5)C=C4)C=C3)cc1
REMARK SMILES IDX 16 1 15 2 14 3 13 4 11 5 12 6 9 8 1 9 2 10 3 11 4 12 7 13
REMARK SMILES IDX 8 14 10 15 5 16 6 17 17 18 18 19 19 20 20 22 21 23 22 24
REMARK SMILES IDX 83 25 23 26 82 27 24 28 25 29 26 30 76 31 27 32 81 33 75 34
REMARK SMILES IDX 77 35 28 36 80 37 74 38 73 39 29 41 61 42 41 43 60 44 42 45
REMARK SMILES IDX 45 46 59 47 78 48 43 49 44 50 58 52 79 53 46 54 30 55 31 56
REMARK SMILES IDX 39 57 32 58 33 59 37 60 40 61 34 62 35 63 38 64 36 65 62 66
REMARK SMILES IDX 63 67 71 68 64 69 65 70 69 71 72 72 66 73 67 74 70 75 68 76
REMARK SMILES IDX 47 77 48 78 56 79 49 80 50 81 54 82 57 83 51 84 52 85 55 86
REMARK SMILES IDX 53 87
REMARK H PARENT 13 7 18 21 77 40 45 51
REMARK Flexibility Score: inf
ROOT
ATOM      1  C   UNL A   1      31.607  32.072  26.688  1.00  0.00     0.023 C 
ENDROOT
BRANCH   1   2
ATOM      2  C   UNL A   1      31.853  30.581  26.502  1.00  0.00     0.023 C 
BRANCH   2   3
ATOM      3  C   UNL A   1      31.378  30.012  25.165  1.00  0.00     0.116 C 
BRANCH   3   4
ATOM      4  N   UNL A   1      32.482  29.730  24.271  1.00  0.00    -0.356 N 
ATOM      5  C   UNL A   1      33.115  28.587  23.896  1.00  0.00     0.226 C 
ATOM      6  O   UNL A   1      34.056  28.759  23.112  1.00  0.00    -0.274 OA
ATOM      7  H   UNL A   1      32.851  30.537  23.845  1.00  0.00     0.163 HD
BRANCH   5   8
ATOM      8  C   UNL A   1      32.701  27.162  24.377  1.00  0.00     0.052 C 
ATOM      9  C   UNL A   1      31.733  27.192  26.850  1.00  0.00     0.012 C 
ATOM     10  C   UNL A   1      32.913  26.883  25.923  1.00  0.00    -0.018 C 
ATOM     11  C   UNL A   1      34.117  27.721  26.464  1.00  0.00     0.012 C 
ATOM     12  C   UNL A   1      33.338  25.368  26.009  1.00  0.00     0.006 C 
ATOM     13  C   UNL A   1      34.294  25.256  24.817  1.00  0.00     0.006 C 
ATOM     14  C   UNL A   1      33.658  26.096  23.711  1.00  0.00     0.017 C 
ATOM     15  C   UNL A   1      31.290  26.878  23.810  1.00  0.00     0.022 C 
BRANCH  12  16
ATOM     16  C   UNL A   1      32.306  24.239  25.883  1.00  0.00     0.084 C 
ATOM     17  Br  UNL A   1      32.782  22.580  26.767  1.00  0.00    -0.092 Br
ENDBRANCH  12  16
ENDBRANCH   5   8
ENDBRANCH   3   4
ENDBRANCH   2   3
ENDBRANCH   1   2
BRANCH   1  18
ATOM     18  C   UNL A   1      32.752  32.823  27.347  1.00  0.00     0.116 C 
BRANCH  18  19
ATOM     19  N   UNL A   1      32.427  34.206  27.677  1.00  0.00    -0.352 N 
ATOM     20  C   UNL A   1      33.002  35.016  28.625  1.00  0.00     0.251 C 
ATOM     21  H   UNL A   1      31.700  34.611  27.152  1.00  0.00     0.163 HD
ATOM     22  O   UNL A   1      32.554  36.133  28.859  1.00  0.00    -0.269 OA
BRANCH  20  23
ATOM     23  C   UNL A   1      34.151  34.497  29.390  1.00  0.00     0.039 A 
ATOM     24  C   UNL A   1      33.916  33.821  30.587  1.00  0.00     0.014 A 
ATOM     25  C   UNL A   1      35.440  34.599  28.864  1.00  0.00     0.014 A 
ATOM     26  C   UNL A   1      34.973  33.167  31.219  1.00  0.00     0.010 A 
ATOM     27  C   UNL A   1      36.471  33.876  29.446  1.00  0.00     0.010 A 
ATOM     28  C   UNL A   1      36.246  33.152  30.626  1.00  0.00    -0.014 A 
BRANCH  28  29
ATOM     29  C   UNL A   1      37.367  32.386  31.220  1.00  0.00     0.031 A 
ATOM     30  C   UNL A   1      37.865  32.740  32.591  1.00  0.00     0.074 A 
ATOM     31  C   UNL A   1      37.988  31.439  30.492  1.00  0.00     0.049 A 
ATOM     32  N   UNL A   1      38.890  32.264  33.249  1.00  0.00    -0.248 NA
ATOM     33  C   UNL A   1      37.133  33.800  33.302  1.00  0.00     0.031 C 
ATOM     34  C   UNL A   1      37.629  31.047  29.128  1.00  0.00     0.029 A 
ATOM     35  N   UNL A   1      39.060  30.640  30.795  1.00  0.00    -0.354 N 
ATOM     36  C   UNL A   1      38.938  32.980  34.436  1.00  0.00     0.074 A 
ATOM     37  C   UNL A   1      37.877  33.964  34.383  1.00  0.00     0.031 C 
ATOM     38  C   UNL A   1      38.447  30.063  28.724  1.00  0.00     0.029 A 
ATOM     39  C   UNL A   1      39.409  29.779  29.784  1.00  0.00     0.049 A 
ATOM     40  H   UNL A   1      39.536  30.681  31.657  1.00  0.00     0.167 HD
ATOM     41  C   UNL A   1      39.773  32.815  35.488  1.00  0.00     0.037 A 
ATOM     42  C   UNL A   1      40.396  28.866  29.724  1.00  0.00     0.037 A 
ATOM     43  C   UNL A   1      40.802  31.812  35.547  1.00  0.00     0.049 A 
ATOM     44  C   UNL A   1      41.309  28.696  30.907  1.00  0.00     0.074 A 
ATOM     45  C   UNL A   1      41.655  31.509  36.594  1.00  0.00     0.029 A 
ATOM     46  N   UNL A   1      41.115  30.944  34.511  1.00  0.00    -0.354 N 
ATOM     47  N   UNL A   1      41.304  29.331  32.053  1.00  0.00    -0.248 NA
ATOM     48  C   UNL A   1      42.364  27.681  30.786  1.00  0.00     0.031 C 
ATOM     49  C   UNL A   1      42.509  30.483  36.176  1.00  0.00     0.029 A 
ATOM     50  C   UNL A   1      42.162  30.119  34.884  1.00  0.00     0.049 A 
ATOM     51  H   UNL A   1      40.659  30.919  33.638  1.00  0.00     0.167 HD
ATOM     52  C   UNL A   1      42.334  28.779  32.800  1.00  0.00     0.074 A 
ATOM     53  C   UNL A   1      42.938  27.749  31.979  1.00  0.00     0.031 C 
ATOM     54  C   UNL A   1      42.744  29.097  34.053  1.00  0.00     0.037 A 
BRANCH  41  55
ATOM     55  C   UNL A   1      39.596  33.739  36.656  1.00  0.00     0.064 A 
ATOM     56  C   UNL A   1      38.803  33.386  37.759  1.00  0.00     0.173 A 
ATOM     57  C   UNL A   1      40.220  34.995  36.672  1.00  0.00     0.173 A 
ATOM     58  F   UNL A   1      38.171  32.203  37.784  1.00  0.00    -0.203 F 
ATOM     59  C   UNL A   1      38.608  34.271  38.816  1.00  0.00     0.198 A 
ATOM     60  C   UNL A   1      40.049  35.865  37.746  1.00  0.00     0.198 A 
ATOM     61  F   UNL A   1      40.991  35.382  35.644  1.00  0.00    -0.203 F 
ATOM     62  F   UNL A   1      37.795  33.937  39.826  1.00  0.00    -0.200 F 
ATOM     63  C   UNL A   1      39.235  35.508  38.810  1.00  0.00     0.200 A 
ATOM     64  F   UNL A   1      40.662  37.058  37.744  1.00  0.00    -0.200 F 
ATOM     65  F   UNL A   1      39.045  36.361  39.826  1.00  0.00    -0.200 F 
ENDBRANCH  41  55
BRANCH  42  66
ATOM     66  C   UNL A   1      40.538  28.012  28.518  1.00  0.00     0.064 A 
ATOM     67  C   UNL A   1      39.903  26.765  28.448  1.00  0.00     0.173 A 
ATOM     68  C   UNL A   1      41.289  28.426  27.408  1.00  0.00     0.173 A 
ATOM     69  F   UNL A   1      39.189  26.320  29.494  1.00  0.00    -0.203 F 
ATOM     70  C   UNL A   1      40.021  25.959  27.319  1.00  0.00     0.198 A 
ATOM     71  C   UNL A   1      41.389  27.628  26.270  1.00  0.00     0.198 A 
ATOM     72  F   UNL A   1      41.912  29.614  27.425  1.00  0.00    -0.203 F 
ATOM     73  F   UNL A   1      39.429  24.756  27.292  1.00  0.00    -0.200 F 
ATOM     74  C   UNL A   1      40.759  26.394  26.228  1.00  0.00     0.200 A 
ATOM     75  F   UNL A   1      42.093  28.057  25.213  1.00  0.00    -0.200 F 
ATOM     76  F   UNL A   1      40.867  25.620  25.140  1.00  0.00    -0.200 F 
ENDBRANCH  42  66
BRANCH  54  77
ATOM     77  C   UNL A   1      43.882  28.303  34.622  1.00  0.00     0.064 A 
ATOM     78  C   UNL A   1      43.667  27.091  35.290  1.00  0.00     0.173 A 
ATOM     79  C   UNL A   1      45.205  28.740  34.455  1.00  0.00     0.173 A 
ATOM     80  F   UNL A   1      42.419  26.641  35.489  1.00  0.00    -0.203 F 
ATOM     81  C   UNL A   1      44.736  26.351  35.789  1.00  0.00     0.198 A 
ATOM     82  C   UNL A   1      46.273  27.986  34.931  1.00  0.00     0.198 A 
ATOM     83  F   UNL A   1      45.462  29.892  33.818  1.00  0.00    -0.203 F 
ATOM     84  F   UNL A   1      44.507  25.214  36.459  1.00  0.00    -0.200 F 
ATOM     85  C   UNL A   1      46.038  26.795  35.602  1.00  0.00     0.200 A 
ATOM     86  F   UNL A   1      47.529  28.410  34.740  1.00  0.00    -0.200 F 
ATOM     87  F   UNL A   1      47.066  26.077  36.075  1.00  0.00    -0.200 F 
ENDBRANCH  54  77
ENDBRANCH  28  29
ENDBRANCH  20  23
ENDBRANCH  18  19
ENDBRANCH   1  18
TORSDOF 12
ENDMDL
MODEL 3
REMARK VINA RESULT:     -12.0      0.323      2.045
REMARK SMILES CC1(C)[C@@H](CBr)CC[C@]1(C)C(=O)NCCCCNC(=O)c1ccc(-c2c3nc(c(-c4c(F)c(F)c(F)c(F)c4F)c4ccc([nH]4)c(-c4c(F)c(F)c(F)c(F)c4F)c4nc(c(-c5c(F)c(F)c(F)c(F)c5F)c5ccc2[nH]5)C=C4)C=C3)cc1
REMARK SMILES IDX 16 1 15 2 14 3 13 4 11 5 12 6 9 8 1 9 2 10 3 11 4 12 7 13
REMARK SMILES IDX 8 14 10 15 5 16 6 17 17 18 18 19 19 20 20 22 21 23 22 24
REMARK SMILES IDX 83 25 23 26 82 27 24 28 25 29 26 30 76 31 27 32 81 33 75 34
REMARK SMILES IDX 77 35 28 36 80 37 74 38 73 39 29 41 61 42 41 43 60 44 42 45
REMARK SMILES IDX 45 46 59 47 78 48 43 49 44 50 58 52 79 53 46 54 30 55 31 56
REMARK SMILES IDX 39 57 32 58 33 59 37 60 40 61 34 62 35 63 38 64 36 65 62 66
REMARK SMILES IDX 63 67 71 68 64 69 65 70 69 71 72 72 66 73 67 74 70 75 68 76
REMARK SMILES IDX 47 77 48 78 56 79 49 80 50 81 54 82 57 83 51 84 52 85 55 86
REMARK SMILES IDX 53 87
REMARK H PARENT 13 7 18 21 77 40 45 51
REMARK Flexibility Score: inf
ROOT
ATOM      1  C   UNL A   1      31.615  31.981  26.875  1.00  0.00     0.023 C 
ENDROOT
BRANCH   1   2
ATOM      2  C   UNL A   1      31.923  30.517  26.592  1.00  0.00     0.023 C 
BRANCH   2   3
ATOM      3  C   UNL A   1      31.482  30.020  25.215  1.00  0.00     0.116 C 
BRANCH   3   4
ATOM      4  N   UNL A   1      32.610  29.718  24.359  1.00  0.00    -0.356 N 
ATOM      5  C   UNL A   1      33.123  28.563  23.859  1.00  0.00     0.226 C 
ATOM      6  O   UNL A   1      34.139  28.712  23.170  1.00  0.00    -0.274 OA
ATOM      7  H   UNL A   1      33.112  30.518  24.080  1.00  0.00     0.163 HD
BRANCH   5   8
ATOM      8  C   UNL A   1      32.496  27.154  24.097  1.00  0.00     0.052 C 
ATOM      9  C   UNL A   1      31.424  26.942  26.517  1.00  0.00     0.012 C 
ATOM     10  C   UNL A   1      32.593  26.614  25.584  1.00  0.00    -0.018 C 
ATOM     11  C   UNL A   1      33.874  27.179  26.282  1.00  0.00     0.012 C 
ATOM     12  C   UNL A   1      32.802  25.059  25.439  1.00  0.00     0.006 C 
ATOM     13  C   UNL A   1      33.790  24.996  24.269  1.00  0.00     0.006 C 
ATOM     14  C   UNL A   1      33.329  26.077  23.294  1.00  0.00     0.017 C 
ATOM     15  C   UNL A   1      31.088  27.165  23.455  1.00  0.00     0.022 C 
BRANCH  12  16
ATOM     16  C   UNL A   1      31.633  24.121  25.109  1.00  0.00     0.084 C 
ATOM     17  Br  UNL A   1      30.936  23.107  26.608  1.00  0.00    -0.092 Br
ENDBRANCH  12  16
ENDBRANCH   5   8
ENDBRANCH   3   4
ENDBRANCH   2   3
ENDBRANCH   1   2
BRANCH   1  18
ATOM     18  C   UNL A   1      32.815  32.802  27.317  1.00  0.00     0.116 C 
BRANCH  18  19
ATOM     19  N   UNL A   1      32.482  34.181  27.660  1.00  0.00    -0.352 N 
ATOM     20  C   UNL A   1      33.044  34.981  28.624  1.00  0.00     0.251 C 
ATOM     21  H   UNL A   1      31.759  34.589  27.132  1.00  0.00     0.163 HD
ATOM     22  O   UNL A   1      32.590  36.093  28.867  1.00  0.00    -0.269 OA
BRANCH  20  23
ATOM     23  C   UNL A   1      34.186  34.456  29.394  1.00  0.00     0.039 A 
ATOM     24  C   UNL A   1      33.940  33.722  30.554  1.00  0.00     0.014 A 
ATOM     25  C   UNL A   1      35.485  34.613  28.906  1.00  0.00     0.014 A 
ATOM     26  C   UNL A   1      34.997  33.067  31.184  1.00  0.00     0.010 A 
ATOM     27  C   UNL A   1      36.520  33.891  29.482  1.00  0.00     0.010 A 
ATOM     28  C   UNL A   1      36.284  33.110  30.624  1.00  0.00    -0.014 A 
BRANCH  28  29
ATOM     29  C   UNL A   1      37.410  32.346  31.211  1.00  0.00     0.031 A 
ATOM     30  C   UNL A   1      37.905  32.692  32.585  1.00  0.00     0.074 A 
ATOM     31  C   UNL A   1      38.036  31.407  30.476  1.00  0.00     0.049 A 
ATOM     32  N   UNL A   1      38.933  32.217  33.239  1.00  0.00    -0.248 NA
ATOM     33  C   UNL A   1      37.168  33.743  33.304  1.00  0.00     0.031 C 
ATOM     34  C   UNL A   1      37.679  31.024  29.109  1.00  0.00     0.029 A 
ATOM     35  N   UNL A   1      39.113  30.613  30.774  1.00  0.00    -0.354 N 
ATOM     36  C   UNL A   1      38.977  32.925  34.432  1.00  0.00     0.074 A 
ATOM     37  C   UNL A   1      37.911  33.903  34.386  1.00  0.00     0.031 C 
ATOM     38  C   UNL A   1      38.503  30.047  28.698  1.00  0.00     0.029 A 
ATOM     39  C   UNL A   1      39.466  29.761  29.756  1.00  0.00     0.049 A 
ATOM     40  H   UNL A   1      39.588  30.650  31.636  1.00  0.00     0.167 HD
ATOM     41  C   UNL A   1      39.813  32.756  35.483  1.00  0.00     0.037 A 
ATOM     42  C   UNL A   1      40.458  28.854  29.689  1.00  0.00     0.037 A 
ATOM     43  C   UNL A   1      40.848  31.759  35.535  1.00  0.00     0.049 A 
ATOM     44  C   UNL A   1      41.372  28.680  30.871  1.00  0.00     0.074 A 
ATOM     45  C   UNL A   1      41.702  31.453  36.579  1.00  0.00     0.029 A 
ATOM     46  N   UNL A   1      41.166  30.900  34.492  1.00  0.00    -0.354 N 
ATOM     47  N   UNL A   1      41.363  29.307  32.022  1.00  0.00    -0.248 NA
ATOM     48  C   UNL A   1      42.433  27.672  30.743  1.00  0.00     0.031 C 
ATOM     49  C   UNL A   1      42.563  30.435  36.153  1.00  0.00     0.029 A 
ATOM     50  C   UNL A   1      42.218  30.078  34.859  1.00  0.00     0.049 A 
ATOM     51  H   UNL A   1      40.710  30.879  33.619  1.00  0.00     0.167 HD
ATOM     52  C   UNL A   1      42.397  28.755  32.765  1.00  0.00     0.074 A 
ATOM     53  C   UNL A   1      43.006  27.734  31.937  1.00  0.00     0.031 C 
ATOM     54  C   UNL A   1      42.805  29.066  34.020  1.00  0.00     0.037 A 
BRANCH  41  55
ATOM     55  C   UNL A   1      39.630  33.671  36.657  1.00  0.00     0.064 A 
ATOM     56  C   UNL A   1      38.825  33.312  37.749  1.00  0.00     0.173 A 
ATOM     57  C   UNL A   1      40.263  34.922  36.692  1.00  0.00     0.173 A 
ATOM     58  F   UNL A   1      38.184  32.133  37.757  1.00  0.00    -0.203 F 
ATOM     59  C   UNL A   1      38.626  34.189  38.812  1.00  0.00     0.198 A 
ATOM     60  C   UNL A   1      40.087  35.784  37.771  1.00  0.00     0.198 A 
ATOM     61  F   UNL A   1      41.046  35.314  35.675  1.00  0.00    -0.203 F 
ATOM     62  F   UNL A   1      37.801  33.851  39.812  1.00  0.00    -0.200 F 
ATOM     63  C   UNL A   1      39.260  35.422  38.825  1.00  0.00     0.200 A 
ATOM     64  F   UNL A   1      40.708  36.972  37.787  1.00  0.00    -0.200 F 
ATOM     65  F   UNL A   1      39.066  36.267  39.846  1.00  0.00    -0.200 F 
ENDBRANCH  41  55
BRANCH  42  66
ATOM     66  C   UNL A   1      40.606  28.010  28.477  1.00  0.00     0.064 A 
ATOM     67  C   UNL A   1      41.385  28.446  27.396  1.00  0.00     0.173 A 
ATOM     68  C   UNL A   1      39.994  26.752  28.377  1.00  0.00     0.173 A 
ATOM     69  F   UNL A   1      41.973  29.651  27.440  1.00  0.00    -0.203 F 
ATOM     70  C   UNL A   1      41.539  27.659  26.257  1.00  0.00     0.198 A 
ATOM     71  C   UNL A   1      40.167  25.957  27.246  1.00  0.00     0.198 A 
ATOM     72  F   UNL A   1      39.243  26.289  29.387  1.00  0.00    -0.203 F 
ATOM     73  F   UNL A   1      42.264  28.114  25.225  1.00  0.00    -0.200 F 
ATOM     74  C   UNL A   1      40.935  26.413  26.185  1.00  0.00     0.200 A 
ATOM     75  F   UNL A   1      39.592  24.748  27.185  1.00  0.00    -0.200 F 
ATOM     76  F   UNL A   1      41.090  25.654  25.092  1.00  0.00    -0.200 F 
ENDBRANCH  42  66
BRANCH  54  77
ATOM     77  C   UNL A   1      43.948  28.274  34.583  1.00  0.00     0.064 A 
ATOM     78  C   UNL A   1      45.271  28.725  34.482  1.00  0.00     0.173 A 
ATOM     79  C   UNL A   1      43.709  27.075  35.271  1.00  0.00     0.173 A 
ATOM     80  F   UNL A   1      45.550  29.857  33.819  1.00  0.00    -0.203 F 
ATOM     81  C   UNL A   1      46.318  27.993  35.035  1.00  0.00     0.198 A 
ATOM     82  C   UNL A   1      44.755  26.360  35.846  1.00  0.00     0.198 A 
ATOM     83  F   UNL A   1      42.459  26.605  35.399  1.00  0.00    -0.203 F 
ATOM     84  F   UNL A   1      47.580  28.421  34.893  1.00  0.00    -0.200 F 
ATOM     85  C   UNL A   1      46.059  26.816  35.722  1.00  0.00     0.200 A 
ATOM     86  F   UNL A   1      44.502  25.229  36.518  1.00  0.00    -0.200 F 
ATOM     87  F   UNL A   1      47.068  26.117  36.261  1.00  0.00    -0.200 F 
ENDBRANCH  54  77
ENDBRANCH  28  29
ENDBRANCH  20  23
ENDBRANCH  18  19
ENDBRANCH   1  18
TORSDOF 12
ENDMDL
