MODEL 1
REMARK VINA RESULT:     -13.9      0.000      0.000
REMARK SMILES Cc1ccc(N2C(=O)[NH+]=C(NCCCCNC(=O)c3ccc(-c4c5nc(c(-c6c(F)c(F)c(F)c(F)c6F)c6ccc([nH]6)c(-c6c(F)c(F)c(F)c(F)c6F)c6nc(c(-c7c(F)c(F)c(F)c(F)c7F)c7ccc4[nH]7)C=C6)C=C5)cc3)/C(=C\c3ccccc3OCc3cccc(C(=O)[O-])c3)C2=O)cc1
REMARK SMILES IDX 12 1 11 2 6 3 7 4 101 5 8 6 9 7 82 8 102 9 10 10 83 12 5 14
REMARK SMILES IDX 1 15 2 16 3 17 104 18 4 19 103 20 84 21 85 22 89 23 86 24
REMARK SMILES IDX 88 25 87 26 90 27 91 28 92 29 93 30 100 31 94 32 96 33 95 34
REMARK SMILES IDX 97 35 98 36 99 37 13 38 14 39 15 40 16 41 17 42 18 44 19 45
REMARK SMILES IDX 20 46 81 47 21 48 80 49 22 50 23 51 24 52 74 53 25 54 79 55
REMARK SMILES IDX 73 56 75 57 26 58 78 59 72 60 71 61 27 63 59 64 39 65 58 66
REMARK SMILES IDX 40 67 43 68 57 69 76 70 41 71 42 72 56 74 77 75 44 76 28 77
REMARK SMILES IDX 29 78 37 79 30 80 31 81 35 82 38 83 32 84 33 85 36 86 34 87
REMARK SMILES IDX 60 88 61 89 69 90 62 91 63 92 67 93 70 94 64 95 65 96 68 97
REMARK SMILES IDX 66 98 45 99 46 100 54 101 47 102 48 103 52 104 55 105 49 106
REMARK SMILES IDX 50 107 53 108 51 109
REMARK H PARENT 9 11 11 13 16 43 75 62 43 73
REMARK Flexibility Score: inf
ROOT
ATOM      1  C   UNL A   1      36.686  20.899  24.284  1.00  0.00     0.194 C 
ENDROOT
BRANCH   1   2
ATOM      2  N   UNL A   1      35.593  21.070  25.231  1.00  0.00    -0.305 N 
ATOM      3  N   UNL A   1      33.710  24.705  26.053  1.00  0.00    -0.155 N 
ATOM      4  C   UNL A   1      34.940  24.606  25.371  1.00  0.00     0.448 C 
ATOM      5  C   UNL A   1      33.038  23.576  26.512  1.00  0.00     0.328 C 
ATOM      6  O   UNL A   1      35.552  25.596  24.972  1.00  0.00    -0.212 OA
ATOM      7  N   UNL A   1      35.533  23.381  25.196  1.00  0.00    -0.209 N 
ATOM      8  C   UNL A   1      33.521  22.305  25.919  1.00  0.00     0.129 C 
ATOM      9  O   UNL A   1      32.041  23.556  27.235  1.00  0.00    -0.249 OA
ATOM     10  C   UNL A   1      34.920  22.264  25.425  1.00  0.00     0.236 C 
ATOM     11  H   UNL A   1      36.466  23.350  24.882  1.00  0.00     0.270 HD
ATOM     12  C   UNL A   1      32.571  21.368  25.723  1.00  0.00     0.034 C 
ATOM     13  H   UNL A   1      35.317  20.290  25.765  1.00  0.00     0.256 HD
BRANCH   3  14
ATOM     14  C   UNL A   1      33.115  26.007  26.268  1.00  0.00     0.111 A 
ATOM     15  C   UNL A   1      31.320  29.893  27.009  1.00  0.00     0.044 C 
ATOM     16  C   UNL A   1      31.945  28.556  26.751  1.00  0.00    -0.051 A 
ATOM     17  C   UNL A   1      31.165  27.399  26.772  1.00  0.00     0.007 A 
ATOM     18  C   UNL A   1      33.314  28.436  26.506  1.00  0.00     0.007 A 
ATOM     19  C   UNL A   1      31.742  26.146  26.527  1.00  0.00     0.044 A 
ATOM     20  C   UNL A   1      33.888  27.180  26.271  1.00  0.00     0.044 A 
ENDBRANCH   3  14
BRANCH  12  21
ATOM     21  C   UNL A   1      32.640  20.160  24.892  1.00  0.00     0.018 A 
ATOM     22  C   UNL A   1      33.130  18.994  25.499  1.00  0.00     0.012 A 
ATOM     23  C   UNL A   1      32.200  20.101  23.558  1.00  0.00     0.127 A 
ATOM     24  C   UNL A   1      33.248  17.812  24.771  1.00  0.00     0.001 A 
ATOM     25  C   UNL A   1      32.358  18.925  22.821  1.00  0.00     0.047 A 
ATOM     26  C   UNL A   1      32.872  17.781  23.433  1.00  0.00     0.004 A 
BRANCH  23  27
ATOM     27  O   UNL A   1      31.739  21.188  22.862  1.00  0.00    -0.488 OA
BRANCH  27  28
ATOM     28  C   UNL A   1      32.741  22.181  22.607  1.00  0.00     0.265 C 
BRANCH  28  29
ATOM     29  C   UNL A   1      32.157  23.554  22.859  1.00  0.00    -0.010 A 
ATOM     30  C   UNL A   1      30.841  23.699  23.327  1.00  0.00     0.007 A 
ATOM     31  C   UNL A   1      32.893  24.708  22.553  1.00  0.00     0.017 A 
ATOM     32  C   UNL A   1      30.274  24.968  23.482  1.00  0.00     0.001 A 
ATOM     33  C   UNL A   1      32.322  25.979  22.694  1.00  0.00    -0.002 A 
ATOM     34  C   UNL A   1      31.009  26.107  23.156  1.00  0.00     0.010 A 
BRANCH  33  35
ATOM     35  C   UNL A   1      33.061  27.206  22.321  1.00  0.00     0.071 C 
ATOM     36  O   UNL A   1      34.034  27.269  21.597  1.00  0.00    -0.545 OA
ATOM     37  O   UNL A   1      32.526  28.305  22.877  1.00  0.00    -0.545 OA
ENDBRANCH  33  35
ENDBRANCH  28  29
ENDBRANCH  27  28
ENDBRANCH  23  27
ENDBRANCH  12  21
ENDBRANCH   1   2
BRANCH   1  38
ATOM     38  C   UNL A   1      38.035  20.728  24.989  1.00  0.00     0.039 C 
BRANCH  38  39
ATOM     39  C   UNL A   1      38.243  21.559  26.260  1.00  0.00     0.024 C 
BRANCH  39  40
ATOM     40  C   UNL A   1      38.782  22.968  26.013  1.00  0.00     0.116 C 
BRANCH  40  41
ATOM     41  N   UNL A   1      40.230  23.073  26.214  1.00  0.00    -0.352 N 
ATOM     42  C   UNL A   1      40.996  24.143  26.639  1.00  0.00     0.251 C 
ATOM     43  H   UNL A   1      40.737  22.252  26.015  1.00  0.00     0.163 HD
ATOM     44  O   UNL A   1      42.203  24.017  26.813  1.00  0.00    -0.269 OA
BRANCH  42  45
ATOM     45  C   UNL A   1      40.329  25.413  26.995  1.00  0.00     0.039 A 
ATOM     46  C   UNL A   1      40.738  26.588  26.356  1.00  0.00     0.014 A 
ATOM     47  C   UNL A   1      39.447  25.468  28.066  1.00  0.00     0.014 A 
ATOM     48  C   UNL A   1      40.477  27.822  26.954  1.00  0.00     0.010 A 
ATOM     49  C   UNL A   1      39.251  26.679  28.696  1.00  0.00     0.010 A 
ATOM     50  C   UNL A   1      39.827  27.843  28.185  1.00  0.00    -0.014 A 
BRANCH  50  51
ATOM     51  C   UNL A   1      39.775  29.008  29.057  1.00  0.00     0.031 A 
ATOM     52  C   UNL A   1      38.735  30.036  28.877  1.00  0.00     0.074 A 
ATOM     53  C   UNL A   1      40.630  29.108  30.100  1.00  0.00     0.049 A 
ATOM     54  N   UNL A   1      38.893  31.280  29.186  1.00  0.00    -0.248 NA
ATOM     55  C   UNL A   1      37.418  29.738  28.328  1.00  0.00     0.031 C 
ATOM     56  C   UNL A   1      40.588  30.088  31.181  1.00  0.00     0.029 A 
ATOM     57  N   UNL A   1      41.858  28.449  30.277  1.00  0.00    -0.354 N 
ATOM     58  C   UNL A   1      37.656  31.874  29.153  1.00  0.00     0.074 A 
ATOM     59  C   UNL A   1      36.780  30.891  28.551  1.00  0.00     0.031 C 
ATOM     60  C   UNL A   1      41.824  30.230  31.680  1.00  0.00     0.029 A 
ATOM     61  C   UNL A   1      42.711  29.404  30.880  1.00  0.00     0.049 A 
ATOM     62  H   UNL A   1      42.079  27.522  30.032  1.00  0.00     0.167 HD
ATOM     63  C   UNL A   1      37.468  33.079  29.767  1.00  0.00     0.037 A 
ATOM     64  C   UNL A   1      43.876  29.807  30.300  1.00  0.00     0.037 A 
ATOM     65  C   UNL A   1      38.705  33.575  30.367  1.00  0.00     0.049 A 
ATOM     66  C   UNL A   1      43.907  31.285  30.028  1.00  0.00     0.074 A 
ATOM     67  C   UNL A   1      39.194  33.528  31.663  1.00  0.00     0.029 A 
ATOM     68  N   UNL A   1      39.786  33.915  29.555  1.00  0.00    -0.354 N 
ATOM     69  N   UNL A   1      42.831  32.022  30.023  1.00  0.00    -0.248 NA
ATOM     70  C   UNL A   1      45.114  32.051  29.731  1.00  0.00     0.031 C 
ATOM     71  C   UNL A   1      40.587  33.776  31.620  1.00  0.00     0.029 A 
ATOM     72  C   UNL A   1      40.947  33.995  30.303  1.00  0.00     0.049 A 
ATOM     73  H   UNL A   1      39.731  34.076  28.585  1.00  0.00     0.167 HD
ATOM     74  C   UNL A   1      43.168  33.314  29.746  1.00  0.00     0.074 A 
ATOM     75  C   UNL A   1      44.608  33.286  29.568  1.00  0.00     0.031 C 
ATOM     76  C   UNL A   1      42.232  34.304  29.696  1.00  0.00     0.037 A 
BRANCH  63  77
ATOM     77  C   UNL A   1      36.090  33.611  30.076  1.00  0.00     0.064 A 
ATOM     78  C   UNL A   1      35.265  34.156  29.069  1.00  0.00     0.173 A 
ATOM     79  C   UNL A   1      35.553  33.662  31.375  1.00  0.00     0.173 A 
ATOM     80  F   UNL A   1      35.602  34.093  27.775  1.00  0.00    -0.203 F 
ATOM     81  C   UNL A   1      34.059  34.803  29.357  1.00  0.00     0.198 A 
ATOM     82  C   UNL A   1      34.377  34.360  31.671  1.00  0.00     0.198 A 
ATOM     83  F   UNL A   1      36.148  33.018  32.389  1.00  0.00    -0.203 F 
ATOM     84  F   UNL A   1      33.324  35.315  28.358  1.00  0.00    -0.200 F 
ATOM     85  C   UNL A   1      33.635  34.941  30.662  1.00  0.00     0.200 A 
ATOM     86  F   UNL A   1      33.974  34.474  32.945  1.00  0.00    -0.200 F 
ATOM     87  F   UNL A   1      32.513  35.615  30.944  1.00  0.00    -0.200 F 
ENDBRANCH  63  77
BRANCH  64  88
ATOM     88  C   UNL A   1      44.499  28.728  29.491  1.00  0.00     0.064 A 
ATOM     89  C   UNL A   1      44.353  28.840  28.093  1.00  0.00     0.173 A 
ATOM     90  C   UNL A   1      45.579  27.983  29.976  1.00  0.00     0.173 A 
ATOM     91  F   UNL A   1      43.308  29.519  27.588  1.00  0.00    -0.203 F 
ATOM     92  C   UNL A   1      45.366  28.434  27.231  1.00  0.00     0.198 A 
ATOM     93  C   UNL A   1      46.566  27.526  29.099  1.00  0.00     0.198 A 
ATOM     94  F   UNL A   1      45.754  27.820  31.294  1.00  0.00    -0.203 F 
ATOM     95  F   UNL A   1      45.299  28.742  25.928  1.00  0.00    -0.200 F 
ATOM     96  C   UNL A   1      46.492  27.814  27.742  1.00  0.00     0.200 A 
ATOM     97  F   UNL A   1      47.647  26.899  29.586  1.00  0.00    -0.200 F 
ATOM     98  F   UNL A   1      47.528  27.542  26.934  1.00  0.00    -0.200 F 
ENDBRANCH  64  88
BRANCH  76  99
ATOM     99  C   UNL A   1      42.507  35.693  29.204  1.00  0.00     0.064 A 
ATOM    100  C   UNL A   1      41.952  36.209  28.023  1.00  0.00     0.173 A 
ATOM    101  C   UNL A   1      43.255  36.598  29.989  1.00  0.00     0.173 A 
ATOM    102  F   UNL A   1      41.130  35.469  27.264  1.00  0.00    -0.203 F 
ATOM    103  C   UNL A   1      42.196  37.518  27.610  1.00  0.00     0.198 A 
ATOM    104  C   UNL A   1      43.454  37.920  29.599  1.00  0.00     0.198 A 
ATOM    105  F   UNL A   1      43.795  36.227  31.158  1.00  0.00    -0.203 F 
ATOM    106  F   UNL A   1      41.687  37.954  26.450  1.00  0.00    -0.200 F 
ATOM    107  C   UNL A   1      42.941  38.374  28.400  1.00  0.00     0.200 A 
ATOM    108  F   UNL A   1      44.136  38.753  30.397  1.00  0.00    -0.200 F 
ATOM    109  F   UNL A   1      43.150  39.640  28.014  1.00  0.00    -0.200 F 
ENDBRANCH  76  99
ENDBRANCH  50  51
ENDBRANCH  42  45
ENDBRANCH  40  41
ENDBRANCH  39  40
ENDBRANCH  38  39
ENDBRANCH   1  38
TORSDOF 16
ENDMDL
MODEL 2
REMARK VINA RESULT:     -13.5      1.032      2.004
REMARK SMILES Cc1ccc(N2C(=O)[NH+]=C(NCCCCNC(=O)c3ccc(-c4c5nc(c(-c6c(F)c(F)c(F)c(F)c6F)c6ccc([nH]6)c(-c6c(F)c(F)c(F)c(F)c6F)c6nc(c(-c7c(F)c(F)c(F)c(F)c7F)c7ccc4[nH]7)C=C6)C=C5)cc3)/C(=C\c3ccccc3OCc3cccc(C(=O)[O-])c3)C2=O)cc1
REMARK SMILES IDX 12 1 11 2 6 3 7 4 101 5 8 6 9 7 82 8 102 9 10 10 83 12 5 14
REMARK SMILES IDX 1 15 2 16 3 17 104 18 4 19 103 20 84 21 85 22 89 23 86 24
REMARK SMILES IDX 88 25 87 26 90 27 91 28 92 29 93 30 100 31 94 32 96 33 95 34
REMARK SMILES IDX 97 35 98 36 99 37 13 38 14 39 15 40 16 41 17 42 18 44 19 45
REMARK SMILES IDX 20 46 81 47 21 48 80 49 22 50 23 51 24 52 74 53 25 54 79 55
REMARK SMILES IDX 73 56 75 57 26 58 78 59 72 60 71 61 27 63 59 64 39 65 58 66
REMARK SMILES IDX 40 67 43 68 57 69 76 70 41 71 42 72 56 74 77 75 44 76 28 77
REMARK SMILES IDX 29 78 37 79 30 80 31 81 35 82 38 83 32 84 33 85 36 86 34 87
REMARK SMILES IDX 60 88 61 89 69 90 62 91 63 92 67 93 70 94 64 95 65 96 68 97
REMARK SMILES IDX 66 98 45 99 46 100 54 101 47 102 48 103 52 104 55 105 49 106
REMARK SMILES IDX 50 107 53 108 51 109
REMARK H PARENT 9 11 11 13 16 43 75 62 43 73
REMARK Flexibility Score: inf
ROOT
ATOM      1  C   UNL A   1      36.411  21.578  24.299  1.00  0.00     0.194 C 
ENDROOT
BRANCH   1   2
ATOM      2  N   UNL A   1      35.293  21.780  25.210  1.00  0.00    -0.305 N 
ATOM      3  N   UNL A   1      33.565  25.485  26.060  1.00  0.00    -0.155 N 
ATOM      4  C   UNL A   1      34.813  25.341  25.421  1.00  0.00     0.448 C 
ATOM      5  C   UNL A   1      32.820  24.382  26.463  1.00  0.00     0.328 C 
ATOM      6  O   UNL A   1      35.489  26.308  25.071  1.00  0.00    -0.212 OA
ATOM      7  N   UNL A   1      35.350  24.092  25.235  1.00  0.00    -0.209 N 
ATOM      8  C   UNL A   1      33.261  23.103  25.854  1.00  0.00     0.129 C 
ATOM      9  O   UNL A   1      31.796  24.395  27.148  1.00  0.00    -0.249 OA
ATOM     10  C   UNL A   1      34.674  23.003  25.411  1.00  0.00     0.236 C 
ATOM     11  H   UNL A   1      36.292  24.022  24.954  1.00  0.00     0.270 HD
ATOM     12  C   UNL A   1      32.273  22.220  25.597  1.00  0.00     0.034 C 
ATOM     13  H   UNL A   1      34.958  21.003  25.712  1.00  0.00     0.256 HD
BRANCH   3  14
ATOM     14  C   UNL A   1      33.028  26.811  26.288  1.00  0.00     0.111 A 
ATOM     15  C   UNL A   1      31.403  30.797  26.876  1.00  0.00     0.044 C 
ATOM     16  C   UNL A   1      31.959  29.419  26.678  1.00  0.00    -0.051 A 
ATOM     17  C   UNL A   1      33.222  29.244  26.110  1.00  0.00     0.007 A 
ATOM     18  C   UNL A   1      31.224  28.288  27.034  1.00  0.00     0.007 A 
ATOM     19  C   UNL A   1      33.749  27.960  25.925  1.00  0.00     0.044 A 
ATOM     20  C   UNL A   1      31.751  27.005  26.840  1.00  0.00     0.044 A 
ENDBRANCH   3  14
BRANCH  12  21
ATOM     21  C   UNL A   1      32.313  21.031  24.738  1.00  0.00     0.018 A 
ATOM     22  C   UNL A   1      32.600  19.806  25.355  1.00  0.00     0.012 A 
ATOM     23  C   UNL A   1      32.033  21.052  23.360  1.00  0.00     0.127 A 
ATOM     24  C   UNL A   1      32.678  18.635  24.604  1.00  0.00     0.001 A 
ATOM     25  C   UNL A   1      32.153  19.884  22.604  1.00  0.00     0.047 A 
ATOM     26  C   UNL A   1      32.465  18.677  23.231  1.00  0.00     0.004 A 
BRANCH  23  27
ATOM     27  O   UNL A   1      31.777  22.199  22.654  1.00  0.00    -0.488 OA
BRANCH  27  28
ATOM     28  C   UNL A   1      32.954  22.935  22.297  1.00  0.00     0.265 C 
BRANCH  28  29
ATOM     29  C   UNL A   1      32.667  24.417  22.405  1.00  0.00    -0.010 A 
ATOM     30  C   UNL A   1      33.647  25.365  22.070  1.00  0.00     0.007 A 
ATOM     31  C   UNL A   1      31.443  24.869  22.920  1.00  0.00     0.017 A 
ATOM     32  C   UNL A   1      33.409  26.731  22.248  1.00  0.00     0.001 A 
ATOM     33  C   UNL A   1      31.209  26.236  23.112  1.00  0.00    -0.002 A 
ATOM     34  C   UNL A   1      32.196  27.168  22.778  1.00  0.00     0.010 A 
BRANCH  33  35
ATOM     35  C   UNL A   1      29.946  26.730  23.708  1.00  0.00     0.071 C 
ATOM     36  O   UNL A   1      29.091  26.055  24.246  1.00  0.00    -0.545 OA
ATOM     37  O   UNL A   1      29.829  28.063  23.606  1.00  0.00    -0.545 OA
ENDBRANCH  33  35
ENDBRANCH  28  29
ENDBRANCH  27  28
ENDBRANCH  23  27
ENDBRANCH  12  21
ENDBRANCH   1   2
BRANCH   1  38
ATOM     38  C   UNL A   1      37.538  20.765  24.945  1.00  0.00     0.039 C 
BRANCH  38  39
ATOM     39  C   UNL A   1      38.250  21.422  26.132  1.00  0.00     0.024 C 
BRANCH  39  40
ATOM     40  C   UNL A   1      38.834  22.803  25.833  1.00  0.00     0.116 C 
BRANCH  40  41
ATOM     41  N   UNL A   1      40.268  22.894  26.121  1.00  0.00    -0.352 N 
ATOM     42  C   UNL A   1      41.011  23.945  26.628  1.00  0.00     0.251 C 
ATOM     43  H   UNL A   1      40.784  22.079  25.922  1.00  0.00     0.163 HD
ATOM     44  O   UNL A   1      42.205  23.807  26.866  1.00  0.00    -0.269 OA
BRANCH  42  45
ATOM     45  C   UNL A   1      40.327  25.204  26.990  1.00  0.00     0.039 A 
ATOM     46  C   UNL A   1      40.708  26.385  26.343  1.00  0.00     0.014 A 
ATOM     47  C   UNL A   1      39.459  25.248  28.072  1.00  0.00     0.014 A 
ATOM     48  C   UNL A   1      40.435  27.615  26.941  1.00  0.00     0.010 A 
ATOM     49  C   UNL A   1      39.251  26.456  28.702  1.00  0.00     0.010 A 
ATOM     50  C   UNL A   1      39.801  27.629  28.182  1.00  0.00    -0.014 A 
BRANCH  50  51
ATOM     51  C   UNL A   1      39.741  28.794  29.051  1.00  0.00     0.031 A 
ATOM     52  C   UNL A   1      38.724  29.840  28.839  1.00  0.00     0.074 A 
ATOM     53  C   UNL A   1      40.563  28.880  30.121  1.00  0.00     0.049 A 
ATOM     54  N   UNL A   1      38.894  31.081  29.153  1.00  0.00    -0.248 NA
ATOM     55  C   UNL A   1      37.420  29.564  28.248  1.00  0.00     0.031 C 
ATOM     56  C   UNL A   1      40.504  29.862  31.200  1.00  0.00     0.029 A 
ATOM     57  N   UNL A   1      41.774  28.201  30.337  1.00  0.00    -0.354 N 
ATOM     58  C   UNL A   1      37.668  31.696  29.081  1.00  0.00     0.074 A 
ATOM     59  C   UNL A   1      36.795  30.728  28.451  1.00  0.00     0.031 C 
ATOM     60  C   UNL A   1      41.725  29.982  31.738  1.00  0.00     0.029 A 
ATOM     61  C   UNL A   1      42.623  29.141  30.967  1.00  0.00     0.049 A 
ATOM     62  H   UNL A   1      41.987  27.270  30.099  1.00  0.00     0.167 HD
ATOM     63  C   UNL A   1      37.482  32.904  29.689  1.00  0.00     0.037 A 
ATOM     64  C   UNL A   1      43.813  29.524  30.424  1.00  0.00     0.037 A 
ATOM     65  C   UNL A   1      38.707  33.380  30.328  1.00  0.00     0.049 A 
ATOM     66  C   UNL A   1      43.878  31.001  30.154  1.00  0.00     0.074 A 
ATOM     67  C   UNL A   1      39.153  33.324  31.639  1.00  0.00     0.029 A 
ATOM     68  N   UNL A   1      39.819  33.701  29.550  1.00  0.00    -0.354 N 
ATOM     69  N   UNL A   1      42.815  31.757  30.115  1.00  0.00    -0.248 NA
ATOM     70  C   UNL A   1      45.106  31.747  29.895  1.00  0.00     0.031 C 
ATOM     71  C   UNL A   1      40.551  33.548  31.640  1.00  0.00     0.029 A 
ATOM     72  C   UNL A   1      40.956  33.762  30.335  1.00  0.00     0.049 A 
ATOM     73  H   UNL A   1      39.797  33.862  28.579  1.00  0.00     0.167 HD
ATOM     74  C   UNL A   1      43.182  33.043  29.849  1.00  0.00     0.074 A 
ATOM     75  C   UNL A   1      44.626  32.990  29.716  1.00  0.00     0.031 C 
ATOM     76  C   UNL A   1      42.265  34.049  29.770  1.00  0.00     0.037 A 
BRANCH  63  77
ATOM     77  C   UNL A   1      36.103  33.460  29.953  1.00  0.00     0.064 A 
ATOM     78  C   UNL A   1      35.313  34.003  28.918  1.00  0.00     0.173 A 
ATOM     79  C   UNL A   1      35.532  33.535  31.238  1.00  0.00     0.173 A 
ATOM     80  F   UNL A   1      35.684  33.919  27.635  1.00  0.00    -0.203 F 
ATOM     81  C   UNL A   1      34.110  34.671  29.166  1.00  0.00     0.198 A 
ATOM     82  C   UNL A   1      34.359  34.252  31.493  1.00  0.00     0.198 A 
ATOM     83  F   UNL A   1      36.091  32.895  32.275  1.00  0.00    -0.203 F 
ATOM     84  F   UNL A   1      33.410  35.180  28.141  1.00  0.00    -0.200 F 
ATOM     85  C   UNL A   1      33.653  34.831  30.458  1.00  0.00     0.200 A 
ATOM     86  F   UNL A   1      33.924  34.389  32.754  1.00  0.00    -0.200 F 
ATOM     87  F   UNL A   1      32.533  35.524  30.700  1.00  0.00    -0.200 F 
ENDBRANCH  63  77
BRANCH  64  88
ATOM     88  C   UNL A   1      44.443  28.435  29.635  1.00  0.00     0.064 A 
ATOM     89  C   UNL A   1      45.057  27.407  30.380  1.00  0.00     0.173 A 
ATOM     90  C   UNL A   1      44.018  28.134  28.338  1.00  0.00     0.173 A 
ATOM     91  F   UNL A   1      45.511  27.666  31.619  1.00  0.00    -0.203 F 
ATOM     92  C   UNL A   1      45.030  26.088  29.941  1.00  0.00     0.198 A 
ATOM     93  C   UNL A   1      44.045  26.815  27.878  1.00  0.00     0.198 A 
ATOM     94  F   UNL A   1      43.451  29.077  27.573  1.00  0.00    -0.203 F 
ATOM     95  F   UNL A   1      45.427  25.102  30.758  1.00  0.00    -0.200 F 
ATOM     96  C   UNL A   1      44.483  25.789  28.705  1.00  0.00     0.200 A 
ATOM     97  F   UNL A   1      43.544  26.523  26.669  1.00  0.00    -0.200 F 
ATOM     98  F   UNL A   1      44.333  24.509  28.335  1.00  0.00    -0.200 F 
ENDBRANCH  64  88
BRANCH  76  99
ATOM     99  C   UNL A   1      42.579  35.432  29.287  1.00  0.00     0.064 A 
ATOM    100  C   UNL A   1      43.164  36.412  30.105  1.00  0.00     0.173 A 
ATOM    101  C   UNL A   1      42.410  35.775  27.928  1.00  0.00     0.173 A 
ATOM    102  F   UNL A   1      43.476  36.151  31.383  1.00  0.00    -0.203 F 
ATOM    103  C   UNL A   1      43.480  37.680  29.617  1.00  0.00     0.198 A 
ATOM    104  C   UNL A   1      42.774  37.024  27.432  1.00  0.00     0.198 A 
ATOM    105  F   UNL A   1      41.902  34.902  27.046  1.00  0.00    -0.203 F 
ATOM    106  F   UNL A   1      43.989  38.601  30.445  1.00  0.00    -0.200 F 
ATOM    107  C   UNL A   1      43.290  37.983  28.282  1.00  0.00     0.200 A 
ATOM    108  F   UNL A   1      42.631  37.288  26.126  1.00  0.00    -0.200 F 
ATOM    109  F   UNL A   1      43.622  39.192  27.809  1.00  0.00    -0.200 F 
ENDBRANCH  76  99
ENDBRANCH  50  51
ENDBRANCH  42  45
ENDBRANCH  40  41
ENDBRANCH  39  40
ENDBRANCH  38  39
ENDBRANCH   1  38
TORSDOF 16
ENDMDL
MODEL 3
REMARK VINA RESULT:     -13.1      5.783     11.330
REMARK SMILES Cc1ccc(N2C(=O)[NH+]=C(NCCCCNC(=O)c3ccc(-c4c5nc(c(-c6c(F)c(F)c(F)c(F)c6F)c6ccc([nH]6)c(-c6c(F)c(F)c(F)c(F)c6F)c6nc(c(-c7c(F)c(F)c(F)c(F)c7F)c7ccc4[nH]7)C=C6)C=C5)cc3)/C(=C\c3ccccc3OCc3cccc(C(=O)[O-])c3)C2=O)cc1
REMARK SMILES IDX 12 1 11 2 6 3 7 4 101 5 8 6 9 7 82 8 102 9 10 10 83 12 5 14
REMARK SMILES IDX 1 15 2 16 3 17 104 18 4 19 103 20 84 21 85 22 89 23 86 24
REMARK SMILES IDX 88 25 87 26 90 27 91 28 92 29 93 30 100 31 94 32 96 33 95 34
REMARK SMILES IDX 97 35 98 36 99 37 13 38 14 39 15 40 16 41 17 42 18 44 19 45
REMARK SMILES IDX 20 46 81 47 21 48 80 49 22 50 23 51 24 52 74 53 25 54 79 55
REMARK SMILES IDX 73 56 75 57 26 58 78 59 72 60 71 61 27 63 59 64 39 65 58 66
REMARK SMILES IDX 40 67 43 68 57 69 76 70 41 71 42 72 56 74 77 75 44 76 28 77
REMARK SMILES IDX 29 78 37 79 30 80 31 81 35 82 38 83 32 84 33 85 36 86 34 87
REMARK SMILES IDX 60 88 61 89 69 90 62 91 63 92 67 93 70 94 64 95 65 96 68 97
REMARK SMILES IDX 66 98 45 99 46 100 54 101 47 102 48 103 52 104 55 105 49 106
REMARK SMILES IDX 50 107 53 108 51 109
REMARK H PARENT 9 11 11 13 16 43 75 62 43 73
REMARK Flexibility Score: inf
ROOT
ATOM      1  C   UNL A   1      39.288  34.595  31.709  1.00  0.00     0.194 C 
ENDROOT
BRANCH   1   2
ATOM      2  N   UNL A   1      38.172  33.699  31.436  1.00  0.00    -0.305 N 
ATOM      3  N   UNL A   1      38.556  29.813  29.959  1.00  0.00    -0.155 N 
ATOM      4  C   UNL A   1      39.603  30.757  29.937  1.00  0.00     0.448 C 
ATOM      5  C   UNL A   1      37.303  30.124  30.477  1.00  0.00     0.328 C 
ATOM      6  O   UNL A   1      40.711  30.499  29.470  1.00  0.00    -0.212 OA
ATOM      7  N   UNL A   1      39.384  32.037  30.378  1.00  0.00    -0.209 N 
ATOM      8  C   UNL A   1      37.283  31.358  31.302  1.00  0.00     0.129 C 
ATOM      9  O   UNL A   1      36.288  29.430  30.417  1.00  0.00    -0.249 OA
ATOM     10  C   UNL A   1      38.321  32.383  31.033  1.00  0.00     0.236 C 
ATOM     11  H   UNL A   1      40.064  32.724  30.189  1.00  0.00     0.270 HD
ATOM     12  C   UNL A   1      36.426  31.335  32.343  1.00  0.00     0.034 C 
ATOM     13  H   UNL A   1      37.259  34.050  31.545  1.00  0.00     0.256 HD
BRANCH   3  14
ATOM     14  C   UNL A   1      38.789  28.477  29.452  1.00  0.00     0.111 A 
ATOM     15  C   UNL A   1      39.580  24.493  27.910  1.00  0.00     0.044 C 
ATOM     16  C   UNL A   1      39.304  25.864  28.448  1.00  0.00    -0.051 A 
ATOM     17  C   UNL A   1      39.214  26.955  27.582  1.00  0.00     0.007 A 
ATOM     18  C   UNL A   1      39.155  26.083  29.818  1.00  0.00     0.007 A 
ATOM     19  C   UNL A   1      38.953  28.239  28.077  1.00  0.00     0.044 A 
ATOM     20  C   UNL A   1      38.903  27.371  30.310  1.00  0.00     0.044 A 
ENDBRANCH   3  14
BRANCH  12  21
ATOM     21  C   UNL A   1      36.382  32.227  33.508  1.00  0.00     0.018 A 
ATOM     22  C   UNL A   1      37.399  32.083  34.462  1.00  0.00     0.012 A 
ATOM     23  C   UNL A   1      35.418  33.236  33.686  1.00  0.00     0.127 A 
ATOM     24  C   UNL A   1      37.415  32.877  35.607  1.00  0.00     0.001 A 
ATOM     25  C   UNL A   1      35.414  34.001  34.853  1.00  0.00     0.047 A 
ATOM     26  C   UNL A   1      36.419  33.827  35.805  1.00  0.00     0.004 A 
BRANCH  23  27
ATOM     27  O   UNL A   1      34.364  33.437  32.833  1.00  0.00    -0.488 OA
BRANCH  27  28
ATOM     28  C   UNL A   1      34.377  34.718  32.187  1.00  0.00     0.265 C 
BRANCH  28  29
ATOM     29  C   UNL A   1      34.112  34.533  30.709  1.00  0.00    -0.010 A 
ATOM     30  C   UNL A   1      33.326  35.456  30.000  1.00  0.00     0.007 A 
ATOM     31  C   UNL A   1      34.580  33.393  30.039  1.00  0.00     0.017 A 
ATOM     32  C   UNL A   1      33.013  35.242  28.654  1.00  0.00     0.001 A 
ATOM     33  C   UNL A   1      34.256  33.171  28.695  1.00  0.00    -0.002 A 
ATOM     34  C   UNL A   1      33.468  34.096  28.003  1.00  0.00     0.010 A 
BRANCH  33  35
ATOM     35  C   UNL A   1      34.690  31.946  27.986  1.00  0.00     0.071 C 
ATOM     36  O   UNL A   1      35.821  31.683  27.628  1.00  0.00    -0.545 OA
ATOM     37  O   UNL A   1      33.670  31.099  27.772  1.00  0.00    -0.545 OA
ENDBRANCH  33  35
ENDBRANCH  28  29
ENDBRANCH  27  28
ENDBRANCH  23  27
ENDBRANCH  12  21
ENDBRANCH   1   2
BRANCH   1  38
ATOM     38  C   UNL A   1      39.697  34.568  33.185  1.00  0.00     0.039 C 
BRANCH  38  39
ATOM     39  C   UNL A   1      40.838  33.613  33.552  1.00  0.00     0.024 C 
BRANCH  39  40
ATOM     40  C   UNL A   1      41.526  33.931  34.880  1.00  0.00     0.116 C 
BRANCH  40  41
ATOM     41  N   UNL A   1      40.790  33.426  36.043  1.00  0.00    -0.352 N 
ATOM     42  C   UNL A   1      40.789  32.170  36.621  1.00  0.00     0.251 C 
ATOM     43  H   UNL A   1      40.205  34.086  36.482  1.00  0.00     0.163 HD
ATOM     44  O   UNL A   1      40.151  31.954  37.645  1.00  0.00    -0.269 OA
BRANCH  42  45
ATOM     45  C   UNL A   1      41.658  31.116  36.058  1.00  0.00     0.039 A 
ATOM     46  C   UNL A   1      43.011  31.096  36.418  1.00  0.00     0.014 A 
ATOM     47  C   UNL A   1      41.189  30.276  35.057  1.00  0.00     0.014 A 
ATOM     48  C   UNL A   1      43.930  30.438  35.601  1.00  0.00     0.010 A 
ATOM     49  C   UNL A   1      42.102  29.687  34.209  1.00  0.00     0.010 A 
ATOM     50  C   UNL A   1      43.472  29.830  34.435  1.00  0.00    -0.014 A 
BRANCH  50  51
ATOM     51  C   UNL A   1      44.339  29.394  33.350  1.00  0.00     0.031 A 
ATOM     52  C   UNL A   1      44.305  30.070  32.041  1.00  0.00     0.074 A 
ATOM     53  C   UNL A   1      45.251  28.419  33.567  1.00  0.00     0.049 A 
ATOM     54  N   UNL A   1      44.585  29.487  30.924  1.00  0.00    -0.248 NA
ATOM     55  C   UNL A   1      43.947  31.475  31.888  1.00  0.00     0.031 C 
ATOM     56  C   UNL A   1      46.325  28.003  32.669  1.00  0.00     0.029 A 
ATOM     57  N   UNL A   1      45.255  27.450  34.583  1.00  0.00    -0.354 N 
ATOM     58  C   UNL A   1      44.725  30.466  29.971  1.00  0.00     0.074 A 
ATOM     59  C   UNL A   1      44.255  31.680  30.604  1.00  0.00     0.031 C 
ATOM     60  C   UNL A   1      46.644  26.731  32.942  1.00  0.00     0.029 A 
ATOM     61  C   UNL A   1      45.730  26.267  33.970  1.00  0.00     0.049 A 
ATOM     62  H   UNL A   1      44.984  27.568  35.522  1.00  0.00     0.167 HD
ATOM     63  C   UNL A   1      45.357  30.179  28.795  1.00  0.00     0.037 A 
ATOM     64  C   UNL A   1      44.990  25.122  33.928  1.00  0.00     0.037 A 
ATOM     65  C   UNL A   1      45.775  28.780  28.737  1.00  0.00     0.049 A 
ATOM     66  C   UNL A   1      44.713  24.663  32.525  1.00  0.00     0.074 A 
ATOM     67  C   UNL A   1      46.990  28.162  28.989  1.00  0.00     0.029 A 
ATOM     68  N   UNL A   1      44.818  27.766  28.718  1.00  0.00    -0.354 N 
ATOM     69  N   UNL A   1      44.858  25.441  31.488  1.00  0.00    -0.248 NA
ATOM     70  C   UNL A   1      44.247  23.328  32.163  1.00  0.00     0.031 C 
ATOM     71  C   UNL A   1      46.750  26.781  29.188  1.00  0.00     0.029 A 
ATOM     72  C   UNL A   1      45.395  26.550  29.037  1.00  0.00     0.049 A 
ATOM     73  H   UNL A   1      43.865  27.898  28.508  1.00  0.00     0.167 HD
ATOM     74  C   UNL A   1      44.533  24.754  30.356  1.00  0.00     0.074 A 
ATOM     75  C   UNL A   1      44.154  23.435  30.826  1.00  0.00     0.031 C 
ATOM     76  C   UNL A   1      44.613  25.327  29.121  1.00  0.00     0.037 A 
BRANCH  63  77
ATOM     77  C   UNL A   1      45.854  31.264  27.871  1.00  0.00     0.064 A 
ATOM     78  C   UNL A   1      47.142  31.824  28.013  1.00  0.00     0.173 A 
ATOM     79  C   UNL A   1      45.068  31.834  26.853  1.00  0.00     0.173 A 
ATOM     80  F   UNL A   1      48.034  31.322  28.876  1.00  0.00    -0.203 F 
ATOM     81  C   UNL A   1      47.559  32.938  27.279  1.00  0.00     0.198 A 
ATOM     82  C   UNL A   1      45.462  32.984  26.160  1.00  0.00     0.198 A 
ATOM     83  F   UNL A   1      43.903  31.277  26.492  1.00  0.00    -0.203 F 
ATOM     84  F   UNL A   1      48.790  33.436  27.468  1.00  0.00    -0.200 F 
ATOM     85  C   UNL A   1      46.704  33.543  26.381  1.00  0.00     0.200 A 
ATOM     86  F   UNL A   1      44.622  33.552  25.283  1.00  0.00    -0.200 F 
ATOM     87  F   UNL A   1      47.081  34.648  25.724  1.00  0.00    -0.200 F 
ENDBRANCH  63  77
BRANCH  64  88
ATOM     88  C   UNL A   1      44.105  24.987  35.113  1.00  0.00     0.064 A 
ATOM     89  C   UNL A   1      44.699  24.446  36.271  1.00  0.00     0.173 A 
ATOM     90  C   UNL A   1      42.977  25.797  35.277  1.00  0.00     0.173 A 
ATOM     91  F   UNL A   1      45.764  23.634  36.152  1.00  0.00    -0.203 F 
ATOM     92  C   UNL A   1      44.332  24.886  37.538  1.00  0.00     0.198 A 
ATOM     93  C   UNL A   1      42.576  26.191  36.556  1.00  0.00     0.198 A 
ATOM     94  F   UNL A   1      42.354  26.318  34.211  1.00  0.00    -0.203 F 
ATOM     95  F   UNL A   1      45.052  24.519  38.609  1.00  0.00    -0.200 F 
ATOM     96  C   UNL A   1      43.296  25.793  37.675  1.00  0.00     0.200 A 
ATOM     97  F   UNL A   1      41.553  27.048  36.696  1.00  0.00    -0.200 F 
ATOM     98  F   UNL A   1      43.027  26.321  38.878  1.00  0.00    -0.200 F 
ENDBRANCH  64  88
BRANCH  76  99
ATOM     99  C   UNL A   1      44.084  24.696  27.869  1.00  0.00     0.064 A 
ATOM    100  C   UNL A   1      43.028  25.245  27.124  1.00  0.00     0.173 A 
ATOM    101  C   UNL A   1      44.718  23.565  27.310  1.00  0.00     0.173 A 
ATOM    102  F   UNL A   1      42.433  26.385  27.504  1.00  0.00    -0.203 F 
ATOM    103  C   UNL A   1      42.582  24.655  25.942  1.00  0.00     0.198 A 
ATOM    104  C   UNL A   1      44.304  23.009  26.103  1.00  0.00     0.198 A 
ATOM    105  F   UNL A   1      45.766  22.984  27.913  1.00  0.00    -0.203 F 
ATOM    106  F   UNL A   1      41.538  25.185  25.289  1.00  0.00    -0.200 F 
ATOM    107  C   UNL A   1      43.222  23.543  25.429  1.00  0.00     0.200 A 
ATOM    108  F   UNL A   1      44.964  21.960  25.592  1.00  0.00    -0.200 F 
ATOM    109  F   UNL A   1      42.810  22.995  24.278  1.00  0.00    -0.200 F 
ENDBRANCH  76  99
ENDBRANCH  50  51
ENDBRANCH  42  45
ENDBRANCH  40  41
ENDBRANCH  39  40
ENDBRANCH  38  39
ENDBRANCH   1  38
TORSDOF 16
ENDMDL
