MODEL 1
REMARK VINA RESULT:     -13.0      0.000      0.000
REMARK SMILES O=C(Nc1ccc2c(c1)OCO2)N[C@H]1C=C[C@@H](C(=O)NCCCCNC(=O)c2ccc(-c3c4nc(c(-c5c(F)c(F)c(F)c(F)c5F)c5ccc([nH]5)c(-c5c(F)c(F)c(F)c(F)c5F)c5nc(c(-c6c(F)c(F)c(F)c(F)c6F)c6ccc3[nH]6)C=C5)C=C4)cc2)C1
REMARK SMILES IDX 22 1 21 2 20 3 18 4 19 5 17 7 14 8 15 9 91 10 16 11 13 12
REMARK SMILES IDX 1 13 2 14 3 15 4 18 5 19 9 20 6 21 8 22 7 23 10 24 12 25
REMARK SMILES IDX 11 26 23 27 24 28 25 29 26 30 27 32 28 33 29 34 90 35 30 36
REMARK SMILES IDX 89 37 31 38 32 39 33 40 83 41 34 42 88 43 82 44 84 45 35 46
REMARK SMILES IDX 87 47 81 48 80 49 36 51 68 52 48 53 67 54 49 55 52 56 66 57
REMARK SMILES IDX 85 58 50 59 51 60 65 62 86 63 53 64 37 65 38 66 46 67 39 68
REMARK SMILES IDX 40 69 44 70 47 71 41 72 42 73 45 74 43 75 69 76 70 77 78 78
REMARK SMILES IDX 71 79 72 80 76 81 79 82 73 83 74 84 77 85 75 86 54 87 55 88
REMARK SMILES IDX 63 89 56 90 57 91 61 92 64 93 58 94 59 95 62 96 60 97
REMARK H PARENT 20 6 3 16 13 17 25 31 84 50 52 61
REMARK Flexibility Score: inf
ROOT
ATOM      1  C   UNL A   1      31.456  30.867  25.833  1.00  0.00     0.023 C 
ENDROOT
BRANCH   1   2
ATOM      2  C   UNL A   1      31.644  29.629  26.702  1.00  0.00     0.116 C 
BRANCH   2   3
ATOM      3  N   UNL A   1      33.014  29.490  27.141  1.00  0.00    -0.356 N 
ATOM      4  C   UNL A   1      34.019  28.705  26.666  1.00  0.00     0.227 C 
ATOM      5  O   UNL A   1      35.112  28.792  27.236  1.00  0.00    -0.274 OA
ATOM      6  H   UNL A   1      33.259  30.057  27.908  1.00  0.00     0.163 HD
BRANCH   4   7
ATOM      7  C   UNL A   1      33.839  27.755  25.476  1.00  0.00     0.103 C 
ATOM      8  C   UNL A   1      32.142  27.373  23.731  1.00  0.00     0.107 C 
ATOM      9  C   UNL A   1      33.307  28.156  23.223  1.00  0.00    -0.006 C 
ATOM     10  C   UNL A   1      32.405  27.259  25.244  1.00  0.00     0.047 C 
ATOM     11  C   UNL A   1      34.236  28.358  24.165  1.00  0.00    -0.016 C 
BRANCH   8  12
ATOM     12  N   UNL A   1      30.924  28.093  23.437  1.00  0.00    -0.332 N 
ATOM     13  O   UNL A   1      29.548  26.277  23.559  1.00  0.00    -0.248 OA
ATOM     14  C   UNL A   1      29.705  27.484  23.399  1.00  0.00     0.319 C 
ATOM     15  N   UNL A   1      28.613  28.304  23.339  1.00  0.00    -0.308 N 
ATOM     16  H   UNL A   1      27.769  27.880  23.617  1.00  0.00     0.171 HD
ATOM     17  H   UNL A   1      30.977  29.060  23.256  1.00  0.00     0.165 HD
BRANCH  15  18
ATOM     18  C   UNL A   1      28.491  29.645  22.948  1.00  0.00     0.046 A 
ATOM     19  C   UNL A   1      28.719  30.712  23.839  1.00  0.00     0.030 A 
ATOM     20  C   UNL A   1      28.184  29.902  21.607  1.00  0.00     0.076 A 
ATOM     21  C   UNL A   1      28.597  32.037  23.403  1.00  0.00     0.053 A 
ATOM     22  C   UNL A   1      28.000  31.215  21.229  1.00  0.00     0.167 A 
ATOM     23  C   UNL A   1      28.192  32.255  22.104  1.00  0.00     0.165 A 
ATOM     24  O   UNL A   1      27.604  31.641  19.999  1.00  0.00    -0.454 OA
ATOM     25  O   UNL A   1      27.936  33.463  21.539  1.00  0.00    -0.454 OA
ATOM     26  C   UNL A   1      27.501  33.063  20.224  1.00  0.00     0.468 C 
ENDBRANCH  15  18
ENDBRANCH   8  12
ENDBRANCH   4   7
ENDBRANCH   2   3
ENDBRANCH   1   2
BRANCH   1  27
ATOM     27  C   UNL A   1      31.274  32.170  26.608  1.00  0.00     0.023 C 
BRANCH  27  28
ATOM     28  C   UNL A   1      32.565  32.908  26.942  1.00  0.00     0.116 C 
BRANCH  28  29
ATOM     29  N   UNL A   1      32.338  34.190  27.596  1.00  0.00    -0.352 N 
ATOM     30  C   UNL A   1      33.013  34.760  28.646  1.00  0.00     0.251 C 
ATOM     31  H   UNL A   1      31.594  34.722  27.232  1.00  0.00     0.163 HD
ATOM     32  O   UNL A   1      32.628  35.810  29.149  1.00  0.00    -0.269 OA
BRANCH  30  33
ATOM     33  C   UNL A   1      34.216  34.090  29.166  1.00  0.00     0.039 A 
ATOM     34  C   UNL A   1      35.477  34.507  28.738  1.00  0.00     0.014 A 
ATOM     35  C   UNL A   1      34.082  33.068  30.109  1.00  0.00     0.014 A 
ATOM     36  C   UNL A   1      36.615  33.935  29.310  1.00  0.00     0.010 A 
ATOM     37  C   UNL A   1      35.210  32.565  30.737  1.00  0.00     0.010 A 
ATOM     38  C   UNL A   1      36.488  32.987  30.339  1.00  0.00    -0.014 A 
BRANCH  38  39
ATOM     39  C   UNL A   1      37.674  32.409  31.015  1.00  0.00     0.031 A 
ATOM     40  C   UNL A   1      38.441  31.298  30.356  1.00  0.00     0.074 A 
ATOM     41  C   UNL A   1      38.003  32.822  32.254  1.00  0.00     0.049 A 
ATOM     42  N   UNL A   1      39.432  30.583  30.823  1.00  0.00    -0.248 NA
ATOM     43  C   UNL A   1      38.012  30.914  29.000  1.00  0.00     0.031 C 
ATOM     44  C   UNL A   1      37.298  33.856  33.016  1.00  0.00     0.029 A 
ATOM     45  N   UNL A   1      39.001  32.409  33.100  1.00  0.00    -0.354 N 
ATOM     46  C   UNL A   1      39.734  29.664  29.828  1.00  0.00     0.074 A 
ATOM     47  C   UNL A   1      38.780  29.864  28.760  1.00  0.00     0.031 C 
ATOM     48  C   UNL A   1      37.897  34.006  34.209  1.00  0.00     0.029 A 
ATOM     49  C   UNL A   1      38.997  33.053  34.312  1.00  0.00     0.049 A 
ATOM     50  H   UNL A   1      39.658  31.717  32.859  1.00  0.00     0.167 HD
ATOM     51  C   UNL A   1      40.737  28.753  29.796  1.00  0.00     0.037 A 
ATOM     52  C   UNL A   1      39.783  32.881  35.392  1.00  0.00     0.037 A 
ATOM     53  C   UNL A   1      41.692  28.571  30.858  1.00  0.00     0.049 A 
ATOM     54  C   UNL A   1      40.881  31.853  35.337  1.00  0.00     0.074 A 
ATOM     55  C   UNL A   1      42.774  27.712  30.907  1.00  0.00     0.029 A 
ATOM     56  N   UNL A   1      41.673  29.263  32.062  1.00  0.00    -0.354 N 
ATOM     57  N   UNL A   1      41.202  31.034  34.365  1.00  0.00    -0.248 NA
ATOM     58  C   UNL A   1      41.732  31.730  36.528  1.00  0.00     0.031 C 
ATOM     59  C   UNL A   1      43.380  27.845  32.160  1.00  0.00     0.029 A 
ATOM     60  C   UNL A   1      42.714  28.833  32.868  1.00  0.00     0.049 A 
ATOM     61  H   UNL A   1      41.019  29.956  32.304  1.00  0.00     0.167 HD
ATOM     62  C   UNL A   1      42.308  30.322  34.811  1.00  0.00     0.074 A 
ATOM     63  C   UNL A   1      42.612  30.819  36.137  1.00  0.00     0.031 C 
ATOM     64  C   UNL A   1      43.007  29.346  34.183  1.00  0.00     0.037 A 
BRANCH  51  65
ATOM     65  C   UNL A   1      40.854  27.892  28.571  1.00  0.00     0.064 A 
ATOM     66  C   UNL A   1      40.169  26.672  28.460  1.00  0.00     0.173 A 
ATOM     67  C   UNL A   1      41.637  28.304  27.480  1.00  0.00     0.173 A 
ATOM     68  F   UNL A   1      39.418  26.225  29.477  1.00  0.00    -0.203 F 
ATOM     69  C   UNL A   1      40.288  25.881  27.320  1.00  0.00     0.198 A 
ATOM     70  C   UNL A   1      41.725  27.528  26.328  1.00  0.00     0.198 A 
ATOM     71  F   UNL A   1      42.310  29.462  27.529  1.00  0.00    -0.203 F 
ATOM     72  F   UNL A   1      39.670  24.695  27.263  1.00  0.00    -0.200 F 
ATOM     73  C   UNL A   1      41.060  26.313  26.252  1.00  0.00     0.200 A 
ATOM     74  F   UNL A   1      42.459  27.953  25.290  1.00  0.00    -0.200 F 
ATOM     75  F   UNL A   1      41.167  25.556  25.151  1.00  0.00    -0.200 F 
ENDBRANCH  51  65
BRANCH  52  76
ATOM     76  C   UNL A   1      39.572  33.711  36.607  1.00  0.00     0.064 A 
ATOM     77  C   UNL A   1      40.159  34.979  36.726  1.00  0.00     0.173 A 
ATOM     78  C   UNL A   1      38.787  33.255  37.676  1.00  0.00     0.173 A 
ATOM     79  F   UNL A   1      40.933  35.453  35.738  1.00  0.00    -0.203 F 
ATOM     80  C   UNL A   1      39.992  35.746  37.877  1.00  0.00     0.198 A 
ATOM     81  C   UNL A   1      38.592  34.036  38.814  1.00  0.00     0.198 A 
ATOM     82  F   UNL A   1      38.194  32.054  37.610  1.00  0.00    -0.203 F 
ATOM     83  F   UNL A   1      40.608  36.931  37.985  1.00  0.00    -0.200 F 
ATOM     84  C   UNL A   1      39.204  35.277  38.917  1.00  0.00     0.200 A 
ATOM     85  F   UNL A   1      37.815  33.588  39.808  1.00  0.00    -0.200 F 
ATOM     86  F   UNL A   1      39.039  36.017  40.023  1.00  0.00    -0.200 F 
ENDBRANCH  52  76
BRANCH  64  87
ATOM     87  C   UNL A   1      44.196  28.778  34.904  1.00  0.00     0.064 A 
ATOM     88  C   UNL A   1      44.083  27.677  35.766  1.00  0.00     0.173 A 
ATOM     89  C   UNL A   1      45.474  29.321  34.697  1.00  0.00     0.173 A 
ATOM     90  F   UNL A   1      42.882  27.130  36.009  1.00  0.00    -0.203 F 
ATOM     91  C   UNL A   1      45.200  27.161  36.417  1.00  0.00     0.198 A 
ATOM     92  C   UNL A   1      46.594  28.780  35.321  1.00  0.00     0.198 A 
ATOM     93  F   UNL A   1      45.638  30.370  33.876  1.00  0.00    -0.203 F 
ATOM     94  F   UNL A   1      45.060  26.144  37.278  1.00  0.00    -0.200 F 
ATOM     95  C   UNL A   1      46.455  27.707  36.188  1.00  0.00     0.200 A 
ATOM     96  F   UNL A   1      47.806  29.298  35.086  1.00  0.00    -0.200 F 
ATOM     97  F   UNL A   1      47.530  27.202  36.809  1.00  0.00    -0.200 F 
ENDBRANCH  64  87
ENDBRANCH  38  39
ENDBRANCH  30  33
ENDBRANCH  28  29
ENDBRANCH  27  28
ENDBRANCH   1  27
TORSDOF 13
ENDMDL
MODEL 2
REMARK VINA RESULT:     -12.8      2.928      5.032
REMARK SMILES O=C(Nc1ccc2c(c1)OCO2)N[C@H]1C=C[C@@H](C(=O)NCCCCNC(=O)c2ccc(-c3c4nc(c(-c5c(F)c(F)c(F)c(F)c5F)c5ccc([nH]5)c(-c5c(F)c(F)c(F)c(F)c5F)c5nc(c(-c6c(F)c(F)c(F)c(F)c6F)c6ccc3[nH]6)C=C5)C=C4)cc2)C1
REMARK SMILES IDX 22 1 21 2 20 3 18 4 19 5 17 7 14 8 15 9 91 10 16 11 13 12
REMARK SMILES IDX 1 13 2 14 3 15 4 18 5 19 9 20 6 21 8 22 7 23 10 24 12 25
REMARK SMILES IDX 11 26 23 27 24 28 25 29 26 30 27 32 28 33 29 34 90 35 30 36
REMARK SMILES IDX 89 37 31 38 32 39 33 40 83 41 34 42 88 43 82 44 84 45 35 46
REMARK SMILES IDX 87 47 81 48 80 49 36 51 68 52 48 53 67 54 49 55 52 56 66 57
REMARK SMILES IDX 85 58 50 59 51 60 65 62 86 63 53 64 37 65 38 66 46 67 39 68
REMARK SMILES IDX 40 69 44 70 47 71 41 72 42 73 45 74 43 75 69 76 70 77 78 78
REMARK SMILES IDX 71 79 72 80 76 81 79 82 73 83 74 84 77 85 75 86 54 87 55 88
REMARK SMILES IDX 63 89 56 90 57 91 61 92 64 93 58 94 59 95 62 96 60 97
REMARK H PARENT 20 6 3 16 13 17 25 31 84 50 52 61
REMARK Flexibility Score: inf
ROOT
ATOM      1  C   UNL A   1      31.857  30.533  26.166  1.00  0.00     0.023 C 
ENDROOT
BRANCH   1   2
ATOM      2  C   UNL A   1      32.289  29.581  27.276  1.00  0.00     0.116 C 
BRANCH   2   3
ATOM      3  N   UNL A   1      31.552  28.339  27.228  1.00  0.00    -0.356 N 
ATOM      4  C   UNL A   1      31.699  27.255  26.419  1.00  0.00     0.227 C 
ATOM      5  O   UNL A   1      30.922  26.312  26.603  1.00  0.00    -0.274 OA
ATOM      6  H   UNL A   1      30.825  28.267  27.888  1.00  0.00     0.163 HD
BRANCH   4   7
ATOM      7  C   UNL A   1      32.774  27.171  25.329  1.00  0.00     0.103 C 
ATOM      8  C   UNL A   1      34.273  25.437  24.424  1.00  0.00     0.107 C 
ATOM      9  C   UNL A   1      33.082  25.664  23.553  1.00  0.00    -0.006 C 
ATOM     10  C   UNL A   1      33.987  26.295  25.671  1.00  0.00     0.047 C 
ATOM     11  C   UNL A   1      32.269  26.611  24.035  1.00  0.00    -0.016 C 
BRANCH   8  12
ATOM     12  N   UNL A   1      34.370  24.028  24.735  1.00  0.00    -0.332 N 
ATOM     13  O   UNL A   1      36.474  24.132  25.613  1.00  0.00    -0.248 OA
ATOM     14  C   UNL A   1      35.467  23.486  25.336  1.00  0.00     0.319 C 
ATOM     15  N   UNL A   1      35.347  22.201  25.783  1.00  0.00    -0.308 N 
ATOM     16  H   UNL A   1      36.009  21.941  26.463  1.00  0.00     0.171 HD
ATOM     17  H   UNL A   1      33.616  23.439  24.503  1.00  0.00     0.165 HD
BRANCH  15  18
ATOM     18  C   UNL A   1      34.440  21.188  25.437  1.00  0.00     0.046 A 
ATOM     19  C   UNL A   1      33.048  21.343  25.581  1.00  0.00     0.030 A 
ATOM     20  C   UNL A   1      34.963  20.015  24.879  1.00  0.00     0.076 A 
ATOM     21  C   UNL A   1      32.178  20.310  25.212  1.00  0.00     0.053 A 
ATOM     22  C   UNL A   1      34.085  18.991  24.594  1.00  0.00     0.167 A 
ATOM     23  C   UNL A   1      32.730  19.129  24.764  1.00  0.00     0.165 A 
ATOM     24  O   UNL A   1      34.426  17.754  24.143  1.00  0.00    -0.454 OA
ATOM     25  O   UNL A   1      32.049  17.998  24.448  1.00  0.00    -0.454 OA
ATOM     26  C   UNL A   1      33.135  17.109  24.118  1.00  0.00     0.468 C 
ENDBRANCH  15  18
ENDBRANCH   8  12
ENDBRANCH   4   7
ENDBRANCH   2   3
ENDBRANCH   1   2
BRANCH   1  27
ATOM     27  C   UNL A   1      31.544  31.954  26.629  1.00  0.00     0.023 C 
BRANCH  27  28
ATOM     28  C   UNL A   1      32.688  32.668  27.339  1.00  0.00     0.116 C 
BRANCH  28  29
ATOM     29  N   UNL A   1      32.404  34.070  27.615  1.00  0.00    -0.352 N 
ATOM     30  C   UNL A   1      32.983  34.908  28.535  1.00  0.00     0.251 C 
ATOM     31  H   UNL A   1      31.695  34.473  27.063  1.00  0.00     0.163 HD
ATOM     32  O   UNL A   1      32.555  36.043  28.713  1.00  0.00    -0.269 OA
BRANCH  30  33
ATOM     33  C   UNL A   1      34.136  34.424  29.312  1.00  0.00     0.039 A 
ATOM     34  C   UNL A   1      33.922  33.744  30.511  1.00  0.00     0.014 A 
ATOM     35  C   UNL A   1      35.429  34.621  28.821  1.00  0.00     0.014 A 
ATOM     36  C   UNL A   1      35.014  33.200  31.191  1.00  0.00     0.010 A 
ATOM     37  C   UNL A   1      36.500  34.007  29.451  1.00  0.00     0.010 A 
ATOM     38  C   UNL A   1      36.305  33.297  30.647  1.00  0.00    -0.014 A 
BRANCH  38  39
ATOM     39  C   UNL A   1      37.477  32.675  31.306  1.00  0.00     0.031 A 
ATOM     40  C   UNL A   1      38.191  31.535  30.637  1.00  0.00     0.074 A 
ATOM     41  C   UNL A   1      37.838  33.074  32.541  1.00  0.00     0.049 A 
ATOM     42  N   UNL A   1      39.161  30.782  31.091  1.00  0.00    -0.248 NA
ATOM     43  C   UNL A   1      37.730  31.168  29.288  1.00  0.00     0.031 C 
ATOM     44  C   UNL A   1      37.184  34.134  33.312  1.00  0.00     0.029 A 
ATOM     45  N   UNL A   1      38.831  32.623  33.373  1.00  0.00    -0.354 N 
ATOM     46  C   UNL A   1      39.414  29.852  30.092  1.00  0.00     0.074 A 
ATOM     47  C   UNL A   1      38.453  30.089  29.037  1.00  0.00     0.031 C 
ATOM     48  C   UNL A   1      37.805  34.261  34.497  1.00  0.00     0.029 A 
ATOM     49  C   UNL A   1      38.869  33.266  34.585  1.00  0.00     0.049 A 
ATOM     50  H   UNL A   1      39.458  31.906  33.123  1.00  0.00     0.167 HD
ATOM     51  C   UNL A   1      40.380  28.904  30.046  1.00  0.00     0.037 A 
ATOM     52  C   UNL A   1      39.663  33.064  35.653  1.00  0.00     0.037 A 
ATOM     53  C   UNL A   1      41.342  28.685  31.094  1.00  0.00     0.049 A 
ATOM     54  C   UNL A   1      40.720  31.994  35.584  1.00  0.00     0.074 A 
ATOM     55  C   UNL A   1      42.391  27.785  31.129  1.00  0.00     0.029 A 
ATOM     56  N   UNL A   1      41.367  29.377  32.298  1.00  0.00    -0.354 N 
ATOM     57  N   UNL A   1      40.995  31.164  34.607  1.00  0.00    -0.248 NA
ATOM     58  C   UNL A   1      41.582  31.838  36.763  1.00  0.00     0.031 C 
ATOM     59  C   UNL A   1      43.019  27.894  32.373  1.00  0.00     0.029 A 
ATOM     60  C   UNL A   1      42.402  28.906  33.091  1.00  0.00     0.049 A 
ATOM     61  H   UNL A   1      40.743  30.094  32.550  1.00  0.00     0.167 HD
ATOM     62  C   UNL A   1      42.079  30.410  35.039  1.00  0.00     0.074 A 
ATOM     63  C   UNL A   1      42.421  30.895  36.360  1.00  0.00     0.031 C 
ATOM     64  C   UNL A   1      42.732  29.408  34.401  1.00  0.00     0.037 A 
BRANCH  51  65
ATOM     65  C   UNL A   1      40.447  28.040  28.820  1.00  0.00     0.064 A 
ATOM     66  C   UNL A   1      39.750  26.824  28.736  1.00  0.00     0.173 A 
ATOM     67  C   UNL A   1      41.193  28.443  27.700  1.00  0.00     0.173 A 
ATOM     68  F   UNL A   1      39.033  26.385  29.781  1.00  0.00    -0.203 F 
ATOM     69  C   UNL A   1      39.823  26.030  27.595  1.00  0.00     0.198 A 
ATOM     70  C   UNL A   1      41.235  27.664  26.547  1.00  0.00     0.198 A 
ATOM     71  F   UNL A   1      41.876  29.597  27.722  1.00  0.00    -0.203 F 
ATOM     72  F   UNL A   1      39.194  24.848  27.563  1.00  0.00    -0.200 F 
ATOM     73  C   UNL A   1      40.558  26.454  26.498  1.00  0.00     0.200 A 
ATOM     74  F   UNL A   1      41.934  28.082  25.483  1.00  0.00    -0.200 F 
ATOM     75  F   UNL A   1      40.620  25.694  25.397  1.00  0.00    -0.200 F 
ENDBRANCH  51  65
BRANCH  52  76
ATOM     76  C   UNL A   1      39.501  33.901  36.871  1.00  0.00     0.064 A 
ATOM     77  C   UNL A   1      38.739  33.451  37.960  1.00  0.00     0.173 A 
ATOM     78  C   UNL A   1      40.094  35.168  36.972  1.00  0.00     0.173 A 
ATOM     79  F   UNL A   1      38.137  32.254  37.905  1.00  0.00    -0.203 F 
ATOM     80  C   UNL A   1      38.556  34.246  39.089  1.00  0.00     0.198 A 
ATOM     81  C   UNL A   1      39.938  35.949  38.116  1.00  0.00     0.198 A 
ATOM     82  F   UNL A   1      40.840  35.643  35.964  1.00  0.00    -0.203 F 
ATOM     83  F   UNL A   1      37.780  33.812  40.092  1.00  0.00    -0.200 F 
ATOM     84  C   UNL A   1      39.160  35.492  39.169  1.00  0.00     0.200 A 
ATOM     85  F   UNL A   1      40.538  37.143  38.196  1.00  0.00    -0.200 F 
ATOM     86  F   UNL A   1      38.987  36.254  40.257  1.00  0.00    -0.200 F 
ENDBRANCH  52  76
BRANCH  64  87
ATOM     87  C   UNL A   1      43.908  28.795  35.106  1.00  0.00     0.064 A 
ATOM     88  C   UNL A   1      45.213  29.273  34.921  1.00  0.00     0.173 A 
ATOM     89  C   UNL A   1      43.718  27.737  36.009  1.00  0.00     0.173 A 
ATOM     90  F   UNL A   1      45.450  30.272  34.058  1.00  0.00    -0.203 F 
ATOM     91  C   UNL A   1      46.288  28.695  35.592  1.00  0.00     0.198 A 
ATOM     92  C   UNL A   1      44.790  27.186  36.705  1.00  0.00     0.198 A 
ATOM     93  F   UNL A   1      42.488  27.247  36.229  1.00  0.00    -0.203 F 
ATOM     94  F   UNL A   1      47.533  29.133  35.358  1.00  0.00    -0.200 F 
ATOM     95  C   UNL A   1      46.075  27.659  36.489  1.00  0.00     0.200 A 
ATOM     96  F   UNL A   1      44.579  26.197  37.583  1.00  0.00    -0.200 F 
ATOM     97  F   UNL A   1      47.110  27.111  37.140  1.00  0.00    -0.200 F 
ENDBRANCH  64  87
ENDBRANCH  38  39
ENDBRANCH  30  33
ENDBRANCH  28  29
ENDBRANCH  27  28
ENDBRANCH   1  27
TORSDOF 13
ENDMDL
MODEL 3
REMARK VINA RESULT:     -12.8      2.927      4.905
REMARK SMILES O=C(Nc1ccc2c(c1)OCO2)N[C@H]1C=C[C@@H](C(=O)NCCCCNC(=O)c2ccc(-c3c4nc(c(-c5c(F)c(F)c(F)c(F)c5F)c5ccc([nH]5)c(-c5c(F)c(F)c(F)c(F)c5F)c5nc(c(-c6c(F)c(F)c(F)c(F)c6F)c6ccc3[nH]6)C=C5)C=C4)cc2)C1
REMARK SMILES IDX 22 1 21 2 20 3 18 4 19 5 17 7 14 8 15 9 91 10 16 11 13 12
REMARK SMILES IDX 1 13 2 14 3 15 4 18 5 19 9 20 6 21 8 22 7 23 10 24 12 25
REMARK SMILES IDX 11 26 23 27 24 28 25 29 26 30 27 32 28 33 29 34 90 35 30 36
REMARK SMILES IDX 89 37 31 38 32 39 33 40 83 41 34 42 88 43 82 44 84 45 35 46
REMARK SMILES IDX 87 47 81 48 80 49 36 51 68 52 48 53 67 54 49 55 52 56 66 57
REMARK SMILES IDX 85 58 50 59 51 60 65 62 86 63 53 64 37 65 38 66 46 67 39 68
REMARK SMILES IDX 40 69 44 70 47 71 41 72 42 73 45 74 43 75 69 76 70 77 78 78
REMARK SMILES IDX 71 79 72 80 76 81 79 82 73 83 74 84 77 85 75 86 54 87 55 88
REMARK SMILES IDX 63 89 56 90 57 91 61 92 64 93 58 94 59 95 62 96 60 97
REMARK H PARENT 20 6 3 16 13 17 25 31 84 50 52 61
REMARK Flexibility Score: inf
ROOT
ATOM      1  C   UNL A   1      31.792  30.616  26.260  1.00  0.00     0.023 C 
ENDROOT
BRANCH   1   2
ATOM      2  C   UNL A   1      32.318  29.617  27.285  1.00  0.00     0.116 C 
BRANCH   2   3
ATOM      3  N   UNL A   1      31.583  28.373  27.240  1.00  0.00    -0.356 N 
ATOM      4  C   UNL A   1      31.724  27.292  26.426  1.00  0.00     0.227 C 
ATOM      5  O   UNL A   1      30.952  26.346  26.614  1.00  0.00    -0.274 OA
ATOM      6  H   UNL A   1      30.863  28.296  27.908  1.00  0.00     0.163 HD
BRANCH   4   7
ATOM      7  C   UNL A   1      32.788  27.215  25.324  1.00  0.00     0.103 C 
ATOM      8  C   UNL A   1      34.282  25.488  24.396  1.00  0.00     0.107 C 
ATOM      9  C   UNL A   1      33.081  25.715  23.539  1.00  0.00    -0.006 C 
ATOM     10  C   UNL A   1      34.007  26.340  25.650  1.00  0.00     0.047 C 
ATOM     11  C   UNL A   1      32.271  26.659  24.033  1.00  0.00    -0.016 C 
BRANCH   8  12
ATOM     12  N   UNL A   1      34.386  24.079  24.701  1.00  0.00    -0.332 N 
ATOM     13  O   UNL A   1      36.529  24.170  25.479  1.00  0.00    -0.248 OA
ATOM     14  C   UNL A   1      35.507  23.530  25.249  1.00  0.00     0.319 C 
ATOM     15  N   UNL A   1      35.401  22.244  25.700  1.00  0.00    -0.308 N 
ATOM     16  H   UNL A   1      36.094  21.980  26.347  1.00  0.00     0.171 HD
ATOM     17  H   UNL A   1      33.619  23.494  24.505  1.00  0.00     0.165 HD
BRANCH  15  18
ATOM     18  C   UNL A   1      34.474  21.237  25.395  1.00  0.00     0.046 A 
ATOM     19  C   UNL A   1      33.084  21.436  25.505  1.00  0.00     0.030 A 
ATOM     20  C   UNL A   1      34.974  20.020  24.916  1.00  0.00     0.076 A 
ATOM     21  C   UNL A   1      32.192  20.406  25.180  1.00  0.00     0.053 A 
ATOM     22  C   UNL A   1      34.074  19.004  24.675  1.00  0.00     0.167 A 
ATOM     23  C   UNL A   1      32.720  19.188  24.811  1.00  0.00     0.165 A 
ATOM     24  O   UNL A   1      34.389  17.735  24.302  1.00  0.00    -0.454 OA
ATOM     25  O   UNL A   1      32.014  18.058  24.548  1.00  0.00    -0.454 OA
ATOM     26  C   UNL A   1      33.081  17.124  24.290  1.00  0.00     0.468 C 
ENDBRANCH  15  18
ENDBRANCH   8  12
ENDBRANCH   4   7
ENDBRANCH   2   3
ENDBRANCH   1   2
BRANCH   1  27
ATOM     27  C   UNL A   1      31.482  32.002  26.820  1.00  0.00     0.023 C 
BRANCH  27  28
ATOM     28  C   UNL A   1      32.688  32.771  27.346  1.00  0.00     0.116 C 
BRANCH  28  29
ATOM     29  N   UNL A   1      32.393  34.166  27.642  1.00  0.00    -0.352 N 
ATOM     30  C   UNL A   1      32.961  34.994  28.577  1.00  0.00     0.251 C 
ATOM     31  H   UNL A   1      31.683  34.572  27.093  1.00  0.00     0.163 HD
ATOM     32  O   UNL A   1      32.524  36.123  28.771  1.00  0.00    -0.269 OA
BRANCH  30  33
ATOM     33  C   UNL A   1      34.113  34.506  29.352  1.00  0.00     0.039 A 
ATOM     34  C   UNL A   1      33.902  33.877  30.580  1.00  0.00     0.014 A 
ATOM     35  C   UNL A   1      35.403  34.648  28.833  1.00  0.00     0.014 A 
ATOM     36  C   UNL A   1      34.990  33.328  31.261  1.00  0.00     0.010 A 
ATOM     37  C   UNL A   1      36.467  34.028  29.468  1.00  0.00     0.010 A 
ATOM     38  C   UNL A   1      36.274  33.368  30.692  1.00  0.00    -0.014 A 
BRANCH  38  39
ATOM     39  C   UNL A   1      37.439  32.737  31.355  1.00  0.00     0.031 A 
ATOM     40  C   UNL A   1      38.135  31.579  30.697  1.00  0.00     0.074 A 
ATOM     41  C   UNL A   1      37.811  33.147  32.583  1.00  0.00     0.049 A 
ATOM     42  N   UNL A   1      39.095  30.818  31.156  1.00  0.00    -0.248 NA
ATOM     43  C   UNL A   1      37.663  31.202  29.354  1.00  0.00     0.031 C 
ATOM     44  C   UNL A   1      37.176  34.225  33.344  1.00  0.00     0.029 A 
ATOM     45  N   UNL A   1      38.801  32.691  33.417  1.00  0.00    -0.354 N 
ATOM     46  C   UNL A   1      39.331  29.873  30.169  1.00  0.00     0.074 A 
ATOM     47  C   UNL A   1      38.369  30.110  29.114  1.00  0.00     0.031 C 
ATOM     48  C   UNL A   1      37.803  34.358  34.524  1.00  0.00     0.029 A 
ATOM     49  C   UNL A   1      38.853  33.349  34.620  1.00  0.00     0.049 A 
ATOM     50  H   UNL A   1      39.417  31.963  33.173  1.00  0.00     0.167 HD
ATOM     51  C   UNL A   1      40.284  28.910  30.130  1.00  0.00     0.037 A 
ATOM     52  C   UNL A   1      39.648  33.149  35.688  1.00  0.00     0.037 A 
ATOM     53  C   UNL A   1      41.246  28.691  31.178  1.00  0.00     0.049 A 
ATOM     54  C   UNL A   1      40.689  32.063  35.629  1.00  0.00     0.074 A 
ATOM     55  C   UNL A   1      42.283  27.776  31.220  1.00  0.00     0.029 A 
ATOM     56  N   UNL A   1      41.286  29.396  32.373  1.00  0.00    -0.354 N 
ATOM     57  N   UNL A   1      40.949  31.217  34.661  1.00  0.00    -0.248 NA
ATOM     58  C   UNL A   1      41.554  31.910  36.806  1.00  0.00     0.031 C 
ATOM     59  C   UNL A   1      42.917  27.892  32.460  1.00  0.00     0.029 A 
ATOM     60  C   UNL A   1      42.317  28.922  33.167  1.00  0.00     0.049 A 
ATOM     61  H   UNL A   1      40.673  30.126  32.618  1.00  0.00     0.167 HD
ATOM     62  C   UNL A   1      42.024  30.454  35.098  1.00  0.00     0.074 A 
ATOM     63  C   UNL A   1      42.378  30.950  36.411  1.00  0.00     0.031 C 
ATOM     64  C   UNL A   1      42.660  29.434  34.470  1.00  0.00     0.037 A 
BRANCH  51  65
ATOM     65  C   UNL A   1      40.334  28.030  28.915  1.00  0.00     0.064 A 
ATOM     66  C   UNL A   1      41.083  28.382  27.781  1.00  0.00     0.173 A 
ATOM     67  C   UNL A   1      39.649  26.804  28.891  1.00  0.00     0.173 A 
ATOM     68  F   UNL A   1      41.746  29.547  27.746  1.00  0.00    -0.203 F 
ATOM     69  C   UNL A   1      41.120  27.558  26.659  1.00  0.00     0.198 A 
ATOM     70  C   UNL A   1      39.717  25.967  27.781  1.00  0.00     0.198 A 
ATOM     71  F   UNL A   1      38.921  26.415  29.947  1.00  0.00    -0.203 F 
ATOM     72  F   UNL A   1      41.796  27.944  25.569  1.00  0.00    -0.200 F 
ATOM     73  C   UNL A   1      40.443  26.348  26.663  1.00  0.00     0.200 A 
ATOM     74  F   UNL A   1      39.074  24.790  27.791  1.00  0.00    -0.200 F 
ATOM     75  F   UNL A   1      40.486  25.552  25.586  1.00  0.00    -0.200 F 
ENDBRANCH  51  65
BRANCH  52  76
ATOM     76  C   UNL A   1      39.502  34.003  36.897  1.00  0.00     0.064 A 
ATOM     77  C   UNL A   1      40.134  35.253  36.977  1.00  0.00     0.173 A 
ATOM     78  C   UNL A   1      38.738  33.589  37.997  1.00  0.00     0.173 A 
ATOM     79  F   UNL A   1      40.890  35.687  35.958  1.00  0.00    -0.203 F 
ATOM     80  C   UNL A   1      40.028  36.042  38.121  1.00  0.00     0.198 A 
ATOM     81  C   UNL A   1      38.605  34.393  39.128  1.00  0.00     0.198 A 
ATOM     82  F   UNL A   1      38.105  32.406  37.969  1.00  0.00    -0.203 F 
ATOM     83  F   UNL A   1      40.684  37.207  38.190  1.00  0.00    -0.200 F 
ATOM     84  C   UNL A   1      39.258  35.614  39.192  1.00  0.00     0.200 A 
ATOM     85  F   UNL A   1      37.846  33.984  40.153  1.00  0.00    -0.200 F 
ATOM     86  F   UNL A   1      39.153  36.375  40.290  1.00  0.00    -0.200 F 
ENDBRANCH  52  76
BRANCH  64  87
ATOM     87  C   UNL A   1      43.830  28.813  35.178  1.00  0.00     0.064 A 
ATOM     88  C   UNL A   1      43.673  27.741  36.068  1.00  0.00     0.173 A 
ATOM     89  C   UNL A   1      45.132  29.275  34.930  1.00  0.00     0.173 A 
ATOM     90  F   UNL A   1      42.448  27.271  36.350  1.00  0.00    -0.203 F 
ATOM     91  C   UNL A   1      44.773  27.174  36.706  1.00  0.00     0.198 A 
ATOM     92  C   UNL A   1      46.233  28.683  35.542  1.00  0.00     0.198 A 
ATOM     93  F   UNL A   1      45.339  30.294  34.081  1.00  0.00    -0.203 F 
ATOM     94  F   UNL A   1      44.593  26.185  37.593  1.00  0.00    -0.200 F 
ATOM     95  C   UNL A   1      46.051  27.639  36.436  1.00  0.00     0.200 A 
ATOM     96  F   UNL A   1      47.467  29.123  35.267  1.00  0.00    -0.200 F 
ATOM     97  F   UNL A   1      47.109  27.085  37.044  1.00  0.00    -0.200 F 
ENDBRANCH  64  87
ENDBRANCH  38  39
ENDBRANCH  30  33
ENDBRANCH  28  29
ENDBRANCH  27  28
ENDBRANCH   1  27
TORSDOF 13
ENDMDL
