MODEL 1
REMARK VINA RESULT:     -10.4      0.000      0.000
REMARK SMILES CC(C)(O)CC[NH2+]CC(=O)NCCCCNC(=O)c1ccc(-c2c3nc(c(-c4c(F)c(F)c(F)c(F)c4F)c4ccc([nH]4)c(-c4c(F)c(F)c(F)c(F)c4F)c4nc(c(-c5c(F)c(F)c(F)c(F)c5F)c5ccc2[nH]5)C=C4)C=C3)cc1
REMARK SMILES IDX 12 1 11 2 9 3 10 4 8 6 7 7 6 10 5 11 2 12 1 13 3 14 4 15
REMARK SMILES IDX 13 17 14 18 15 19 16 20 17 21 18 23 19 24 20 25 81 26 21 27
REMARK SMILES IDX 80 28 22 29 23 30 24 31 74 32 25 33 79 34 73 35 75 36 26 37
REMARK SMILES IDX 78 38 72 39 71 40 27 42 59 43 39 44 58 45 40 46 43 47 57 48
REMARK SMILES IDX 76 49 41 50 42 51 56 53 77 54 44 55 28 56 29 57 37 58 30 59
REMARK SMILES IDX 31 60 35 61 38 62 32 63 33 64 36 65 34 66 60 67 61 68 69 69
REMARK SMILES IDX 62 70 63 71 67 72 70 73 64 74 65 75 68 76 66 77 45 78 46 79
REMARK SMILES IDX 54 80 47 81 48 82 52 83 55 84 49 85 50 86 53 87 51 88
REMARK H PARENT 11 5 7 8 7 9 4 16 16 22 75 41 43 52
REMARK Flexibility Score: inf
ROOT
ATOM      1  C   UNL A   1      36.412  21.436  25.234  1.00  0.00     0.116 C 
ENDROOT
BRANCH   1   2
ATOM      2  N   UNL A   1      35.710  21.662  26.487  1.00  0.00    -0.351 N 
ATOM      3  C   UNL A   1      34.368  21.733  26.747  1.00  0.00     0.275 C 
ATOM      4  O   UNL A   1      34.021  22.088  27.878  1.00  0.00    -0.269 OA
ATOM      5  H   UNL A   1      36.292  21.783  27.272  1.00  0.00     0.163 HD
BRANCH   3   6
ATOM      6  C   UNL A   1      33.317  21.399  25.669  1.00  0.00     0.361 C 
BRANCH   6   7
ATOM      7  N   UNL A   1      32.580  20.138  25.959  1.00  0.00    -0.338 N 
ATOM      8  H   UNL A   1      32.807  19.822  26.901  1.00  0.00     0.346 HD
ATOM      9  H   UNL A   1      31.576  20.308  25.888  1.00  0.00     0.346 HD
BRANCH   7  10
ATOM     10  C   UNL A   1      32.965  19.113  24.997  1.00  0.00     0.263 C 
BRANCH  10  11
ATOM     11  C   UNL A   1      32.451  17.682  25.157  1.00  0.00     0.096 C 
BRANCH  11  12
ATOM     12  C   UNL A   1      33.473  16.550  24.898  1.00  0.00     0.064 C 
ATOM     13  C   UNL A   1      33.952  16.534  23.448  1.00  0.00     0.042 C 
ATOM     14  C   UNL A   1      32.846  15.203  25.272  1.00  0.00     0.042 C 
BRANCH  12  15
ATOM     15  O   UNL A   1      34.611  16.714  25.750  1.00  0.00    -0.390 OA
ATOM     16  H   UNL A   1      34.799  17.659  25.861  1.00  0.00     0.211 HD
ENDBRANCH  12  15
ENDBRANCH  11  12
ENDBRANCH  10  11
ENDBRANCH   7  10
ENDBRANCH   6   7
ENDBRANCH   3   6
ENDBRANCH   1   2
BRANCH   1  17
ATOM     17  C   UNL A   1      36.717  19.948  25.003  1.00  0.00     0.023 C 
BRANCH  17  18
ATOM     18  C   UNL A   1      38.170  19.602  24.739  1.00  0.00     0.023 C 
BRANCH  18  19
ATOM     19  C   UNL A   1      39.071  19.753  25.944  1.00  0.00     0.116 C 
BRANCH  19  20
ATOM     20  N   UNL A   1      40.268  18.924  25.883  1.00  0.00    -0.352 N 
ATOM     21  C   UNL A   1      41.580  19.295  26.077  1.00  0.00     0.251 C 
ATOM     22  H   UNL A   1      40.118  17.974  25.675  1.00  0.00     0.163 HD
ATOM     23  O   UNL A   1      42.491  18.507  25.895  1.00  0.00    -0.269 OA
BRANCH  21  24
ATOM     24  C   UNL A   1      41.861  20.693  26.465  1.00  0.00     0.039 A 
ATOM     25  C   UNL A   1      42.244  20.966  27.778  1.00  0.00     0.014 A 
ATOM     26  C   UNL A   1      41.836  21.704  25.503  1.00  0.00     0.014 A 
ATOM     27  C   UNL A   1      42.681  22.249  28.107  1.00  0.00     0.010 A 
ATOM     28  C   UNL A   1      42.375  22.945  25.804  1.00  0.00     0.010 A 
ATOM     29  C   UNL A   1      42.791  23.234  27.111  1.00  0.00    -0.014 A 
BRANCH  29  30
ATOM     30  C   UNL A   1      43.309  24.589  27.412  1.00  0.00     0.031 A 
ATOM     31  C   UNL A   1      42.381  25.616  27.999  1.00  0.00     0.074 A 
ATOM     32  C   UNL A   1      44.573  24.916  27.083  1.00  0.00     0.049 A 
ATOM     33  N   UNL A   1      42.595  26.885  28.239  1.00  0.00    -0.248 NA
ATOM     34  C   UNL A   1      41.015  25.168  28.319  1.00  0.00     0.031 C 
ATOM     35  C   UNL A   1      45.543  24.022  26.448  1.00  0.00     0.029 A 
ATOM     36  N   UNL A   1      45.254  26.097  27.226  1.00  0.00    -0.354 N 
ATOM     37  C   UNL A   1      41.388  27.383  28.709  1.00  0.00     0.074 A 
ATOM     38  C   UNL A   1      40.429  26.304  28.660  1.00  0.00     0.031 C 
ATOM     39  C   UNL A   1      46.703  24.678  26.282  1.00  0.00     0.029 A 
ATOM     40  C   UNL A   1      46.547  26.047  26.765  1.00  0.00     0.049 A 
ATOM     41  H   UNL A   1      44.855  26.905  27.623  1.00  0.00     0.167 HD
ATOM     42  C   UNL A   1      41.112  28.625  29.173  1.00  0.00     0.037 A 
ATOM     43  C   UNL A   1      47.495  27.002  26.737  1.00  0.00     0.037 A 
ATOM     44  C   UNL A   1      42.083  29.680  29.265  1.00  0.00     0.049 A 
ATOM     45  C   UNL A   1      47.175  28.364  27.290  1.00  0.00     0.074 A 
ATOM     46  C   UNL A   1      41.929  30.953  29.783  1.00  0.00     0.029 A 
ATOM     47  N   UNL A   1      43.398  29.577  28.832  1.00  0.00    -0.354 N 
ATOM     48  N   UNL A   1      46.049  28.807  27.797  1.00  0.00    -0.248 NA
ATOM     49  C   UNL A   1      48.257  29.357  27.274  1.00  0.00     0.031 C 
ATOM     50  C   UNL A   1      43.143  31.632  29.634  1.00  0.00     0.029 A 
ATOM     51  C   UNL A   1      44.064  30.768  29.063  1.00  0.00     0.049 A 
ATOM     52  H   UNL A   1      43.798  28.775  28.424  1.00  0.00     0.167 HD
ATOM     53  C   UNL A   1      46.294  30.116  28.185  1.00  0.00     0.074 A 
ATOM     54  C   UNL A   1      47.681  30.393  27.869  1.00  0.00     0.031 C 
ATOM     55  C   UNL A   1      45.449  31.012  28.750  1.00  0.00     0.037 A 
BRANCH  42  56
ATOM     56  C   UNL A   1      39.709  28.895  29.632  1.00  0.00     0.064 A 
ATOM     57  C   UNL A   1      38.737  29.407  28.759  1.00  0.00     0.173 A 
ATOM     58  C   UNL A   1      39.327  28.622  30.954  1.00  0.00     0.173 A 
ATOM     59  F   UNL A   1      39.057  29.701  27.489  1.00  0.00    -0.203 F 
ATOM     60  C   UNL A   1      37.443  29.665  29.200  1.00  0.00     0.198 A 
ATOM     61  C   UNL A   1      38.022  28.853  31.383  1.00  0.00     0.198 A 
ATOM     62  F   UNL A   1      40.216  28.131  31.829  1.00  0.00    -0.203 F 
ATOM     63  F   UNL A   1      36.547  30.206  28.362  1.00  0.00    -0.200 F 
ATOM     64  C   UNL A   1      37.084  29.382  30.510  1.00  0.00     0.200 A 
ATOM     65  F   UNL A   1      37.674  28.568  32.646  1.00  0.00    -0.200 F 
ATOM     66  F   UNL A   1      35.836  29.625  30.931  1.00  0.00    -0.200 F 
ENDBRANCH  42  56
BRANCH  43  67
ATOM     67  C   UNL A   1      48.847  26.694  26.201  1.00  0.00     0.064 A 
ATOM     68  C   UNL A   1      49.824  26.101  27.014  1.00  0.00     0.173 A 
ATOM     69  C   UNL A   1      49.192  26.986  24.874  1.00  0.00     0.173 A 
ATOM     70  F   UNL A   1      49.546  25.821  28.296  1.00  0.00    -0.203 F 
ATOM     71  C   UNL A   1      51.101  25.834  26.526  1.00  0.00     0.198 A 
ATOM     72  C   UNL A   1      50.462  26.694  24.380  1.00  0.00     0.198 A 
ATOM     73  F   UNL A   1      48.292  27.547  24.053  1.00  0.00    -0.203 F 
ATOM     74  F   UNL A   1      52.029  25.309  27.338  1.00  0.00    -0.200 F 
ATOM     75  C   UNL A   1      51.418  26.126  25.209  1.00  0.00     0.200 A 
ATOM     76  F   UNL A   1      50.760  26.963  23.101  1.00  0.00    -0.200 F 
ATOM     77  F   UNL A   1      52.646  25.866  24.740  1.00  0.00    -0.200 F 
ENDBRANCH  43  67
BRANCH  55  78
ATOM     78  C   UNL A   1      46.008  32.360  29.095  1.00  0.00     0.064 A 
ATOM     79  C   UNL A   1      46.625  32.604  30.330  1.00  0.00     0.173 A 
ATOM     80  C   UNL A   1      45.967  33.404  28.159  1.00  0.00     0.173 A 
ATOM     81  F   UNL A   1      46.675  31.641  31.262  1.00  0.00    -0.203 F 
ATOM     82  C   UNL A   1      47.163  33.855  30.623  1.00  0.00     0.198 A 
ATOM     83  C   UNL A   1      46.531  34.644  28.445  1.00  0.00     0.198 A 
ATOM     84  F   UNL A   1      45.393  33.216  26.961  1.00  0.00    -0.203 F 
ATOM     85  F   UNL A   1      47.710  34.080  31.826  1.00  0.00    -0.200 F 
ATOM     86  C   UNL A   1      47.122  34.869  29.679  1.00  0.00     0.200 A 
ATOM     87  F   UNL A   1      46.502  35.619  27.526  1.00  0.00    -0.200 F 
ATOM     88  F   UNL A   1      47.648  36.069  29.961  1.00  0.00    -0.200 F 
ENDBRANCH  55  78
ENDBRANCH  29  30
ENDBRANCH  21  24
ENDBRANCH  19  20
ENDBRANCH  18  19
ENDBRANCH  17  18
ENDBRANCH   1  17
TORSDOF 16
ENDMDL
MODEL 2
REMARK VINA RESULT:     -10.3      5.176     10.012
REMARK SMILES CC(C)(O)CC[NH2+]CC(=O)NCCCCNC(=O)c1ccc(-c2c3nc(c(-c4c(F)c(F)c(F)c(F)c4F)c4ccc([nH]4)c(-c4c(F)c(F)c(F)c(F)c4F)c4nc(c(-c5c(F)c(F)c(F)c(F)c5F)c5ccc2[nH]5)C=C4)C=C3)cc1
REMARK SMILES IDX 12 1 11 2 9 3 10 4 8 6 7 7 6 10 5 11 2 12 1 13 3 14 4 15
REMARK SMILES IDX 13 17 14 18 15 19 16 20 17 21 18 23 19 24 20 25 81 26 21 27
REMARK SMILES IDX 80 28 22 29 23 30 24 31 74 32 25 33 79 34 73 35 75 36 26 37
REMARK SMILES IDX 78 38 72 39 71 40 27 42 59 43 39 44 58 45 40 46 43 47 57 48
REMARK SMILES IDX 76 49 41 50 42 51 56 53 77 54 44 55 28 56 29 57 37 58 30 59
REMARK SMILES IDX 31 60 35 61 38 62 32 63 33 64 36 65 34 66 60 67 61 68 69 69
REMARK SMILES IDX 62 70 63 71 67 72 70 73 64 74 65 75 68 76 66 77 45 78 46 79
REMARK SMILES IDX 54 80 47 81 48 82 52 83 55 84 49 85 50 86 53 87 51 88
REMARK H PARENT 11 5 7 8 7 9 4 16 16 22 75 41 43 52
REMARK Flexibility Score: inf
ROOT
ATOM      1  C   UNL A   1      33.098  34.734  28.727  1.00  0.00     0.116 C 
ENDROOT
BRANCH   1   2
ATOM      2  N   UNL A   1      32.831  35.907  29.545  1.00  0.00    -0.351 N 
ATOM      3  C   UNL A   1      33.141  36.160  30.854  1.00  0.00     0.275 C 
ATOM      4  O   UNL A   1      32.668  37.179  31.368  1.00  0.00    -0.269 OA
ATOM      5  H   UNL A   1      32.351  36.633  29.084  1.00  0.00     0.163 HD
BRANCH   3   6
ATOM      6  C   UNL A   1      34.036  35.207  31.672  1.00  0.00     0.361 C 
BRANCH   6   7
ATOM      7  N   UNL A   1      33.345  34.662  32.873  1.00  0.00    -0.338 N 
ATOM      8  H   UNL A   1      33.352  35.361  33.615  1.00  0.00     0.346 HD
ATOM      9  H   UNL A   1      32.381  34.429  32.632  1.00  0.00     0.346 HD
BRANCH   7  10
ATOM     10  C   UNL A   1      34.032  33.461  33.331  1.00  0.00     0.263 C 
BRANCH  10  11
ATOM     11  C   UNL A   1      34.981  32.717  32.392  1.00  0.00     0.096 C 
BRANCH  11  12
ATOM     12  C   UNL A   1      36.445  32.568  32.868  1.00  0.00     0.064 C 
ATOM     13  C   UNL A   1      36.854  33.694  33.816  1.00  0.00     0.042 C 
ATOM     14  C   UNL A   1      37.375  32.526  31.650  1.00  0.00     0.042 C 
BRANCH  12  15
ATOM     15  O   UNL A   1      36.615  31.320  33.547  1.00  0.00    -0.390 OA
ATOM     16  H   UNL A   1      35.766  30.852  33.581  1.00  0.00     0.211 HD
ENDBRANCH  12  15
ENDBRANCH  11  12
ENDBRANCH  10  11
ENDBRANCH   7  10
ENDBRANCH   6   7
ENDBRANCH   3   6
ENDBRANCH   1   2
BRANCH   1  17
ATOM     17  C   UNL A   1      34.525  34.740  28.160  1.00  0.00     0.023 C 
BRANCH  17  18
ATOM     18  C   UNL A   1      35.227  33.395  28.118  1.00  0.00     0.023 C 
BRANCH  18  19
ATOM     19  C   UNL A   1      34.647  32.364  29.060  1.00  0.00     0.116 C 
BRANCH  19  20
ATOM     20  N   UNL A   1      34.084  31.205  28.379  1.00  0.00    -0.352 N 
ATOM     21  C   UNL A   1      34.715  30.041  28.002  1.00  0.00     0.251 C 
ATOM     22  H   UNL A   1      33.127  31.264  28.159  1.00  0.00     0.163 HD
ATOM     23  O   UNL A   1      34.135  29.193  27.347  1.00  0.00    -0.269 OA
BRANCH  21  24
ATOM     24  C   UNL A   1      36.135  29.865  28.370  1.00  0.00     0.039 A 
ATOM     25  C   UNL A   1      36.449  29.350  29.628  1.00  0.00     0.014 A 
ATOM     26  C   UNL A   1      37.138  30.121  27.433  1.00  0.00     0.014 A 
ATOM     27  C   UNL A   1      37.772  29.015  29.916  1.00  0.00     0.010 A 
ATOM     28  C   UNL A   1      38.430  29.685  27.680  1.00  0.00     0.010 A 
ATOM     29  C   UNL A   1      38.763  29.139  28.928  1.00  0.00    -0.014 A 
BRANCH  29  30
ATOM     30  C   UNL A   1      40.166  28.736  29.179  1.00  0.00     0.031 A 
ATOM     31  C   UNL A   1      41.087  29.687  29.892  1.00  0.00     0.074 A 
ATOM     32  C   UNL A   1      40.628  27.567  28.698  1.00  0.00     0.049 A 
ATOM     33  N   UNL A   1      42.371  29.583  30.120  1.00  0.00    -0.248 NA
ATOM     34  C   UNL A   1      40.493  30.945  30.376  1.00  0.00     0.031 C 
ATOM     35  C   UNL A   1      39.844  26.594  27.935  1.00  0.00     0.029 A 
ATOM     36  N   UNL A   1      41.876  27.003  28.770  1.00  0.00    -0.354 N 
ATOM     37  C   UNL A   1      42.736  30.767  30.745  1.00  0.00     0.074 A 
ATOM     38  C   UNL A   1      41.559  31.603  30.803  1.00  0.00     0.031 C 
ATOM     39  C   UNL A   1      40.622  25.542  27.632  1.00  0.00     0.029 A 
ATOM     40  C   UNL A   1      41.966  25.782  28.149  1.00  0.00     0.049 A 
ATOM     41  H   UNL A   1      42.636  27.433  29.225  1.00  0.00     0.167 HD
ATOM     42  C   UNL A   1      43.941  31.114  31.257  1.00  0.00     0.037 A 
ATOM     43  C   UNL A   1      43.018  24.953  28.014  1.00  0.00     0.037 A 
ATOM     44  C   UNL A   1      45.095  30.258  31.240  1.00  0.00     0.049 A 
ATOM     45  C   UNL A   1      44.338  25.345  28.622  1.00  0.00     0.074 A 
ATOM     46  C   UNL A   1      46.344  30.481  31.789  1.00  0.00     0.029 A 
ATOM     47  N   UNL A   1      45.135  29.005  30.643  1.00  0.00    -0.354 N 
ATOM     48  N   UNL A   1      44.656  26.439  29.272  1.00  0.00    -0.248 NA
ATOM     49  C   UNL A   1      45.442  24.387  28.483  1.00  0.00     0.031 C 
ATOM     50  C   UNL A   1      47.151  29.376  31.498  1.00  0.00     0.029 A 
ATOM     51  C   UNL A   1      46.392  28.447  30.804  1.00  0.00     0.049 A 
ATOM     52  H   UNL A   1      44.381  28.576  30.177  1.00  0.00     0.167 HD
ATOM     53  C   UNL A   1      45.985  26.289  29.644  1.00  0.00     0.074 A 
ATOM     54  C   UNL A   1      46.410  24.991  29.159  1.00  0.00     0.031 C 
ATOM     55  C   UNL A   1      46.784  27.148  30.323  1.00  0.00     0.037 A 
BRANCH  42  56
ATOM     56  C   UNL A   1      44.058  32.468  31.892  1.00  0.00     0.064 A 
ATOM     57  C   UNL A   1      44.414  33.601  31.144  1.00  0.00     0.173 A 
ATOM     58  C   UNL A   1      43.794  32.639  33.259  1.00  0.00     0.173 A 
ATOM     59  F   UNL A   1      44.694  33.487  29.837  1.00  0.00    -0.203 F 
ATOM     60  C   UNL A   1      44.530  34.850  31.748  1.00  0.00     0.198 A 
ATOM     61  C   UNL A   1      43.882  33.895  33.852  1.00  0.00     0.198 A 
ATOM     62  F   UNL A   1      43.449  31.589  34.019  1.00  0.00    -0.203 F 
ATOM     63  F   UNL A   1      44.926  35.907  31.025  1.00  0.00    -0.200 F 
ATOM     64  C   UNL A   1      44.258  34.997  33.100  1.00  0.00     0.200 A 
ATOM     65  F   UNL A   1      43.608  34.039  35.157  1.00  0.00    -0.200 F 
ATOM     66  F   UNL A   1      44.366  36.201  33.679  1.00  0.00    -0.200 F 
ENDBRANCH  42  56
BRANCH  43  67
ATOM     67  C   UNL A   1      42.858  23.655  27.309  1.00  0.00     0.064 A 
ATOM     68  C   UNL A   1      42.306  22.545  27.963  1.00  0.00     0.173 A 
ATOM     69  C   UNL A   1      43.254  23.494  25.973  1.00  0.00     0.173 A 
ATOM     70  F   UNL A   1      41.929  22.645  29.247  1.00  0.00    -0.203 F 
ATOM     71  C   UNL A   1      42.177  21.318  27.317  1.00  0.00     0.198 A 
ATOM     72  C   UNL A   1      43.101  22.273  25.320  1.00  0.00     0.198 A 
ATOM     73  F   UNL A   1      43.782  24.527  25.300  1.00  0.00    -0.203 F 
ATOM     74  F   UNL A   1      41.687  20.261  27.981  1.00  0.00    -0.200 F 
ATOM     75  C   UNL A   1      42.570  21.183  25.994  1.00  0.00     0.200 A 
ATOM     76  F   UNL A   1      43.468  22.151  24.037  1.00  0.00    -0.200 F 
ATOM     77  F   UNL A   1      42.443  20.004  25.373  1.00  0.00    -0.200 F 
ENDBRANCH  43  67
BRANCH  55  78
ATOM     78  C   UNL A   1      48.185  26.698  30.612  1.00  0.00     0.064 A 
ATOM     79  C   UNL A   1      49.237  26.956  29.723  1.00  0.00     0.173 A 
ATOM     80  C   UNL A   1      48.483  26.043  31.816  1.00  0.00     0.173 A 
ATOM     81  F   UNL A   1      48.997  27.566  28.553  1.00  0.00    -0.203 F 
ATOM     82  C   UNL A   1      50.536  26.554  30.020  1.00  0.00     0.198 A 
ATOM     83  C   UNL A   1      49.788  25.669  32.123  1.00  0.00     0.198 A 
ATOM     84  F   UNL A   1      47.511  25.781  32.703  1.00  0.00    -0.203 F 
ATOM     85  F   UNL A   1      51.520  26.773  29.136  1.00  0.00    -0.200 F 
ATOM     86  C   UNL A   1      50.812  25.919  31.221  1.00  0.00     0.200 A 
ATOM     87  F   UNL A   1      50.055  25.067  33.290  1.00  0.00    -0.200 F 
ATOM     88  F   UNL A   1      52.065  25.542  31.508  1.00  0.00    -0.200 F 
ENDBRANCH  55  78
ENDBRANCH  29  30
ENDBRANCH  21  24
ENDBRANCH  19  20
ENDBRANCH  18  19
ENDBRANCH  17  18
ENDBRANCH   1  17
TORSDOF 16
ENDMDL
MODEL 3
REMARK VINA RESULT:     -10.2      5.155     10.114
REMARK SMILES CC(C)(O)CC[NH2+]CC(=O)NCCCCNC(=O)c1ccc(-c2c3nc(c(-c4c(F)c(F)c(F)c(F)c4F)c4ccc([nH]4)c(-c4c(F)c(F)c(F)c(F)c4F)c4nc(c(-c5c(F)c(F)c(F)c(F)c5F)c5ccc2[nH]5)C=C4)C=C3)cc1
REMARK SMILES IDX 12 1 11 2 9 3 10 4 8 6 7 7 6 10 5 11 2 12 1 13 3 14 4 15
REMARK SMILES IDX 13 17 14 18 15 19 16 20 17 21 18 23 19 24 20 25 81 26 21 27
REMARK SMILES IDX 80 28 22 29 23 30 24 31 74 32 25 33 79 34 73 35 75 36 26 37
REMARK SMILES IDX 78 38 72 39 71 40 27 42 59 43 39 44 58 45 40 46 43 47 57 48
REMARK SMILES IDX 76 49 41 50 42 51 56 53 77 54 44 55 28 56 29 57 37 58 30 59
REMARK SMILES IDX 31 60 35 61 38 62 32 63 33 64 36 65 34 66 60 67 61 68 69 69
REMARK SMILES IDX 62 70 63 71 67 72 70 73 64 74 65 75 68 76 66 77 45 78 46 79
REMARK SMILES IDX 54 80 47 81 48 82 52 83 55 84 49 85 50 86 53 87 51 88
REMARK H PARENT 11 5 7 8 7 9 4 16 16 22 75 41 43 52
REMARK Flexibility Score: inf
ROOT
ATOM      1  C   UNL A   1      33.174  34.694  28.574  1.00  0.00     0.116 C 
ENDROOT
BRANCH   1   2
ATOM      2  N   UNL A   1      32.950  35.926  29.314  1.00  0.00    -0.351 N 
ATOM      3  C   UNL A   1      33.180  36.219  30.631  1.00  0.00     0.275 C 
ATOM      4  O   UNL A   1      32.762  37.299  31.060  1.00  0.00    -0.269 OA
ATOM      5  H   UNL A   1      32.572  36.665  28.784  1.00  0.00     0.163 HD
BRANCH   3   6
ATOM      6  C   UNL A   1      33.923  35.237  31.560  1.00  0.00     0.361 C 
BRANCH   6   7
ATOM      7  N   UNL A   1      34.807  35.930  32.538  1.00  0.00    -0.338 N 
ATOM      8  H   UNL A   1      35.586  36.363  32.043  1.00  0.00     0.346 HD
ATOM      9  H   UNL A   1      34.272  36.649  33.027  1.00  0.00     0.346 HD
BRANCH   7  10
ATOM     10  C   UNL A   1      35.320  34.967  33.504  1.00  0.00     0.263 C 
BRANCH  10  11
ATOM     11  C   UNL A   1      35.064  33.473  33.305  1.00  0.00     0.096 C 
BRANCH  11  12
ATOM     12  C   UNL A   1      36.289  32.609  32.926  1.00  0.00     0.064 C 
ATOM     13  C   UNL A   1      37.144  32.266  34.144  1.00  0.00     0.042 C 
ATOM     14  C   UNL A   1      37.125  33.346  31.873  1.00  0.00     0.042 C 
BRANCH  12  15
ATOM     15  O   UNL A   1      35.859  31.389  32.316  1.00  0.00    -0.390 OA
ATOM     16  H   UNL A   1      34.975  31.511  31.937  1.00  0.00     0.211 HD
ENDBRANCH  12  15
ENDBRANCH  11  12
ENDBRANCH  10  11
ENDBRANCH   7  10
ENDBRANCH   6   7
ENDBRANCH   3   6
ENDBRANCH   1   2
BRANCH   1  17
ATOM     17  C   UNL A   1      34.599  34.614  28.006  1.00  0.00     0.023 C 
BRANCH  17  18
ATOM     18  C   UNL A   1      35.308  33.284  28.181  1.00  0.00     0.023 C 
BRANCH  18  19
ATOM     19  C   UNL A   1      34.584  32.310  29.083  1.00  0.00     0.116 C 
BRANCH  19  20
ATOM     20  N   UNL A   1      34.039  31.158  28.376  1.00  0.00    -0.352 N 
ATOM     21  C   UNL A   1      34.688  30.012  27.974  1.00  0.00     0.251 C 
ATOM     22  H   UNL A   1      33.080  31.206  28.156  1.00  0.00     0.163 HD
ATOM     23  O   UNL A   1      34.121  29.170  27.299  1.00  0.00    -0.269 OA
BRANCH  21  24
ATOM     24  C   UNL A   1      36.110  29.850  28.340  1.00  0.00     0.039 A 
ATOM     25  C   UNL A   1      36.431  29.325  29.592  1.00  0.00     0.014 A 
ATOM     26  C   UNL A   1      37.109  30.128  27.405  1.00  0.00     0.014 A 
ATOM     27  C   UNL A   1      37.758  29.003  29.876  1.00  0.00     0.010 A 
ATOM     28  C   UNL A   1      38.406  29.705  27.647  1.00  0.00     0.010 A 
ATOM     29  C   UNL A   1      38.746  29.150  28.889  1.00  0.00    -0.014 A 
BRANCH  29  30
ATOM     30  C   UNL A   1      40.155  28.762  29.136  1.00  0.00     0.031 A 
ATOM     31  C   UNL A   1      41.074  29.731  29.826  1.00  0.00     0.074 A 
ATOM     32  C   UNL A   1      40.622  27.588  28.670  1.00  0.00     0.049 A 
ATOM     33  N   UNL A   1      42.360  29.640  30.046  1.00  0.00    -0.248 NA
ATOM     34  C   UNL A   1      40.474  30.992  30.295  1.00  0.00     0.031 C 
ATOM     35  C   UNL A   1      39.840  26.598  27.927  1.00  0.00     0.029 A 
ATOM     36  N   UNL A   1      41.875  27.036  28.741  1.00  0.00    -0.354 N 
ATOM     37  C   UNL A   1      42.721  30.837  30.649  1.00  0.00     0.074 A 
ATOM     38  C   UNL A   1      41.538  31.664  30.703  1.00  0.00     0.031 C 
ATOM     39  C   UNL A   1      40.624  25.547  27.635  1.00  0.00     0.029 A 
ATOM     40  C   UNL A   1      41.970  25.806  28.138  1.00  0.00     0.049 A 
ATOM     41  H   UNL A   1      42.635  27.479  29.183  1.00  0.00     0.167 HD
ATOM     42  C   UNL A   1      43.927  31.201  31.146  1.00  0.00     0.037 A 
ATOM     43  C   UNL A   1      43.027  24.983  28.008  1.00  0.00     0.037 A 
ATOM     44  C   UNL A   1      45.087  30.354  31.133  1.00  0.00     0.049 A 
ATOM     45  C   UNL A   1      44.348  25.395  28.599  1.00  0.00     0.074 A 
ATOM     46  C   UNL A   1      46.339  30.595  31.670  1.00  0.00     0.029 A 
ATOM     47  N   UNL A   1      45.133  29.092  30.557  1.00  0.00    -0.354 N 
ATOM     48  N   UNL A   1      44.663  26.501  29.230  1.00  0.00    -0.248 NA
ATOM     49  C   UNL A   1      45.459  24.442  28.467  1.00  0.00     0.031 C 
ATOM     50  C   UNL A   1      47.152  29.491  31.390  1.00  0.00     0.029 A 
ATOM     51  C   UNL A   1      46.395  28.546  30.716  1.00  0.00     0.049 A 
ATOM     52  H   UNL A   1      44.378  28.650  30.103  1.00  0.00     0.167 HD
ATOM     53  C   UNL A   1      45.995  26.367  29.593  1.00  0.00     0.074 A 
ATOM     54  C   UNL A   1      46.427  25.065  29.126  1.00  0.00     0.031 C 
ATOM     55  C   UNL A   1      46.793  27.242  30.253  1.00  0.00     0.037 A 
BRANCH  42  56
ATOM     56  C   UNL A   1      44.039  32.565  31.759  1.00  0.00     0.064 A 
ATOM     57  C   UNL A   1      43.779  32.782  33.121  1.00  0.00     0.173 A 
ATOM     58  C   UNL A   1      44.428  33.666  30.981  1.00  0.00     0.173 A 
ATOM     59  F   UNL A   1      43.386  31.765  33.903  1.00  0.00    -0.203 F 
ATOM     60  C   UNL A   1      43.874  34.055  33.675  1.00  0.00     0.198 A 
ATOM     61  C   UNL A   1      44.552  34.933  31.547  1.00  0.00     0.198 A 
ATOM     62  F   UNL A   1      44.690  33.514  29.675  1.00  0.00    -0.203 F 
ATOM     63  F   UNL A   1      43.566  34.247  34.966  1.00  0.00    -0.200 F 
ATOM     64  C   UNL A   1      44.267  35.128  32.889  1.00  0.00     0.200 A 
ATOM     65  F   UNL A   1      44.943  35.967  30.789  1.00  0.00    -0.200 F 
ATOM     66  F   UNL A   1      44.363  36.353  33.426  1.00  0.00    -0.200 F 
ENDBRANCH  42  56
BRANCH  43  67
ATOM     67  C   UNL A   1      42.871  23.672  27.324  1.00  0.00     0.064 A 
ATOM     68  C   UNL A   1      43.246  23.514  25.982  1.00  0.00     0.173 A 
ATOM     69  C   UNL A   1      42.345  22.557  27.990  1.00  0.00     0.173 A 
ATOM     70  F   UNL A   1      43.737  24.559  25.298  1.00  0.00    -0.203 F 
ATOM     71  C   UNL A   1      43.079  22.297  25.326  1.00  0.00     0.198 A 
ATOM     72  C   UNL A   1      42.203  21.332  27.340  1.00  0.00     0.198 A 
ATOM     73  F   UNL A   1      41.977  22.653  29.276  1.00  0.00    -0.203 F 
ATOM     74  F   UNL A   1      43.404  22.186  24.030  1.00  0.00    -0.200 F 
ATOM     75  C   UNL A   1      42.562  21.205  26.007  1.00  0.00     0.200 A 
ATOM     76  F   UNL A   1      41.717  20.275  28.005  1.00  0.00    -0.200 F 
ATOM     77  F   UNL A   1      42.404  20.034  25.376  1.00  0.00    -0.200 F 
ENDBRANCH  43  67
BRANCH  55  78
ATOM     78  C   UNL A   1      48.199  26.807  30.538  1.00  0.00     0.064 A 
ATOM     79  C   UNL A   1      48.521  26.075  31.689  1.00  0.00     0.173 A 
ATOM     80  C   UNL A   1      49.226  27.086  29.624  1.00  0.00     0.173 A 
ATOM     81  F   UNL A   1      47.576  25.797  32.599  1.00  0.00    -0.203 F 
ATOM     82  C   UNL A   1      49.828  25.656  31.926  1.00  0.00     0.198 A 
ATOM     83  C   UNL A   1      50.526  26.641  29.850  1.00  0.00     0.198 A 
ATOM     84  F   UNL A   1      48.965  27.778  28.504  1.00  0.00    -0.203 F 
ATOM     85  F   UNL A   1      50.123  24.994  33.054  1.00  0.00    -0.200 F 
ATOM     86  C   UNL A   1      50.826  25.933  31.003  1.00  0.00     0.200 A 
ATOM     87  F   UNL A   1      51.486  26.898  28.951  1.00  0.00    -0.200 F 
ATOM     88  F   UNL A   1      52.081  25.521  31.230  1.00  0.00    -0.200 F 
ENDBRANCH  55  78
ENDBRANCH  29  30
ENDBRANCH  21  24
ENDBRANCH  19  20
ENDBRANCH  18  19
ENDBRANCH  17  18
ENDBRANCH   1  17
TORSDOF 16
ENDMDL
