MODEL 1
REMARK VINA RESULT:     -14.0      0.000      0.000
REMARK SMILES CCC(=O)N1CCC[C@](C[C@H]2CC(c3ccc(C)cc3)=NO2)(C(=O)NCCCCNC(=O)c2ccc(-c3c4nc(c(-c5c(F)c(F)c(F)c(F)c5F)c5ccc([nH]5)c(-c5c(F)c(F)c(F)c(F)c5F)c5nc(c(-c6c(F)c(F)c(F)c(F)c6F)c6ccc3[nH]6)C=C5)C=C4)cc2)C1
REMARK SMILES IDX 27 1 26 2 25 3 23 4 24 5 9 7 5 8 6 9 96 10 7 11 8 12 3 13
REMARK SMILES IDX 4 14 2 15 1 16 10 17 11 18 12 19 22 20 13 21 21 22 14 23
REMARK SMILES IDX 15 24 20 25 16 26 19 27 17 28 18 29 28 30 29 31 30 32 31 33
REMARK SMILES IDX 32 35 33 36 34 37 95 38 35 39 94 40 36 41 37 42 38 43 88 44
REMARK SMILES IDX 39 45 93 46 87 47 89 48 40 49 92 50 86 51 85 52 41 54 73 55
REMARK SMILES IDX 53 56 72 57 54 58 57 59 71 60 90 61 55 62 56 63 70 65 91 66
REMARK SMILES IDX 58 67 42 68 43 69 51 70 44 71 45 72 49 73 52 74 46 75 47 76
REMARK SMILES IDX 50 77 48 78 74 79 75 80 83 81 76 82 77 83 81 84 84 85 78 86
REMARK SMILES IDX 79 87 82 88 80 89 59 90 60 91 68 92 61 93 62 94 66 95 69 96
REMARK SMILES IDX 63 97 64 98 67 99 65 100
REMARK H PARENT 25 6 30 34 89 53 57 64
REMARK Flexibility Score: inf
ROOT
ATOM      1  C   UNL A   1      31.807  29.352  26.588  1.00  0.00     0.023 C 
ENDROOT
BRANCH   1   2
ATOM      2  C   UNL A   1      32.168  27.919  26.999  1.00  0.00     0.116 C 
BRANCH   2   3
ATOM      3  N   UNL A   1      31.093  26.954  26.834  1.00  0.00    -0.356 N 
ATOM      4  C   UNL A   1      31.021  25.734  26.222  1.00  0.00     0.228 C 
ATOM      5  O   UNL A   1      29.927  25.169  26.308  1.00  0.00    -0.274 OA
ATOM      6  H   UNL A   1      30.245  27.237  27.248  1.00  0.00     0.163 HD
BRANCH   4   7
ATOM      7  C   UNL A   1      32.170  25.148  25.352  1.00  0.00     0.070 C 
ATOM      8  N   UNL A   1      31.809  26.748  23.412  1.00  0.00    -0.342 N 
ATOM      9  C   UNL A   1      31.225  25.707  22.575  1.00  0.00     0.119 C 
ATOM     10  C   UNL A   1      32.749  26.307  24.462  1.00  0.00     0.136 C 
ATOM     11  C   UNL A   1      30.629  24.585  23.402  1.00  0.00     0.023 C 
ATOM     12  C   UNL A   1      31.682  24.064  24.374  1.00  0.00     0.021 C 
BRANCH   8  13
ATOM     13  C   UNL A   1      31.489  28.059  23.096  1.00  0.00     0.222 C 
ATOM     14  O   UNL A   1      32.367  28.918  22.959  1.00  0.00    -0.275 OA
BRANCH  13  15
ATOM     15  C   UNL A   1      30.034  28.500  23.149  1.00  0.00     0.097 C 
ATOM     16  C   UNL A   1      29.741  29.951  23.456  1.00  0.00     0.014 C 
ENDBRANCH  13  15
ENDBRANCH   8  13
BRANCH   7  17
ATOM     17  C   UNL A   1      33.226  24.673  26.408  1.00  0.00     0.067 C 
BRANCH  17  18
ATOM     18  C   UNL A   1      34.496  23.893  26.042  1.00  0.00     0.211 C 
ATOM     19  C   UNL A   1      34.504  22.417  26.376  1.00  0.00     0.108 C 
ATOM     20  O   UNL A   1      34.827  24.012  24.659  1.00  0.00    -0.392 OA
ATOM     21  C   UNL A   1      34.542  21.873  24.998  1.00  0.00     0.091 C 
ATOM     22  N   UNL A   1      34.765  22.734  24.060  1.00  0.00    -0.090 NA
BRANCH  21  23
ATOM     23  C   UNL A   1      34.328  20.444  24.733  1.00  0.00    -0.001 A 
ATOM     24  C   UNL A   1      33.084  19.995  24.284  1.00  0.00     0.010 A 
ATOM     25  C   UNL A   1      35.399  19.559  24.849  1.00  0.00     0.010 A 
ATOM     26  C   UNL A   1      32.919  18.662  23.915  1.00  0.00     0.004 A 
ATOM     27  C   UNL A   1      35.220  18.216  24.511  1.00  0.00     0.004 A 
ATOM     28  C   UNL A   1      33.987  17.765  24.017  1.00  0.00    -0.051 A 
ATOM     29  C   UNL A   1      33.811  16.326  23.628  1.00  0.00     0.044 C 
ENDBRANCH  21  23
ENDBRANCH  17  18
ENDBRANCH   7  17
ENDBRANCH   4   7
ENDBRANCH   2   3
ENDBRANCH   1   2
BRANCH   1  30
ATOM     30  C   UNL A   1      32.885  30.414  26.778  1.00  0.00     0.023 C 
BRANCH  30  31
ATOM     31  C   UNL A   1      34.094  29.980  27.595  1.00  0.00     0.116 C 
BRANCH  31  32
ATOM     32  N   UNL A   1      34.704  31.037  28.395  1.00  0.00    -0.352 N 
ATOM     33  C   UNL A   1      35.933  31.054  29.050  1.00  0.00     0.251 C 
ATOM     34  H   UNL A   1      34.168  31.858  28.483  1.00  0.00     0.163 HD
ATOM     35  O   UNL A   1      36.272  32.022  29.692  1.00  0.00    -0.269 OA
BRANCH  33  36
ATOM     36  C   UNL A   1      36.880  29.926  28.838  1.00  0.00     0.039 A 
ATOM     37  C   UNL A   1      37.086  29.031  29.894  1.00  0.00     0.014 A 
ATOM     38  C   UNL A   1      37.702  29.882  27.718  1.00  0.00     0.014 A 
ATOM     39  C   UNL A   1      38.271  28.295  29.941  1.00  0.00     0.010 A 
ATOM     40  C   UNL A   1      38.926  29.256  27.818  1.00  0.00     0.010 A 
ATOM     41  C   UNL A   1      39.240  28.519  28.965  1.00  0.00    -0.014 A 
BRANCH  41  42
ATOM     42  C   UNL A   1      40.644  28.161  29.135  1.00  0.00     0.031 A 
ATOM     43  C   UNL A   1      41.202  26.929  28.539  1.00  0.00     0.074 A 
ATOM     44  C   UNL A   1      41.477  29.042  29.735  1.00  0.00     0.049 A 
ATOM     45  N   UNL A   1      42.257  26.329  28.980  1.00  0.00    -0.248 NA
ATOM     46  C   UNL A   1      40.596  26.255  27.399  1.00  0.00     0.031 C 
ATOM     47  C   UNL A   1      42.937  29.023  29.725  1.00  0.00     0.029 A 
ATOM     48  N   UNL A   1      41.149  30.069  30.640  1.00  0.00    -0.354 N 
ATOM     49  C   UNL A   1      42.640  25.406  28.033  1.00  0.00     0.074 A 
ATOM     50  C   UNL A   1      41.533  25.349  27.104  1.00  0.00     0.031 C 
ATOM     51  C   UNL A   1      43.386  29.736  30.770  1.00  0.00     0.029 A 
ATOM     52  C   UNL A   1      42.228  30.123  31.552  1.00  0.00     0.049 A 
ATOM     53  H   UNL A   1      40.339  30.630  30.640  1.00  0.00     0.167 HD
ATOM     54  C   UNL A   1      43.910  24.903  28.063  1.00  0.00     0.037 A 
ATOM     55  C   UNL A   1      42.061  29.854  32.879  1.00  0.00     0.037 A 
ATOM     56  C   UNL A   1      44.663  25.427  29.202  1.00  0.00     0.049 A 
ATOM     57  C   UNL A   1      42.901  28.711  33.392  1.00  0.00     0.074 A 
ATOM     58  C   UNL A   1      45.619  26.425  29.315  1.00  0.00     0.029 A 
ATOM     59  N   UNL A   1      44.260  25.125  30.498  1.00  0.00    -0.354 N 
ATOM     60  N   UNL A   1      43.439  27.804  32.627  1.00  0.00    -0.248 NA
ATOM     61  C   UNL A   1      43.173  28.483  34.806  1.00  0.00     0.031 C 
ATOM     62  C   UNL A   1      45.787  26.725  30.686  1.00  0.00     0.029 A 
ATOM     63  C   UNL A   1      44.932  25.914  31.412  1.00  0.00     0.049 A 
ATOM     64  H   UNL A   1      43.590  24.443  30.733  1.00  0.00     0.167 HD
ATOM     65  C   UNL A   1      44.090  26.875  33.401  1.00  0.00     0.074 A 
ATOM     66  C   UNL A   1      43.916  27.364  34.756  1.00  0.00     0.031 C 
ATOM     67  C   UNL A   1      44.701  25.786  32.844  1.00  0.00     0.037 A 
BRANCH  54  68
ATOM     68  C   UNL A   1      44.563  24.186  26.895  1.00  0.00     0.064 A 
ATOM     69  C   UNL A   1      44.302  22.821  26.636  1.00  0.00     0.173 A 
ATOM     70  C   UNL A   1      45.496  24.774  26.022  1.00  0.00     0.173 A 
ATOM     71  F   UNL A   1      43.336  22.154  27.277  1.00  0.00    -0.203 F 
ATOM     72  C   UNL A   1      45.024  22.081  25.694  1.00  0.00     0.198 A 
ATOM     73  C   UNL A   1      46.258  24.024  25.119  1.00  0.00     0.198 A 
ATOM     74  F   UNL A   1      45.655  26.102  25.970  1.00  0.00    -0.203 F 
ATOM     75  F   UNL A   1      44.737  20.785  25.506  1.00  0.00    -0.200 F 
ATOM     76  C   UNL A   1      46.035  22.672  24.967  1.00  0.00     0.200 A 
ATOM     77  F   UNL A   1      47.210  24.628  24.391  1.00  0.00    -0.200 F 
ATOM     78  F   UNL A   1      46.760  21.953  24.100  1.00  0.00    -0.200 F 
ENDBRANCH  54  68
BRANCH  55  79
ATOM     79  C   UNL A   1      40.720  30.227  33.391  1.00  0.00     0.064 A 
ATOM     80  C   UNL A   1      40.451  31.591  33.612  1.00  0.00     0.173 A 
ATOM     81  C   UNL A   1      39.629  29.357  33.292  1.00  0.00     0.173 A 
ATOM     82  F   UNL A   1      41.462  32.469  33.707  1.00  0.00    -0.203 F 
ATOM     83  C   UNL A   1      39.146  32.078  33.620  1.00  0.00     0.198 A 
ATOM     84  C   UNL A   1      38.321  29.848  33.308  1.00  0.00     0.198 A 
ATOM     85  F   UNL A   1      39.823  28.051  33.056  1.00  0.00    -0.203 F 
ATOM     86  F   UNL A   1      38.928  33.397  33.722  1.00  0.00    -0.200 F 
ATOM     87  C   UNL A   1      38.083  31.209  33.438  1.00  0.00     0.200 A 
ATOM     88  F   UNL A   1      37.293  29.013  33.101  1.00  0.00    -0.200 F 
ATOM     89  F   UNL A   1      36.834  31.687  33.347  1.00  0.00    -0.200 F 
ENDBRANCH  55  79
BRANCH  67  90
ATOM     90  C   UNL A   1      45.242  24.562  33.562  1.00  0.00     0.064 A 
ATOM     91  C   UNL A   1      44.499  23.402  33.837  1.00  0.00     0.173 A 
ATOM     92  C   UNL A   1      46.621  24.477  33.895  1.00  0.00     0.173 A 
ATOM     93  F   UNL A   1      43.224  23.277  33.454  1.00  0.00    -0.203 F 
ATOM     94  C   UNL A   1      45.064  22.285  34.465  1.00  0.00     0.198 A 
ATOM     95  C   UNL A   1      47.193  23.340  34.464  1.00  0.00     0.198 A 
ATOM     96  F   UNL A   1      47.470  25.487  33.654  1.00  0.00    -0.203 F 
ATOM     97  F   UNL A   1      44.292  21.227  34.749  1.00  0.00    -0.200 F 
ATOM     98  C   UNL A   1      46.410  22.250  34.769  1.00  0.00     0.200 A 
ATOM     99  F   UNL A   1      48.514  23.302  34.693  1.00  0.00    -0.200 F 
ATOM    100  F   UNL A   1      46.954  21.160  35.327  1.00  0.00    -0.200 F 
ENDBRANCH  67  90
ENDBRANCH  41  42
ENDBRANCH  33  36
ENDBRANCH  31  32
ENDBRANCH  30  31
ENDBRANCH   1  30
TORSDOF 16
ENDMDL
MODEL 2
REMARK VINA RESULT:     -13.7      1.393      2.101
REMARK SMILES CCC(=O)N1CCC[C@](C[C@H]2CC(c3ccc(C)cc3)=NO2)(C(=O)NCCCCNC(=O)c2ccc(-c3c4nc(c(-c5c(F)c(F)c(F)c(F)c5F)c5ccc([nH]5)c(-c5c(F)c(F)c(F)c(F)c5F)c5nc(c(-c6c(F)c(F)c(F)c(F)c6F)c6ccc3[nH]6)C=C5)C=C4)cc2)C1
REMARK SMILES IDX 27 1 26 2 25 3 23 4 24 5 9 7 5 8 6 9 96 10 7 11 8 12 3 13
REMARK SMILES IDX 4 14 2 15 1 16 10 17 11 18 12 19 22 20 13 21 21 22 14 23
REMARK SMILES IDX 15 24 20 25 16 26 19 27 17 28 18 29 28 30 29 31 30 32 31 33
REMARK SMILES IDX 32 35 33 36 34 37 95 38 35 39 94 40 36 41 37 42 38 43 88 44
REMARK SMILES IDX 39 45 93 46 87 47 89 48 40 49 92 50 86 51 85 52 41 54 73 55
REMARK SMILES IDX 53 56 72 57 54 58 57 59 71 60 90 61 55 62 56 63 70 65 91 66
REMARK SMILES IDX 58 67 42 68 43 69 51 70 44 71 45 72 49 73 52 74 46 75 47 76
REMARK SMILES IDX 50 77 48 78 74 79 75 80 83 81 76 82 77 83 81 84 84 85 78 86
REMARK SMILES IDX 79 87 82 88 80 89 59 90 60 91 68 92 61 93 62 94 66 95 69 96
REMARK SMILES IDX 63 97 64 98 67 99 65 100
REMARK H PARENT 25 6 30 34 89 53 57 64
REMARK Flexibility Score: inf
ROOT
ATOM      1  C   UNL A   1      34.234  28.894  26.133  1.00  0.00     0.023 C 
ENDROOT
BRANCH   1   2
ATOM      2  C   UNL A   1      33.176  28.238  25.238  1.00  0.00     0.116 C 
BRANCH   2   3
ATOM      3  N   UNL A   1      32.095  27.585  25.959  1.00  0.00    -0.356 N 
ATOM      4  C   UNL A   1      31.155  26.662  25.594  1.00  0.00     0.228 C 
ATOM      5  O   UNL A   1      30.396  26.302  26.499  1.00  0.00    -0.274 OA
ATOM      6  H   UNL A   1      32.027  27.864  26.901  1.00  0.00     0.163 HD
BRANCH   4   7
ATOM      7  C   UNL A   1      30.944  26.195  24.124  1.00  0.00     0.070 C 
ATOM      8  N   UNL A   1      29.862  28.363  23.363  1.00  0.00    -0.342 N 
ATOM      9  C   UNL A   1      28.538  27.756  23.293  1.00  0.00     0.119 C 
ATOM     10  C   UNL A   1      31.018  27.461  23.194  1.00  0.00     0.136 C 
ATOM     11  C   UNL A   1      28.421  26.548  24.201  1.00  0.00     0.023 C 
ATOM     12  C   UNL A   1      29.554  25.576  23.892  1.00  0.00     0.021 C 
BRANCH   8  13
ATOM     13  C   UNL A   1      29.912  29.742  23.505  1.00  0.00     0.222 C 
ATOM     14  O   UNL A   1      30.610  30.271  24.375  1.00  0.00    -0.275 OA
BRANCH  13  15
ATOM     15  C   UNL A   1      28.920  30.601  22.735  1.00  0.00     0.097 C 
ATOM     16  C   UNL A   1      27.744  31.178  23.489  1.00  0.00     0.014 C 
ENDBRANCH  13  15
ENDBRANCH   8  13
BRANCH   7  17
ATOM     17  C   UNL A   1      32.158  25.239  23.864  1.00  0.00     0.067 C 
BRANCH  17  18
ATOM     18  C   UNL A   1      32.836  24.413  24.967  1.00  0.00     0.211 C 
ATOM     19  C   UNL A   1      32.339  22.996  25.153  1.00  0.00     0.108 C 
ATOM     20  O   UNL A   1      34.252  24.342  24.798  1.00  0.00    -0.392 OA
ATOM     21  C   UNL A   1      33.564  22.270  24.741  1.00  0.00     0.091 C 
ATOM     22  N   UNL A   1      34.624  22.996  24.591  1.00  0.00    -0.090 NA
BRANCH  21  23
ATOM     23  C   UNL A   1      33.554  20.819  24.513  1.00  0.00    -0.001 A 
ATOM     24  C   UNL A   1      32.497  20.229  23.815  1.00  0.00     0.010 A 
ATOM     25  C   UNL A   1      34.646  20.055  24.920  1.00  0.00     0.010 A 
ATOM     26  C   UNL A   1      32.549  18.875  23.491  1.00  0.00     0.004 A 
ATOM     27  C   UNL A   1      34.678  18.690  24.624  1.00  0.00     0.004 A 
ATOM     28  C   UNL A   1      33.643  18.098  23.885  1.00  0.00    -0.051 A 
ATOM     29  C   UNL A   1      33.700  16.637  23.546  1.00  0.00     0.044 C 
ENDBRANCH  21  23
ENDBRANCH  17  18
ENDBRANCH   7  17
ENDBRANCH   4   7
ENDBRANCH   2   3
ENDBRANCH   1   2
BRANCH   1  30
ATOM     30  C   UNL A   1      33.889  30.259  26.721  1.00  0.00     0.023 C 
BRANCH  30  31
ATOM     31  C   UNL A   1      33.972  30.358  28.238  1.00  0.00     0.116 C 
BRANCH  31  32
ATOM     32  N   UNL A   1      34.889  31.377  28.736  1.00  0.00    -0.352 N 
ATOM     33  C   UNL A   1      36.226  31.259  29.108  1.00  0.00     0.251 C 
ATOM     34  H   UNL A   1      34.507  32.280  28.820  1.00  0.00     0.163 HD
ATOM     35  O   UNL A   1      36.834  32.220  29.522  1.00  0.00    -0.269 OA
BRANCH  33  36
ATOM     36  C   UNL A   1      36.934  29.974  28.860  1.00  0.00     0.039 A 
ATOM     37  C   UNL A   1      37.190  29.140  29.955  1.00  0.00     0.014 A 
ATOM     38  C   UNL A   1      37.521  29.705  27.629  1.00  0.00     0.014 A 
ATOM     39  C   UNL A   1      38.236  28.220  29.880  1.00  0.00     0.010 A 
ATOM     40  C   UNL A   1      38.632  28.890  27.589  1.00  0.00     0.010 A 
ATOM     41  C   UNL A   1      39.033  28.200  28.737  1.00  0.00    -0.014 A 
BRANCH  41  42
ATOM     42  C   UNL A   1      40.372  27.623  28.707  1.00  0.00     0.031 A 
ATOM     43  C   UNL A   1      40.588  26.193  28.403  1.00  0.00     0.074 A 
ATOM     44  C   UNL A   1      41.442  28.443  28.825  1.00  0.00     0.049 A 
ATOM     45  N   UNL A   1      41.631  25.528  28.770  1.00  0.00    -0.248 NA
ATOM     46  C   UNL A   1      39.623  25.384  27.671  1.00  0.00     0.031 C 
ATOM     47  C   UNL A   1      42.834  28.129  28.514  1.00  0.00     0.029 A 
ATOM     48  N   UNL A   1      41.499  29.713  29.430  1.00  0.00    -0.354 N 
ATOM     49  C   UNL A   1      41.630  24.334  28.085  1.00  0.00     0.074 A 
ATOM     50  C   UNL A   1      40.322  24.263  27.471  1.00  0.00     0.031 C 
ATOM     51  C   UNL A   1      43.629  28.981  29.178  1.00  0.00     0.029 A 
ATOM     52  C   UNL A   1      42.776  29.782  30.035  1.00  0.00     0.049 A 
ATOM     53  H   UNL A   1      40.800  30.406  29.433  1.00  0.00     0.167 HD
ATOM     54  C   UNL A   1      42.785  23.610  27.995  1.00  0.00     0.037 A 
ATOM     55  C   UNL A   1      42.925  29.904  31.385  1.00  0.00     0.037 A 
ATOM     56  C   UNL A   1      43.871  24.248  28.739  1.00  0.00     0.049 A 
ATOM     57  C   UNL A   1      43.709  28.787  32.027  1.00  0.00     0.074 A 
ATOM     58  C   UNL A   1      44.947  25.027  28.344  1.00  0.00     0.029 A 
ATOM     59  N   UNL A   1      43.781  24.378  30.121  1.00  0.00    -0.354 N 
ATOM     60  N   UNL A   1      43.905  27.624  31.473  1.00  0.00    -0.248 NA
ATOM     61  C   UNL A   1      44.306  28.882  33.354  1.00  0.00     0.031 C 
ATOM     62  C   UNL A   1      45.504  25.631  29.495  1.00  0.00     0.029 A 
ATOM     63  C   UNL A   1      44.767  25.225  30.593  1.00  0.00     0.049 A 
ATOM     64  H   UNL A   1      43.110  23.929  30.685  1.00  0.00     0.167 HD
ATOM     65  C   UNL A   1      44.605  26.816  32.334  1.00  0.00     0.074 A 
ATOM     66  C   UNL A   1      44.855  27.662  33.486  1.00  0.00     0.031 C 
ATOM     67  C   UNL A   1      44.899  25.519  32.013  1.00  0.00     0.037 A 
BRANCH  54  68
ATOM     68  C   UNL A   1      43.011  22.500  26.985  1.00  0.00     0.064 A 
ATOM     69  C   UNL A   1      42.348  21.257  27.103  1.00  0.00     0.173 A 
ATOM     70  C   UNL A   1      43.908  22.578  25.905  1.00  0.00     0.173 A 
ATOM     71  F   UNL A   1      41.358  21.067  27.983  1.00  0.00    -0.203 F 
ATOM     72  C   UNL A   1      42.670  20.152  26.310  1.00  0.00     0.198 A 
ATOM     73  C   UNL A   1      44.273  21.459  25.147  1.00  0.00     0.198 A 
ATOM     74  F   UNL A   1      44.412  23.752  25.506  1.00  0.00    -0.203 F 
ATOM     75  F   UNL A   1      42.014  18.996  26.482  1.00  0.00    -0.200 F 
ATOM     76  C   UNL A   1      43.667  20.239  25.361  1.00  0.00     0.200 A 
ATOM     77  F   UNL A   1      45.217  21.577  24.201  1.00  0.00    -0.200 F 
ATOM     78  F   UNL A   1      44.011  19.169  24.634  1.00  0.00    -0.200 F 
ENDBRANCH  54  68
BRANCH  55  79
ATOM     79  C   UNL A   1      41.825  30.659  32.033  1.00  0.00     0.064 A 
ATOM     80  C   UNL A   1      41.836  32.063  31.934  1.00  0.00     0.173 A 
ATOM     81  C   UNL A   1      40.618  30.042  32.383  1.00  0.00     0.173 A 
ATOM     82  F   UNL A   1      42.966  32.703  31.593  1.00  0.00    -0.203 F 
ATOM     83  C   UNL A   1      40.666  32.807  32.068  1.00  0.00     0.198 A 
ATOM     84  C   UNL A   1      39.449  30.792  32.525  1.00  0.00     0.198 A 
ATOM     85  F   UNL A   1      40.540  28.706  32.468  1.00  0.00    -0.203 F 
ATOM     86  F   UNL A   1      40.690  34.131  31.859  1.00  0.00    -0.200 F 
ATOM     87  C   UNL A   1      39.468  32.166  32.335  1.00  0.00     0.200 A 
ATOM     88  F   UNL A   1      38.282  30.171  32.752  1.00  0.00    -0.200 F 
ATOM     89  F   UNL A   1      38.325  32.867  32.367  1.00  0.00    -0.200 F 
ENDBRANCH  55  79
BRANCH  67  90
ATOM     90  C   UNL A   1      45.441  24.440  32.933  1.00  0.00     0.064 A 
ATOM     91  C   UNL A   1      46.716  24.458  33.524  1.00  0.00     0.173 A 
ATOM     92  C   UNL A   1      44.605  23.373  33.359  1.00  0.00     0.173 A 
ATOM     93  F   UNL A   1      47.565  25.473  33.331  1.00  0.00    -0.203 F 
ATOM     94  C   UNL A   1      47.147  23.455  34.400  1.00  0.00     0.198 A 
ATOM     95  C   UNL A   1      45.016  22.410  34.280  1.00  0.00     0.198 A 
ATOM     96  F   UNL A   1      43.345  23.243  32.918  1.00  0.00    -0.203 F 
ATOM     97  F   UNL A   1      48.393  23.500  34.893  1.00  0.00    -0.200 F 
ATOM     98  C   UNL A   1      46.297  22.438  34.786  1.00  0.00     0.200 A 
ATOM     99  F   UNL A   1      44.154  21.468  34.689  1.00  0.00    -0.200 F 
ATOM    100  F   UNL A   1      46.700  21.508  35.661  1.00  0.00    -0.200 F 
ENDBRANCH  67  90
ENDBRANCH  41  42
ENDBRANCH  33  36
ENDBRANCH  31  32
ENDBRANCH  30  31
ENDBRANCH   1  30
TORSDOF 16
ENDMDL
MODEL 3
REMARK VINA RESULT:     -13.7      3.623     10.347
REMARK SMILES CCC(=O)N1CCC[C@](C[C@H]2CC(c3ccc(C)cc3)=NO2)(C(=O)NCCCCNC(=O)c2ccc(-c3c4nc(c(-c5c(F)c(F)c(F)c(F)c5F)c5ccc([nH]5)c(-c5c(F)c(F)c(F)c(F)c5F)c5nc(c(-c6c(F)c(F)c(F)c(F)c6F)c6ccc3[nH]6)C=C5)C=C4)cc2)C1
REMARK SMILES IDX 27 1 26 2 25 3 23 4 24 5 9 7 5 8 6 9 96 10 7 11 8 12 3 13
REMARK SMILES IDX 4 14 2 15 1 16 10 17 11 18 12 19 22 20 13 21 21 22 14 23
REMARK SMILES IDX 15 24 20 25 16 26 19 27 17 28 18 29 28 30 29 31 30 32 31 33
REMARK SMILES IDX 32 35 33 36 34 37 95 38 35 39 94 40 36 41 37 42 38 43 88 44
REMARK SMILES IDX 39 45 93 46 87 47 89 48 40 49 92 50 86 51 85 52 41 54 73 55
REMARK SMILES IDX 53 56 72 57 54 58 57 59 71 60 90 61 55 62 56 63 70 65 91 66
REMARK SMILES IDX 58 67 42 68 43 69 51 70 44 71 45 72 49 73 52 74 46 75 47 76
REMARK SMILES IDX 50 77 48 78 74 79 75 80 83 81 76 82 77 83 81 84 84 85 78 86
REMARK SMILES IDX 79 87 82 88 80 89 59 90 60 91 68 92 61 93 62 94 66 95 69 96
REMARK SMILES IDX 63 97 64 98 67 99 65 100
REMARK H PARENT 25 6 30 34 89 53 57 64
REMARK Flexibility Score: inf
ROOT
ATOM      1  C   UNL A   1      37.640  23.044  25.692  1.00  0.00     0.023 C 
ENDROOT
BRANCH   1   2
ATOM      2  C   UNL A   1      36.226  22.486  25.488  1.00  0.00     0.116 C 
BRANCH   2   3
ATOM      3  N   UNL A   1      35.658  22.744  24.174  1.00  0.00    -0.356 N 
ATOM      4  C   UNL A   1      34.373  22.828  23.714  1.00  0.00     0.228 C 
ATOM      5  O   UNL A   1      34.264  23.100  22.515  1.00  0.00    -0.274 OA
ATOM      6  H   UNL A   1      36.336  22.890  23.475  1.00  0.00     0.163 HD
BRANCH   4   7
ATOM      7  C   UNL A   1      33.132  22.467  24.581  1.00  0.00     0.070 C 
ATOM      8  N   UNL A   1      33.568  19.965  24.551  1.00  0.00    -0.342 N 
ATOM      9  C   UNL A   1      32.464  19.715  23.634  1.00  0.00     0.119 C 
ATOM     10  C   UNL A   1      33.469  21.168  25.401  1.00  0.00     0.136 C 
ATOM     11  C   UNL A   1      32.130  20.939  22.804  1.00  0.00     0.023 C 
ATOM     12  C   UNL A   1      31.894  22.125  23.732  1.00  0.00     0.021 C 
BRANCH   8  13
ATOM     13  C   UNL A   1      34.573  19.010  24.598  1.00  0.00     0.222 C 
ATOM     14  O   UNL A   1      35.753  19.329  24.780  1.00  0.00    -0.275 OA
BRANCH  13  15
ATOM     15  C   UNL A   1      34.254  17.580  24.188  1.00  0.00     0.097 C 
ATOM     16  C   UNL A   1      33.686  16.649  25.236  1.00  0.00     0.014 C 
ENDBRANCH  13  15
ENDBRANCH   8  13
BRANCH   7  17
ATOM     17  C   UNL A   1      32.975  23.703  25.531  1.00  0.00     0.067 C 
BRANCH  17  18
ATOM     18  C   UNL A   1      31.961  24.830  25.292  1.00  0.00     0.211 C 
ATOM     19  C   UNL A   1      31.933  25.943  26.316  1.00  0.00     0.108 C 
ATOM     20  O   UNL A   1      32.121  25.442  24.012  1.00  0.00    -0.392 OA
ATOM     21  C   UNL A   1      32.408  27.055  25.457  1.00  0.00     0.091 C 
ATOM     22  N   UNL A   1      32.467  26.799  24.191  1.00  0.00    -0.090 NA
BRANCH  21  23
ATOM     23  C   UNL A   1      32.791  28.353  26.027  1.00  0.00    -0.001 A 
ATOM     24  C   UNL A   1      31.844  29.374  26.136  1.00  0.00     0.010 A 
ATOM     25  C   UNL A   1      34.077  28.523  26.537  1.00  0.00     0.010 A 
ATOM     26  C   UNL A   1      32.174  30.560  26.789  1.00  0.00     0.004 A 
ATOM     27  C   UNL A   1      34.414  29.727  27.161  1.00  0.00     0.004 A 
ATOM     28  C   UNL A   1      33.458  30.742  27.314  1.00  0.00    -0.051 A 
ATOM     29  C   UNL A   1      33.820  32.020  28.011  1.00  0.00     0.044 C 
ENDBRANCH  21  23
ENDBRANCH  17  18
ENDBRANCH   7  17
ENDBRANCH   4   7
ENDBRANCH   2   3
ENDBRANCH   1   2
BRANCH   1  30
ATOM     30  C   UNL A   1      38.772  22.027  25.800  1.00  0.00     0.023 C 
BRANCH  30  31
ATOM     31  C   UNL A   1      39.815  22.322  26.870  1.00  0.00     0.116 C 
BRANCH  31  32
ATOM     32  N   UNL A   1      41.112  22.750  26.359  1.00  0.00    -0.352 N 
ATOM     33  C   UNL A   1      41.611  24.037  26.175  1.00  0.00     0.251 C 
ATOM     34  H   UNL A   1      41.725  22.021  26.107  1.00  0.00     0.163 HD
ATOM     35  O   UNL A   1      42.718  24.206  25.715  1.00  0.00    -0.269 OA
BRANCH  33  36
ATOM     36  C   UNL A   1      40.824  25.195  26.679  1.00  0.00     0.039 A 
ATOM     37  C   UNL A   1      40.922  26.409  25.989  1.00  0.00     0.014 A 
ATOM     38  C   UNL A   1      40.188  25.145  27.914  1.00  0.00     0.014 A 
ATOM     39  C   UNL A   1      40.634  27.598  26.660  1.00  0.00     0.010 A 
ATOM     40  C   UNL A   1      40.021  26.317  28.620  1.00  0.00     0.010 A 
ATOM     41  C   UNL A   1      40.313  27.544  28.015  1.00  0.00    -0.014 A 
BRANCH  41  42
ATOM     42  C   UNL A   1      40.418  28.693  28.907  1.00  0.00     0.031 A 
ATOM     43  C   UNL A   1      39.332  29.690  29.010  1.00  0.00     0.074 A 
ATOM     44  C   UNL A   1      41.470  28.770  29.755  1.00  0.00     0.049 A 
ATOM     45  N   UNL A   1      39.505  30.906  29.408  1.00  0.00    -0.248 NA
ATOM     46  C   UNL A   1      37.952  29.400  28.647  1.00  0.00     0.031 C 
ATOM     47  C   UNL A   1      41.604  29.643  30.918  1.00  0.00     0.029 A 
ATOM     48  N   UNL A   1      42.736  28.170  29.624  1.00  0.00    -0.354 N 
ATOM     49  C   UNL A   1      38.264  31.450  29.647  1.00  0.00     0.074 A 
ATOM     50  C   UNL A   1      37.330  30.497  29.088  1.00  0.00     0.031 C 
ATOM     51  C   UNL A   1      42.906  29.779  31.211  1.00  0.00     0.029 A 
ATOM     52  C   UNL A   1      43.651  29.102  30.166  1.00  0.00     0.049 A 
ATOM     53  H   UNL A   1      42.942  27.288  29.237  1.00  0.00     0.167 HD
ATOM     54  C   UNL A   1      38.160  32.573  30.419  1.00  0.00     0.037 A 
ATOM     55  C   UNL A   1      44.621  29.683  29.403  1.00  0.00     0.037 A 
ATOM     56  C   UNL A   1      39.477  33.058  30.831  1.00  0.00     0.049 A 
ATOM     57  C   UNL A   1      44.552  31.189  29.350  1.00  0.00     0.074 A 
ATOM     58  C   UNL A   1      40.188  32.946  32.016  1.00  0.00     0.029 A 
ATOM     59  N   UNL A   1      40.380  33.511  29.875  1.00  0.00    -0.354 N 
ATOM     60  N   UNL A   1      43.489  31.879  29.651  1.00  0.00    -0.248 NA
ATOM     61  C   UNL A   1      45.663  32.031  28.924  1.00  0.00     0.031 C 
ATOM     62  C   UNL A   1      41.526  33.331  31.768  1.00  0.00     0.029 A 
ATOM     63  C   UNL A   1      41.634  33.675  30.432  1.00  0.00     0.049 A 
ATOM     64  H   UNL A   1      40.156  33.692  28.933  1.00  0.00     0.167 HD
ATOM     65  C   UNL A   1      43.733  33.214  29.446  1.00  0.00     0.074 A 
ATOM     66  C   UNL A   1      45.119  33.256  29.018  1.00  0.00     0.031 C 
ATOM     67  C   UNL A   1      42.759  34.154  29.642  1.00  0.00     0.037 A 
BRANCH  54  68
ATOM     68  C   UNL A   1      36.865  33.046  31.053  1.00  0.00     0.064 A 
ATOM     69  C   UNL A   1      35.974  33.892  30.354  1.00  0.00     0.173 A 
ATOM     70  C   UNL A   1      36.466  32.743  32.367  1.00  0.00     0.173 A 
ATOM     71  F   UNL A   1      36.130  34.157  29.051  1.00  0.00    -0.203 F 
ATOM     72  C   UNL A   1      34.874  34.500  30.966  1.00  0.00     0.198 A 
ATOM     73  C   UNL A   1      35.399  33.393  32.998  1.00  0.00     0.198 A 
ATOM     74  F   UNL A   1      37.055  31.763  33.062  1.00  0.00    -0.203 F 
ATOM     75  F   UNL A   1      34.075  35.305  30.251  1.00  0.00    -0.200 F 
ATOM     76  C   UNL A   1      34.612  34.287  32.303  1.00  0.00     0.200 A 
ATOM     77  F   UNL A   1      35.137  33.140  34.289  1.00  0.00    -0.200 F 
ATOM     78  F   UNL A   1      33.588  34.906  32.904  1.00  0.00    -0.200 F 
ENDBRANCH  54  68
BRANCH  55  79
ATOM     79  C   UNL A   1      45.110  28.810  28.308  1.00  0.00     0.064 A 
ATOM     80  C   UNL A   1      46.043  27.805  28.627  1.00  0.00     0.173 A 
ATOM     81  C   UNL A   1      44.416  28.692  27.098  1.00  0.00     0.173 A 
ATOM     82  F   UNL A   1      46.729  27.868  29.780  1.00  0.00    -0.203 F 
ATOM     83  C   UNL A   1      46.190  26.675  27.826  1.00  0.00     0.198 A 
ATOM     84  C   UNL A   1      44.573  27.561  26.294  1.00  0.00     0.198 A 
ATOM     85  F   UNL A   1      43.496  29.605  26.753  1.00  0.00    -0.203 F 
ATOM     86  F   UNL A   1      47.006  25.685  28.216  1.00  0.00    -0.200 F 
ATOM     87  C   UNL A   1      45.433  26.541  26.675  1.00  0.00     0.200 A 
ATOM     88  F   UNL A   1      43.818  27.414  25.196  1.00  0.00    -0.200 F 
ATOM     89  F   UNL A   1      45.501  25.412  25.956  1.00  0.00    -0.200 F 
ENDBRANCH  55  79
BRANCH  67  90
ATOM     90  C   UNL A   1      42.792  35.617  29.235  1.00  0.00     0.064 A 
ATOM     91  C   UNL A   1      42.077  36.164  28.156  1.00  0.00     0.173 A 
ATOM     92  C   UNL A   1      43.481  36.569  30.034  1.00  0.00     0.173 A 
ATOM     93  F   UNL A   1      41.269  35.415  27.398  1.00  0.00    -0.203 F 
ATOM     94  C   UNL A   1      42.111  37.530  27.853  1.00  0.00     0.198 A 
ATOM     95  C   UNL A   1      43.462  37.938  29.766  1.00  0.00     0.198 A 
ATOM     96  F   UNL A   1      44.174  36.209  31.124  1.00  0.00    -0.203 F 
ATOM     97  F   UNL A   1      41.448  37.985  26.781  1.00  0.00    -0.200 F 
ATOM     98  C   UNL A   1      42.794  38.417  28.661  1.00  0.00     0.200 A 
ATOM     99  F   UNL A   1      44.080  38.789  30.598  1.00  0.00    -0.200 F 
ATOM    100  F   UNL A   1      42.784  39.730  28.393  1.00  0.00    -0.200 F 
ENDBRANCH  67  90
ENDBRANCH  41  42
ENDBRANCH  33  36
ENDBRANCH  31  32
ENDBRANCH  30  31
ENDBRANCH   1  30
TORSDOF 16
ENDMDL
