MODEL 1
REMARK VINA RESULT:     -12.5      0.000      0.000
REMARK SMILES CS(=O)(=O)c1ccc(-c2csc(=O)n2CC(=O)NCCCCNC(=O)c2ccc(-c3c4nc(c(-c5c(F)c(F)c(F)c(F)c5F)c5ccc([nH]5)c(-c5c(F)c(F)c(F)c(F)c5F)c5nc(c(-c6c(F)c(F)c(F)c(F)c6F)c6ccc3[nH]6)C=C5)C=C4)cc2)cc1
REMARK SMILES IDX 20 1 19 2 18 3 16 4 17 5 15 7 14 8 9 9 10 10 11 11 12 12
REMARK SMILES IDX 13 13 8 14 5 15 6 16 90 17 7 18 89 19 2 20 1 21 3 22 4 23
REMARK SMILES IDX 21 24 22 25 23 26 24 27 25 29 26 30 27 31 88 32 28 33 87 34
REMARK SMILES IDX 29 35 30 36 31 37 81 38 32 39 86 40 80 41 82 42 33 43 85 44
REMARK SMILES IDX 79 45 78 46 34 48 66 49 46 50 65 51 47 52 50 53 64 54 83 55
REMARK SMILES IDX 48 56 49 57 63 59 84 60 51 61 35 62 36 63 44 64 37 65 38 66
REMARK SMILES IDX 42 67 45 68 39 69 40 70 43 71 41 72 67 73 68 74 76 75 69 76
REMARK SMILES IDX 70 77 74 78 77 79 71 80 72 81 75 82 73 83 52 84 53 85 61 86
REMARK SMILES IDX 54 87 55 88 59 89 62 90 56 91 57 92 60 93 58 94
REMARK H PARENT 18 6 23 28 82 47 50 58
REMARK Flexibility Score: inf
ROOT
ATOM      1  C   UNL A   1      40.615  21.036  26.557  1.00  0.00     0.023 C 
ENDROOT
BRANCH   1   2
ATOM      2  C   UNL A   1      39.326  21.365  25.806  1.00  0.00     0.116 C 
BRANCH   2   3
ATOM      3  N   UNL A   1      38.753  22.631  26.195  1.00  0.00    -0.355 N 
ATOM      4  C   UNL A   1      37.623  23.239  25.722  1.00  0.00     0.240 C 
ATOM      5  O   UNL A   1      37.150  24.149  26.411  1.00  0.00    -0.273 OA
ATOM      6  H   UNL A   1      39.241  23.124  26.893  1.00  0.00     0.163 HD
BRANCH   4   7
ATOM      7  C   UNL A   1      36.866  22.696  24.499  1.00  0.00     0.226 C 
BRANCH   7   8
ATOM      8  N   UNL A   1      35.555  22.126  24.775  1.00  0.00    -0.289 N 
ATOM      9  C   UNL A   1      34.330  22.787  24.766  1.00  0.00     0.063 A 
ATOM     10  C   UNL A   1      33.286  21.976  24.995  1.00  0.00     0.097 A 
ATOM     11  S   UNL A   1      33.772  20.326  25.203  1.00  0.00    -0.082 S 
ATOM     12  C   UNL A   1      35.471  20.746  24.951  1.00  0.00     0.308 A 
ATOM     13  O   UNL A   1      36.374  19.934  24.954  1.00  0.00    -0.257 OA
BRANCH   9  14
ATOM     14  C   UNL A   1      34.161  24.235  24.584  1.00  0.00    -0.001 A 
ATOM     15  C   UNL A   1      33.568  26.948  24.188  1.00  0.00     0.067 A 
ATOM     16  C   UNL A   1      33.810  26.462  25.479  1.00  0.00     0.021 A 
ATOM     17  C   UNL A   1      33.677  26.102  23.086  1.00  0.00     0.021 A 
ATOM     18  C   UNL A   1      34.110  25.111  25.675  1.00  0.00     0.011 A 
ATOM     19  C   UNL A   1      33.991  24.756  23.288  1.00  0.00     0.011 A 
BRANCH  15  20
ATOM     20  S   UNL A   1      33.096  28.653  24.029  1.00  0.00     0.175 S 
ATOM     21  C   UNL A   1      31.343  28.701  23.780  1.00  0.00     0.163 C 
ATOM     22  O   UNL A   1      33.722  29.135  22.813  1.00  0.00    -0.224 OA
ATOM     23  O   UNL A   1      33.373  29.263  25.315  1.00  0.00    -0.224 OA
ENDBRANCH  15  20
ENDBRANCH   9  14
ENDBRANCH   7   8
ENDBRANCH   4   7
ENDBRANCH   2   3
ENDBRANCH   1   2
BRANCH   1  24
ATOM     24  C   UNL A   1      41.277  19.709  26.161  1.00  0.00     0.023 C 
BRANCH  24  25
ATOM     25  C   UNL A   1      42.700  19.531  26.678  1.00  0.00     0.116 C 
BRANCH  25  26
ATOM     26  N   UNL A   1      43.678  19.363  25.605  1.00  0.00    -0.352 N 
ATOM     27  C   UNL A   1      44.232  20.345  24.810  1.00  0.00     0.251 C 
ATOM     28  H   UNL A   1      43.978  18.442  25.431  1.00  0.00     0.163 HD
ATOM     29  O   UNL A   1      44.741  20.070  23.730  1.00  0.00    -0.269 OA
BRANCH  27  30
ATOM     30  C   UNL A   1      44.207  21.740  25.281  1.00  0.00     0.039 A 
ATOM     31  C   UNL A   1      43.244  22.635  24.809  1.00  0.00     0.014 A 
ATOM     32  C   UNL A   1      45.152  22.139  26.227  1.00  0.00     0.014 A 
ATOM     33  C   UNL A   1      43.181  23.910  25.364  1.00  0.00     0.010 A 
ATOM     34  C   UNL A   1      45.026  23.361  26.847  1.00  0.00     0.010 A 
ATOM     35  C   UNL A   1      44.057  24.261  26.404  1.00  0.00    -0.014 A 
BRANCH  35  36
ATOM     36  C   UNL A   1      43.847  25.505  27.144  1.00  0.00     0.031 A 
ATOM     37  C   UNL A   1      44.795  26.599  26.785  1.00  0.00     0.074 A 
ATOM     38  C   UNL A   1      42.766  25.740  27.920  1.00  0.00     0.049 A 
ATOM     39  N   UNL A   1      45.655  27.183  27.553  1.00  0.00    -0.248 NA
ATOM     40  C   UNL A   1      44.885  27.014  25.374  1.00  0.00     0.031 C 
ATOM     41  C   UNL A   1      41.598  24.875  28.118  1.00  0.00     0.029 A 
ATOM     42  N   UNL A   1      42.426  26.863  28.616  1.00  0.00    -0.354 N 
ATOM     43  C   UNL A   1      46.261  28.170  26.778  1.00  0.00     0.074 A 
ATOM     44  C   UNL A   1      45.875  27.909  25.418  1.00  0.00     0.031 C 
ATOM     45  C   UNL A   1      40.594  25.590  28.671  1.00  0.00     0.029 A 
ATOM     46  C   UNL A   1      41.093  26.908  29.015  1.00  0.00     0.049 A 
ATOM     47  H   UNL A   1      43.068  27.581  28.819  1.00  0.00     0.167 HD
ATOM     48  C   UNL A   1      46.819  29.267  27.363  1.00  0.00     0.037 A 
ATOM     49  C   UNL A   1      40.435  27.962  29.558  1.00  0.00     0.037 A 
ATOM     50  C   UNL A   1      47.059  29.031  28.765  1.00  0.00     0.049 A 
ATOM     51  C   UNL A   1      41.459  28.878  30.112  1.00  0.00     0.074 A 
ATOM     52  C   UNL A   1      47.812  28.134  29.495  1.00  0.00     0.029 A 
ATOM     53  N   UNL A   1      46.167  29.579  29.652  1.00  0.00    -0.354 N 
ATOM     54  N   UNL A   1      42.215  28.595  31.135  1.00  0.00    -0.248 NA
ATOM     55  C   UNL A   1      41.931  29.963  29.267  1.00  0.00     0.031 C 
ATOM     56  C   UNL A   1      47.032  27.853  30.657  1.00  0.00     0.029 A 
ATOM     57  C   UNL A   1      45.883  28.643  30.606  1.00  0.00     0.049 A 
ATOM     58  H   UNL A   1      45.796  30.490  29.609  1.00  0.00     0.167 HD
ATOM     59  C   UNL A   1      43.450  29.128  30.809  1.00  0.00     0.074 A 
ATOM     60  C   UNL A   1      43.183  30.062  29.719  1.00  0.00     0.031 C 
ATOM     61  C   UNL A   1      44.598  28.541  31.257  1.00  0.00     0.037 A 
BRANCH  48  62
ATOM     62  C   UNL A   1      46.742  30.674  26.800  1.00  0.00     0.064 A 
ATOM     63  C   UNL A   1      47.903  31.478  26.825  1.00  0.00     0.173 A 
ATOM     64  C   UNL A   1      45.536  31.367  26.561  1.00  0.00     0.173 A 
ATOM     65  F   UNL A   1      49.108  30.933  27.050  1.00  0.00    -0.203 F 
ATOM     66  C   UNL A   1      47.842  32.872  26.736  1.00  0.00     0.198 A 
ATOM     67  C   UNL A   1      45.486  32.754  26.418  1.00  0.00     0.198 A 
ATOM     68  F   UNL A   1      44.345  30.760  26.569  1.00  0.00    -0.203 F 
ATOM     69  F   UNL A   1      48.953  33.599  26.918  1.00  0.00    -0.200 F 
ATOM     70  C   UNL A   1      46.632  33.510  26.545  1.00  0.00     0.200 A 
ATOM     71  F   UNL A   1      44.300  33.354  26.250  1.00  0.00    -0.200 F 
ATOM     72  F   UNL A   1      46.558  34.846  26.533  1.00  0.00    -0.200 F 
ENDBRANCH  48  62
BRANCH  49  73
ATOM     73  C   UNL A   1      39.022  28.379  29.381  1.00  0.00     0.064 A 
ATOM     74  C   UNL A   1      38.176  28.548  30.491  1.00  0.00     0.173 A 
ATOM     75  C   UNL A   1      38.561  28.909  28.160  1.00  0.00     0.173 A 
ATOM     76  F   UNL A   1      38.554  28.108  31.700  1.00  0.00    -0.203 F 
ATOM     77  C   UNL A   1      36.966  29.244  30.396  1.00  0.00     0.198 A 
ATOM     78  C   UNL A   1      37.348  29.596  28.065  1.00  0.00     0.198 A 
ATOM     79  F   UNL A   1      39.321  28.862  27.058  1.00  0.00    -0.203 F 
ATOM     80  F   UNL A   1      36.227  29.452  31.495  1.00  0.00    -0.200 F 
ATOM     81  C   UNL A   1      36.561  29.780  29.186  1.00  0.00     0.200 A 
ATOM     82  F   UNL A   1      36.984  30.139  26.895  1.00  0.00    -0.200 F 
ATOM     83  F   UNL A   1      35.438  30.509  29.108  1.00  0.00    -0.200 F 
ENDBRANCH  49  73
BRANCH  61  84
ATOM     84  C   UNL A   1      44.483  27.550  32.382  1.00  0.00     0.064 A 
ATOM     85  C   UNL A   1      44.375  27.892  33.741  1.00  0.00     0.173 A 
ATOM     86  C   UNL A   1      44.355  26.196  32.046  1.00  0.00     0.173 A 
ATOM     87  F   UNL A   1      44.390  29.170  34.139  1.00  0.00    -0.203 F 
ATOM     88  C   UNL A   1      44.192  26.915  34.719  1.00  0.00     0.198 A 
ATOM     89  C   UNL A   1      44.133  25.226  33.019  1.00  0.00     0.198 A 
ATOM     90  F   UNL A   1      44.401  25.816  30.760  1.00  0.00    -0.203 F 
ATOM     91  F   UNL A   1      44.110  27.262  36.011  1.00  0.00    -0.200 F 
ATOM     92  C   UNL A   1      44.064  25.584  34.355  1.00  0.00     0.200 A 
ATOM     93  F   UNL A   1      43.962  23.948  32.657  1.00  0.00    -0.200 F 
ATOM     94  F   UNL A   1      43.848  24.648  35.290  1.00  0.00    -0.200 F 
ENDBRANCH  61  84
ENDBRANCH  35  36
ENDBRANCH  27  30
ENDBRANCH  25  26
ENDBRANCH  24  25
ENDBRANCH   1  24
TORSDOF 14
ENDMDL
MODEL 2
REMARK VINA RESULT:     -12.2      3.131      8.668
REMARK SMILES CS(=O)(=O)c1ccc(-c2csc(=O)n2CC(=O)NCCCCNC(=O)c2ccc(-c3c4nc(c(-c5c(F)c(F)c(F)c(F)c5F)c5ccc([nH]5)c(-c5c(F)c(F)c(F)c(F)c5F)c5nc(c(-c6c(F)c(F)c(F)c(F)c6F)c6ccc3[nH]6)C=C5)C=C4)cc2)cc1
REMARK SMILES IDX 20 1 19 2 18 3 16 4 17 5 15 7 14 8 9 9 10 10 11 11 12 12
REMARK SMILES IDX 13 13 8 14 5 15 6 16 90 17 7 18 89 19 2 20 1 21 3 22 4 23
REMARK SMILES IDX 21 24 22 25 23 26 24 27 25 29 26 30 27 31 88 32 28 33 87 34
REMARK SMILES IDX 29 35 30 36 31 37 81 38 32 39 86 40 80 41 82 42 33 43 85 44
REMARK SMILES IDX 79 45 78 46 34 48 66 49 46 50 65 51 47 52 50 53 64 54 83 55
REMARK SMILES IDX 48 56 49 57 63 59 84 60 51 61 35 62 36 63 44 64 37 65 38 66
REMARK SMILES IDX 42 67 45 68 39 69 40 70 43 71 41 72 67 73 68 74 76 75 69 76
REMARK SMILES IDX 70 77 74 78 77 79 71 80 72 81 75 82 73 83 52 84 53 85 61 86
REMARK SMILES IDX 54 87 55 88 59 89 62 90 56 91 57 92 60 93 58 94
REMARK H PARENT 18 6 23 28 82 47 50 58
REMARK Flexibility Score: inf
ROOT
ATOM      1  C   UNL A   1      31.583  29.534  26.481  1.00  0.00     0.023 C 
ENDROOT
BRANCH   1   2
ATOM      2  C   UNL A   1      31.796  28.497  27.583  1.00  0.00     0.116 C 
BRANCH   2   3
ATOM      3  N   UNL A   1      31.172  27.229  27.294  1.00  0.00    -0.355 N 
ATOM      4  C   UNL A   1      31.655  26.188  26.551  1.00  0.00     0.240 C 
ATOM      5  O   UNL A   1      31.103  25.093  26.700  1.00  0.00    -0.273 OA
ATOM      6  H   UNL A   1      30.277  27.095  27.683  1.00  0.00     0.163 HD
BRANCH   4   7
ATOM      7  C   UNL A   1      32.942  26.320  25.719  1.00  0.00     0.226 C 
BRANCH   7   8
ATOM      8  N   UNL A   1      32.946  25.600  24.454  1.00  0.00    -0.289 N 
ATOM      9  C   UNL A   1      32.230  25.915  23.302  1.00  0.00     0.063 A 
ATOM     10  C   UNL A   1      32.494  25.099  22.271  1.00  0.00     0.097 A 
ATOM     11  S   UNL A   1      33.685  23.904  22.670  1.00  0.00    -0.082 S 
ATOM     12  C   UNL A   1      33.849  24.548  24.309  1.00  0.00     0.308 A 
ATOM     13  O   UNL A   1      34.622  24.104  25.134  1.00  0.00    -0.257 OA
BRANCH   9  14
ATOM     14  C   UNL A   1      31.233  26.989  23.204  1.00  0.00    -0.001 A 
ATOM     15  C   UNL A   1      29.338  29.004  22.739  1.00  0.00     0.067 A 
ATOM     16  C   UNL A   1      28.937  27.770  23.266  1.00  0.00     0.021 A 
ATOM     17  C   UNL A   1      30.686  29.262  22.497  1.00  0.00     0.021 A 
ATOM     18  C   UNL A   1      29.884  26.769  23.501  1.00  0.00     0.011 A 
ATOM     19  C   UNL A   1      31.627  28.261  22.748  1.00  0.00     0.011 A 
BRANCH  15  20
ATOM     20  S   UNL A   1      28.067  30.191  22.374  1.00  0.00     0.175 S 
ATOM     21  C   UNL A   1      28.601  31.757  23.006  1.00  0.00     0.163 C 
ATOM     22  O   UNL A   1      26.903  29.786  23.137  1.00  0.00    -0.224 OA
ATOM     23  O   UNL A   1      28.025  30.294  20.928  1.00  0.00    -0.224 OA
ENDBRANCH  15  20
ENDBRANCH   9  14
ENDBRANCH   7   8
ENDBRANCH   4   7
ENDBRANCH   2   3
ENDBRANCH   1   2
BRANCH   1  24
ATOM     24  C   UNL A   1      32.782  30.453  26.213  1.00  0.00     0.023 C 
BRANCH  24  25
ATOM     25  C   UNL A   1      33.909  30.341  27.234  1.00  0.00     0.116 C 
BRANCH  25  26
ATOM     26  N   UNL A   1      33.941  31.460  28.172  1.00  0.00    -0.352 N 
ATOM     27  C   UNL A   1      34.880  31.710  29.152  1.00  0.00     0.251 C 
ATOM     28  H   UNL A   1      33.208  32.112  28.096  1.00  0.00     0.163 HD
ATOM     29  O   UNL A   1      34.625  32.443  30.099  1.00  0.00    -0.269 OA
BRANCH  27  30
ATOM     30  C   UNL A   1      36.208  31.081  29.041  1.00  0.00     0.039 A 
ATOM     31  C   UNL A   1      37.371  31.848  29.141  1.00  0.00     0.014 A 
ATOM     32  C   UNL A   1      36.276  29.700  28.857  1.00  0.00     0.014 A 
ATOM     33  C   UNL A   1      38.604  31.202  29.147  1.00  0.00     0.010 A 
ATOM     34  C   UNL A   1      37.485  29.053  28.966  1.00  0.00     0.010 A 
ATOM     35  C   UNL A   1      38.656  29.800  29.088  1.00  0.00    -0.014 A 
BRANCH  35  36
ATOM     36  C   UNL A   1      39.923  29.108  29.325  1.00  0.00     0.031 A 
ATOM     37  C   UNL A   1      40.258  28.918  30.766  1.00  0.00     0.074 A 
ATOM     38  C   UNL A   1      40.633  28.493  28.353  1.00  0.00     0.049 A 
ATOM     39  N   UNL A   1      41.273  29.391  31.411  1.00  0.00    -0.248 NA
ATOM     40  C   UNL A   1      39.285  28.221  31.626  1.00  0.00     0.031 C 
ATOM     41  C   UNL A   1      40.267  28.330  26.943  1.00  0.00     0.029 A 
ATOM     42  N   UNL A   1      41.790  27.777  28.446  1.00  0.00    -0.354 N 
ATOM     43  C   UNL A   1      41.176  28.893  32.709  1.00  0.00     0.074 A 
ATOM     44  C   UNL A   1      39.859  28.328  32.826  1.00  0.00     0.031 C 
ATOM     45  C   UNL A   1      41.044  27.378  26.381  1.00  0.00     0.029 A 
ATOM     46  C   UNL A   1      42.062  26.983  27.336  1.00  0.00     0.049 A 
ATOM     47  H   UNL A   1      42.383  27.818  29.231  1.00  0.00     0.167 HD
ATOM     48  C   UNL A   1      42.286  28.765  33.488  1.00  0.00     0.037 A 
ATOM     49  C   UNL A   1      43.032  26.043  27.219  1.00  0.00     0.037 A 
ATOM     50  C   UNL A   1      43.368  29.568  32.973  1.00  0.00     0.049 A 
ATOM     51  C   UNL A   1      44.052  26.337  28.252  1.00  0.00     0.074 A 
ATOM     52  C   UNL A   1      43.567  30.913  32.737  1.00  0.00     0.029 A 
ATOM     53  N   UNL A   1      44.348  28.916  32.267  1.00  0.00    -0.354 N 
ATOM     54  N   UNL A   1      44.822  27.388  28.239  1.00  0.00    -0.248 NA
ATOM     55  C   UNL A   1      43.938  25.660  29.534  1.00  0.00     0.031 C 
ATOM     56  C   UNL A   1      44.351  30.969  31.546  1.00  0.00     0.029 A 
ATOM     57  C   UNL A   1      44.646  29.661  31.161  1.00  0.00     0.049 A 
ATOM     58  H   UNL A   1      44.765  28.059  32.516  1.00  0.00     0.167 HD
ATOM     59  C   UNL A   1      44.909  27.767  29.568  1.00  0.00     0.074 A 
ATOM     60  C   UNL A   1      44.457  26.602  30.324  1.00  0.00     0.031 C 
ATOM     61  C   UNL A   1      45.058  29.082  29.904  1.00  0.00     0.037 A 
BRANCH  48  62
ATOM     62  C   UNL A   1      42.544  27.607  34.434  1.00  0.00     0.064 A 
ATOM     63  C   UNL A   1      42.998  26.382  33.898  1.00  0.00     0.173 A 
ATOM     64  C   UNL A   1      42.053  27.539  35.756  1.00  0.00     0.173 A 
ATOM     65  F   UNL A   1      43.481  26.319  32.648  1.00  0.00    -0.203 F 
ATOM     66  C   UNL A   1      42.860  25.173  34.587  1.00  0.00     0.198 A 
ATOM     67  C   UNL A   1      41.967  26.338  36.461  1.00  0.00     0.198 A 
ATOM     68  F   UNL A   1      41.529  28.597  36.382  1.00  0.00    -0.203 F 
ATOM     69  F   UNL A   1      43.165  24.020  33.976  1.00  0.00    -0.200 F 
ATOM     70  C   UNL A   1      42.333  25.151  35.863  1.00  0.00     0.200 A 
ATOM     71  F   UNL A   1      41.437  26.336  37.692  1.00  0.00    -0.200 F 
ATOM     72  F   UNL A   1      42.130  23.990  36.498  1.00  0.00    -0.200 F 
ENDBRANCH  48  62
BRANCH  49  73
ATOM     73  C   UNL A   1      43.006  24.753  26.486  1.00  0.00     0.064 A 
ATOM     74  C   UNL A   1      43.852  24.532  25.385  1.00  0.00     0.173 A 
ATOM     75  C   UNL A   1      42.379  23.613  27.027  1.00  0.00     0.173 A 
ATOM     76  F   UNL A   1      44.520  25.555  24.831  1.00  0.00    -0.203 F 
ATOM     77  C   UNL A   1      44.092  23.246  24.886  1.00  0.00     0.198 A 
ATOM     78  C   UNL A   1      42.613  22.333  26.522  1.00  0.00     0.198 A 
ATOM     79  F   UNL A   1      41.608  23.705  28.119  1.00  0.00    -0.203 F 
ATOM     80  F   UNL A   1      44.968  23.071  23.886  1.00  0.00    -0.200 F 
ATOM     81  C   UNL A   1      43.484  22.147  25.465  1.00  0.00     0.200 A 
ATOM     82  F   UNL A   1      42.044  21.273  27.114  1.00  0.00    -0.200 F 
ATOM     83  F   UNL A   1      43.769  20.909  25.036  1.00  0.00    -0.200 F 
ENDBRANCH  49  73
BRANCH  61  84
ATOM     84  C   UNL A   1      45.483  30.036  28.824  1.00  0.00     0.064 A 
ATOM     85  C   UNL A   1      44.603  30.704  27.954  1.00  0.00     0.173 A 
ATOM     86  C   UNL A   1      46.841  30.378  28.754  1.00  0.00     0.173 A 
ATOM     87  F   UNL A   1      43.281  30.508  28.020  1.00  0.00    -0.203 F 
ATOM     88  C   UNL A   1      45.072  31.636  27.029  1.00  0.00     0.198 A 
ATOM     89  C   UNL A   1      47.301  31.337  27.858  1.00  0.00     0.198 A 
ATOM     90  F   UNL A   1      47.720  29.809  29.593  1.00  0.00    -0.203 F 
ATOM     91  F   UNL A   1      44.216  32.247  26.197  1.00  0.00    -0.200 F 
ATOM     92  C   UNL A   1      46.420  31.956  26.987  1.00  0.00     0.200 A 
ATOM     93  F   UNL A   1      48.596  31.678  27.856  1.00  0.00    -0.200 F 
ATOM     94  F   UNL A   1      46.865  32.882  26.126  1.00  0.00    -0.200 F 
ENDBRANCH  61  84
ENDBRANCH  35  36
ENDBRANCH  27  30
ENDBRANCH  25  26
ENDBRANCH  24  25
ENDBRANCH   1  24
TORSDOF 14
ENDMDL
MODEL 3
REMARK VINA RESULT:     -12.1      2.209      7.298
REMARK SMILES CS(=O)(=O)c1ccc(-c2csc(=O)n2CC(=O)NCCCCNC(=O)c2ccc(-c3c4nc(c(-c5c(F)c(F)c(F)c(F)c5F)c5ccc([nH]5)c(-c5c(F)c(F)c(F)c(F)c5F)c5nc(c(-c6c(F)c(F)c(F)c(F)c6F)c6ccc3[nH]6)C=C5)C=C4)cc2)cc1
REMARK SMILES IDX 20 1 19 2 18 3 16 4 17 5 15 7 14 8 9 9 10 10 11 11 12 12
REMARK SMILES IDX 13 13 8 14 5 15 6 16 90 17 7 18 89 19 2 20 1 21 3 22 4 23
REMARK SMILES IDX 21 24 22 25 23 26 24 27 25 29 26 30 27 31 88 32 28 33 87 34
REMARK SMILES IDX 29 35 30 36 31 37 81 38 32 39 86 40 80 41 82 42 33 43 85 44
REMARK SMILES IDX 79 45 78 46 34 48 66 49 46 50 65 51 47 52 50 53 64 54 83 55
REMARK SMILES IDX 48 56 49 57 63 59 84 60 51 61 35 62 36 63 44 64 37 65 38 66
REMARK SMILES IDX 42 67 45 68 39 69 40 70 43 71 41 72 67 73 68 74 76 75 69 76
REMARK SMILES IDX 70 77 74 78 77 79 71 80 72 81 75 82 73 83 52 84 53 85 61 86
REMARK SMILES IDX 54 87 55 88 59 89 62 90 56 91 57 92 60 93 58 94
REMARK H PARENT 18 6 23 28 82 47 50 58
REMARK Flexibility Score: inf
ROOT
ATOM      1  C   UNL A   1      36.962  20.467  24.927  1.00  0.00     0.023 C 
ENDROOT
BRANCH   1   2
ATOM      2  C   UNL A   1      37.307  21.928  25.215  1.00  0.00     0.116 C 
BRANCH   2   3
ATOM      3  N   UNL A   1      36.513  22.498  26.277  1.00  0.00    -0.355 N 
ATOM      4  C   UNL A   1      35.286  23.094  26.200  1.00  0.00     0.240 C 
ATOM      5  O   UNL A   1      34.660  23.218  27.258  1.00  0.00    -0.273 OA
ATOM      6  H   UNL A   1      36.909  22.452  27.177  1.00  0.00     0.163 HD
BRANCH   4   7
ATOM      7  C   UNL A   1      34.629  23.419  24.848  1.00  0.00     0.226 C 
BRANCH   7   8
ATOM      8  N   UNL A   1      33.184  23.587  24.878  1.00  0.00    -0.289 N 
ATOM      9  C   UNL A   1      32.219  22.584  24.888  1.00  0.00     0.063 A 
ATOM     10  C   UNL A   1      30.966  23.051  24.985  1.00  0.00     0.097 A 
ATOM     11  S   UNL A   1      30.919  24.780  25.103  1.00  0.00    -0.082 S 
ATOM     12  C   UNL A   1      32.683  24.878  25.037  1.00  0.00     0.308 A 
ATOM     13  O   UNL A   1      33.304  25.920  25.107  1.00  0.00    -0.257 OA
BRANCH   9  14
ATOM     14  C   UNL A   1      32.502  21.149  24.751  1.00  0.00    -0.001 A 
ATOM     15  C   UNL A   1      33.272  18.482  24.349  1.00  0.00     0.067 A 
ATOM     16  C   UNL A   1      33.404  19.069  25.613  1.00  0.00     0.021 A 
ATOM     17  C   UNL A   1      32.705  19.197  23.296  1.00  0.00     0.021 A 
ATOM     18  C   UNL A   1      33.015  20.397  25.813  1.00  0.00     0.011 A 
ATOM     19  C   UNL A   1      32.305  20.519  23.508  1.00  0.00     0.011 A 
BRANCH  15  20
ATOM     20  S   UNL A   1      33.879  16.824  24.147  1.00  0.00     0.175 S 
ATOM     21  C   UNL A   1      32.801  15.747  25.049  1.00  0.00     0.163 C 
ATOM     22  O   UNL A   1      35.176  16.786  24.795  1.00  0.00    -0.224 OA
ATOM     23  O   UNL A   1      33.728  16.516  22.738  1.00  0.00    -0.224 OA
ENDBRANCH  15  20
ENDBRANCH   9  14
ENDBRANCH   7   8
ENDBRANCH   4   7
ENDBRANCH   2   3
ENDBRANCH   1   2
BRANCH   1  24
ATOM     24  C   UNL A   1      38.146  19.494  24.995  1.00  0.00     0.023 C 
BRANCH  24  25
ATOM     25  C   UNL A   1      39.316  19.975  25.846  1.00  0.00     0.116 C 
BRANCH  25  26
ATOM     26  N   UNL A   1      40.494  19.118  25.733  1.00  0.00    -0.352 N 
ATOM     27  C   UNL A   1      41.818  19.493  25.825  1.00  0.00     0.251 C 
ATOM     28  H   UNL A   1      40.322  18.163  25.573  1.00  0.00     0.163 HD
ATOM     29  O   UNL A   1      42.707  18.789  25.359  1.00  0.00    -0.269 OA
BRANCH  27  30
ATOM     30  C   UNL A   1      42.154  20.758  26.500  1.00  0.00     0.039 A 
ATOM     31  C   UNL A   1      42.442  21.907  25.759  1.00  0.00     0.014 A 
ATOM     32  C   UNL A   1      42.156  20.787  27.894  1.00  0.00     0.014 A 
ATOM     33  C   UNL A   1      42.642  23.108  26.432  1.00  0.00     0.010 A 
ATOM     34  C   UNL A   1      42.250  21.992  28.553  1.00  0.00     0.010 A 
ATOM     35  C   UNL A   1      42.516  23.153  27.830  1.00  0.00    -0.014 A 
BRANCH  35  36
ATOM     36  C   UNL A   1      42.495  24.444  28.518  1.00  0.00     0.031 A 
ATOM     37  C   UNL A   1      41.276  25.261  28.251  1.00  0.00     0.074 A 
ATOM     38  C   UNL A   1      43.375  24.791  29.483  1.00  0.00     0.049 A 
ATOM     39  N   UNL A   1      41.212  26.423  27.687  1.00  0.00    -0.248 NA
ATOM     40  C   UNL A   1      39.958  24.667  28.531  1.00  0.00     0.031 C 
ATOM     41  C   UNL A   1      44.435  23.965  30.069  1.00  0.00     0.029 A 
ATOM     42  N   UNL A   1      43.436  25.930  30.232  1.00  0.00    -0.354 N 
ATOM     43  C   UNL A   1      39.870  26.795  27.716  1.00  0.00     0.074 A 
ATOM     44  C   UNL A   1      39.133  25.617  28.086  1.00  0.00     0.031 C 
ATOM     45  C   UNL A   1      44.863  24.528  31.221  1.00  0.00     0.029 A 
ATOM     46  C   UNL A   1      44.230  25.825  31.370  1.00  0.00     0.049 A 
ATOM     47  H   UNL A   1      42.959  26.756  29.988  1.00  0.00     0.167 HD
ATOM     48  C   UNL A   1      39.512  28.109  27.682  1.00  0.00     0.037 A 
ATOM     49  C   UNL A   1      44.335  26.722  32.382  1.00  0.00     0.037 A 
ATOM     50  C   UNL A   1      40.601  28.922  27.198  1.00  0.00     0.049 A 
ATOM     51  C   UNL A   1      43.869  28.027  31.858  1.00  0.00     0.074 A 
ATOM     52  C   UNL A   1      41.335  28.987  26.031  1.00  0.00     0.029 A 
ATOM     53  N   UNL A   1      41.325  29.616  28.134  1.00  0.00    -0.354 N 
ATOM     54  N   UNL A   1      44.498  28.714  30.946  1.00  0.00    -0.248 NA
ATOM     55  C   UNL A   1      42.475  28.383  32.058  1.00  0.00     0.031 C 
ATOM     56  C   UNL A   1      42.663  29.309  26.445  1.00  0.00     0.029 A 
ATOM     57  C   UNL A   1      42.651  29.491  27.828  1.00  0.00     0.049 A 
ATOM     58  H   UNL A   1      40.953  30.119  28.895  1.00  0.00     0.167 HD
ATOM     59  C   UNL A   1      43.490  29.244  30.158  1.00  0.00     0.074 A 
ATOM     60  C   UNL A   1      42.277  29.115  30.960  1.00  0.00     0.031 C 
ATOM     61  C   UNL A   1      43.695  29.461  28.826  1.00  0.00     0.037 A 
BRANCH  48  62
ATOM     62  C   UNL A   1      38.372  28.712  28.480  1.00  0.00     0.064 A 
ATOM     63  C   UNL A   1      37.592  29.729  27.888  1.00  0.00     0.173 A 
ATOM     64  C   UNL A   1      38.229  28.582  29.879  1.00  0.00     0.173 A 
ATOM     65  F   UNL A   1      37.648  29.952  26.566  1.00  0.00    -0.203 F 
ATOM     66  C   UNL A   1      36.828  30.618  28.650  1.00  0.00     0.198 A 
ATOM     67  C   UNL A   1      37.422  29.438  30.630  1.00  0.00     0.198 A 
ATOM     68  F   UNL A   1      38.943  27.710  30.596  1.00  0.00    -0.203 F 
ATOM     69  F   UNL A   1      36.229  31.659  28.056  1.00  0.00    -0.200 F 
ATOM     70  C   UNL A   1      36.753  30.478  30.022  1.00  0.00     0.200 A 
ATOM     71  F   UNL A   1      37.376  29.295  31.962  1.00  0.00    -0.200 F 
ATOM     72  F   UNL A   1      36.084  31.369  30.764  1.00  0.00    -0.200 F 
ENDBRANCH  48  62
BRANCH  49  73
ATOM     73  C   UNL A   1      44.528  26.483  33.833  1.00  0.00     0.064 A 
ATOM     74  C   UNL A   1      43.471  26.016  34.634  1.00  0.00     0.173 A 
ATOM     75  C   UNL A   1      45.816  26.415  34.401  1.00  0.00     0.173 A 
ATOM     76  F   UNL A   1      42.217  26.007  34.158  1.00  0.00    -0.203 F 
ATOM     77  C   UNL A   1      43.693  25.473  35.904  1.00  0.00     0.198 A 
ATOM     78  C   UNL A   1      46.034  25.882  35.673  1.00  0.00     0.198 A 
ATOM     79  F   UNL A   1      46.899  26.772  33.697  1.00  0.00    -0.203 F 
ATOM     80  F   UNL A   1      42.667  24.965  36.602  1.00  0.00    -0.200 F 
ATOM     81  C   UNL A   1      44.976  25.392  36.416  1.00  0.00     0.200 A 
ATOM     82  F   UNL A   1      47.286  25.779  36.143  1.00  0.00    -0.200 F 
ATOM     83  F   UNL A   1      45.199  24.807  37.601  1.00  0.00    -0.200 F 
ENDBRANCH  49  73
BRANCH  61  84
ATOM     84  C   UNL A   1      45.112  29.458  28.326  1.00  0.00     0.064 A 
ATOM     85  C   UNL A   1      45.802  28.316  27.882  1.00  0.00     0.173 A 
ATOM     86  C   UNL A   1      45.753  30.695  28.179  1.00  0.00     0.173 A 
ATOM     87  F   UNL A   1      45.226  27.107  27.898  1.00  0.00    -0.203 F 
ATOM     88  C   UNL A   1      47.091  28.410  27.359  1.00  0.00     0.198 A 
ATOM     89  C   UNL A   1      47.023  30.791  27.619  1.00  0.00     0.198 A 
ATOM     90  F   UNL A   1      45.124  31.824  28.540  1.00  0.00    -0.203 F 
ATOM     91  F   UNL A   1      47.737  27.305  26.958  1.00  0.00    -0.200 F 
ATOM     92  C   UNL A   1      47.696  29.648  27.221  1.00  0.00     0.200 A 
ATOM     93  F   UNL A   1      47.583  31.995  27.444  1.00  0.00    -0.200 F 
ATOM     94  F   UNL A   1      48.920  29.743  26.680  1.00  0.00    -0.200 F 
ENDBRANCH  61  84
ENDBRANCH  35  36
ENDBRANCH  27  30
ENDBRANCH  25  26
ENDBRANCH  24  25
ENDBRANCH   1  24
TORSDOF 14
ENDMDL
