MODEL 1
REMARK VINA RESULT:     -12.3      0.000      0.000
REMARK SMILES C[C@H]1CCCN(C(=O)c2cn(C)nc2C(=O)NCCCCNC(=O)c2ccc(-c3c4nc(c(-c5c(F)c(F)c(F)c(F)c5F)c5ccc([nH]5)c(-c5c(F)c(F)c(F)c(F)c5F)c5nc(c(-c6c(F)c(F)c(F)c(F)c6F)c6ccc3[nH]6)C=C5)C=C4)cc2)C1
REMARK SMILES IDX 19 1 18 2 17 3 15 4 16 5 14 7 9 8 10 9 11 10 13 11 12 12
REMARK SMILES IDX 7 13 8 14 6 15 1 16 2 17 3 18 88 19 4 20 5 21 20 22 21 23
REMARK SMILES IDX 22 24 23 25 24 27 25 28 26 29 87 30 27 31 86 32 28 33 29 34
REMARK SMILES IDX 30 35 80 36 31 37 85 38 79 39 81 40 32 41 84 42 78 43 77 44
REMARK SMILES IDX 33 46 65 47 45 48 64 49 46 50 49 51 63 52 82 53 47 54 48 55
REMARK SMILES IDX 62 57 83 58 50 59 34 60 35 61 43 62 36 63 37 64 41 65 44 66
REMARK SMILES IDX 38 67 39 68 42 69 40 70 66 71 67 72 75 73 68 74 69 75 73 76
REMARK SMILES IDX 76 77 70 78 71 79 74 80 72 81 51 82 52 83 60 84 53 85 54 86
REMARK SMILES IDX 58 87 61 88 55 89 56 90 59 91 57 92
REMARK H PARENT 17 6 22 26 81 45 49 56
REMARK Flexibility Score: inf
ROOT
ATOM      1  C   UNL A   1      36.977  22.145  24.447  1.00  0.00     0.023 C 
ENDROOT
BRANCH   1   2
ATOM      2  C   UNL A   1      36.402  23.098  25.484  1.00  0.00     0.116 C 
BRANCH   2   3
ATOM      3  N   UNL A   1      35.685  22.504  26.577  1.00  0.00    -0.351 N 
ATOM      4  C   UNL A   1      34.350  22.156  26.673  1.00  0.00     0.272 C 
ATOM      5  O   UNL A   1      34.024  21.649  27.752  1.00  0.00    -0.267 OA
ATOM      6  H   UNL A   1      36.225  22.317  27.378  1.00  0.00     0.163 HD
BRANCH   4   7
ATOM      7  C   UNL A   1      33.348  22.415  25.600  1.00  0.00     0.162 A 
ATOM      8  C   UNL A   1      32.352  23.434  25.414  1.00  0.00     0.091 A 
ATOM      9  C   UNL A   1      31.800  23.189  24.169  1.00  0.00     0.123 A 
ATOM     10  N   UNL A   1      32.414  22.076  23.699  1.00  0.00    -0.274 N 
ATOM     11  N   UNL A   1      33.325  21.573  24.539  1.00  0.00    -0.167 NA
ATOM     12  C   UNL A   1      32.175  21.422  22.435  1.00  0.00     0.173 C 
BRANCH   8  13
ATOM     13  C   UNL A   1      32.006  24.560  26.253  1.00  0.00     0.257 C 
ATOM     14  O   UNL A   1      31.346  24.385  27.279  1.00  0.00    -0.269 OA
BRANCH  13  15
ATOM     15  N   UNL A   1      32.360  25.835  25.797  1.00  0.00    -0.338 N 
ATOM     16  C   UNL A   1      31.444  28.032  27.796  1.00  0.00     0.009 C 
ATOM     17  C   UNL A   1      31.646  28.159  26.285  1.00  0.00     0.005 C 
ATOM     18  C   UNL A   1      33.067  28.626  25.926  1.00  0.00     0.007 C 
ATOM     19  C   UNL A   1      31.312  26.834  25.594  1.00  0.00     0.123 C 
ATOM     20  C   UNL A   1      34.114  27.522  26.082  1.00  0.00     0.022 C 
ATOM     21  C   UNL A   1      33.692  26.254  25.349  1.00  0.00     0.120 C 
ENDBRANCH  13  15
ENDBRANCH   8  13
ENDBRANCH   4   7
ENDBRANCH   2   3
ENDBRANCH   1   2
BRANCH   1  22
ATOM     22  C   UNL A   1      37.618  20.862  24.963  1.00  0.00     0.023 C 
BRANCH  22  23
ATOM     23  C   UNL A   1      38.946  21.001  25.701  1.00  0.00     0.116 C 
BRANCH  23  24
ATOM     24  N   UNL A   1      39.764  19.792  25.713  1.00  0.00    -0.352 N 
ATOM     25  C   UNL A   1      41.096  19.601  26.008  1.00  0.00     0.251 C 
ATOM     26  H   UNL A   1      39.279  18.971  25.467  1.00  0.00     0.163 HD
ATOM     27  O   UNL A   1      41.596  18.487  25.886  1.00  0.00    -0.269 OA
BRANCH  25  28
ATOM     28  C   UNL A   1      41.942  20.744  26.413  1.00  0.00     0.039 A 
ATOM     29  C   UNL A   1      42.496  21.558  25.421  1.00  0.00     0.014 A 
ATOM     30  C   UNL A   1      42.151  21.046  27.758  1.00  0.00     0.014 A 
ATOM     31  C   UNL A   1      43.127  22.754  25.778  1.00  0.00     0.010 A 
ATOM     32  C   UNL A   1      42.693  22.278  28.109  1.00  0.00     0.010 A 
ATOM     33  C   UNL A   1      43.156  23.160  27.122  1.00  0.00    -0.014 A 
BRANCH  33  34
ATOM     34  C   UNL A   1      43.593  24.524  27.518  1.00  0.00     0.031 A 
ATOM     35  C   UNL A   1      42.583  25.555  27.933  1.00  0.00     0.074 A 
ATOM     36  C   UNL A   1      44.888  24.874  27.371  1.00  0.00     0.049 A 
ATOM     37  N   UNL A   1      42.747  26.836  28.148  1.00  0.00    -0.248 NA
ATOM     38  C   UNL A   1      41.196  25.092  28.088  1.00  0.00     0.031 C 
ATOM     39  C   UNL A   1      45.959  23.986  26.911  1.00  0.00     0.029 A 
ATOM     40  N   UNL A   1      45.520  26.078  27.566  1.00  0.00    -0.354 N 
ATOM     41  C   UNL A   1      41.483  27.336  28.429  1.00  0.00     0.074 A 
ATOM     42  C   UNL A   1      40.557  26.230  28.319  1.00  0.00     0.031 C 
ATOM     43  C   UNL A   1      47.113  24.670  26.870  1.00  0.00     0.029 A 
ATOM     44  C   UNL A   1      46.859  26.054  27.255  1.00  0.00     0.049 A 
ATOM     45  H   UNL A   1      45.058  26.881  27.897  1.00  0.00     0.167 HD
ATOM     46  C   UNL A   1      41.131  28.600  28.766  1.00  0.00     0.037 A 
ATOM     47  C   UNL A   1      47.776  27.040  27.258  1.00  0.00     0.037 A 
ATOM     48  C   UNL A   1      42.061  29.686  28.923  1.00  0.00     0.049 A 
ATOM     49  C   UNL A   1      47.363  28.429  27.650  1.00  0.00     0.074 A 
ATOM     50  C   UNL A   1      41.818  30.970  29.379  1.00  0.00     0.029 A 
ATOM     51  N   UNL A   1      43.414  29.616  28.625  1.00  0.00    -0.354 N 
ATOM     52  N   UNL A   1      46.179  28.871  27.997  1.00  0.00    -0.248 NA
ATOM     53  C   UNL A   1      48.411  29.460  27.646  1.00  0.00     0.031 C 
ATOM     54  C   UNL A   1      43.017  31.689  29.317  1.00  0.00     0.029 A 
ATOM     55  C   UNL A   1      44.013  30.843  28.857  1.00  0.00     0.049 A 
ATOM     56  H   UNL A   1      43.879  28.813  28.298  1.00  0.00     0.167 HD
ATOM     57  C   UNL A   1      46.339  30.225  28.258  1.00  0.00     0.074 A 
ATOM     58  C   UNL A   1      47.739  30.529  28.052  1.00  0.00     0.031 C 
ATOM     59  C   UNL A   1      45.405  31.133  28.633  1.00  0.00     0.037 A 
BRANCH  46  60
ATOM     60  C   UNL A   1      39.675  28.874  28.994  1.00  0.00     0.064 A 
ATOM     61  C   UNL A   1      39.082  28.705  30.255  1.00  0.00     0.173 A 
ATOM     62  C   UNL A   1      38.867  29.340  27.945  1.00  0.00     0.173 A 
ATOM     63  F   UNL A   1      39.810  28.253  31.287  1.00  0.00    -0.203 F 
ATOM     64  C   UNL A   1      37.728  28.961  30.450  1.00  0.00     0.198 A 
ATOM     65  C   UNL A   1      37.519  29.621  28.150  1.00  0.00     0.198 A 
ATOM     66  F   UNL A   1      39.386  29.524  26.722  1.00  0.00    -0.203 F 
ATOM     67  F   UNL A   1      37.173  28.745  31.650  1.00  0.00    -0.200 F 
ATOM     68  C   UNL A   1      36.949  29.424  29.400  1.00  0.00     0.200 A 
ATOM     69  F   UNL A   1      36.769  30.078  27.138  1.00  0.00    -0.200 F 
ATOM     70  F   UNL A   1      35.646  29.673  29.590  1.00  0.00    -0.200 F 
ENDBRANCH  46  60
BRANCH  47  71
ATOM     71  C   UNL A   1      49.180  26.741  26.876  1.00  0.00     0.064 A 
ATOM     72  C   UNL A   1      49.610  26.897  25.551  1.00  0.00     0.173 A 
ATOM     73  C   UNL A   1      50.119  26.309  27.822  1.00  0.00     0.173 A 
ATOM     74  F   UNL A   1      48.741  27.287  24.608  1.00  0.00    -0.203 F 
ATOM     75  C   UNL A   1      50.926  26.621  25.186  1.00  0.00     0.198 A 
ATOM     76  C   UNL A   1      51.442  26.056  27.460  1.00  0.00     0.198 A 
ATOM     77  F   UNL A   1      49.757  26.148  29.103  1.00  0.00    -0.203 F 
ATOM     78  F   UNL A   1      51.304  26.748  23.906  1.00  0.00    -0.200 F 
ATOM     79  C   UNL A   1      51.842  26.208  26.141  1.00  0.00     0.200 A 
ATOM     80  F   UNL A   1      52.326  25.668  28.387  1.00  0.00    -0.200 F 
ATOM     81  F   UNL A   1      53.109  25.950  25.789  1.00  0.00    -0.200 F 
ENDBRANCH  47  71
BRANCH  59  82
ATOM     82  C   UNL A   1      45.868  32.545  28.840  1.00  0.00     0.064 A 
ATOM     83  C   UNL A   1      46.379  32.968  30.074  1.00  0.00     0.173 A 
ATOM     84  C   UNL A   1      45.847  33.466  27.782  1.00  0.00     0.173 A 
ATOM     85  F   UNL A   1      46.401  32.128  31.120  1.00  0.00    -0.203 F 
ATOM     86  C   UNL A   1      46.843  34.270  30.246  1.00  0.00     0.198 A 
ATOM     87  C   UNL A   1      46.335  34.759  27.951  1.00  0.00     0.198 A 
ATOM     88  F   UNL A   1      45.370  33.105  26.581  1.00  0.00    -0.203 F 
ATOM     89  F   UNL A   1      47.297  34.665  31.444  1.00  0.00    -0.200 F 
ATOM     90  C   UNL A   1      46.828  35.161  29.183  1.00  0.00     0.200 A 
ATOM     91  F   UNL A   1      46.328  35.615  26.921  1.00  0.00    -0.200 F 
ATOM     92  F   UNL A   1      47.285  36.409  29.348  1.00  0.00    -0.200 F 
ENDBRANCH  59  82
ENDBRANCH  33  34
ENDBRANCH  25  28
ENDBRANCH  23  24
ENDBRANCH  22  23
ENDBRANCH   1  22
TORSDOF 13
ENDMDL
MODEL 2
REMARK VINA RESULT:     -12.3      0.489      2.020
REMARK SMILES C[C@H]1CCCN(C(=O)c2cn(C)nc2C(=O)NCCCCNC(=O)c2ccc(-c3c4nc(c(-c5c(F)c(F)c(F)c(F)c5F)c5ccc([nH]5)c(-c5c(F)c(F)c(F)c(F)c5F)c5nc(c(-c6c(F)c(F)c(F)c(F)c6F)c6ccc3[nH]6)C=C5)C=C4)cc2)C1
REMARK SMILES IDX 19 1 18 2 17 3 15 4 16 5 14 7 9 8 10 9 11 10 13 11 12 12
REMARK SMILES IDX 7 13 8 14 6 15 1 16 2 17 3 18 88 19 4 20 5 21 20 22 21 23
REMARK SMILES IDX 22 24 23 25 24 27 25 28 26 29 87 30 27 31 86 32 28 33 29 34
REMARK SMILES IDX 30 35 80 36 31 37 85 38 79 39 81 40 32 41 84 42 78 43 77 44
REMARK SMILES IDX 33 46 65 47 45 48 64 49 46 50 49 51 63 52 82 53 47 54 48 55
REMARK SMILES IDX 62 57 83 58 50 59 34 60 35 61 43 62 36 63 37 64 41 65 44 66
REMARK SMILES IDX 38 67 39 68 42 69 40 70 66 71 67 72 75 73 68 74 69 75 73 76
REMARK SMILES IDX 76 77 70 78 71 79 74 80 72 81 51 82 52 83 60 84 53 85 54 86
REMARK SMILES IDX 58 87 61 88 55 89 56 90 59 91 57 92
REMARK H PARENT 17 6 22 26 81 45 49 56
REMARK Flexibility Score: inf
ROOT
ATOM      1  C   UNL A   1      37.038  22.093  24.451  1.00  0.00     0.023 C 
ENDROOT
BRANCH   1   2
ATOM      2  C   UNL A   1      36.359  23.011  25.455  1.00  0.00     0.116 C 
BRANCH   2   3
ATOM      3  N   UNL A   1      35.661  22.378  26.538  1.00  0.00    -0.351 N 
ATOM      4  C   UNL A   1      34.337  21.988  26.628  1.00  0.00     0.272 C 
ATOM      5  O   UNL A   1      34.027  21.453  27.699  1.00  0.00    -0.267 OA
ATOM      6  H   UNL A   1      36.207  22.193  27.337  1.00  0.00     0.163 HD
BRANCH   4   7
ATOM      7  C   UNL A   1      33.327  22.234  25.560  1.00  0.00     0.162 A 
ATOM      8  C   UNL A   1      32.338  23.258  25.364  1.00  0.00     0.091 A 
ATOM      9  C   UNL A   1      31.772  22.994  24.129  1.00  0.00     0.123 A 
ATOM     10  N   UNL A   1      32.373  21.867  23.675  1.00  0.00    -0.274 N 
ATOM     11  N   UNL A   1      33.288  21.373  24.515  1.00  0.00    -0.167 NA
ATOM     12  C   UNL A   1      32.117  21.191  22.425  1.00  0.00     0.173 C 
BRANCH   8  13
ATOM     13  C   UNL A   1      32.008  24.402  26.185  1.00  0.00     0.257 C 
ATOM     14  O   UNL A   1      31.403  24.246  27.246  1.00  0.00    -0.269 OA
BRANCH  13  15
ATOM     15  N   UNL A   1      32.311  25.669  25.673  1.00  0.00    -0.338 N 
ATOM     16  C   UNL A   1      31.403  27.910  27.626  1.00  0.00     0.009 C 
ATOM     17  C   UNL A   1      31.550  27.989  26.105  1.00  0.00     0.005 C 
ATOM     18  C   UNL A   1      32.945  28.480  25.682  1.00  0.00     0.007 C 
ATOM     19  C   UNL A   1      31.231  26.632  25.473  1.00  0.00     0.123 C 
ATOM     20  C   UNL A   1      34.027  27.411  25.840  1.00  0.00     0.022 C 
ATOM     21  C   UNL A   1      33.615  26.107  25.166  1.00  0.00     0.120 C 
ENDBRANCH  13  15
ENDBRANCH   8  13
ENDBRANCH   4   7
ENDBRANCH   2   3
ENDBRANCH   1   2
BRANCH   1  22
ATOM     22  C   UNL A   1      37.675  20.819  24.995  1.00  0.00     0.023 C 
BRANCH  22  23
ATOM     23  C   UNL A   1      38.990  20.973  25.753  1.00  0.00     0.116 C 
BRANCH  23  24
ATOM     24  N   UNL A   1      39.800  19.760  25.817  1.00  0.00    -0.352 N 
ATOM     25  C   UNL A   1      41.136  19.576  26.096  1.00  0.00     0.251 C 
ATOM     26  H   UNL A   1      39.305  18.930  25.627  1.00  0.00     0.163 HD
ATOM     27  O   UNL A   1      41.627  18.453  26.027  1.00  0.00    -0.269 OA
BRANCH  25  28
ATOM     28  C   UNL A   1      41.998  20.733  26.421  1.00  0.00     0.039 A 
ATOM     29  C   UNL A   1      42.505  21.511  25.376  1.00  0.00     0.014 A 
ATOM     30  C   UNL A   1      42.266  21.085  27.744  1.00  0.00     0.014 A 
ATOM     31  C   UNL A   1      43.149  22.719  25.660  1.00  0.00     0.010 A 
ATOM     32  C   UNL A   1      42.821  22.329  28.024  1.00  0.00     0.010 A 
ATOM     33  C   UNL A   1      43.237  23.174  26.985  1.00  0.00    -0.014 A 
BRANCH  33  34
ATOM     34  C   UNL A   1      43.690  24.552  27.312  1.00  0.00     0.031 A 
ATOM     35  C   UNL A   1      42.708  25.577  27.802  1.00  0.00     0.074 A 
ATOM     36  C   UNL A   1      44.958  24.916  27.033  1.00  0.00     0.049 A 
ATOM     37  N   UNL A   1      42.872  26.864  27.977  1.00  0.00    -0.248 NA
ATOM     38  C   UNL A   1      41.350  25.098  28.100  1.00  0.00     0.031 C 
ATOM     39  C   UNL A   1      45.993  24.034  26.489  1.00  0.00     0.029 A 
ATOM     40  N   UNL A   1      45.587  26.133  27.143  1.00  0.00    -0.354 N 
ATOM     41  C   UNL A   1      41.633  27.352  28.369  1.00  0.00     0.074 A 
ATOM     42  C   UNL A   1      40.718  26.232  28.370  1.00  0.00     0.031 C 
ATOM     43  C   UNL A   1      47.127  24.733  26.323  1.00  0.00     0.029 A 
ATOM     44  C   UNL A   1      46.890  26.121  26.704  1.00  0.00     0.049 A 
ATOM     45  H   UNL A   1      45.147  26.936  27.502  1.00  0.00     0.167 HD
ATOM     46  C   UNL A   1      41.296  28.618  28.714  1.00  0.00     0.037 A 
ATOM     47  C   UNL A   1      47.787  27.119  26.599  1.00  0.00     0.037 A 
ATOM     48  C   UNL A   1      42.219  29.720  28.759  1.00  0.00     0.049 A 
ATOM     49  C   UNL A   1      47.392  28.511  27.003  1.00  0.00     0.074 A 
ATOM     50  C   UNL A   1      42.001  31.009  29.212  1.00  0.00     0.029 A 
ATOM     51  N   UNL A   1      43.538  29.662  28.333  1.00  0.00    -0.354 N 
ATOM     52  N   UNL A   1      46.240  28.943  27.454  1.00  0.00    -0.248 NA
ATOM     53  C   UNL A   1      48.419  29.556  26.878  1.00  0.00     0.031 C 
ATOM     54  C   UNL A   1      43.176  31.744  29.021  1.00  0.00     0.029 A 
ATOM     55  C   UNL A   1      44.137  30.902  28.482  1.00  0.00     0.049 A 
ATOM     56  H   UNL A   1      43.982  28.859  27.978  1.00  0.00     0.167 HD
ATOM     57  C   UNL A   1      46.404  30.304  27.673  1.00  0.00     0.074 A 
ATOM     58  C   UNL A   1      47.773  30.623  27.326  1.00  0.00     0.031 C 
ATOM     59  C   UNL A   1      45.496  31.207  28.119  1.00  0.00     0.037 A 
BRANCH  46  60
ATOM     60  C   UNL A   1      39.864  28.877  29.077  1.00  0.00     0.064 A 
ATOM     61  C   UNL A   1      38.916  29.253  28.112  1.00  0.00     0.173 A 
ATOM     62  C   UNL A   1      39.427  28.718  30.401  1.00  0.00     0.173 A 
ATOM     63  F   UNL A   1      39.286  29.427  26.835  1.00  0.00    -0.203 F 
ATOM     64  C   UNL A   1      37.591  29.493  28.465  1.00  0.00     0.198 A 
ATOM     65  C   UNL A   1      38.095  28.932  30.746  1.00  0.00     0.198 A 
ATOM     66  F   UNL A   1      40.291  28.354  31.359  1.00  0.00    -0.203 F 
ATOM     67  F   UNL A   1      36.715  29.899  27.537  1.00  0.00    -0.200 F 
ATOM     68  C   UNL A   1      37.181  29.327  29.780  1.00  0.00     0.200 A 
ATOM     69  F   UNL A   1      37.697  28.762  32.014  1.00  0.00    -0.200 F 
ATOM     70  F   UNL A   1      35.903  29.555  30.118  1.00  0.00    -0.200 F 
ENDBRANCH  46  60
BRANCH  47  71
ATOM     71  C   UNL A   1      49.152  26.832  26.089  1.00  0.00     0.064 A 
ATOM     72  C   UNL A   1      50.156  26.369  26.950  1.00  0.00     0.173 A 
ATOM     73  C   UNL A   1      49.478  27.002  24.736  1.00  0.00     0.173 A 
ATOM     74  F   UNL A   1      49.896  26.214  28.257  1.00  0.00    -0.203 F 
ATOM     75  C   UNL A   1      51.438  26.095  26.479  1.00  0.00     0.198 A 
ATOM     76  C   UNL A   1      50.755  26.705  24.261  1.00  0.00     0.198 A 
ATOM     77  F   UNL A   1      48.552  27.439  23.872  1.00  0.00    -0.203 F 
ATOM     78  F   UNL A   1      52.389  25.684  27.330  1.00  0.00    -0.200 F 
ATOM     79  C   UNL A   1      51.735  26.257  25.134  1.00  0.00     0.200 A 
ATOM     80  F   UNL A   1      51.034  26.851  22.960  1.00  0.00    -0.200 F 
ATOM     81  F   UNL A   1      52.966  25.986  24.681  1.00  0.00    -0.200 F 
ENDBRANCH  47  71
BRANCH  59  82
ATOM     82  C   UNL A   1      45.954  32.629  28.253  1.00  0.00     0.064 A 
ATOM     83  C   UNL A   1      45.785  33.549  27.209  1.00  0.00     0.173 A 
ATOM     84  C   UNL A   1      46.519  33.087  29.453  1.00  0.00     0.173 A 
ATOM     85  F   UNL A   1      45.267  33.151  26.037  1.00  0.00    -0.203 F 
ATOM     86  C   UNL A   1      46.176  34.876  27.357  1.00  0.00     0.198 A 
ATOM     87  C   UNL A   1      46.887  34.421  29.605  1.00  0.00     0.198 A 
ATOM     88  F   UNL A   1      46.698  32.245  30.481  1.00  0.00    -0.203 F 
ATOM     89  F   UNL A   1      46.037  35.732  26.334  1.00  0.00    -0.200 F 
ATOM     90  C   UNL A   1      46.719  35.313  28.556  1.00  0.00     0.200 A 
ATOM     91  F   UNL A   1      47.403  34.844  30.767  1.00  0.00    -0.200 F 
ATOM     92  F   UNL A   1      47.086  36.593  28.700  1.00  0.00    -0.200 F 
ENDBRANCH  59  82
ENDBRANCH  33  34
ENDBRANCH  25  28
ENDBRANCH  23  24
ENDBRANCH  22  23
ENDBRANCH   1  22
TORSDOF 13
ENDMDL
MODEL 3
REMARK VINA RESULT:     -12.3      4.916      9.986
REMARK SMILES C[C@H]1CCCN(C(=O)c2cn(C)nc2C(=O)NCCCCNC(=O)c2ccc(-c3c4nc(c(-c5c(F)c(F)c(F)c(F)c5F)c5ccc([nH]5)c(-c5c(F)c(F)c(F)c(F)c5F)c5nc(c(-c6c(F)c(F)c(F)c(F)c6F)c6ccc3[nH]6)C=C5)C=C4)cc2)C1
REMARK SMILES IDX 19 1 18 2 17 3 15 4 16 5 14 7 9 8 10 9 11 10 13 11 12 12
REMARK SMILES IDX 7 13 8 14 6 15 1 16 2 17 3 18 88 19 4 20 5 21 20 22 21 23
REMARK SMILES IDX 22 24 23 25 24 27 25 28 26 29 87 30 27 31 86 32 28 33 29 34
REMARK SMILES IDX 30 35 80 36 31 37 85 38 79 39 81 40 32 41 84 42 78 43 77 44
REMARK SMILES IDX 33 46 65 47 45 48 64 49 46 50 49 51 63 52 82 53 47 54 48 55
REMARK SMILES IDX 62 57 83 58 50 59 34 60 35 61 43 62 36 63 37 64 41 65 44 66
REMARK SMILES IDX 38 67 39 68 42 69 40 70 66 71 67 72 75 73 68 74 69 75 73 76
REMARK SMILES IDX 76 77 70 78 71 79 74 80 72 81 51 82 52 83 60 84 53 85 54 86
REMARK SMILES IDX 58 87 61 88 55 89 56 90 59 91 57 92
REMARK H PARENT 17 6 22 26 81 45 49 56
REMARK Flexibility Score: inf
ROOT
ATOM      1  C   UNL A   1      33.530  28.790  24.525  1.00  0.00     0.023 C 
ENDROOT
BRANCH   1   2
ATOM      2  C   UNL A   1      33.669  28.983  23.023  1.00  0.00     0.116 C 
BRANCH   2   3
ATOM      3  N   UNL A   1      33.822  27.794  22.232  1.00  0.00    -0.351 N 
ATOM      4  C   UNL A   1      32.903  26.801  21.944  1.00  0.00     0.272 C 
ATOM      5  O   UNL A   1      33.331  25.895  21.219  1.00  0.00    -0.267 OA
ATOM      6  H   UNL A   1      34.713  27.666  21.836  1.00  0.00     0.163 HD
BRANCH   4   7
ATOM      7  C   UNL A   1      31.519  26.768  22.496  1.00  0.00     0.162 A 
ATOM      8  C   UNL A   1      30.783  25.779  23.235  1.00  0.00     0.091 A 
ATOM      9  C   UNL A   1      29.574  26.376  23.549  1.00  0.00     0.123 A 
ATOM     10  N   UNL A   1      29.608  27.609  22.986  1.00  0.00    -0.274 N 
ATOM     11  N   UNL A   1      30.744  27.866  22.329  1.00  0.00    -0.167 NA
ATOM     12  C   UNL A   1      28.572  28.612  23.034  1.00  0.00     0.173 C 
BRANCH   8  13
ATOM     13  C   UNL A   1      31.180  24.460  23.676  1.00  0.00     0.257 C 
ATOM     14  O   UNL A   1      30.541  23.471  23.315  1.00  0.00    -0.269 OA
BRANCH  13  15
ATOM     15  N   UNL A   1      32.235  24.379  24.593  1.00  0.00    -0.338 N 
ATOM     16  C   UNL A   1      34.827  23.344  23.226  1.00  0.00     0.009 C 
ATOM     17  C   UNL A   1      34.415  23.204  24.693  1.00  0.00     0.005 C 
ATOM     18  C   UNL A   1      34.950  24.359  25.558  1.00  0.00     0.007 C 
ATOM     19  C   UNL A   1      32.893  23.092  24.807  1.00  0.00     0.123 C 
ATOM     20  C   UNL A   1      34.178  25.664  25.353  1.00  0.00     0.022 C 
ATOM     21  C   UNL A   1      32.677  25.444  25.498  1.00  0.00     0.120 C 
ENDBRANCH  13  15
ENDBRANCH   8  13
ENDBRANCH   4   7
ENDBRANCH   2   3
ENDBRANCH   1   2
BRANCH   1  22
ATOM     22  C   UNL A   1      32.334  29.451  25.201  1.00  0.00     0.023 C 
BRANCH  22  23
ATOM     23  C   UNL A   1      32.490  29.824  26.672  1.00  0.00     0.116 C 
BRANCH  23  24
ATOM     24  N   UNL A   1      32.402  31.255  26.948  1.00  0.00    -0.352 N 
ATOM     25  C   UNL A   1      33.325  32.136  27.467  1.00  0.00     0.251 C 
ATOM     26  H   UNL A   1      31.533  31.660  26.726  1.00  0.00     0.163 HD
ATOM     27  O   UNL A   1      33.007  33.302  27.678  1.00  0.00    -0.269 OA
BRANCH  25  28
ATOM     28  C   UNL A   1      34.682  31.670  27.828  1.00  0.00     0.039 A 
ATOM     29  C   UNL A   1      35.709  32.611  27.943  1.00  0.00     0.014 A 
ATOM     30  C   UNL A   1      34.934  30.326  28.102  1.00  0.00     0.014 A 
ATOM     31  C   UNL A   1      36.944  32.227  28.478  1.00  0.00     0.010 A 
ATOM     32  C   UNL A   1      36.127  29.964  28.719  1.00  0.00     0.010 A 
ATOM     33  C   UNL A   1      37.131  30.917  28.945  1.00  0.00    -0.014 A 
BRANCH  33  34
ATOM     34  C   UNL A   1      38.329  30.531  29.736  1.00  0.00     0.031 A 
ATOM     35  C   UNL A   1      39.303  29.523  29.196  1.00  0.00     0.074 A 
ATOM     36  C   UNL A   1      38.464  30.986  30.999  1.00  0.00     0.049 A 
ATOM     37  N   UNL A   1      40.306  28.936  29.798  1.00  0.00    -0.248 NA
ATOM     38  C   UNL A   1      39.099  29.090  27.805  1.00  0.00     0.031 C 
ATOM     39  C   UNL A   1      37.549  31.915  31.667  1.00  0.00     0.029 A 
ATOM     40  N   UNL A   1      39.407  30.705  31.957  1.00  0.00    -0.354 N 
ATOM     41  C   UNL A   1      40.828  28.041  28.874  1.00  0.00     0.074 A 
ATOM     42  C   UNL A   1      40.009  28.135  27.685  1.00  0.00     0.031 C 
ATOM     43  C   UNL A   1      37.981  32.136  32.919  1.00  0.00     0.029 A 
ATOM     44  C   UNL A   1      39.174  31.331  33.159  1.00  0.00     0.049 A 
ATOM     45  H   UNL A   1      40.177  30.113  31.799  1.00  0.00     0.167 HD
ATOM     46  C   UNL A   1      41.905  27.229  29.002  1.00  0.00     0.037 A 
ATOM     47  C   UNL A   1      39.833  31.251  34.331  1.00  0.00     0.037 A 
ATOM     48  C   UNL A   1      42.746  27.175  30.167  1.00  0.00     0.049 A 
ATOM     49  C   UNL A   1      41.033  30.354  34.440  1.00  0.00     0.074 A 
ATOM     50  C   UNL A   1      43.928  26.476  30.346  1.00  0.00     0.029 A 
ATOM     51  N   UNL A   1      42.493  27.845  31.355  1.00  0.00    -0.354 N 
ATOM     52  N   UNL A   1      41.568  29.577  33.531  1.00  0.00    -0.248 NA
ATOM     53  C   UNL A   1      41.718  30.318  35.741  1.00  0.00     0.031 C 
ATOM     54  C   UNL A   1      44.368  26.691  31.656  1.00  0.00     0.029 A 
ATOM     55  C   UNL A   1      43.479  27.550  32.282  1.00  0.00     0.049 A 
ATOM     56  H   UNL A   1      41.727  28.441  31.515  1.00  0.00     0.167 HD
ATOM     57  C   UNL A   1      42.653  28.966  34.143  1.00  0.00     0.074 A 
ATOM     58  C   UNL A   1      42.715  29.478  35.497  1.00  0.00     0.031 C 
ATOM     59  C   UNL A   1      43.519  28.058  33.629  1.00  0.00     0.037 A 
BRANCH  46  60
ATOM     60  C   UNL A   1      42.237  26.336  27.844  1.00  0.00     0.064 A 
ATOM     61  C   UNL A   1      41.602  25.098  27.663  1.00  0.00     0.173 A 
ATOM     62  C   UNL A   1      43.182  26.735  26.887  1.00  0.00     0.173 A 
ATOM     63  F   UNL A   1      40.697  24.667  28.555  1.00  0.00    -0.203 F 
ATOM     64  C   UNL A   1      41.923  24.278  26.585  1.00  0.00     0.198 A 
ATOM     65  C   UNL A   1      43.482  25.925  25.795  1.00  0.00     0.198 A 
ATOM     66  F   UNL A   1      43.814  27.912  27.010  1.00  0.00    -0.203 F 
ATOM     67  F   UNL A   1      41.340  23.079  26.460  1.00  0.00    -0.200 F 
ATOM     68  C   UNL A   1      42.859  24.695  25.650  1.00  0.00     0.200 A 
ATOM     69  F   UNL A   1      44.378  26.332  24.886  1.00  0.00    -0.200 F 
ATOM     70  F   UNL A   1      43.165  23.905  24.610  1.00  0.00    -0.200 F 
ENDBRANCH  46  60
BRANCH  47  71
ATOM     71  C   UNL A   1      39.368  32.048  35.494  1.00  0.00     0.064 A 
ATOM     72  C   UNL A   1      39.785  33.375  35.666  1.00  0.00     0.173 A 
ATOM     73  C   UNL A   1      38.493  31.508  36.447  1.00  0.00     0.173 A 
ATOM     74  F   UNL A   1      40.639  33.925  34.791  1.00  0.00    -0.203 F 
ATOM     75  C   UNL A   1      39.351  34.130  36.753  1.00  0.00     0.198 A 
ATOM     76  C   UNL A   1      38.040  32.273  37.522  1.00  0.00     0.198 A 
ATOM     77  F   UNL A   1      38.063  30.245  36.325  1.00  0.00    -0.203 F 
ATOM     78  F   UNL A   1      39.789  35.386  36.911  1.00  0.00    -0.200 F 
ATOM     79  C   UNL A   1      38.474  33.581  37.677  1.00  0.00     0.200 A 
ATOM     80  F   UNL A   1      37.185  31.743  38.405  1.00  0.00    -0.200 F 
ATOM     81  F   UNL A   1      38.051  34.311  38.718  1.00  0.00    -0.200 F 
ENDBRANCH  47  71
BRANCH  59  82
ATOM     82  C   UNL A   1      44.604  27.557  34.534  1.00  0.00     0.064 A 
ATOM     83  C   UNL A   1      44.447  26.378  35.275  1.00  0.00     0.173 A 
ATOM     84  C   UNL A   1      45.831  28.233  34.621  1.00  0.00     0.173 A 
ATOM     85  F   UNL A   1      43.285  25.708  35.238  1.00  0.00    -0.203 F 
ATOM     86  C   UNL A   1      45.475  25.899  36.082  1.00  0.00     0.198 A 
ATOM     87  C   UNL A   1      46.865  27.738  35.410  1.00  0.00     0.198 A 
ATOM     88  F   UNL A   1      46.029  29.364  33.928  1.00  0.00    -0.203 F 
ATOM     89  F   UNL A   1      45.291  24.788  36.809  1.00  0.00    -0.200 F 
ATOM     90  C   UNL A   1      46.685  26.574  36.143  1.00  0.00     0.200 A 
ATOM     91  F   UNL A   1      48.036  28.386  35.460  1.00  0.00    -0.200 F 
ATOM     92  F   UNL A   1      47.677  26.105  36.911  1.00  0.00    -0.200 F 
ENDBRANCH  59  82
ENDBRANCH  33  34
ENDBRANCH  25  28
ENDBRANCH  23  24
ENDBRANCH  22  23
ENDBRANCH   1  22
TORSDOF 13
ENDMDL
