MODEL 1
REMARK VINA RESULT:     -12.3      0.000      0.000
REMARK SMILES O=C(NCCCCNC(=O)c1cccnc1-c1ccccn1)c1ccc(-c2c3nc(c(-c4c(F)c(F)c(F)c(F)c4F)c4ccc([nH]4)c(-c4c(F)c(F)c(F)c(F)c4F)c4nc(c(-c5c(F)c(F)c(F)c(F)c5F)c5ccc2[nH]5)C=C4)C=C3)cc1
REMARK SMILES IDX 5 1 4 2 3 3 1 4 2 5 23 7 24 8 85 9 25 10 84 11 26 12 27 13
REMARK SMILES IDX 28 14 78 15 29 16 83 17 77 18 79 19 30 20 82 21 76 22 75 23
REMARK SMILES IDX 31 25 63 26 43 27 62 28 44 29 47 30 61 31 80 32 45 33 46 34
REMARK SMILES IDX 60 36 81 37 48 38 32 39 33 40 41 41 34 42 35 43 39 44 42 45
REMARK SMILES IDX 36 46 37 47 40 48 38 49 64 50 65 51 73 52 66 53 67 54 71 55
REMARK SMILES IDX 74 56 68 57 69 58 72 59 70 60 49 61 50 62 58 63 51 64 52 65
REMARK SMILES IDX 56 66 59 67 53 68 54 69 57 70 55 71 6 72 7 73 8 74 9 75
REMARK SMILES IDX 10 77 11 78 12 79 16 80 13 81 15 82 14 83 17 84 18 85 22 86
REMARK SMILES IDX 19 87 21 88 20 89
REMARK H PARENT 3 6 79 24 47 35 8 76
REMARK Flexibility Score: inf
ROOT
ATOM      1  C   UNL A   1      37.831  19.691  25.013  1.00  0.00     0.023 C 
ENDROOT
BRANCH   1   2
ATOM      2  C   UNL A   1      39.065  20.191  25.751  1.00  0.00     0.116 C 
BRANCH   2   3
ATOM      3  N   UNL A   1      40.129  19.203  25.837  1.00  0.00    -0.352 N 
ATOM      4  O   UNL A   1      42.246  18.441  26.017  1.00  0.00    -0.269 OA
ATOM      5  C   UNL A   1      41.469  19.388  26.088  1.00  0.00     0.251 C 
ATOM      6  H   UNL A   1      39.851  18.269  25.694  1.00  0.00     0.163 HD
BRANCH   5   7
ATOM      7  C   UNL A   1      41.979  20.738  26.413  1.00  0.00     0.039 A 
ATOM      8  C   UNL A   1      42.229  21.108  27.736  1.00  0.00     0.014 A 
ATOM      9  C   UNL A   1      42.205  21.649  25.376  1.00  0.00     0.014 A 
ATOM     10  C   UNL A   1      42.554  22.426  28.033  1.00  0.00     0.010 A 
ATOM     11  C   UNL A   1      42.621  22.951  25.672  1.00  0.00     0.010 A 
ATOM     12  C   UNL A   1      42.767  23.360  27.005  1.00  0.00    -0.014 A 
BRANCH  12  13
ATOM     13  C   UNL A   1      43.212  24.731  27.362  1.00  0.00     0.031 A 
ATOM     14  C   UNL A   1      44.608  25.205  27.066  1.00  0.00     0.074 A 
ATOM     15  C   UNL A   1      42.317  25.570  27.918  1.00  0.00     0.049 A 
ATOM     16  N   UNL A   1      45.136  26.386  27.270  1.00  0.00    -0.248 NA
ATOM     17  C   UNL A   1      45.536  24.230  26.473  1.00  0.00     0.031 C 
ATOM     18  C   UNL A   1      40.939  25.213  28.267  1.00  0.00     0.029 A 
ATOM     19  N   UNL A   1      42.415  26.892  28.263  1.00  0.00    -0.354 N 
ATOM     20  C   UNL A   1      46.455  26.295  26.844  1.00  0.00     0.074 A 
ATOM     21  C   UNL A   1      46.657  24.935  26.392  1.00  0.00     0.031 C 
ATOM     22  C   UNL A   1      40.306  26.302  28.726  1.00  0.00     0.029 A 
ATOM     23  C   UNL A   1      41.246  27.415  28.759  1.00  0.00     0.049 A 
ATOM     24  H   UNL A   1      43.242  27.416  28.166  1.00  0.00     0.167 HD
ATOM     25  C   UNL A   1      47.403  27.263  26.824  1.00  0.00     0.037 A 
ATOM     26  C   UNL A   1      40.963  28.652  29.205  1.00  0.00     0.037 A 
ATOM     27  C   UNL A   1      47.191  28.620  27.261  1.00  0.00     0.049 A 
ATOM     28  C   UNL A   1      42.038  29.700  29.177  1.00  0.00     0.074 A 
ATOM     29  C   UNL A   1      48.083  29.679  27.253  1.00  0.00     0.029 A 
ATOM     30  N   UNL A   1      46.002  29.106  27.784  1.00  0.00    -0.354 N 
ATOM     31  N   UNL A   1      43.271  29.605  28.744  1.00  0.00    -0.248 NA
ATOM     32  C   UNL A   1      41.683  31.023  29.704  1.00  0.00     0.031 C 
ATOM     33  C   UNL A   1      47.445  30.795  27.807  1.00  0.00     0.029 A 
ATOM     34  C   UNL A   1      46.143  30.444  28.121  1.00  0.00     0.049 A 
ATOM     35  H   UNL A   1      45.178  28.579  27.901  1.00  0.00     0.167 HD
ATOM     36  C   UNL A   1      43.838  30.856  28.939  1.00  0.00     0.074 A 
ATOM     37  C   UNL A   1      42.803  31.700  29.500  1.00  0.00     0.031 C 
ATOM     38  C   UNL A   1      45.104  31.266  28.684  1.00  0.00     0.037 A 
BRANCH  25  39
ATOM     39  C   UNL A   1      48.768  26.898  26.319  1.00  0.00     0.064 A 
ATOM     40  C   UNL A   1      49.717  26.281  27.147  1.00  0.00     0.173 A 
ATOM     41  C   UNL A   1      49.105  27.097  24.970  1.00  0.00     0.173 A 
ATOM     42  F   UNL A   1      49.448  26.076  28.446  1.00  0.00    -0.203 F 
ATOM     43  C   UNL A   1      50.957  25.888  26.648  1.00  0.00     0.198 A 
ATOM     44  C   UNL A   1      50.337  26.683  24.469  1.00  0.00     0.198 A 
ATOM     45  F   UNL A   1      48.231  27.676  24.134  1.00  0.00    -0.203 F 
ATOM     46  F   UNL A   1      51.858  25.327  27.464  1.00  0.00    -0.200 F 
ATOM     47  C   UNL A   1      51.263  26.082  25.309  1.00  0.00     0.200 A 
ATOM     48  F   UNL A   1      50.626  26.860  23.173  1.00  0.00    -0.200 F 
ATOM     49  F   UNL A   1      52.451  25.690  24.827  1.00  0.00    -0.200 F 
ENDBRANCH  25  39
BRANCH  26  50
ATOM     50  C   UNL A   1      39.605  28.959  29.719  1.00  0.00     0.064 A 
ATOM     51  C   UNL A   1      38.608  29.465  28.875  1.00  0.00     0.173 A 
ATOM     52  C   UNL A   1      39.274  28.746  31.066  1.00  0.00     0.173 A 
ATOM     53  F   UNL A   1      38.882  29.704  27.584  1.00  0.00    -0.203 F 
ATOM     54  C   UNL A   1      37.337  29.763  29.362  1.00  0.00     0.198 A 
ATOM     55  C   UNL A   1      37.995  29.014  31.544  1.00  0.00     0.198 A 
ATOM     56  F   UNL A   1      40.193  28.257  31.914  1.00  0.00    -0.203 F 
ATOM     57  F   UNL A   1      36.415  30.286  28.543  1.00  0.00    -0.200 F 
ATOM     58  C   UNL A   1      37.029  29.531  30.695  1.00  0.00     0.200 A 
ATOM     59  F   UNL A   1      37.698  28.772  32.829  1.00  0.00    -0.200 F 
ATOM     60  F   UNL A   1      35.804  29.810  31.160  1.00  0.00    -0.200 F 
ENDBRANCH  26  50
BRANCH  38  61
ATOM     61  C   UNL A   1      45.429  32.694  29.007  1.00  0.00     0.064 A 
ATOM     62  C   UNL A   1      45.217  33.721  28.075  1.00  0.00     0.173 A 
ATOM     63  C   UNL A   1      45.950  33.040  30.262  1.00  0.00     0.173 A 
ATOM     64  F   UNL A   1      44.738  33.436  26.855  1.00  0.00    -0.203 F 
ATOM     65  C   UNL A   1      45.545  35.039  28.377  1.00  0.00     0.198 A 
ATOM     66  C   UNL A   1      46.251  34.363  30.571  1.00  0.00     0.198 A 
ATOM     67  F   UNL A   1      46.166  32.095  31.189  1.00  0.00    -0.203 F 
ATOM     68  F   UNL A   1      45.385  35.996  27.454  1.00  0.00    -0.200 F 
ATOM     69  C   UNL A   1      46.056  35.359  29.626  1.00  0.00     0.200 A 
ATOM     70  F   UNL A   1      46.737  34.674  31.781  1.00  0.00    -0.200 F 
ATOM     71  F   UNL A   1      46.375  36.630  29.915  1.00  0.00    -0.200 F 
ENDBRANCH  38  61
ENDBRANCH  12  13
ENDBRANCH   5   7
ENDBRANCH   2   3
ENDBRANCH   1   2
BRANCH   1  72
ATOM     72  C   UNL A   1      36.969  20.770  24.362  1.00  0.00     0.023 C 
BRANCH  72  73
ATOM     73  C   UNL A   1      36.521  21.898  25.286  1.00  0.00     0.116 C 
BRANCH  73  74
ATOM     74  N   UNL A   1      35.605  21.451  26.326  1.00  0.00    -0.352 N 
ATOM     75  C   UNL A   1      34.257  21.196  26.256  1.00  0.00     0.253 C 
ATOM     76  H   UNL A   1      36.014  21.311  27.210  1.00  0.00     0.163 HD
ATOM     77  O   UNL A   1      33.653  20.832  27.257  1.00  0.00    -0.269 OA
BRANCH  75  78
ATOM     78  C   UNL A   1      33.559  21.362  24.971  1.00  0.00     0.067 A 
ATOM     79  C   UNL A   1      33.367  22.655  24.465  1.00  0.00     0.018 A 
ATOM     80  C   UNL A   1      33.089  20.266  24.247  1.00  0.00     0.101 A 
ATOM     81  C   UNL A   1      32.644  22.827  23.292  1.00  0.00     0.021 A 
ATOM     82  N   UNL A   1      32.357  20.439  23.105  1.00  0.00    -0.254 NA
ATOM     83  C   UNL A   1      32.153  21.698  22.660  1.00  0.00     0.112 A 
BRANCH  80  84
ATOM     84  C   UNL A   1      33.336  18.865  24.630  1.00  0.00     0.089 A 
ATOM     85  C   UNL A   1      34.488  18.176  24.251  1.00  0.00     0.031 A 
ATOM     86  N   UNL A   1      32.361  18.278  25.376  1.00  0.00    -0.255 NA
ATOM     87  C   UNL A   1      34.633  16.841  24.628  1.00  0.00     0.004 A 
ATOM     88  C   UNL A   1      32.528  16.986  25.725  1.00  0.00     0.112 A 
ATOM     89  C   UNL A   1      33.634  16.232  25.376  1.00  0.00     0.020 A 
ENDBRANCH  80  84
ENDBRANCH  75  78
ENDBRANCH  73  74
ENDBRANCH  72  73
ENDBRANCH   1  72
TORSDOF 12
ENDMDL
MODEL 2
REMARK VINA RESULT:     -12.3      6.473     11.743
REMARK SMILES O=C(NCCCCNC(=O)c1cccnc1-c1ccccn1)c1ccc(-c2c3nc(c(-c4c(F)c(F)c(F)c(F)c4F)c4ccc([nH]4)c(-c4c(F)c(F)c(F)c(F)c4F)c4nc(c(-c5c(F)c(F)c(F)c(F)c5F)c5ccc2[nH]5)C=C4)C=C3)cc1
REMARK SMILES IDX 5 1 4 2 3 3 1 4 2 5 23 7 24 8 85 9 25 10 84 11 26 12 27 13
REMARK SMILES IDX 28 14 78 15 29 16 83 17 77 18 79 19 30 20 82 21 76 22 75 23
REMARK SMILES IDX 31 25 63 26 43 27 62 28 44 29 47 30 61 31 80 32 45 33 46 34
REMARK SMILES IDX 60 36 81 37 48 38 32 39 33 40 41 41 34 42 35 43 39 44 42 45
REMARK SMILES IDX 36 46 37 47 40 48 38 49 64 50 65 51 73 52 66 53 67 54 71 55
REMARK SMILES IDX 74 56 68 57 69 58 72 59 70 60 49 61 50 62 58 63 51 64 52 65
REMARK SMILES IDX 56 66 59 67 53 68 54 69 57 70 55 71 6 72 7 73 8 74 9 75
REMARK SMILES IDX 10 77 11 78 12 79 16 80 13 81 15 82 14 83 17 84 18 85 22 86
REMARK SMILES IDX 19 87 21 88 20 89
REMARK H PARENT 3 6 79 24 47 35 8 76
REMARK Flexibility Score: inf
ROOT
ATOM      1  C   UNL A   1      31.419  31.963  27.054  1.00  0.00     0.023 C 
ENDROOT
BRANCH   1   2
ATOM      2  C   UNL A   1      32.604  32.914  26.954  1.00  0.00     0.116 C 
BRANCH   2   3
ATOM      3  N   UNL A   1      32.385  34.185  27.626  1.00  0.00    -0.352 N 
ATOM      4  O   UNL A   1      32.667  35.779  29.199  1.00  0.00    -0.269 OA
ATOM      5  C   UNL A   1      33.061  34.734  28.690  1.00  0.00     0.251 C 
ATOM      6  H   UNL A   1      31.647  34.730  27.268  1.00  0.00     0.163 HD
BRANCH   5   7
ATOM      7  C   UNL A   1      34.248  34.046  29.244  1.00  0.00     0.039 A 
ATOM      8  C   UNL A   1      34.106  32.960  30.108  1.00  0.00     0.014 A 
ATOM      9  C   UNL A   1      35.524  34.502  28.894  1.00  0.00     0.014 A 
ATOM     10  C   UNL A   1      35.225  32.430  30.740  1.00  0.00     0.010 A 
ATOM     11  C   UNL A   1      36.655  33.907  29.462  1.00  0.00     0.010 A 
ATOM     12  C   UNL A   1      36.514  32.888  30.415  1.00  0.00    -0.014 A 
BRANCH  12  13
ATOM     13  C   UNL A   1      37.689  32.227  31.038  1.00  0.00     0.031 A 
ATOM     14  C   UNL A   1      38.125  32.556  32.438  1.00  0.00     0.074 A 
ATOM     15  C   UNL A   1      38.336  31.279  30.333  1.00  0.00     0.049 A 
ATOM     16  N   UNL A   1      39.098  32.032  33.141  1.00  0.00    -0.248 NA
ATOM     17  C   UNL A   1      37.381  33.612  33.142  1.00  0.00     0.031 C 
ATOM     18  C   UNL A   1      38.013  30.890  28.957  1.00  0.00     0.029 A 
ATOM     19  N   UNL A   1      39.376  30.455  30.675  1.00  0.00    -0.354 N 
ATOM     20  C   UNL A   1      39.092  32.698  34.359  1.00  0.00     0.074 A 
ATOM     21  C   UNL A   1      38.035  33.684  34.294  1.00  0.00     0.031 C 
ATOM     22  C   UNL A   1      38.801  29.869  28.592  1.00  0.00     0.029 A 
ATOM     23  C   UNL A   1      39.722  29.570  29.682  1.00  0.00     0.049 A 
ATOM     24  H   UNL A   1      39.831  30.492  31.546  1.00  0.00     0.167 HD
ATOM     25  C   UNL A   1      39.892  32.496  35.435  1.00  0.00     0.037 A 
ATOM     26  C   UNL A   1      40.682  28.630  29.647  1.00  0.00     0.037 A 
ATOM     27  C   UNL A   1      40.934  31.502  35.500  1.00  0.00     0.049 A 
ATOM     28  C   UNL A   1      41.557  28.436  30.852  1.00  0.00     0.074 A 
ATOM     29  C   UNL A   1      41.778  31.203  36.556  1.00  0.00     0.029 A 
ATOM     30  N   UNL A   1      41.273  30.644  34.464  1.00  0.00    -0.354 N 
ATOM     31  N   UNL A   1      41.520  29.055  32.006  1.00  0.00    -0.248 NA
ATOM     32  C   UNL A   1      42.609  27.418  30.747  1.00  0.00     0.031 C 
ATOM     33  C   UNL A   1      42.653  30.191  36.146  1.00  0.00     0.029 A 
ATOM     34  C   UNL A   1      42.328  29.829  34.850  1.00  0.00     0.049 A 
ATOM     35  H   UNL A   1      40.832  30.617  33.584  1.00  0.00     0.167 HD
ATOM     36  C   UNL A   1      42.536  28.498  32.767  1.00  0.00     0.074 A 
ATOM     37  C   UNL A   1      43.151  27.469  31.954  1.00  0.00     0.031 C 
ATOM     38  C   UNL A   1      42.931  28.815  34.024  1.00  0.00     0.037 A 
BRANCH  25  39
ATOM     39  C   UNL A   1      39.684  33.369  36.638  1.00  0.00     0.064 A 
ATOM     40  C   UNL A   1      40.320  34.612  36.761  1.00  0.00     0.173 A 
ATOM     41  C   UNL A   1      38.780  32.991  37.644  1.00  0.00     0.173 A 
ATOM     42  F   UNL A   1      41.200  35.016  35.832  1.00  0.00    -0.203 F 
ATOM     43  C   UNL A   1      40.067  35.441  37.853  1.00  0.00     0.198 A 
ATOM     44  C   UNL A   1      38.513  33.832  38.722  1.00  0.00     0.198 A 
ATOM     45  F   UNL A   1      38.140  31.815  37.570  1.00  0.00    -0.203 F 
ATOM     46  F   UNL A   1      40.708  36.613  37.964  1.00  0.00    -0.200 F 
ATOM     47  C   UNL A   1      39.159  35.055  38.827  1.00  0.00     0.200 A 
ATOM     48  F   UNL A   1      37.626  33.462  39.655  1.00  0.00    -0.200 F 
ATOM     49  F   UNL A   1      38.907  35.859  39.868  1.00  0.00    -0.200 F 
ENDBRANCH  25  39
BRANCH  26  50
ATOM     50  C   UNL A   1      40.867  27.808  28.424  1.00  0.00     0.064 A 
ATOM     51  C   UNL A   1      40.220  26.574  28.277  1.00  0.00     0.173 A 
ATOM     52  C   UNL A   1      41.689  28.244  27.375  1.00  0.00     0.173 A 
ATOM     53  F   UNL A   1      39.438  26.106  29.262  1.00  0.00    -0.203 F 
ATOM     54  C   UNL A   1      40.401  25.799  27.134  1.00  0.00     0.198 A 
ATOM     55  C   UNL A   1      41.846  27.484  26.219  1.00  0.00     0.198 A 
ATOM     56  F   UNL A   1      42.326  29.422  27.465  1.00  0.00    -0.203 F 
ATOM     57  F   UNL A   1      39.805  24.603  27.036  1.00  0.00    -0.200 F 
ATOM     58  C   UNL A   1      41.209  26.258  26.103  1.00  0.00     0.200 A 
ATOM     59  F   UNL A   1      42.613  27.939  25.219  1.00  0.00    -0.200 F 
ATOM     60  F   UNL A   1      41.378  25.515  25.000  1.00  0.00    -0.200 F 
ENDBRANCH  26  50
BRANCH  38  61
ATOM     61  C   UNL A   1      44.077  28.031  34.590  1.00  0.00     0.064 A 
ATOM     62  C   UNL A   1      45.400  28.477  34.465  1.00  0.00     0.173 A 
ATOM     63  C   UNL A   1      43.848  26.826  35.271  1.00  0.00     0.173 A 
ATOM     64  F   UNL A   1      45.670  29.614  33.806  1.00  0.00    -0.203 F 
ATOM     65  C   UNL A   1      46.458  27.729  34.973  1.00  0.00     0.198 A 
ATOM     66  C   UNL A   1      44.906  26.094  35.803  1.00  0.00     0.198 A 
ATOM     67  F   UNL A   1      42.600  26.360  35.421  1.00  0.00    -0.203 F 
ATOM     68  F   UNL A   1      47.718  28.146  34.795  1.00  0.00    -0.200 F 
ATOM     69  C   UNL A   1      46.209  26.541  35.646  1.00  0.00     0.200 A 
ATOM     70  F   UNL A   1      44.665  24.951  36.459  1.00  0.00    -0.200 F 
ATOM     71  F   UNL A   1      47.229  25.820  36.132  1.00  0.00    -0.200 F 
ENDBRANCH  38  61
ENDBRANCH  12  13
ENDBRANCH   5   7
ENDBRANCH   2   3
ENDBRANCH   1   2
BRANCH   1  72
ATOM     72  C   UNL A   1      31.013  31.276  25.752  1.00  0.00     0.023 C 
BRANCH  72  73
ATOM     73  C   UNL A   1      31.629  29.901  25.515  1.00  0.00     0.116 C 
BRANCH  73  74
ATOM     74  N   UNL A   1      32.064  29.703  24.140  1.00  0.00    -0.352 N 
ATOM     75  C   UNL A   1      31.523  28.911  23.156  1.00  0.00     0.253 C 
ATOM     76  H   UNL A   1      32.865  30.212  23.877  1.00  0.00     0.163 HD
ATOM     77  O   UNL A   1      32.047  28.872  22.050  1.00  0.00    -0.269 OA
BRANCH  75  78
ATOM     78  C   UNL A   1      30.315  28.124  23.448  1.00  0.00     0.067 A 
ATOM     79  C   UNL A   1      30.455  26.858  24.033  1.00  0.00     0.018 A 
ATOM     80  C   UNL A   1      29.039  28.609  23.162  1.00  0.00     0.101 A 
ATOM     81  C   UNL A   1      29.327  26.075  24.243  1.00  0.00     0.021 A 
ATOM     82  N   UNL A   1      27.932  27.828  23.347  1.00  0.00    -0.254 NA
ATOM     83  C   UNL A   1      28.099  26.596  23.876  1.00  0.00     0.112 A 
BRANCH  80  84
ATOM     84  C   UNL A   1      28.774  29.966  22.654  1.00  0.00     0.089 A 
ATOM     85  C   UNL A   1      28.625  31.067  23.498  1.00  0.00     0.031 A 
ATOM     86  N   UNL A   1      28.677  30.080  21.301  1.00  0.00    -0.255 NA
ATOM     87  C   UNL A   1      28.345  32.314  22.941  1.00  0.00     0.004 A 
ATOM     88  C   UNL A   1      28.404  31.299  20.791  1.00  0.00     0.112 A 
ATOM     89  C   UNL A   1      28.228  32.434  21.562  1.00  0.00     0.020 A 
ENDBRANCH  80  84
ENDBRANCH  75  78
ENDBRANCH  73  74
ENDBRANCH  72  73
ENDBRANCH   1  72
TORSDOF 12
ENDMDL
MODEL 3
REMARK VINA RESULT:     -12.2      0.604      7.591
REMARK SMILES O=C(NCCCCNC(=O)c1cccnc1-c1ccccn1)c1ccc(-c2c3nc(c(-c4c(F)c(F)c(F)c(F)c4F)c4ccc([nH]4)c(-c4c(F)c(F)c(F)c(F)c4F)c4nc(c(-c5c(F)c(F)c(F)c(F)c5F)c5ccc2[nH]5)C=C4)C=C3)cc1
REMARK SMILES IDX 5 1 4 2 3 3 1 4 2 5 23 7 24 8 85 9 25 10 84 11 26 12 27 13
REMARK SMILES IDX 28 14 78 15 29 16 83 17 77 18 79 19 30 20 82 21 76 22 75 23
REMARK SMILES IDX 31 25 63 26 43 27 62 28 44 29 47 30 61 31 80 32 45 33 46 34
REMARK SMILES IDX 60 36 81 37 48 38 32 39 33 40 41 41 34 42 35 43 39 44 42 45
REMARK SMILES IDX 36 46 37 47 40 48 38 49 64 50 65 51 73 52 66 53 67 54 71 55
REMARK SMILES IDX 74 56 68 57 69 58 72 59 70 60 49 61 50 62 58 63 51 64 52 65
REMARK SMILES IDX 56 66 59 67 53 68 54 69 57 70 55 71 6 72 7 73 8 74 9 75
REMARK SMILES IDX 10 77 11 78 12 79 16 80 13 81 15 82 14 83 17 84 18 85 22 86
REMARK SMILES IDX 19 87 21 88 20 89
REMARK H PARENT 3 6 79 24 47 35 8 76
REMARK Flexibility Score: inf
ROOT
ATOM      1  C   UNL A   1      38.661  19.901  24.817  1.00  0.00     0.023 C 
ENDROOT
BRANCH   1   2
ATOM      2  C   UNL A   1      39.459  19.808  26.110  1.00  0.00     0.116 C 
BRANCH   2   3
ATOM      3  N   UNL A   1      40.581  18.886  26.034  1.00  0.00    -0.352 N 
ATOM      4  O   UNL A   1      42.743  18.252  25.889  1.00  0.00    -0.269 OA
ATOM      5  C   UNL A   1      41.930  19.153  26.075  1.00  0.00     0.251 C 
ATOM      6  H   UNL A   1      40.341  17.936  25.940  1.00  0.00     0.163 HD
BRANCH   5   7
ATOM      7  C   UNL A   1      42.401  20.535  26.313  1.00  0.00     0.039 A 
ATOM      8  C   UNL A   1      42.565  21.020  27.611  1.00  0.00     0.014 A 
ATOM      9  C   UNL A   1      42.678  21.359  25.217  1.00  0.00     0.014 A 
ATOM     10  C   UNL A   1      42.855  22.364  27.814  1.00  0.00     0.010 A 
ATOM     11  C   UNL A   1      43.059  22.688  25.424  1.00  0.00     0.010 A 
ATOM     12  C   UNL A   1      43.118  23.212  26.723  1.00  0.00    -0.014 A 
BRANCH  12  13
ATOM     13  C   UNL A   1      43.523  24.616  26.987  1.00  0.00     0.031 A 
ATOM     14  C   UNL A   1      42.568  25.609  27.588  1.00  0.00     0.074 A 
ATOM     15  C   UNL A   1      44.793  24.976  26.718  1.00  0.00     0.049 A 
ATOM     16  N   UNL A   1      42.782  26.857  27.924  1.00  0.00    -0.248 NA
ATOM     17  C   UNL A   1      41.193  25.150  27.840  1.00  0.00     0.031 C 
ATOM     18  C   UNL A   1      45.802  24.101  26.116  1.00  0.00     0.029 A 
ATOM     19  N   UNL A   1      45.461  26.152  26.936  1.00  0.00    -0.354 N 
ATOM     20  C   UNL A   1      41.574  27.334  28.413  1.00  0.00     0.074 A 
ATOM     21  C   UNL A   1      40.620  26.251  28.308  1.00  0.00     0.031 C 
ATOM     22  C   UNL A   1      46.973  24.752  26.062  1.00  0.00     0.029 A 
ATOM     23  C   UNL A   1      46.784  26.105  26.570  1.00  0.00     0.049 A 
ATOM     24  H   UNL A   1      45.035  26.953  27.318  1.00  0.00     0.167 HD
ATOM     25  C   UNL A   1      41.293  28.563  28.914  1.00  0.00     0.037 A 
ATOM     26  C   UNL A   1      47.738  27.051  26.623  1.00  0.00     0.037 A 
ATOM     27  C   UNL A   1      42.251  29.633  29.030  1.00  0.00     0.049 A 
ATOM     28  C   UNL A   1      47.393  28.404  27.175  1.00  0.00     0.074 A 
ATOM     29  C   UNL A   1      42.068  30.904  29.549  1.00  0.00     0.029 A 
ATOM     30  N   UNL A   1      43.575  29.558  28.621  1.00  0.00    -0.354 N 
ATOM     31  N   UNL A   1      46.253  28.831  27.660  1.00  0.00    -0.248 NA
ATOM     32  C   UNL A   1      48.465  29.407  27.181  1.00  0.00     0.031 C 
ATOM     33  C   UNL A   1      43.269  31.609  29.418  1.00  0.00     0.029 A 
ATOM     34  C   UNL A   1      44.213  30.766  28.858  1.00  0.00     0.049 A 
ATOM     35  H   UNL A   1      43.998  28.764  28.221  1.00  0.00     0.167 HD
ATOM     36  C   UNL A   1      46.471  30.147  28.036  1.00  0.00     0.074 A 
ATOM     37  C   UNL A   1      47.861  30.439  27.751  1.00  0.00     0.031 C 
ATOM     38  C   UNL A   1      45.596  31.039  28.562  1.00  0.00     0.037 A 
BRANCH  25  39
ATOM     39  C   UNL A   1      39.889  28.830  29.371  1.00  0.00     0.064 A 
ATOM     40  C   UNL A   1      38.909  29.314  28.492  1.00  0.00     0.173 A 
ATOM     41  C   UNL A   1      39.499  28.527  30.686  1.00  0.00     0.173 A 
ATOM     42  F   UNL A   1      39.233  29.628  27.228  1.00  0.00    -0.203 F 
ATOM     43  C   UNL A   1      37.594  29.495  28.914  1.00  0.00     0.198 A 
ATOM     44  C   UNL A   1      38.178  28.688  31.098  1.00  0.00     0.198 A 
ATOM     45  F   UNL A   1      40.395  28.054  31.565  1.00  0.00    -0.203 F 
ATOM     46  F   UNL A   1      36.682  29.986  28.065  1.00  0.00    -0.200 F 
ATOM     47  C   UNL A   1      37.228  29.176  30.213  1.00  0.00     0.200 A 
ATOM     48  F   UNL A   1      37.824  28.367  32.350  1.00  0.00    -0.200 F 
ATOM     49  F   UNL A   1      35.959  29.337  30.613  1.00  0.00    -0.200 F 
ENDBRANCH  25  39
BRANCH  26  50
ATOM     50  C   UNL A   1      49.107  26.747  26.135  1.00  0.00     0.064 A 
ATOM     51  C   UNL A   1      49.480  27.016  24.811  1.00  0.00     0.173 A 
ATOM     52  C   UNL A   1      50.073  26.189  26.985  1.00  0.00     0.173 A 
ATOM     53  F   UNL A   1      48.585  27.533  23.955  1.00  0.00    -0.203 F 
ATOM     54  C   UNL A   1      50.761  26.722  24.351  1.00  0.00     0.198 A 
ATOM     55  C   UNL A   1      51.363  25.924  26.533  1.00  0.00     0.198 A 
ATOM     56  F   UNL A   1      49.767  25.918  28.263  1.00  0.00    -0.203 F 
ATOM     57  F   UNL A   1      51.079  26.948  23.070  1.00  0.00    -0.200 F 
ATOM     58  C   UNL A   1      51.704  26.182  25.215  1.00  0.00     0.200 A 
ATOM     59  F   UNL A   1      52.274  25.419  27.376  1.00  0.00    -0.200 F 
ATOM     60  F   UNL A   1      52.939  25.906  24.774  1.00  0.00    -0.200 F 
ENDBRANCH  26  50
BRANCH  38  61
ATOM     61  C   UNL A   1      46.127  32.408  28.866  1.00  0.00     0.064 A 
ATOM     62  C   UNL A   1      46.701  32.710  30.110  1.00  0.00     0.173 A 
ATOM     63  C   UNL A   1      46.070  33.425  27.902  1.00  0.00     0.173 A 
ATOM     64  F   UNL A   1      46.761  31.774  31.070  1.00  0.00    -0.203 F 
ATOM     65  C   UNL A   1      47.169  33.990  30.389  1.00  0.00     0.198 A 
ATOM     66  C   UNL A   1      46.564  34.697  28.175  1.00  0.00     0.198 A 
ATOM     67  F   UNL A   1      45.534  33.184  26.696  1.00  0.00    -0.203 F 
ATOM     68  F   UNL A   1      47.663  34.271  31.602  1.00  0.00    -0.200 F 
ATOM     69  C   UNL A   1      47.105  34.980  29.420  1.00  0.00     0.200 A 
ATOM     70  F   UNL A   1      46.509  35.652  27.236  1.00  0.00    -0.200 F 
ATOM     71  F   UNL A   1      47.553  36.215  29.691  1.00  0.00    -0.200 F 
ENDBRANCH  38  61
ENDBRANCH  12  13
ENDBRANCH   5   7
ENDBRANCH   2   3
ENDBRANCH   1   2
BRANCH   1  72
ATOM     72  C   UNL A   1      37.159  19.659  24.949  1.00  0.00     0.023 C 
BRANCH  72  73
ATOM     73  C   UNL A   1      36.289  20.911  24.935  1.00  0.00     0.116 C 
BRANCH  73  74
ATOM     74  N   UNL A   1      35.305  20.932  26.007  1.00  0.00    -0.352 N 
ATOM     75  C   UNL A   1      33.934  20.992  25.937  1.00  0.00     0.253 C 
ATOM     76  H   UNL A   1      35.678  20.896  26.917  1.00  0.00     0.163 HD
ATOM     77  O   UNL A   1      33.271  21.009  26.967  1.00  0.00    -0.269 OA
BRANCH  75  78
ATOM     78  C   UNL A   1      33.282  21.033  24.618  1.00  0.00     0.067 A 
ATOM     79  C   UNL A   1      33.054  22.275  24.011  1.00  0.00     0.018 A 
ATOM     80  C   UNL A   1      32.890  19.867  23.960  1.00  0.00     0.101 A 
ATOM     81  C   UNL A   1      32.372  22.329  22.803  1.00  0.00     0.021 A 
ATOM     82  N   UNL A   1      32.197  19.923  22.782  1.00  0.00    -0.254 NA
ATOM     83  C   UNL A   1      31.957  21.136  22.238  1.00  0.00     0.112 A 
BRANCH  80  84
ATOM     84  C   UNL A   1      33.181  18.510  24.455  1.00  0.00     0.089 A 
ATOM     85  C   UNL A   1      34.318  17.799  24.068  1.00  0.00     0.031 A 
ATOM     86  N   UNL A   1      32.264  17.987  25.313  1.00  0.00    -0.255 NA
ATOM     87  C   UNL A   1      34.507  16.507  24.557  1.00  0.00     0.004 A 
ATOM     88  C   UNL A   1      32.473  16.734  25.769  1.00  0.00     0.112 A 
ATOM     89  C   UNL A   1      33.567  15.961  25.421  1.00  0.00     0.020 A 
ENDBRANCH  80  84
ENDBRANCH  75  78
ENDBRANCH  73  74
ENDBRANCH  72  73
ENDBRANCH   1  72
TORSDOF 12
ENDMDL
