MODEL 1
REMARK VINA RESULT:     -12.0      0.000      0.000
REMARK SMILES O=C(CCCN1C(=O)C(=O)/C(=C(\[O-])c2ccccc2)[C@H]1c1ccc([N+](=O)[O-])cc1)NCCCCNC(=O)c1ccc(-c2c3nc(c(-c4c(F)c(F)c(F)c(F)c4F)c4ccc([nH]4)c(-c4c(F)c(F)c(F)c(F)c4F)c4nc(c(-c5c(F)c(F)c(F)c(F)c5F)c5ccc2[nH]5)C=C4)C=C3)cc1
REMARK SMILES IDX 31 1 30 2 1 3 2 4 3 6 4 7 5 8 6 9 7 10 20 11 8 12 9 13 11 14
REMARK SMILES IDX 10 15 12 16 13 17 21 18 22 19 29 20 23 21 28 22 24 23 25 24
REMARK SMILES IDX 26 25 27 26 14 27 15 28 19 29 16 30 18 31 17 32 32 33 33 34
REMARK SMILES IDX 34 35 35 36 36 37 37 39 38 40 39 41 100 42 40 43 99 44 41 45
REMARK SMILES IDX 42 46 43 47 93 48 44 49 98 50 92 51 94 52 45 53 97 54 91 55
REMARK SMILES IDX 90 56 46 58 78 59 58 60 77 61 59 62 62 63 76 64 95 65 60 66
REMARK SMILES IDX 61 67 75 69 96 70 63 71 47 72 48 73 56 74 49 75 50 76 54 77
REMARK SMILES IDX 57 78 51 79 52 80 55 81 53 82 79 83 80 84 88 85 81 86 82 87
REMARK SMILES IDX 86 88 89 89 83 90 84 91 87 92 85 93 64 94 65 95 73 96 66 97
REMARK SMILES IDX 67 98 71 99 74 100 68 101 69 102 72 103 70 104
REMARK H PARENT 30 5 35 38 94 57 62 68
REMARK Flexibility Score: inf
ROOT
ATOM      1  C   UNL A   1      36.263  18.714  24.913  1.00  0.00     0.116 C 
ENDROOT
BRANCH   1   2
ATOM      2  N   UNL A   1      34.868  19.099  24.806  1.00  0.00    -0.356 N 
ATOM      3  O   UNL A   1      34.180  17.200  23.720  1.00  0.00    -0.275 OA
ATOM      4  C   UNL A   1      33.923  18.286  24.223  1.00  0.00     0.220 C 
ATOM      5  H   UNL A   1      34.588  19.973  25.164  1.00  0.00     0.163 HD
BRANCH   4   6
ATOM      6  C   UNL A   1      32.517  18.847  24.266  1.00  0.00     0.102 C 
BRANCH   6   7
ATOM      7  C   UNL A   1      32.459  20.243  24.893  1.00  0.00     0.031 C 
BRANCH   7   8
ATOM      8  C   UNL A   1      31.724  21.311  24.065  1.00  0.00     0.121 C 
BRANCH   8   9
ATOM      9  N   UNL A   1      31.524  22.587  24.744  1.00  0.00    -0.325 N 
ATOM     10  C   UNL A   1      30.638  22.740  25.792  1.00  0.00     0.295 C 
ATOM     11  C   UNL A   1      32.289  23.808  24.456  1.00  0.00     0.150 C 
ATOM     12  O   UNL A   1      29.986  21.902  26.376  1.00  0.00    -0.265 OA
ATOM     13  C   UNL A   1      30.521  24.240  26.029  1.00  0.00     0.248 C 
ATOM     14  C   UNL A   1      31.469  24.899  25.108  1.00  0.00     0.025 C 
ATOM     15  O   UNL A   1      29.752  24.801  26.782  1.00  0.00    -0.283 OA
ATOM     16  C   UNL A   1      31.476  26.237  24.976  1.00  0.00    -0.092 C 
ATOM     17  O   UNL A   1      30.632  27.080  25.671  1.00  0.00    -0.872 OA
BRANCH  11  18
ATOM     18  C   UNL A   1      33.752  23.721  24.905  1.00  0.00    -0.020 A 
ATOM     19  C   UNL A   1      34.129  23.605  26.258  1.00  0.00     0.013 A 
ATOM     20  C   UNL A   1      34.786  23.814  23.952  1.00  0.00     0.013 A 
ATOM     21  C   UNL A   1      35.472  23.644  26.653  1.00  0.00     0.086 A 
ATOM     22  C   UNL A   1      36.133  23.799  24.332  1.00  0.00     0.086 A 
ATOM     23  C   UNL A   1      36.472  23.740  25.686  1.00  0.00     0.269 A 
BRANCH  23  24
ATOM     24  N   UNL A   1      37.883  23.796  26.092  1.00  0.00     0.062 N 
ATOM     25  O   UNL A   1      38.203  24.622  26.955  1.00  0.00    -0.258 OA
ATOM     26  O   UNL A   1      38.666  23.014  25.531  1.00  0.00    -0.258 OA
ENDBRANCH  23  24
ENDBRANCH  11  18
BRANCH  16  27
ATOM     27  C   UNL A   1      32.463  26.962  24.167  1.00  0.00    -0.033 A 
ATOM     28  C   UNL A   1      33.366  27.815  24.814  1.00  0.00     0.007 A 
ATOM     29  C   UNL A   1      32.515  26.849  22.776  1.00  0.00     0.007 A 
ATOM     30  C   UNL A   1      34.334  28.506  24.088  1.00  0.00     0.001 A 
ATOM     31  C   UNL A   1      33.491  27.539  22.048  1.00  0.00     0.001 A 
ATOM     32  C   UNL A   1      34.405  28.359  22.705  1.00  0.00     0.000 A 
ENDBRANCH  16  27
ENDBRANCH   8   9
ENDBRANCH   7   8
ENDBRANCH   6   7
ENDBRANCH   4   6
ENDBRANCH   1   2
BRANCH   1  33
ATOM     33  C   UNL A   1      37.201  19.919  24.966  1.00  0.00     0.023 C 
BRANCH  33  34
ATOM     34  C   UNL A   1      38.690  19.598  24.816  1.00  0.00     0.023 C 
BRANCH  34  35
ATOM     35  C   UNL A   1      39.543  19.712  26.076  1.00  0.00     0.116 C 
BRANCH  35  36
ATOM     36  N   UNL A   1      40.709  18.852  26.019  1.00  0.00    -0.352 N 
ATOM     37  C   UNL A   1      42.046  19.169  26.030  1.00  0.00     0.251 C 
ATOM     38  H   UNL A   1      40.512  17.889  25.964  1.00  0.00     0.163 HD
ATOM     39  O   UNL A   1      42.868  18.304  25.742  1.00  0.00    -0.269 OA
BRANCH  37  40
ATOM     40  C   UNL A   1      42.520  20.533  26.373  1.00  0.00     0.039 A 
ATOM     41  C   UNL A   1      43.047  21.340  25.357  1.00  0.00     0.014 A 
ATOM     42  C   UNL A   1      42.539  20.998  27.688  1.00  0.00     0.014 A 
ATOM     43  C   UNL A   1      43.530  22.624  25.647  1.00  0.00     0.010 A 
ATOM     44  C   UNL A   1      42.974  22.297  27.965  1.00  0.00     0.010 A 
ATOM     45  C   UNL A   1      43.465  23.135  26.951  1.00  0.00    -0.014 A 
BRANCH  45  46
ATOM     46  C   UNL A   1      43.882  24.534  27.271  1.00  0.00     0.031 A 
ATOM     47  C   UNL A   1      42.877  25.569  27.709  1.00  0.00     0.074 A 
ATOM     48  C   UNL A   1      45.165  24.913  27.097  1.00  0.00     0.049 A 
ATOM     49  N   UNL A   1      43.054  26.846  27.955  1.00  0.00    -0.248 NA
ATOM     50  C   UNL A   1      41.489  25.115  27.876  1.00  0.00     0.031 C 
ATOM     51  C   UNL A   1      46.250  24.038  26.652  1.00  0.00     0.029 A 
ATOM     52  N   UNL A   1      45.776  26.135  27.259  1.00  0.00    -0.354 N 
ATOM     53  C   UNL A   1      41.799  27.350  28.271  1.00  0.00     0.074 A 
ATOM     54  C   UNL A   1      40.863  26.251  28.148  1.00  0.00     0.031 C 
ATOM     55  C   UNL A   1      47.390  24.742  26.595  1.00  0.00     0.029 A 
ATOM     56  C   UNL A   1      47.114  26.130  26.948  1.00  0.00     0.049 A 
ATOM     57  H   UNL A   1      45.298  26.937  27.571  1.00  0.00     0.167 HD
ATOM     58  C   UNL A   1      41.455  28.604  28.653  1.00  0.00     0.037 A 
ATOM     59  C   UNL A   1      48.023  27.125  26.934  1.00  0.00     0.037 A 
ATOM     60  C   UNL A   1      42.380  29.697  28.811  1.00  0.00     0.049 A 
ATOM     61  C   UNL A   1      47.619  28.510  27.354  1.00  0.00     0.074 A 
ATOM     62  C   UNL A   1      42.134  30.973  29.291  1.00  0.00     0.029 A 
ATOM     63  N   UNL A   1      43.727  29.648  28.484  1.00  0.00    -0.354 N 
ATOM     64  N   UNL A   1      46.448  28.946  27.744  1.00  0.00    -0.248 NA
ATOM     65  C   UNL A   1      48.670  29.538  27.349  1.00  0.00     0.031 C 
ATOM     66  C   UNL A   1      43.322  31.709  29.216  1.00  0.00     0.029 A 
ATOM     67  C   UNL A   1      44.319  30.876  28.736  1.00  0.00     0.049 A 
ATOM     68  H   UNL A   1      44.192  28.858  28.124  1.00  0.00     0.167 HD
ATOM     69  C   UNL A   1      46.625  30.285  28.062  1.00  0.00     0.074 A 
ATOM     70  C   UNL A   1      48.021  30.590  27.830  1.00  0.00     0.031 C 
ATOM     71  C   UNL A   1      45.711  31.177  28.514  1.00  0.00     0.037 A 
BRANCH  58  72
ATOM     72  C   UNL A   1      40.006  28.866  28.950  1.00  0.00     0.064 A 
ATOM     73  C   UNL A   1      39.109  29.257  27.943  1.00  0.00     0.173 A 
ATOM     74  C   UNL A   1      39.495  28.678  30.244  1.00  0.00     0.173 A 
ATOM     75  F   UNL A   1      39.546  29.453  26.689  1.00  0.00    -0.203 F 
ATOM     76  C   UNL A   1      37.765  29.484  28.227  1.00  0.00     0.198 A 
ATOM     77  C   UNL A   1      38.145  28.877  30.518  1.00  0.00     0.198 A 
ATOM     78  F   UNL A   1      40.304  28.289  31.242  1.00  0.00    -0.203 F 
ATOM     79  F   UNL A   1      36.940  29.906  27.259  1.00  0.00    -0.200 F 
ATOM     80  C   UNL A   1      37.284  29.288  29.512  1.00  0.00     0.200 A 
ATOM     81  F   UNL A   1      37.675  28.671  31.756  1.00  0.00    -0.200 F 
ATOM     82  F   UNL A   1      35.988  29.501  29.782  1.00  0.00    -0.200 F 
ENDBRANCH  58  72
BRANCH  59  83
ATOM     83  C   UNL A   1      49.424  26.839  26.527  1.00  0.00     0.064 A 
ATOM     84  C   UNL A   1      49.834  26.993  25.196  1.00  0.00     0.173 A 
ATOM     85  C   UNL A   1      50.379  26.404  27.459  1.00  0.00     0.173 A 
ATOM     86  F   UNL A   1      48.951  27.390  24.267  1.00  0.00    -0.203 F 
ATOM     87  C   UNL A   1      51.139  26.702  24.806  1.00  0.00     0.198 A 
ATOM     88  C   UNL A   1      51.690  26.138  27.072  1.00  0.00     0.198 A 
ATOM     89  F   UNL A   1      50.042  26.256  28.749  1.00  0.00    -0.203 F 
ATOM     90  F   UNL A   1      51.492  26.819  23.518  1.00  0.00    -0.200 F 
ATOM     91  C   UNL A   1      52.067  26.279  25.745  1.00  0.00     0.200 A 
ATOM     92  F   UNL A   1      52.588  25.745  27.986  1.00  0.00    -0.200 F 
ATOM     93  F   UNL A   1      53.323  26.002  25.370  1.00  0.00    -0.200 F 
ENDBRANCH  59  83
BRANCH  71  94
ATOM     94  C   UNL A   1      46.195  32.561  28.837  1.00  0.00     0.064 A 
ATOM     95  C   UNL A   1      46.696  32.891  30.105  1.00  0.00     0.173 A 
ATOM     96  C   UNL A   1      46.187  33.561  27.853  1.00  0.00     0.173 A 
ATOM     97  F   UNL A   1      46.706  31.977  31.087  1.00  0.00    -0.203 F 
ATOM     98  C   UNL A   1      47.149  34.179  30.382  1.00  0.00     0.198 A 
ATOM     99  C   UNL A   1      46.668  34.839  28.125  1.00  0.00     0.198 A 
ATOM    100  F   UNL A   1      45.723  33.297  26.623  1.00  0.00    -0.203 F 
ATOM    101  F   UNL A   1      47.578  34.485  31.614  1.00  0.00    -0.200 F 
ATOM    102  C   UNL A   1      47.141  35.149  29.391  1.00  0.00     0.200 A 
ATOM    103  F   UNL A   1      46.671  35.772  27.162  1.00  0.00    -0.200 F 
ATOM    104  F   UNL A   1      47.584  36.386  29.658  1.00  0.00    -0.200 F 
ENDBRANCH  71  94
ENDBRANCH  45  46
ENDBRANCH  37  40
ENDBRANCH  35  36
ENDBRANCH  34  35
ENDBRANCH  33  34
ENDBRANCH   1  33
TORSDOF 17
ENDMDL
MODEL 2
REMARK VINA RESULT:     -11.9      0.134      1.540
REMARK SMILES O=C(CCCN1C(=O)C(=O)/C(=C(\[O-])c2ccccc2)[C@H]1c1ccc([N+](=O)[O-])cc1)NCCCCNC(=O)c1ccc(-c2c3nc(c(-c4c(F)c(F)c(F)c(F)c4F)c4ccc([nH]4)c(-c4c(F)c(F)c(F)c(F)c4F)c4nc(c(-c5c(F)c(F)c(F)c(F)c5F)c5ccc2[nH]5)C=C4)C=C3)cc1
REMARK SMILES IDX 31 1 30 2 1 3 2 4 3 6 4 7 5 8 6 9 7 10 20 11 8 12 9 13 11 14
REMARK SMILES IDX 10 15 12 16 13 17 21 18 22 19 29 20 23 21 28 22 24 23 25 24
REMARK SMILES IDX 26 25 27 26 14 27 15 28 19 29 16 30 18 31 17 32 32 33 33 34
REMARK SMILES IDX 34 35 35 36 36 37 37 39 38 40 39 41 100 42 40 43 99 44 41 45
REMARK SMILES IDX 42 46 43 47 93 48 44 49 98 50 92 51 94 52 45 53 97 54 91 55
REMARK SMILES IDX 90 56 46 58 78 59 58 60 77 61 59 62 62 63 76 64 95 65 60 66
REMARK SMILES IDX 61 67 75 69 96 70 63 71 47 72 48 73 56 74 49 75 50 76 54 77
REMARK SMILES IDX 57 78 51 79 52 80 55 81 53 82 79 83 80 84 88 85 81 86 82 87
REMARK SMILES IDX 86 88 89 89 83 90 84 91 87 92 85 93 64 94 65 95 73 96 66 97
REMARK SMILES IDX 67 98 71 99 74 100 68 101 69 102 72 103 70 104
REMARK H PARENT 30 5 35 38 94 57 62 68
REMARK Flexibility Score: inf
ROOT
ATOM      1  C   UNL A   1      36.297  18.665  24.832  1.00  0.00     0.116 C 
ENDROOT
BRANCH   1   2
ATOM      2  N   UNL A   1      34.914  19.076  24.678  1.00  0.00    -0.356 N 
ATOM      3  O   UNL A   1      34.132  17.027  24.004  1.00  0.00    -0.275 OA
ATOM      4  C   UNL A   1      33.926  18.201  24.285  1.00  0.00     0.220 C 
ATOM      5  H   UNL A   1      34.674  20.013  24.859  1.00  0.00     0.163 HD
BRANCH   4   6
ATOM      6  C   UNL A   1      32.542  18.813  24.243  1.00  0.00     0.102 C 
BRANCH   6   7
ATOM      7  C   UNL A   1      32.499  20.212  24.865  1.00  0.00     0.031 C 
BRANCH   7   8
ATOM      8  C   UNL A   1      31.759  21.280  24.040  1.00  0.00     0.121 C 
BRANCH   8   9
ATOM      9  N   UNL A   1      31.558  22.555  24.723  1.00  0.00    -0.325 N 
ATOM     10  C   UNL A   1      30.677  22.703  25.776  1.00  0.00     0.295 C 
ATOM     11  C   UNL A   1      32.317  23.779  24.432  1.00  0.00     0.150 C 
ATOM     12  O   UNL A   1      30.032  21.861  26.361  1.00  0.00    -0.265 OA
ATOM     13  C   UNL A   1      30.555  24.201  26.015  1.00  0.00     0.248 C 
ATOM     14  C   UNL A   1      31.495  24.866  25.091  1.00  0.00     0.025 C 
ATOM     15  O   UNL A   1      29.788  24.758  26.773  1.00  0.00    -0.283 OA
ATOM     16  C   UNL A   1      31.497  26.205  24.961  1.00  0.00    -0.092 C 
ATOM     17  O   UNL A   1      30.652  27.042  25.661  1.00  0.00    -0.872 OA
BRANCH  11  18
ATOM     18  C   UNL A   1      33.782  23.698  24.874  1.00  0.00    -0.020 A 
ATOM     19  C   UNL A   1      34.168  23.612  26.227  1.00  0.00     0.013 A 
ATOM     20  C   UNL A   1      34.810  23.765  23.913  1.00  0.00     0.013 A 
ATOM     21  C   UNL A   1      35.514  23.656  26.612  1.00  0.00     0.086 A 
ATOM     22  C   UNL A   1      36.160  23.753  24.284  1.00  0.00     0.086 A 
ATOM     23  C   UNL A   1      36.507  23.725  25.637  1.00  0.00     0.269 A 
BRANCH  23  24
ATOM     24  N   UNL A   1      37.921  23.785  26.032  1.00  0.00     0.062 N 
ATOM     25  O   UNL A   1      38.674  22.897  25.616  1.00  0.00    -0.258 OA
ATOM     26  O   UNL A   1      38.265  24.722  26.768  1.00  0.00    -0.258 OA
ENDBRANCH  23  24
ENDBRANCH  11  18
BRANCH  16  27
ATOM     27  C   UNL A   1      32.476  26.935  24.148  1.00  0.00    -0.033 A 
ATOM     28  C   UNL A   1      33.255  27.924  24.762  1.00  0.00     0.007 A 
ATOM     29  C   UNL A   1      32.640  26.694  22.783  1.00  0.00     0.007 A 
ATOM     30  C   UNL A   1      34.212  28.627  24.034  1.00  0.00     0.001 A 
ATOM     31  C   UNL A   1      33.605  27.396  22.053  1.00  0.00     0.001 A 
ATOM     32  C   UNL A   1      34.397  28.355  22.681  1.00  0.00     0.000 A 
ENDBRANCH  16  27
ENDBRANCH   8   9
ENDBRANCH   7   8
ENDBRANCH   6   7
ENDBRANCH   4   6
ENDBRANCH   1   2
BRANCH   1  33
ATOM     33  C   UNL A   1      37.236  19.847  25.071  1.00  0.00     0.023 C 
BRANCH  33  34
ATOM     34  C   UNL A   1      38.725  19.550  24.880  1.00  0.00     0.023 C 
BRANCH  34  35
ATOM     35  C   UNL A   1      39.612  19.687  26.115  1.00  0.00     0.116 C 
BRANCH  35  36
ATOM     36  N   UNL A   1      40.780  18.831  26.039  1.00  0.00    -0.352 N 
ATOM     37  C   UNL A   1      42.116  19.153  26.026  1.00  0.00     0.251 C 
ATOM     38  H   UNL A   1      40.585  17.867  25.989  1.00  0.00     0.163 HD
ATOM     39  O   UNL A   1      42.936  18.290  25.725  1.00  0.00    -0.269 OA
BRANCH  37  40
ATOM     40  C   UNL A   1      42.590  20.520  26.359  1.00  0.00     0.039 A 
ATOM     41  C   UNL A   1      43.153  21.305  25.344  1.00  0.00     0.014 A 
ATOM     42  C   UNL A   1      42.575  21.007  27.665  1.00  0.00     0.014 A 
ATOM     43  C   UNL A   1      43.637  22.589  25.625  1.00  0.00     0.010 A 
ATOM     44  C   UNL A   1      43.012  22.308  27.931  1.00  0.00     0.010 A 
ATOM     45  C   UNL A   1      43.538  23.125  26.918  1.00  0.00    -0.014 A 
BRANCH  45  46
ATOM     46  C   UNL A   1      43.957  24.526  27.226  1.00  0.00     0.031 A 
ATOM     47  C   UNL A   1      42.958  25.558  27.684  1.00  0.00     0.074 A 
ATOM     48  C   UNL A   1      45.235  24.909  27.021  1.00  0.00     0.049 A 
ATOM     49  N   UNL A   1      43.135  26.836  27.922  1.00  0.00    -0.248 NA
ATOM     50  C   UNL A   1      41.576  25.099  27.883  1.00  0.00     0.031 C 
ATOM     51  C   UNL A   1      46.312  24.037  26.554  1.00  0.00     0.029 A 
ATOM     52  N   UNL A   1      45.844  26.134  27.167  1.00  0.00    -0.354 N 
ATOM     53  C   UNL A   1      41.886  27.336  28.265  1.00  0.00     0.074 A 
ATOM     54  C   UNL A   1      40.952  26.233  28.166  1.00  0.00     0.031 C 
ATOM     55  C   UNL A   1      47.448  24.746  26.470  1.00  0.00     0.029 A 
ATOM     56  C   UNL A   1      47.175  26.134  26.826  1.00  0.00     0.049 A 
ATOM     57  H   UNL A   1      45.370  26.935  27.487  1.00  0.00     0.167 HD
ATOM     58  C   UNL A   1      41.546  28.590  28.652  1.00  0.00     0.037 A 
ATOM     59  C   UNL A   1      48.079  27.132  26.789  1.00  0.00     0.037 A 
ATOM     60  C   UNL A   1      42.470  29.687  28.787  1.00  0.00     0.049 A 
ATOM     61  C   UNL A   1      47.679  28.517  27.215  1.00  0.00     0.074 A 
ATOM     62  C   UNL A   1      42.229  30.962  29.269  1.00  0.00     0.029 A 
ATOM     63  N   UNL A   1      43.809  29.642  28.429  1.00  0.00    -0.354 N 
ATOM     64  N   UNL A   1      46.515  28.949  27.631  1.00  0.00    -0.248 NA
ATOM     65  C   UNL A   1      48.725  29.549  27.184  1.00  0.00     0.031 C 
ATOM     66  C   UNL A   1      43.412  31.703  29.165  1.00  0.00     0.029 A 
ATOM     67  C   UNL A   1      44.402  30.873  28.665  1.00  0.00     0.049 A 
ATOM     68  H   UNL A   1      44.269  28.853  28.061  1.00  0.00     0.167 HD
ATOM     69  C   UNL A   1      46.695  30.289  27.941  1.00  0.00     0.074 A 
ATOM     70  C   UNL A   1      48.083  30.599  27.677  1.00  0.00     0.031 C 
ATOM     71  C   UNL A   1      45.787  31.178  28.412  1.00  0.00     0.037 A 
BRANCH  58  72
ATOM     72  C   UNL A   1      40.102  28.847  28.980  1.00  0.00     0.064 A 
ATOM     73  C   UNL A   1      39.617  28.740  30.293  1.00  0.00     0.173 A 
ATOM     74  C   UNL A   1      39.203  29.251  27.981  1.00  0.00     0.173 A 
ATOM     75  F   UNL A   1      40.435  28.355  31.285  1.00  0.00    -0.203 F 
ATOM     76  C   UNL A   1      38.280  28.993  30.587  1.00  0.00     0.198 A 
ATOM     77  C   UNL A   1      37.873  29.533  28.284  1.00  0.00     0.198 A 
ATOM     78  F   UNL A   1      39.616  29.385  26.711  1.00  0.00    -0.203 F 
ATOM     79  F   UNL A   1      37.830  28.835  31.840  1.00  0.00    -0.200 F 
ATOM     80  C   UNL A   1      37.412  29.395  29.584  1.00  0.00     0.200 A 
ATOM     81  F   UNL A   1      37.038  29.938  27.318  1.00  0.00    -0.200 F 
ATOM     82  F   UNL A   1      36.126  29.645  29.870  1.00  0.00    -0.200 F 
ENDBRANCH  58  72
BRANCH  59  83
ATOM     83  C   UNL A   1      49.472  26.851  26.352  1.00  0.00     0.064 A 
ATOM     84  C   UNL A   1      49.851  27.003  25.012  1.00  0.00     0.173 A 
ATOM     85  C   UNL A   1      50.449  26.422  27.263  1.00  0.00     0.173 A 
ATOM     86  F   UNL A   1      48.946  27.395  24.101  1.00  0.00    -0.203 F 
ATOM     87  C   UNL A   1      51.148  26.716  24.592  1.00  0.00     0.198 A 
ATOM     88  C   UNL A   1      51.752  26.159  26.847  1.00  0.00     0.198 A 
ATOM     89  F   UNL A   1      50.142  26.276  28.561  1.00  0.00    -0.203 F 
ATOM     90  F   UNL A   1      51.472  26.831  23.297  1.00  0.00    -0.200 F 
ATOM     91  C   UNL A   1      52.099  26.298  25.512  1.00  0.00     0.200 A 
ATOM     92  F   UNL A   1      52.672  25.772  27.742  1.00  0.00    -0.200 F 
ATOM     93  F   UNL A   1      53.347  26.026  25.109  1.00  0.00    -0.200 F 
ENDBRANCH  59  83
BRANCH  71  94
ATOM     94  C   UNL A   1      46.273  32.565  28.721  1.00  0.00     0.064 A 
ATOM     95  C   UNL A   1      46.218  33.596  27.771  1.00  0.00     0.173 A 
ATOM     96  C   UNL A   1      46.771  32.873  29.996  1.00  0.00     0.173 A 
ATOM     97  F   UNL A   1      45.770  33.349  26.531  1.00  0.00    -0.203 F 
ATOM     98  C   UNL A   1      46.666  34.878  28.081  1.00  0.00     0.198 A 
ATOM     99  C   UNL A   1      47.190  34.163  30.310  1.00  0.00     0.198 A 
ATOM    100  F   UNL A   1      46.841  31.925  30.942  1.00  0.00    -0.203 F 
ATOM    101  F   UNL A   1      46.650  35.836  27.143  1.00  0.00    -0.200 F 
ATOM    102  C   UNL A   1      47.145  35.162  29.351  1.00  0.00     0.200 A 
ATOM    103  F   UNL A   1      47.641  34.438  31.543  1.00  0.00    -0.200 F 
ATOM    104  F   UNL A   1      47.569  36.398  29.648  1.00  0.00    -0.200 F 
ENDBRANCH  71  94
ENDBRANCH  45  46
ENDBRANCH  37  40
ENDBRANCH  35  36
ENDBRANCH  34  35
ENDBRANCH  33  34
ENDBRANCH   1  33
TORSDOF 17
ENDMDL
MODEL 3
REMARK VINA RESULT:     -11.9      2.293      7.631
REMARK SMILES O=C(CCCN1C(=O)C(=O)/C(=C(\[O-])c2ccccc2)[C@H]1c1ccc([N+](=O)[O-])cc1)NCCCCNC(=O)c1ccc(-c2c3nc(c(-c4c(F)c(F)c(F)c(F)c4F)c4ccc([nH]4)c(-c4c(F)c(F)c(F)c(F)c4F)c4nc(c(-c5c(F)c(F)c(F)c(F)c5F)c5ccc2[nH]5)C=C4)C=C3)cc1
REMARK SMILES IDX 31 1 30 2 1 3 2 4 3 6 4 7 5 8 6 9 7 10 20 11 8 12 9 13 11 14
REMARK SMILES IDX 10 15 12 16 13 17 21 18 22 19 29 20 23 21 28 22 24 23 25 24
REMARK SMILES IDX 26 25 27 26 14 27 15 28 19 29 16 30 18 31 17 32 32 33 33 34
REMARK SMILES IDX 34 35 35 36 36 37 37 39 38 40 39 41 100 42 40 43 99 44 41 45
REMARK SMILES IDX 42 46 43 47 93 48 44 49 98 50 92 51 94 52 45 53 97 54 91 55
REMARK SMILES IDX 90 56 46 58 78 59 58 60 77 61 59 62 62 63 76 64 95 65 60 66
REMARK SMILES IDX 61 67 75 69 96 70 63 71 47 72 48 73 56 74 49 75 50 76 54 77
REMARK SMILES IDX 57 78 51 79 52 80 55 81 53 82 79 83 80 84 88 85 81 86 82 87
REMARK SMILES IDX 86 88 89 89 83 90 84 91 87 92 85 93 64 94 65 95 73 96 66 97
REMARK SMILES IDX 67 98 71 99 74 100 68 101 69 102 72 103 70 104
REMARK H PARENT 30 5 35 38 94 57 62 68
REMARK Flexibility Score: inf
ROOT
ATOM      1  C   UNL A   1      33.868  21.434  24.421  1.00  0.00     0.116 C 
ENDROOT
BRANCH   1   2
ATOM      2  N   UNL A   1      34.041  22.546  23.505  1.00  0.00    -0.356 N 
ATOM      3  O   UNL A   1      31.803  22.952  23.203  1.00  0.00    -0.275 OA
ATOM      4  C   UNL A   1      32.973  23.235  22.976  1.00  0.00     0.220 C 
ATOM      5  H   UNL A   1      34.953  22.816  23.252  1.00  0.00     0.163 HD
BRANCH   4   6
ATOM      6  C   UNL A   1      33.368  24.398  22.090  1.00  0.00     0.102 C 
BRANCH   6   7
ATOM      7  C   UNL A   1      32.219  25.388  21.872  1.00  0.00     0.031 C 
BRANCH   7   8
ATOM      8  C   UNL A   1      32.630  26.867  21.771  1.00  0.00     0.121 C 
BRANCH   8   9
ATOM      9  N   UNL A   1      32.068  27.734  22.803  1.00  0.00    -0.325 N 
ATOM     10  C   UNL A   1      30.818  28.309  22.689  1.00  0.00     0.295 C 
ATOM     11  C   UNL A   1      32.715  28.016  24.091  1.00  0.00     0.150 C 
ATOM     12  O   UNL A   1      29.970  28.144  21.840  1.00  0.00    -0.265 OA
ATOM     13  C   UNL A   1      30.724  29.336  23.809  1.00  0.00     0.248 C 
ATOM     14  C   UNL A   1      31.963  29.224  24.605  1.00  0.00     0.025 C 
ATOM     15  O   UNL A   1      29.835  30.143  23.986  1.00  0.00    -0.283 OA
ATOM     16  C   UNL A   1      32.238  30.115  25.574  1.00  0.00    -0.092 C 
ATOM     17  O   UNL A   1      31.411  31.171  25.899  1.00  0.00    -0.872 OA
BRANCH  11  18
ATOM     18  C   UNL A   1      32.741  26.804  25.029  1.00  0.00    -0.020 A 
ATOM     19  C   UNL A   1      33.908  26.051  25.271  1.00  0.00     0.013 A 
ATOM     20  C   UNL A   1      31.552  26.367  25.644  1.00  0.00     0.013 A 
ATOM     21  C   UNL A   1      33.882  24.880  26.040  1.00  0.00     0.086 A 
ATOM     22  C   UNL A   1      31.525  25.229  26.459  1.00  0.00     0.086 A 
ATOM     23  C   UNL A   1      32.688  24.473  26.633  1.00  0.00     0.269 A 
BRANCH  23  24
ATOM     24  N   UNL A   1      32.647  23.239  27.429  1.00  0.00     0.062 N 
ATOM     25  O   UNL A   1      33.724  22.729  27.759  1.00  0.00    -0.258 OA
ATOM     26  O   UNL A   1      31.528  22.781  27.710  1.00  0.00    -0.258 OA
ENDBRANCH  23  24
ENDBRANCH  11  18
BRANCH  16  27
ATOM     27  C   UNL A   1      33.391  29.998  26.474  1.00  0.00    -0.033 A 
ATOM     28  C   UNL A   1      33.574  30.974  27.461  1.00  0.00     0.007 A 
ATOM     29  C   UNL A   1      34.321  28.962  26.364  1.00  0.00     0.007 A 
ATOM     30  C   UNL A   1      34.643  30.891  28.351  1.00  0.00     0.001 A 
ATOM     31  C   UNL A   1      35.391  28.876  27.262  1.00  0.00     0.001 A 
ATOM     32  C   UNL A   1      35.545  29.835  28.260  1.00  0.00     0.000 A 
ENDBRANCH  16  27
ENDBRANCH   8   9
ENDBRANCH   7   8
ENDBRANCH   6   7
ENDBRANCH   4   6
ENDBRANCH   1   2
BRANCH   1  33
ATOM     33  C   UNL A   1      35.196  20.929  24.986  1.00  0.00     0.023 C 
BRANCH  33  34
ATOM     34  C   UNL A   1      36.178  22.017  25.425  1.00  0.00     0.023 C 
BRANCH  34  35
ATOM     35  C   UNL A   1      37.614  21.880  24.927  1.00  0.00     0.116 C 
BRANCH  35  36
ATOM     36  N   UNL A   1      38.376  20.937  25.723  1.00  0.00    -0.352 N 
ATOM     37  C   UNL A   1      39.526  21.117  26.452  1.00  0.00     0.251 C 
ATOM     38  H   UNL A   1      38.011  20.023  25.744  1.00  0.00     0.163 HD
ATOM     39  O   UNL A   1      40.132  20.133  26.866  1.00  0.00    -0.269 OA
BRANCH  37  40
ATOM     40  C   UNL A   1      40.057  22.472  26.745  1.00  0.00     0.039 A 
ATOM     41  C   UNL A   1      41.105  22.601  27.666  1.00  0.00     0.014 A 
ATOM     42  C   UNL A   1      39.486  23.622  26.201  1.00  0.00     0.014 A 
ATOM     43  C   UNL A   1      41.615  23.866  27.989  1.00  0.00     0.010 A 
ATOM     44  C   UNL A   1      40.031  24.877  26.487  1.00  0.00     0.010 A 
ATOM     45  C   UNL A   1      41.109  25.021  27.374  1.00  0.00    -0.014 A 
BRANCH  45  46
ATOM     46  C   UNL A   1      41.698  26.371  27.626  1.00  0.00     0.031 A 
ATOM     47  C   UNL A   1      43.088  26.718  27.157  1.00  0.00     0.074 A 
ATOM     48  C   UNL A   1      41.014  27.281  28.351  1.00  0.00     0.049 A 
ATOM     49  N   UNL A   1      43.781  27.814  27.355  1.00  0.00    -0.248 NA
ATOM     50  C   UNL A   1      43.800  25.693  26.380  1.00  0.00     0.031 C 
ATOM     51  C   UNL A   1      39.672  27.087  28.899  1.00  0.00     0.029 A 
ATOM     52  N   UNL A   1      41.357  28.547  28.765  1.00  0.00    -0.354 N 
ATOM     53  C   UNL A   1      45.016  27.597  26.758  1.00  0.00     0.074 A 
ATOM     54  C   UNL A   1      44.992  26.251  26.225  1.00  0.00     0.031 C 
ATOM     55  C   UNL A   1      39.300  28.195  29.558  1.00  0.00     0.029 A 
ATOM     56  C   UNL A   1      40.392  29.161  29.526  1.00  0.00     0.049 A 
ATOM     57  H   UNL A   1      42.215  28.974  28.536  1.00  0.00     0.167 HD
ATOM     58  C   UNL A   1      46.067  28.445  26.639  1.00  0.00     0.037 A 
ATOM     59  C   UNL A   1      40.380  30.358  30.143  1.00  0.00     0.037 A 
ATOM     60  C   UNL A   1      46.091  29.797  27.135  1.00  0.00     0.049 A 
ATOM     61  C   UNL A   1      41.559  31.281  30.004  1.00  0.00     0.074 A 
ATOM     62  C   UNL A   1      47.075  30.758  26.971  1.00  0.00     0.029 A 
ATOM     63  N   UNL A   1      45.092  30.377  27.901  1.00  0.00    -0.354 N 
ATOM     64  N   UNL A   1      42.679  31.096  29.353  1.00  0.00    -0.248 NA
ATOM     65  C   UNL A   1      41.463  32.586  30.674  1.00  0.00     0.031 C 
ATOM     66  C   UNL A   1      46.690  31.907  27.672  1.00  0.00     0.029 A 
ATOM     67  C   UNL A   1      45.444  31.678  28.231  1.00  0.00     0.049 A 
ATOM     68  H   UNL A   1      44.257  29.931  28.172  1.00  0.00     0.167 HD
ATOM     69  C   UNL A   1      43.406  32.269  29.503  1.00  0.00     0.074 A 
ATOM     70  C   UNL A   1      42.596  33.165  30.300  1.00  0.00     0.031 C 
ATOM     71  C   UNL A   1      44.633  32.573  29.015  1.00  0.00     0.037 A 
BRANCH  58  72
ATOM     72  C   UNL A   1      47.287  27.941  25.922  1.00  0.00     0.064 A 
ATOM     73  C   UNL A   1      48.423  27.507  26.622  1.00  0.00     0.173 A 
ATOM     74  C   UNL A   1      47.304  27.843  24.521  1.00  0.00     0.173 A 
ATOM     75  F   UNL A   1      48.460  27.581  27.961  1.00  0.00    -0.203 F 
ATOM     76  C   UNL A   1      49.544  27.030  25.947  1.00  0.00     0.198 A 
ATOM     77  C   UNL A   1      48.414  27.337  23.851  1.00  0.00     0.198 A 
ATOM     78  F   UNL A   1      46.238  28.228  23.802  1.00  0.00    -0.203 F 
ATOM     79  F   UNL A   1      50.635  26.670  26.636  1.00  0.00    -0.200 F 
ATOM     80  C   UNL A   1      49.536  26.939  24.563  1.00  0.00     0.200 A 
ATOM     81  F   UNL A   1      48.400  27.233  22.515  1.00  0.00    -0.200 F 
ATOM     82  F   UNL A   1      50.613  26.473  23.916  1.00  0.00    -0.200 F 
ENDBRANCH  58  72
BRANCH  59  83
ATOM     83  C   UNL A   1      39.191  30.770  30.934  1.00  0.00     0.064 A 
ATOM     84  C   UNL A   1      38.170  31.537  30.355  1.00  0.00     0.173 A 
ATOM     85  C   UNL A   1      39.052  30.410  32.283  1.00  0.00     0.173 A 
ATOM     86  F   UNL A   1      38.267  31.919  29.072  1.00  0.00    -0.203 F 
ATOM     87  C   UNL A   1      37.066  31.947  31.099  1.00  0.00     0.198 A 
ATOM     88  C   UNL A   1      37.935  30.800  33.019  1.00  0.00     0.198 A 
ATOM     89  F   UNL A   1      39.992  29.664  32.881  1.00  0.00    -0.203 F 
ATOM     90  F   UNL A   1      36.126  32.713  30.530  1.00  0.00    -0.200 F 
ATOM     91  C   UNL A   1      36.948  31.575  32.429  1.00  0.00     0.200 A 
ATOM     92  F   UNL A   1      37.817  30.424  34.300  1.00  0.00    -0.200 F 
ATOM     93  F   UNL A   1      35.884  31.967  33.144  1.00  0.00    -0.200 F 
ENDBRANCH  59  83
BRANCH  71  94
ATOM     94  C   UNL A   1      45.162  33.953  29.285  1.00  0.00     0.064 A 
ATOM     95  C   UNL A   1      45.924  34.241  30.427  1.00  0.00     0.173 A 
ATOM     96  C   UNL A   1      44.928  34.991  28.371  1.00  0.00     0.173 A 
ATOM     97  F   UNL A   1      46.158  33.289  31.341  1.00  0.00    -0.203 F 
ATOM     98  C   UNL A   1      46.413  35.526  30.654  1.00  0.00     0.198 A 
ATOM     99  C   UNL A   1      45.443  36.266  28.588  1.00  0.00     0.198 A 
ATOM    100  F   UNL A   1      44.209  34.768  27.262  1.00  0.00    -0.203 F 
ATOM    101  F   UNL A   1      47.098  35.790  31.776  1.00  0.00    -0.200 F 
ATOM    102  C   UNL A   1      46.178  36.535  29.732  1.00  0.00     0.200 A 
ATOM    103  F   UNL A   1      45.225  37.238  27.689  1.00  0.00    -0.200 F 
ATOM    104  F   UNL A   1      46.655  37.768  29.950  1.00  0.00    -0.200 F 
ENDBRANCH  71  94
ENDBRANCH  45  46
ENDBRANCH  37  40
ENDBRANCH  35  36
ENDBRANCH  34  35
ENDBRANCH  33  34
ENDBRANCH   1  33
TORSDOF 17
ENDMDL
