MODEL 1
REMARK VINA RESULT:     -13.5      0.000      0.000
REMARK SMILES Cc1ncccc1NC(=O)Nc1ccc(C(=O)NCCCCNC(=O)c2ccc(-c3c4nc(c(-c5c(F)c(F)c(F)c(F)c5F)c5ccc([nH]5)c(-c5c(F)c(F)c(F)c(F)c5F)c5nc(c(-c6c(F)c(F)c(F)c(F)c6F)c6ccc3[nH]6)C=C5)C=C4)cc2)c(O)c1
REMARK SMILES IDX 20 1 19 2 18 3 16 4 17 5 15 7 12 8 13 9 91 10 14 11 89 12
REMARK SMILES IDX 11 13 8 14 9 15 10 17 7 19 1 20 2 21 3 22 4 23 6 24 5 25
REMARK SMILES IDX 90 26 21 28 22 29 23 30 24 31 25 33 26 34 27 35 88 36 28 37
REMARK SMILES IDX 87 38 29 39 30 40 31 41 81 42 32 43 86 44 80 45 82 46 33 47
REMARK SMILES IDX 85 48 79 49 78 50 34 52 66 53 46 54 65 55 47 56 50 57 64 58
REMARK SMILES IDX 83 59 48 60 49 61 63 63 84 64 51 65 35 66 36 67 44 68 37 69
REMARK SMILES IDX 38 70 42 71 45 72 39 73 40 74 43 75 41 76 67 77 68 78 76 79
REMARK SMILES IDX 69 80 70 81 74 82 77 83 71 84 72 85 75 86 73 87 52 88 53 89
REMARK SMILES IDX 61 90 54 91 55 92 59 93 62 94 56 95 57 96 60 97 58 98
REMARK H PARENT 18 6 8 16 11 18 90 27 23 32 82 51 50 62
REMARK Flexibility Score: inf
ROOT
ATOM      1  C   UNL A   1      31.633  30.465  26.415  1.00  0.00     0.023 C 
ENDROOT
BRANCH   1   2
ATOM      2  C   UNL A   1      33.012  29.903  26.069  1.00  0.00     0.116 C 
BRANCH   2   3
ATOM      3  N   UNL A   1      33.269  29.730  24.647  1.00  0.00    -0.352 N 
ATOM      4  C   UNL A   1      32.971  28.679  23.804  1.00  0.00     0.255 C 
ATOM      5  O   UNL A   1      33.241  28.786  22.610  1.00  0.00    -0.269 OA
ATOM      6  H   UNL A   1      33.731  30.485  24.216  1.00  0.00     0.163 HD
BRANCH   4   7
ATOM      7  C   UNL A   1      32.426  27.396  24.315  1.00  0.00     0.081 A 
ATOM      8  C   UNL A   1      31.337  25.358  25.882  1.00  0.00     0.046 A 
ATOM      9  C   UNL A   1      32.696  25.649  25.979  1.00  0.00     0.027 A 
ATOM     10  C   UNL A   1      30.599  25.893  24.823  1.00  0.00     0.073 A 
ATOM     11  C   UNL A   1      33.235  26.688  25.214  1.00  0.00     0.020 A 
ATOM     12  C   UNL A   1      31.154  26.899  24.030  1.00  0.00     0.130 A 
BRANCH   8  13
ATOM     13  N   UNL A   1      30.637  24.612  26.843  1.00  0.00    -0.308 N 
ATOM     14  N   UNL A   1      30.904  22.303  26.245  1.00  0.00    -0.306 N 
ATOM     15  C   UNL A   1      30.292  23.306  26.918  1.00  0.00     0.323 C 
ATOM     16  H   UNL A   1      30.338  21.502  26.156  1.00  0.00     0.171 HD
ATOM     17  O   UNL A   1      29.354  23.000  27.663  1.00  0.00    -0.248 OA
ATOM     18  H   UNL A   1      30.339  25.144  27.615  1.00  0.00     0.171 HD
BRANCH  14  19
ATOM     19  C   UNL A   1      32.173  22.148  25.642  1.00  0.00     0.064 A 
ATOM     20  C   UNL A   1      33.387  22.188  27.906  1.00  0.00     0.069 C 
ATOM     21  C   UNL A   1      33.330  21.971  26.422  1.00  0.00     0.061 A 
ATOM     22  N   UNL A   1      34.529  21.614  25.883  1.00  0.00    -0.259 NA
ATOM     23  C   UNL A   1      34.609  21.482  24.545  1.00  0.00     0.111 A 
ATOM     24  C   UNL A   1      32.346  22.150  24.256  1.00  0.00     0.030 A 
ATOM     25  C   UNL A   1      33.566  21.778  23.695  1.00  0.00     0.022 A 
ENDBRANCH  14  19
ENDBRANCH   8  13
BRANCH  12  26
ATOM     26  O   UNL A   1      30.371  27.364  23.011  1.00  0.00    -0.507 OA
ATOM     27  H   UNL A   1      30.767  27.750  22.255  1.00  0.00     0.293 HD
ENDBRANCH  12  26
ENDBRANCH   4   7
ENDBRANCH   2   3
ENDBRANCH   1   2
BRANCH   1  28
ATOM     28  C   UNL A   1      31.512  31.983  26.543  1.00  0.00     0.023 C 
BRANCH  28  29
ATOM     29  C   UNL A   1      32.649  32.711  27.253  1.00  0.00     0.116 C 
BRANCH  29  30
ATOM     30  N   UNL A   1      32.331  34.075  27.639  1.00  0.00    -0.352 N 
ATOM     31  C   UNL A   1      32.946  34.919  28.540  1.00  0.00     0.251 C 
ATOM     32  H   UNL A   1      31.547  34.460  27.184  1.00  0.00     0.163 HD
ATOM     33  O   UNL A   1      32.465  36.022  28.761  1.00  0.00    -0.269 OA
BRANCH  31  34
ATOM     34  C   UNL A   1      34.154  34.488  29.284  1.00  0.00     0.039 A 
ATOM     35  C   UNL A   1      33.989  33.922  30.553  1.00  0.00     0.014 A 
ATOM     36  C   UNL A   1      35.438  34.630  28.755  1.00  0.00     0.014 A 
ATOM     37  C   UNL A   1      35.093  33.413  31.243  1.00  0.00     0.010 A 
ATOM     38  C   UNL A   1      36.527  34.049  29.405  1.00  0.00     0.010 A 
ATOM     39  C   UNL A   1      36.366  33.422  30.650  1.00  0.00    -0.014 A 
BRANCH  39  40
ATOM     40  C   UNL A   1      37.530  32.763  31.301  1.00  0.00     0.031 A 
ATOM     41  C   UNL A   1      38.222  31.605  30.634  1.00  0.00     0.074 A 
ATOM     42  C   UNL A   1      37.914  33.150  32.534  1.00  0.00     0.049 A 
ATOM     43  N   UNL A   1      39.181  30.837  31.089  1.00  0.00    -0.248 NA
ATOM     44  C   UNL A   1      37.752  31.242  29.287  1.00  0.00     0.031 C 
ATOM     45  C   UNL A   1      37.296  34.223  33.314  1.00  0.00     0.029 A 
ATOM     46  N   UNL A   1      38.906  32.673  33.356  1.00  0.00    -0.354 N 
ATOM     47  C   UNL A   1      39.412  29.892  30.099  1.00  0.00     0.074 A 
ATOM     48  C   UNL A   1      38.463  30.151  29.037  1.00  0.00     0.031 C 
ATOM     49  C   UNL A   1      37.931  34.333  34.493  1.00  0.00     0.029 A 
ATOM     50  C   UNL A   1      38.974  33.315  34.570  1.00  0.00     0.049 A 
ATOM     51  H   UNL A   1      39.512  31.940  33.101  1.00  0.00     0.167 HD
ATOM     52  C   UNL A   1      40.343  28.908  30.069  1.00  0.00     0.037 A 
ATOM     53  C   UNL A   1      39.777  33.102  35.630  1.00  0.00     0.037 A 
ATOM     54  C   UNL A   1      41.312  28.673  31.107  1.00  0.00     0.049 A 
ATOM     55  C   UNL A   1      40.812  32.012  35.563  1.00  0.00     0.074 A 
ATOM     56  C   UNL A   1      42.341  27.748  31.132  1.00  0.00     0.029 A 
ATOM     57  N   UNL A   1      41.372  29.371  32.304  1.00  0.00    -0.354 N 
ATOM     58  N   UNL A   1      41.066  31.170  34.591  1.00  0.00    -0.248 NA
ATOM     59  C   UNL A   1      41.679  31.847  36.739  1.00  0.00     0.031 C 
ATOM     60  C   UNL A   1      42.999  27.857  32.362  1.00  0.00     0.029 A 
ATOM     61  C   UNL A   1      42.410  28.883  33.083  1.00  0.00     0.049 A 
ATOM     62  H   UNL A   1      40.768  30.104  32.562  1.00  0.00     0.167 HD
ATOM     63  C   UNL A   1      42.136  30.398  35.024  1.00  0.00     0.074 A 
ATOM     64  C   UNL A   1      42.494  30.880  36.342  1.00  0.00     0.031 C 
ATOM     65  C   UNL A   1      42.765  29.382  34.386  1.00  0.00     0.037 A 
BRANCH  52  66
ATOM     66  C   UNL A   1      40.368  28.009  28.866  1.00  0.00     0.064 A 
ATOM     67  C   UNL A   1      41.119  28.329  27.725  1.00  0.00     0.173 A 
ATOM     68  C   UNL A   1      39.674  26.790  28.874  1.00  0.00     0.173 A 
ATOM     69  F   UNL A   1      41.793  29.488  27.663  1.00  0.00    -0.203 F 
ATOM     70  C   UNL A   1      41.152  27.474  26.626  1.00  0.00     0.198 A 
ATOM     71  C   UNL A   1      39.734  25.924  27.786  1.00  0.00     0.198 A 
ATOM     72  F   UNL A   1      38.947  26.432  29.944  1.00  0.00    -0.203 F 
ATOM     73  F   UNL A   1      41.840  27.822  25.530  1.00  0.00    -0.200 F 
ATOM     74  C   UNL A   1      40.467  26.270  26.660  1.00  0.00     0.200 A 
ATOM     75  F   UNL A   1      39.081  24.754  27.826  1.00  0.00    -0.200 F 
ATOM     76  F   UNL A   1      40.508  25.443  25.606  1.00  0.00    -0.200 F 
ENDBRANCH  52  66
BRANCH  53  77
ATOM     77  C   UNL A   1      39.649  33.951  36.843  1.00  0.00     0.064 A 
ATOM     78  C   UNL A   1      38.852  33.546  37.923  1.00  0.00     0.173 A 
ATOM     79  C   UNL A   1      40.305  35.187  36.944  1.00  0.00     0.173 A 
ATOM     80  F   UNL A   1      38.188  32.382  37.865  1.00  0.00    -0.203 F 
ATOM     81  C   UNL A   1      38.699  34.354  39.048  1.00  0.00     0.198 A 
ATOM     82  C   UNL A   1      40.173  35.981  38.080  1.00  0.00     0.198 A 
ATOM     83  F   UNL A   1      41.082  35.618  35.938  1.00  0.00    -0.203 F 
ATOM     84  F   UNL A   1      37.893  33.964  40.045  1.00  0.00    -0.200 F 
ATOM     85  C   UNL A   1      39.363  35.569  39.128  1.00  0.00     0.200 A 
ATOM     86  F   UNL A   1      40.828  37.148  38.159  1.00  0.00    -0.200 F 
ATOM     87  F   UNL A   1      39.216  36.345  40.209  1.00  0.00    -0.200 F 
ENDBRANCH  53  77
BRANCH  65  88
ATOM     88  C   UNL A   1      43.933  28.747  35.083  1.00  0.00     0.064 A 
ATOM     89  C   UNL A   1      45.240  29.229  34.919  1.00  0.00     0.173 A 
ATOM     90  C   UNL A   1      43.734  27.669  35.958  1.00  0.00     0.173 A 
ATOM     91  F   UNL A   1      45.485  30.247  34.082  1.00  0.00    -0.203 F 
ATOM     92  C   UNL A   1      46.308  28.640  35.591  1.00  0.00     0.198 A 
ATOM     93  C   UNL A   1      44.800  27.101  36.650  1.00  0.00     0.198 A 
ATOM     94  F   UNL A   1      42.502  27.175  36.154  1.00  0.00    -0.203 F 
ATOM     95  F   UNL A   1      47.555  29.088  35.387  1.00  0.00    -0.200 F 
ATOM     96  C   UNL A   1      46.086  27.582  36.462  1.00  0.00     0.200 A 
ATOM     97  F   UNL A   1      44.582  26.087  37.500  1.00  0.00    -0.200 F 
ATOM     98  F   UNL A   1      47.114  27.023  37.113  1.00  0.00    -0.200 F 
ENDBRANCH  65  88
ENDBRANCH  39  40
ENDBRANCH  31  34
ENDBRANCH  29  30
ENDBRANCH  28  29
ENDBRANCH   1  28
TORSDOF 14
ENDMDL
MODEL 2
REMARK VINA RESULT:     -13.5      0.400      1.750
REMARK SMILES Cc1ncccc1NC(=O)Nc1ccc(C(=O)NCCCCNC(=O)c2ccc(-c3c4nc(c(-c5c(F)c(F)c(F)c(F)c5F)c5ccc([nH]5)c(-c5c(F)c(F)c(F)c(F)c5F)c5nc(c(-c6c(F)c(F)c(F)c(F)c6F)c6ccc3[nH]6)C=C5)C=C4)cc2)c(O)c1
REMARK SMILES IDX 20 1 19 2 18 3 16 4 17 5 15 7 12 8 13 9 91 10 14 11 89 12
REMARK SMILES IDX 11 13 8 14 9 15 10 17 7 19 1 20 2 21 3 22 4 23 6 24 5 25
REMARK SMILES IDX 90 26 21 28 22 29 23 30 24 31 25 33 26 34 27 35 88 36 28 37
REMARK SMILES IDX 87 38 29 39 30 40 31 41 81 42 32 43 86 44 80 45 82 46 33 47
REMARK SMILES IDX 85 48 79 49 78 50 34 52 66 53 46 54 65 55 47 56 50 57 64 58
REMARK SMILES IDX 83 59 48 60 49 61 63 63 84 64 51 65 35 66 36 67 44 68 37 69
REMARK SMILES IDX 38 70 42 71 45 72 39 73 40 74 43 75 41 76 67 77 68 78 76 79
REMARK SMILES IDX 69 80 70 81 74 82 77 83 71 84 72 85 75 86 73 87 52 88 53 89
REMARK SMILES IDX 61 90 54 91 55 92 59 93 62 94 56 95 57 96 60 97 58 98
REMARK H PARENT 18 6 8 16 11 18 90 27 23 32 82 51 50 62
REMARK Flexibility Score: inf
ROOT
ATOM      1  C   UNL A   1      31.714  30.400  26.297  1.00  0.00     0.023 C 
ENDROOT
BRANCH   1   2
ATOM      2  C   UNL A   1      33.144  29.862  26.262  1.00  0.00     0.116 C 
BRANCH   2   3
ATOM      3  N   UNL A   1      33.688  29.642  24.929  1.00  0.00    -0.352 N 
ATOM      4  C   UNL A   1      33.595  28.550  24.093  1.00  0.00     0.255 C 
ATOM      5  O   UNL A   1      34.098  28.620  22.973  1.00  0.00    -0.269 OA
ATOM      6  H   UNL A   1      34.209  30.395  24.567  1.00  0.00     0.163 HD
BRANCH   4   7
ATOM      7  C   UNL A   1      32.990  27.270  24.541  1.00  0.00     0.081 A 
ATOM      8  C   UNL A   1      31.760  25.227  25.992  1.00  0.00     0.046 A 
ATOM      9  C   UNL A   1      33.117  25.483  26.178  1.00  0.00     0.027 A 
ATOM     10  C   UNL A   1      31.101  25.802  24.902  1.00  0.00     0.073 A 
ATOM     11  C   UNL A   1      33.726  26.524  25.471  1.00  0.00     0.020 A 
ATOM     12  C   UNL A   1      31.727  26.810  24.168  1.00  0.00     0.130 A 
BRANCH   8  13
ATOM     13  N   UNL A   1      30.986  24.477  26.891  1.00  0.00    -0.308 N 
ATOM     14  N   UNL A   1      31.228  22.177  26.253  1.00  0.00    -0.306 N 
ATOM     15  C   UNL A   1      30.603  23.180  26.914  1.00  0.00     0.323 C 
ATOM     16  H   UNL A   1      30.647  21.394  26.111  1.00  0.00     0.171 HD
ATOM     17  O   UNL A   1      29.616  22.883  27.594  1.00  0.00    -0.248 OA
ATOM     18  H   UNL A   1      30.657  24.999  27.658  1.00  0.00     0.171 HD
BRANCH  14  19
ATOM     19  C   UNL A   1      32.525  22.001  25.721  1.00  0.00     0.064 A 
ATOM     20  C   UNL A   1      31.740  22.494  23.325  1.00  0.00     0.069 C 
ATOM     21  C   UNL A   1      32.796  22.268  24.367  1.00  0.00     0.061 A 
ATOM     22  N   UNL A   1      34.063  22.311  23.868  1.00  0.00    -0.259 NA
ATOM     23  C   UNL A   1      35.083  22.032  24.702  1.00  0.00     0.111 A 
ATOM     24  C   UNL A   1      33.600  21.571  26.502  1.00  0.00     0.030 A 
ATOM     25  C   UNL A   1      34.901  21.619  26.004  1.00  0.00     0.022 A 
ENDBRANCH  14  19
ENDBRANCH   8  13
BRANCH  12  26
ATOM     26  O   UNL A   1      31.018  27.315  23.114  1.00  0.00    -0.507 OA
ATOM     27  H   UNL A   1      30.156  26.995  22.932  1.00  0.00     0.293 HD
ENDBRANCH  12  26
ENDBRANCH   4   7
ENDBRANCH   2   3
ENDBRANCH   1   2
BRANCH   1  28
ATOM     28  C   UNL A   1      31.540  31.900  26.533  1.00  0.00     0.023 C 
BRANCH  28  29
ATOM     29  C   UNL A   1      32.654  32.616  27.289  1.00  0.00     0.116 C 
BRANCH  29  30
ATOM     30  N   UNL A   1      32.345  33.992  27.639  1.00  0.00    -0.352 N 
ATOM     31  C   UNL A   1      32.965  34.855  28.518  1.00  0.00     0.251 C 
ATOM     32  H   UNL A   1      31.565  34.370  27.172  1.00  0.00     0.163 HD
ATOM     33  O   UNL A   1      32.491  35.967  28.708  1.00  0.00    -0.269 OA
BRANCH  31  34
ATOM     34  C   UNL A   1      34.169  34.435  29.275  1.00  0.00     0.039 A 
ATOM     35  C   UNL A   1      33.995  33.884  30.549  1.00  0.00     0.014 A 
ATOM     36  C   UNL A   1      35.456  34.574  28.754  1.00  0.00     0.014 A 
ATOM     37  C   UNL A   1      35.096  33.385  31.253  1.00  0.00     0.010 A 
ATOM     38  C   UNL A   1      36.542  34.003  29.418  1.00  0.00     0.010 A 
ATOM     39  C   UNL A   1      36.373  33.390  30.670  1.00  0.00    -0.014 A 
BRANCH  39  40
ATOM     40  C   UNL A   1      37.534  32.741  31.336  1.00  0.00     0.031 A 
ATOM     41  C   UNL A   1      38.239  31.584  30.682  1.00  0.00     0.074 A 
ATOM     42  C   UNL A   1      37.902  33.137  32.570  1.00  0.00     0.049 A 
ATOM     43  N   UNL A   1      39.199  30.824  31.151  1.00  0.00    -0.248 NA
ATOM     44  C   UNL A   1      37.787  31.211  29.333  1.00  0.00     0.031 C 
ATOM     45  C   UNL A   1      37.270  34.210  33.339  1.00  0.00     0.029 A 
ATOM     46  N   UNL A   1      38.888  32.670  33.405  1.00  0.00    -0.354 N 
ATOM     47  C   UNL A   1      39.445  29.875  30.168  1.00  0.00     0.074 A 
ATOM     48  C   UNL A   1      38.507  30.124  29.095  1.00  0.00     0.031 C 
ATOM     49  C   UNL A   1      37.891  34.329  34.524  1.00  0.00     0.029 A 
ATOM     50  C   UNL A   1      38.939  33.318  34.617  1.00  0.00     0.049 A 
ATOM     51  H   UNL A   1      39.501  31.939  33.161  1.00  0.00     0.167 HD
ATOM     52  C   UNL A   1      40.383  28.897  30.153  1.00  0.00     0.037 A 
ATOM     53  C   UNL A   1      39.732  33.115  35.686  1.00  0.00     0.037 A 
ATOM     54  C   UNL A   1      41.342  28.673  31.203  1.00  0.00     0.049 A 
ATOM     55  C   UNL A   1      40.775  32.031  35.637  1.00  0.00     0.074 A 
ATOM     56  C   UNL A   1      42.376  27.753  31.244  1.00  0.00     0.029 A 
ATOM     57  N   UNL A   1      41.385  29.377  32.397  1.00  0.00    -0.354 N 
ATOM     58  N   UNL A   1      41.044  31.185  34.672  1.00  0.00    -0.248 NA
ATOM     59  C   UNL A   1      41.630  31.877  36.822  1.00  0.00     0.031 C 
ATOM     60  C   UNL A   1      43.020  27.873  32.480  1.00  0.00     0.029 A 
ATOM     61  C   UNL A   1      42.417  28.899  33.190  1.00  0.00     0.049 A 
ATOM     62  H   UNL A   1      40.773  30.107  32.645  1.00  0.00     0.167 HD
ATOM     63  C   UNL A   1      42.114  30.422  35.120  1.00  0.00     0.074 A 
ATOM     64  C   UNL A   1      42.454  30.913  36.438  1.00  0.00     0.031 C 
ATOM     65  C   UNL A   1      42.756  29.407  34.494  1.00  0.00     0.037 A 
BRANCH  52  66
ATOM     66  C   UNL A   1      40.426  27.992  28.955  1.00  0.00     0.064 A 
ATOM     67  C   UNL A   1      39.698  26.794  28.913  1.00  0.00     0.173 A 
ATOM     68  C   UNL A   1      41.164  28.353  27.818  1.00  0.00     0.173 A 
ATOM     69  F   UNL A   1      38.984  26.399  29.978  1.00  0.00    -0.203 F 
ATOM     70  C   UNL A   1      39.729  25.977  27.785  1.00  0.00     0.198 A 
ATOM     71  C   UNL A   1      41.168  27.549  26.681  1.00  0.00     0.198 A 
ATOM     72  F   UNL A   1      41.872  29.493  27.804  1.00  0.00    -0.203 F 
ATOM     73  F   UNL A   1      39.061  24.815  27.784  1.00  0.00    -0.200 F 
ATOM     74  C   UNL A   1      40.456  26.359  26.668  1.00  0.00     0.200 A 
ATOM     75  F   UNL A   1      41.861  27.926  25.598  1.00  0.00    -0.200 F 
ATOM     76  F   UNL A   1      40.476  25.576  25.580  1.00  0.00    -0.200 F 
ENDBRANCH  52  66
BRANCH  53  77
ATOM     77  C   UNL A   1      39.587  33.969  36.894  1.00  0.00     0.064 A 
ATOM     78  C   UNL A   1      38.798  33.555  37.977  1.00  0.00     0.173 A 
ATOM     79  C   UNL A   1      40.217  35.219  36.987  1.00  0.00     0.173 A 
ATOM     80  F   UNL A   1      38.157  32.378  37.926  1.00  0.00    -0.203 F 
ATOM     81  C   UNL A   1      38.627  34.368  39.096  1.00  0.00     0.198 A 
ATOM     82  C   UNL A   1      40.068  36.018  38.118  1.00  0.00     0.198 A 
ATOM     83  F   UNL A   1      40.986  35.659  35.979  1.00  0.00    -0.203 F 
ATOM     84  F   UNL A   1      37.829  33.968  40.095  1.00  0.00    -0.200 F 
ATOM     85  C   UNL A   1      39.266  35.596  39.168  1.00  0.00     0.200 A 
ATOM     86  F   UNL A   1      40.699  37.198  38.190  1.00  0.00    -0.200 F 
ATOM     87  F   UNL A   1      39.103  36.376  40.244  1.00  0.00    -0.200 F 
ENDBRANCH  53  77
BRANCH  65  88
ATOM     88  C   UNL A   1      43.920  28.782  35.206  1.00  0.00     0.064 A 
ATOM     89  C   UNL A   1      43.758  27.675  36.052  1.00  0.00     0.173 A 
ATOM     90  C   UNL A   1      45.219  29.273  35.005  1.00  0.00     0.173 A 
ATOM     91  F   UNL A   1      42.535  27.179  36.289  1.00  0.00    -0.203 F 
ATOM     92  C   UNL A   1      44.853  27.096  36.688  1.00  0.00     0.198 A 
ATOM     93  C   UNL A   1      46.315  28.673  35.619  1.00  0.00     0.198 A 
ATOM     94  F   UNL A   1      45.427  30.326  34.200  1.00  0.00    -0.203 F 
ATOM     95  F   UNL A   1      44.671  26.066  37.526  1.00  0.00    -0.200 F 
ATOM     96  C   UNL A   1      46.130  27.589  36.465  1.00  0.00     0.200 A 
ATOM     97  F   UNL A   1      47.549  29.144  35.393  1.00  0.00    -0.200 F 
ATOM     98  F   UNL A   1      47.183  27.025  37.071  1.00  0.00    -0.200 F 
ENDBRANCH  65  88
ENDBRANCH  39  40
ENDBRANCH  31  34
ENDBRANCH  29  30
ENDBRANCH  28  29
ENDBRANCH   1  28
TORSDOF 14
ENDMDL
MODEL 3
REMARK VINA RESULT:     -13.3      0.634      7.244
REMARK SMILES Cc1ncccc1NC(=O)Nc1ccc(C(=O)NCCCCNC(=O)c2ccc(-c3c4nc(c(-c5c(F)c(F)c(F)c(F)c5F)c5ccc([nH]5)c(-c5c(F)c(F)c(F)c(F)c5F)c5nc(c(-c6c(F)c(F)c(F)c(F)c6F)c6ccc3[nH]6)C=C5)C=C4)cc2)c(O)c1
REMARK SMILES IDX 20 1 19 2 18 3 16 4 17 5 15 7 12 8 13 9 91 10 14 11 89 12
REMARK SMILES IDX 11 13 8 14 9 15 10 17 7 19 1 20 2 21 3 22 4 23 6 24 5 25
REMARK SMILES IDX 90 26 21 28 22 29 23 30 24 31 25 33 26 34 27 35 88 36 28 37
REMARK SMILES IDX 87 38 29 39 30 40 31 41 81 42 32 43 86 44 80 45 82 46 33 47
REMARK SMILES IDX 85 48 79 49 78 50 34 52 66 53 46 54 65 55 47 56 50 57 64 58
REMARK SMILES IDX 83 59 48 60 49 61 63 63 84 64 51 65 35 66 36 67 44 68 37 69
REMARK SMILES IDX 38 70 42 71 45 72 39 73 40 74 43 75 41 76 67 77 68 78 76 79
REMARK SMILES IDX 69 80 70 81 74 82 77 83 71 84 72 85 75 86 73 87 52 88 53 89
REMARK SMILES IDX 61 90 54 91 55 92 59 93 62 94 56 95 57 96 60 97 58 98
REMARK H PARENT 18 6 8 16 11 18 90 27 23 32 82 51 50 62
REMARK Flexibility Score: inf
ROOT
ATOM      1  C   UNL A   1      31.410  30.624  26.237  1.00  0.00     0.023 C 
ENDROOT
BRANCH   1   2
ATOM      2  C   UNL A   1      32.775  29.949  26.110  1.00  0.00     0.116 C 
BRANCH   2   3
ATOM      3  N   UNL A   1      33.230  29.731  24.744  1.00  0.00    -0.352 N 
ATOM      4  C   UNL A   1      33.088  28.637  23.917  1.00  0.00     0.255 C 
ATOM      5  O   UNL A   1      33.515  28.708  22.767  1.00  0.00    -0.269 OA
ATOM      6  H   UNL A   1      33.720  30.487  24.347  1.00  0.00     0.163 HD
BRANCH   4   7
ATOM      7  C   UNL A   1      32.522  27.354  24.406  1.00  0.00     0.081 A 
ATOM      8  C   UNL A   1      31.371  25.316  25.927  1.00  0.00     0.046 A 
ATOM      9  C   UNL A   1      32.726  25.607  26.079  1.00  0.00     0.027 A 
ATOM     10  C   UNL A   1      30.677  25.852  24.840  1.00  0.00     0.073 A 
ATOM     11  C   UNL A   1      33.295  26.645  25.336  1.00  0.00     0.020 A 
ATOM     12  C   UNL A   1      31.263  26.857  24.070  1.00  0.00     0.130 A 
BRANCH   8  13
ATOM     13  N   UNL A   1      30.635  24.569  26.860  1.00  0.00    -0.308 N 
ATOM     14  N   UNL A   1      30.908  22.262  26.260  1.00  0.00    -0.306 N 
ATOM     15  C   UNL A   1      30.279  23.265  26.916  1.00  0.00     0.323 C 
ATOM     16  H   UNL A   1      30.341  21.465  26.148  1.00  0.00     0.171 HD
ATOM     17  O   UNL A   1      29.314  22.962  27.626  1.00  0.00    -0.248 OA
ATOM     18  H   UNL A   1      30.313  25.100  27.624  1.00  0.00     0.171 HD
BRANCH  14  19
ATOM     19  C   UNL A   1      32.196  22.102  25.701  1.00  0.00     0.064 A 
ATOM     20  C   UNL A   1      33.338  22.202  28.000  1.00  0.00     0.069 C 
ATOM     21  C   UNL A   1      33.329  21.951  26.521  1.00  0.00     0.061 A 
ATOM     22  N   UNL A   1      34.547  21.590  26.028  1.00  0.00    -0.259 NA
ATOM     23  C   UNL A   1      34.670  21.428  24.697  1.00  0.00     0.111 A 
ATOM     24  C   UNL A   1      32.413  22.073  24.322  1.00  0.00     0.030 A 
ATOM     25  C   UNL A   1      33.652  21.696  23.807  1.00  0.00     0.022 A 
ENDBRANCH  14  19
ENDBRANCH   8  13
BRANCH  12  26
ATOM     26  O   UNL A   1      30.520  27.323  23.021  1.00  0.00    -0.507 OA
ATOM     27  H   UNL A   1      30.736  28.142  22.622  1.00  0.00     0.293 HD
ENDBRANCH  12  26
ENDBRANCH   4   7
ENDBRANCH   2   3
ENDBRANCH   1   2
BRANCH   1  28
ATOM     28  C   UNL A   1      31.399  32.131  26.491  1.00  0.00     0.023 C 
BRANCH  28  29
ATOM     29  C   UNL A   1      32.608  32.722  27.209  1.00  0.00     0.116 C 
BRANCH  29  30
ATOM     30  N   UNL A   1      32.435  34.102  27.626  1.00  0.00    -0.352 N 
ATOM     31  C   UNL A   1      33.131  34.855  28.548  1.00  0.00     0.251 C 
ATOM     32  H   UNL A   1      31.699  34.579  27.178  1.00  0.00     0.163 HD
ATOM     33  O   UNL A   1      32.770  35.998  28.793  1.00  0.00    -0.269 OA
BRANCH  31  34
ATOM     34  C   UNL A   1      34.282  34.280  29.286  1.00  0.00     0.039 A 
ATOM     35  C   UNL A   1      34.027  33.531  30.439  1.00  0.00     0.014 A 
ATOM     36  C   UNL A   1      35.600  34.466  28.862  1.00  0.00     0.014 A 
ATOM     37  C   UNL A   1      35.077  32.890  31.105  1.00  0.00     0.010 A 
ATOM     38  C   UNL A   1      36.634  33.762  29.477  1.00  0.00     0.010 A 
ATOM     39  C   UNL A   1      36.383  32.955  30.598  1.00  0.00    -0.014 A 
BRANCH  39  40
ATOM     40  C   UNL A   1      37.492  32.170  31.205  1.00  0.00     0.031 A 
ATOM     41  C   UNL A   1      37.993  32.499  32.585  1.00  0.00     0.074 A 
ATOM     42  C   UNL A   1      38.109  31.215  30.481  1.00  0.00     0.049 A 
ATOM     43  N   UNL A   1      39.013  32.001  33.239  1.00  0.00    -0.248 NA
ATOM     44  C   UNL A   1      37.268  33.549  33.318  1.00  0.00     0.031 C 
ATOM     45  C   UNL A   1      37.759  30.832  29.112  1.00  0.00     0.029 A 
ATOM     46  N   UNL A   1      39.173  30.403  30.789  1.00  0.00    -0.354 N 
ATOM     47  C   UNL A   1      39.065  32.691  34.443  1.00  0.00     0.074 A 
ATOM     48  C   UNL A   1      38.003  33.673  34.414  1.00  0.00     0.031 C 
ATOM     49  C   UNL A   1      38.581  29.852  28.704  1.00  0.00     0.029 A 
ATOM     50  C   UNL A   1      39.541  29.562  29.764  1.00  0.00     0.049 A 
ATOM     51  H   UNL A   1      39.631  30.420  31.660  1.00  0.00     0.167 HD
ATOM     52  C   UNL A   1      39.910  32.508  35.487  1.00  0.00     0.037 A 
ATOM     53  C   UNL A   1      40.544  28.667  29.683  1.00  0.00     0.037 A 
ATOM     54  C   UNL A   1      40.942  31.505  35.532  1.00  0.00     0.049 A 
ATOM     55  C   UNL A   1      41.458  28.474  30.863  1.00  0.00     0.074 A 
ATOM     56  C   UNL A   1      41.798  31.197  36.575  1.00  0.00     0.029 A 
ATOM     57  N   UNL A   1      41.257  30.647  34.489  1.00  0.00    -0.354 N 
ATOM     58  N   UNL A   1      41.452  29.084  32.023  1.00  0.00    -0.248 NA
ATOM     59  C   UNL A   1      42.514  27.461  30.726  1.00  0.00     0.031 C 
ATOM     60  C   UNL A   1      42.659  30.180  36.149  1.00  0.00     0.029 A 
ATOM     61  C   UNL A   1      42.308  29.822  34.857  1.00  0.00     0.049 A 
ATOM     62  H   UNL A   1      40.801  30.628  33.616  1.00  0.00     0.167 HD
ATOM     63  C   UNL A   1      42.479  28.512  32.762  1.00  0.00     0.074 A 
ATOM     64  C   UNL A   1      43.080  27.495  31.924  1.00  0.00     0.031 C 
ATOM     65  C   UNL A   1      42.886  28.803  34.020  1.00  0.00     0.037 A 
BRANCH  52  66
ATOM     66  C   UNL A   1      39.750  33.409  36.678  1.00  0.00     0.064 A 
ATOM     67  C   UNL A   1      40.446  34.622  36.780  1.00  0.00     0.173 A 
ATOM     68  C   UNL A   1      38.854  33.078  37.704  1.00  0.00     0.173 A 
ATOM     69  F   UNL A   1      41.324  34.980  35.829  1.00  0.00    -0.203 F 
ATOM     70  C   UNL A   1      40.270  35.459  37.878  1.00  0.00     0.198 A 
ATOM     71  C   UNL A   1      38.657  33.931  38.787  1.00  0.00     0.198 A 
ATOM     72  F   UNL A   1      38.157  31.932  37.652  1.00  0.00    -0.203 F 
ATOM     73  F   UNL A   1      40.979  36.592  37.976  1.00  0.00    -0.200 F 
ATOM     74  C   UNL A   1      39.370  35.117  38.876  1.00  0.00     0.200 A 
ATOM     75  F   UNL A   1      37.777  33.606  39.744  1.00  0.00    -0.200 F 
ATOM     76  F   UNL A   1      39.193  35.929  39.928  1.00  0.00    -0.200 F 
ENDBRANCH  52  66
BRANCH  53  77
ATOM     77  C   UNL A   1      40.729  27.867  28.445  1.00  0.00     0.064 A 
ATOM     78  C   UNL A   1      40.117  26.613  28.300  1.00  0.00     0.173 A 
ATOM     79  C   UNL A   1      41.529  28.327  27.389  1.00  0.00     0.173 A 
ATOM     80  F   UNL A   1      39.360  26.120  29.292  1.00  0.00    -0.203 F 
ATOM     81  C   UNL A   1      40.316  25.842  27.157  1.00  0.00     0.198 A 
ATOM     82  C   UNL A   1      41.705  27.567  26.234  1.00  0.00     0.198 A 
ATOM     83  F   UNL A   1      42.133  29.522  27.476  1.00  0.00    -0.203 F 
ATOM     84  F   UNL A   1      39.759  24.627  27.066  1.00  0.00    -0.200 F 
ATOM     85  C   UNL A   1      41.106  26.321  26.123  1.00  0.00     0.200 A 
ATOM     86  F   UNL A   1      42.458  28.040  25.232  1.00  0.00    -0.200 F 
ATOM     87  F   UNL A   1      41.297  25.580  25.024  1.00  0.00    -0.200 F 
ENDBRANCH  53  77
BRANCH  65  88
ATOM     88  C   UNL A   1      44.009  27.986  34.589  1.00  0.00     0.064 A 
ATOM     89  C   UNL A   1      43.776  26.770  35.247  1.00  0.00     0.173 A 
ATOM     90  C   UNL A   1      45.339  28.407  34.435  1.00  0.00     0.173 A 
ATOM     91  F   UNL A   1      42.522  26.332  35.434  1.00  0.00    -0.203 F 
ATOM     92  C   UNL A   1      44.833  26.015  35.750  1.00  0.00     0.198 A 
ATOM     93  C   UNL A   1      46.395  27.636  34.913  1.00  0.00     0.198 A 
ATOM     94  F   UNL A   1      45.615  29.560  33.807  1.00  0.00    -0.203 F 
ATOM     95  F   UNL A   1      44.586  24.878  36.414  1.00  0.00    -0.200 F 
ATOM     96  C   UNL A   1      46.141  26.444  35.575  1.00  0.00     0.200 A 
ATOM     97  F   UNL A   1      47.658  28.046  34.732  1.00  0.00    -0.200 F 
ATOM     98  F   UNL A   1      47.157  25.713  36.052  1.00  0.00    -0.200 F 
ENDBRANCH  65  88
ENDBRANCH  39  40
ENDBRANCH  31  34
ENDBRANCH  29  30
ENDBRANCH  28  29
ENDBRANCH   1  28
TORSDOF 14
ENDMDL
