MODEL 1
REMARK VINA RESULT:     -13.0      0.000      0.000
REMARK SMILES C=C(C)COc1cc2oc(=O)c(CC(=O)N3CCC[C@H](C(=O)NCCCCNC(=O)c4ccc(-c5c6nc(c(-c7c(F)c(F)c(F)c(F)c7F)c7ccc([nH]7)c(-c7c(F)c(F)c(F)c(F)c7F)c7nc(c(-c8c(F)c(F)c(F)c(F)c8F)c8ccc5[nH]8)C=C7)C=C6)cc4)C3)c(C)c2cc1Cl
REMARK SMILES IDX 21 1 22 2 23 3 20 5 16 6 17 7 94 8 18 9 19 10 14 11 15 12
REMARK SMILES IDX 13 13 12 14 6 15 7 16 99 17 8 18 98 19 100 20 9 21 97 22
REMARK SMILES IDX 10 23 95 24 11 25 96 26 5 27 4 28 2 29 1 30 3 31 24 32 25 33
REMARK SMILES IDX 26 34 27 35 28 36 29 37 30 39 31 40 32 41 93 42 33 43 92 44
REMARK SMILES IDX 34 45 35 46 36 47 86 48 37 49 91 50 85 51 87 52 38 53 90 54
REMARK SMILES IDX 84 55 83 56 39 58 71 59 51 60 70 61 52 62 55 63 69 64 88 65
REMARK SMILES IDX 53 66 54 67 68 69 89 70 56 71 40 72 41 73 49 74 42 75 43 76
REMARK SMILES IDX 47 77 50 78 44 79 45 80 48 81 46 82 72 83 73 84 81 85 74 86
REMARK SMILES IDX 75 87 79 88 82 89 76 90 77 91 80 92 78 93 57 94 58 95 66 96
REMARK SMILES IDX 59 97 60 98 64 99 67 100 61 101 62 102 65 103 63 104
REMARK H PARENT 23 4 28 38 87 57 55 68
REMARK Flexibility Score: inf
ROOT
ATOM      1  C   UNL A   1      32.933  26.202  23.557  1.00  0.00     0.224 C 
ATOM      2  O   UNL A   1      34.063  25.840  23.910  1.00  0.00    -0.275 OA
ATOM      3  N   UNL A   1      32.529  27.415  24.011  1.00  0.00    -0.356 N 
ATOM      4  H   UNL A   1      33.112  27.803  24.702  1.00  0.00     0.163 HD
ENDROOT
BRANCH   1   5
ATOM      5  C   UNL A   1      32.111  25.289  22.636  1.00  0.00     0.098 C 
ATOM      6  N   UNL A   1      31.265  23.225  23.776  1.00  0.00    -0.342 N 
ATOM      7  C   UNL A   1      31.825  22.364  22.732  1.00  0.00     0.119 C 
ATOM      8  C   UNL A   1      30.953  24.579  23.341  1.00  0.00     0.133 C 
ATOM      9  C   UNL A   1      33.058  22.955  22.058  1.00  0.00     0.022 C 
ATOM     10  C   UNL A   1      32.903  24.419  21.660  1.00  0.00     0.017 C 
BRANCH   6  11
ATOM     11  C   UNL A   1      31.139  22.714  25.062  1.00  0.00     0.227 C 
ATOM     12  O   UNL A   1      30.394  23.279  25.875  1.00  0.00    -0.275 OA
BRANCH  11  13
ATOM     13  C   UNL A   1      32.000  21.548  25.587  1.00  0.00     0.143 C 
BRANCH  13  14
ATOM     14  C   UNL A   1      33.496  21.574  25.448  1.00  0.00     0.051 A 
ATOM     15  C   UNL A   1      38.528  21.879  25.786  1.00  0.00     0.142 A 
ATOM     16  C   UNL A   1      37.633  20.897  25.369  1.00  0.00     0.096 A 
ATOM     17  C   UNL A   1      38.058  23.160  26.086  1.00  0.00     0.083 A 
ATOM     18  C   UNL A   1      36.270  21.187  25.351  1.00  0.00     0.142 A 
ATOM     19  C   UNL A   1      36.682  23.420  26.090  1.00  0.00     0.036 A 
ATOM     20  Cl  UNL A   1      39.127  24.461  26.460  1.00  0.00    -0.080 Cl
ATOM     21  O   UNL A   1      35.426  20.164  24.897  1.00  0.00    -0.422 OA
ATOM     22  C   UNL A   1      35.759  22.421  25.750  1.00  0.00     0.023 A 
ATOM     23  C   UNL A   1      34.056  20.338  24.828  1.00  0.00     0.340 A 
ATOM     24  C   UNL A   1      34.296  22.588  25.851  1.00  0.00    -0.029 A 
ATOM     25  O   UNL A   1      33.338  19.466  24.353  1.00  0.00    -0.246 OA
ATOM     26  C   UNL A   1      33.789  23.847  26.509  1.00  0.00     0.046 C 
BRANCH  15  27
ATOM     27  O   UNL A   1      39.864  21.584  25.824  1.00  0.00    -0.488 OA
BRANCH  27  28
ATOM     28  C   UNL A   1      40.096  20.163  25.791  1.00  0.00     0.260 C 
BRANCH  28  29
ATOM     29  C   UNL A   1      41.363  19.820  26.536  1.00  0.00    -0.043 C 
ATOM     30  C   UNL A   1      41.516  20.107  27.840  1.00  0.00     0.011 C 
ATOM     31  C   UNL A   1      42.433  19.116  25.752  1.00  0.00     0.042 C 
ENDBRANCH  28  29
ENDBRANCH  27  28
ENDBRANCH  15  27
ENDBRANCH  13  14
ENDBRANCH  11  13
ENDBRANCH   6  11
ENDBRANCH   1   5
BRANCH   3  32
ATOM     32  C   UNL A   1      31.393  28.238  23.662  1.00  0.00     0.116 C 
BRANCH  32  33
ATOM     33  C   UNL A   1      31.166  29.401  24.623  1.00  0.00     0.023 C 
BRANCH  33  34
ATOM     34  C   UNL A   1      31.723  29.191  26.028  1.00  0.00     0.023 C 
BRANCH  34  35
ATOM     35  C   UNL A   1      32.939  30.041  26.385  1.00  0.00     0.116 C 
BRANCH  35  36
ATOM     36  N   UNL A   1      32.641  31.377  26.888  1.00  0.00    -0.352 N 
ATOM     37  C   UNL A   1      33.483  32.214  27.597  1.00  0.00     0.251 C 
ATOM     38  H   UNL A   1      31.739  31.722  26.701  1.00  0.00     0.163 HD
ATOM     39  O   UNL A   1      33.099  33.291  28.032  1.00  0.00    -0.269 OA
BRANCH  37  40
ATOM     40  C   UNL A   1      34.858  31.744  27.875  1.00  0.00     0.039 A 
ATOM     41  C   UNL A   1      35.084  30.397  28.150  1.00  0.00     0.014 A 
ATOM     42  C   UNL A   1      35.887  32.680  28.004  1.00  0.00     0.014 A 
ATOM     43  C   UNL A   1      36.267  30.024  28.774  1.00  0.00     0.010 A 
ATOM     44  C   UNL A   1      37.114  32.281  28.544  1.00  0.00     0.010 A 
ATOM     45  C   UNL A   1      37.284  30.968  29.008  1.00  0.00    -0.014 A 
BRANCH  45  46
ATOM     46  C   UNL A   1      38.472  30.554  29.803  1.00  0.00     0.031 A 
ATOM     47  C   UNL A   1      38.584  30.908  31.264  1.00  0.00     0.074 A 
ATOM     48  C   UNL A   1      39.394  29.754  29.235  1.00  0.00     0.049 A 
ATOM     49  N   UNL A   1      39.499  30.548  32.132  1.00  0.00    -0.248 NA
ATOM     50  C   UNL A   1      37.539  31.776  31.830  1.00  0.00     0.031 C 
ATOM     51  C   UNL A   1      39.386  29.327  27.835  1.00  0.00     0.029 A 
ATOM     52  N   UNL A   1      40.480  29.112  29.774  1.00  0.00    -0.354 N 
ATOM     53  C   UNL A   1      39.155  31.165  33.329  1.00  0.00     0.074 A 
ATOM     54  C   UNL A   1      37.961  31.940  33.077  1.00  0.00     0.031 C 
ATOM     55  C   UNL A   1      40.361  28.427  27.646  1.00  0.00     0.029 A 
ATOM     56  C   UNL A   1      41.102  28.262  28.893  1.00  0.00     0.049 A 
ATOM     57  H   UNL A   1      40.785  29.248  30.699  1.00  0.00     0.167 HD
ATOM     58  C   UNL A   1      39.772  31.081  34.532  1.00  0.00     0.037 A 
ATOM     59  C   UNL A   1      42.149  27.434  29.068  1.00  0.00     0.037 A 
ATOM     60  C   UNL A   1      40.934  30.274  34.797  1.00  0.00     0.049 A 
ATOM     61  C   UNL A   1      42.828  27.376  30.405  1.00  0.00     0.074 A 
ATOM     62  C   UNL A   1      41.609  30.102  35.993  1.00  0.00     0.029 A 
ATOM     63  N   UNL A   1      41.587  29.498  33.854  1.00  0.00    -0.354 N 
ATOM     64  N   UNL A   1      42.496  27.974  31.523  1.00  0.00    -0.248 NA
ATOM     65  C   UNL A   1      44.038  26.549  30.499  1.00  0.00     0.031 C 
ATOM     66  C   UNL A   1      42.691  29.247  35.767  1.00  0.00     0.029 A 
ATOM     67  C   UNL A   1      42.671  28.860  34.437  1.00  0.00     0.049 A 
ATOM     68  H   UNL A   1      41.322  29.411  32.910  1.00  0.00     0.167 HD
ATOM     69  C   UNL A   1      43.456  27.601  32.452  1.00  0.00     0.074 A 
ATOM     70  C   UNL A   1      44.370  26.703  31.774  1.00  0.00     0.031 C 
ATOM     71  C   UNL A   1      43.576  27.980  33.746  1.00  0.00     0.037 A 
BRANCH  58  72
ATOM     72  C   UNL A   1      39.209  31.884  35.666  1.00  0.00     0.064 A 
ATOM     73  C   UNL A   1      38.300  31.330  36.579  1.00  0.00     0.173 A 
ATOM     74  C   UNL A   1      39.638  33.203  35.883  1.00  0.00     0.173 A 
ATOM     75  F   UNL A   1      37.850  30.078  36.407  1.00  0.00    -0.203 F 
ATOM     76  C   UNL A   1      37.832  32.071  37.662  1.00  0.00     0.198 A 
ATOM     77  C   UNL A   1      39.185  33.933  36.978  1.00  0.00     0.198 A 
ATOM     78  F   UNL A   1      40.512  33.775  35.043  1.00  0.00    -0.203 F 
ATOM     79  F   UNL A   1      36.942  31.530  38.505  1.00  0.00    -0.200 F 
ATOM     80  C   UNL A   1      38.281  33.367  37.865  1.00  0.00     0.200 A 
ATOM     81  F   UNL A   1      39.628  35.181  37.181  1.00  0.00    -0.200 F 
ATOM     82  F   UNL A   1      37.839  34.073  38.915  1.00  0.00    -0.200 F 
ENDBRANCH  58  72
BRANCH  59  83
ATOM     83  C   UNL A   1      42.603  26.584  27.939  1.00  0.00     0.064 A 
ATOM     84  C   UNL A   1      43.473  27.090  26.965  1.00  0.00     0.173 A 
ATOM     85  C   UNL A   1      42.216  25.239  27.839  1.00  0.00     0.173 A 
ATOM     86  F   UNL A   1      43.855  28.375  27.012  1.00  0.00    -0.203 F 
ATOM     87  C   UNL A   1      43.943  26.281  25.933  1.00  0.00     0.198 A 
ATOM     88  C   UNL A   1      42.706  24.426  26.820  1.00  0.00     0.198 A 
ATOM     89  F   UNL A   1      41.386  24.711  28.750  1.00  0.00    -0.203 F 
ATOM     90  F   UNL A   1      44.761  26.793  25.003  1.00  0.00    -0.200 F 
ATOM     91  C   UNL A   1      43.568  24.947  25.867  1.00  0.00     0.200 A 
ATOM     92  F   UNL A   1      42.353  23.134  26.770  1.00  0.00    -0.200 F 
ATOM     93  F   UNL A   1      44.035  24.166  24.886  1.00  0.00    -0.200 F 
ENDBRANCH  59  83
BRANCH  71  94
ATOM     94  C   UNL A   1      44.742  27.441  34.518  1.00  0.00     0.064 A 
ATOM     95  C   UNL A   1      44.677  26.186  35.141  1.00  0.00     0.173 A 
ATOM     96  C   UNL A   1      45.951  28.148  34.575  1.00  0.00     0.173 A 
ATOM     97  F   UNL A   1      43.536  25.482  35.123  1.00  0.00    -0.203 F 
ATOM     98  C   UNL A   1      45.783  25.661  35.801  1.00  0.00     0.198 A 
ATOM     99  C   UNL A   1      47.061  27.610  35.220  1.00  0.00     0.198 A 
ATOM    100  F   UNL A   1      46.061  29.349  33.988  1.00  0.00    -0.203 F 
ATOM    101  F   UNL A   1      45.695  24.471  36.410  1.00  0.00    -0.200 F 
ATOM    102  C   UNL A   1      46.976  26.369  35.833  1.00  0.00     0.200 A 
ATOM    103  F   UNL A   1      48.216  28.290  35.241  1.00  0.00    -0.200 F 
ATOM    104  F   UNL A   1      48.044  25.855  36.458  1.00  0.00    -0.200 F 
ENDBRANCH  71  94
ENDBRANCH  45  46
ENDBRANCH  37  40
ENDBRANCH  35  36
ENDBRANCH  34  35
ENDBRANCH  33  34
ENDBRANCH  32  33
ENDBRANCH   3  32
TORSDOF 17
ENDMDL
MODEL 2
REMARK VINA RESULT:     -13.0      2.807      8.093
REMARK SMILES C=C(C)COc1cc2oc(=O)c(CC(=O)N3CCC[C@H](C(=O)NCCCCNC(=O)c4ccc(-c5c6nc(c(-c7c(F)c(F)c(F)c(F)c7F)c7ccc([nH]7)c(-c7c(F)c(F)c(F)c(F)c7F)c7nc(c(-c8c(F)c(F)c(F)c(F)c8F)c8ccc5[nH]8)C=C7)C=C6)cc4)C3)c(C)c2cc1Cl
REMARK SMILES IDX 21 1 22 2 23 3 20 5 16 6 17 7 94 8 18 9 19 10 14 11 15 12
REMARK SMILES IDX 13 13 12 14 6 15 7 16 99 17 8 18 98 19 100 20 9 21 97 22
REMARK SMILES IDX 10 23 95 24 11 25 96 26 5 27 4 28 2 29 1 30 3 31 24 32 25 33
REMARK SMILES IDX 26 34 27 35 28 36 29 37 30 39 31 40 32 41 93 42 33 43 92 44
REMARK SMILES IDX 34 45 35 46 36 47 86 48 37 49 91 50 85 51 87 52 38 53 90 54
REMARK SMILES IDX 84 55 83 56 39 58 71 59 51 60 70 61 52 62 55 63 69 64 88 65
REMARK SMILES IDX 53 66 54 67 68 69 89 70 56 71 40 72 41 73 49 74 42 75 43 76
REMARK SMILES IDX 47 77 50 78 44 79 45 80 48 81 46 82 72 83 73 84 81 85 74 86
REMARK SMILES IDX 75 87 79 88 82 89 76 90 77 91 80 92 78 93 57 94 58 95 66 96
REMARK SMILES IDX 59 97 60 98 64 99 67 100 61 101 62 102 65 103 63 104
REMARK H PARENT 23 4 28 38 87 57 55 68
REMARK Flexibility Score: inf
ROOT
ATOM      1  C   UNL A   1      33.951  29.461  27.312  1.00  0.00     0.224 C 
ATOM      2  O   UNL A   1      34.560  28.554  26.730  1.00  0.00    -0.275 OA
ATOM      3  N   UNL A   1      34.710  30.307  28.052  1.00  0.00    -0.356 N 
ATOM      4  H   UNL A   1      35.641  30.012  28.176  1.00  0.00     0.163 HD
ENDROOT
BRANCH   1   5
ATOM      5  C   UNL A   1      32.429  29.572  27.134  1.00  0.00     0.098 C 
ATOM      6  N   UNL A   1      31.382  27.498  26.195  1.00  0.00    -0.342 N 
ATOM      7  C   UNL A   1      30.716  28.260  25.137  1.00  0.00     0.119 C 
ATOM      8  C   UNL A   1      31.678  28.265  27.397  1.00  0.00     0.133 C 
ATOM      9  C   UNL A   1      31.467  29.524  24.736  1.00  0.00     0.022 C 
ATOM     10  C   UNL A   1      31.944  30.361  25.919  1.00  0.00     0.017 C 
BRANCH   6  11
ATOM     11  C   UNL A   1      31.718  26.173  25.949  1.00  0.00     0.227 C 
ATOM     12  O   UNL A   1      31.661  25.346  26.869  1.00  0.00    -0.275 OA
BRANCH  11  13
ATOM     13  C   UNL A   1      32.306  25.694  24.606  1.00  0.00     0.143 C 
BRANCH  13  14
ATOM     14  C   UNL A   1      32.735  24.265  24.423  1.00  0.00     0.051 A 
ATOM     15  C   UNL A   1      34.457  19.518  24.589  1.00  0.00     0.142 A 
ATOM     16  C   UNL A   1      33.230  20.103  24.287  1.00  0.00     0.096 A 
ATOM     17  C   UNL A   1      35.579  20.327  24.787  1.00  0.00     0.083 A 
ATOM     18  C   UNL A   1      33.126  21.494  24.282  1.00  0.00     0.142 A 
ATOM     19  C   UNL A   1      35.445  21.721  24.806  1.00  0.00     0.036 A 
ATOM     20  Cl  UNL A   1      37.155  19.663  25.013  1.00  0.00    -0.080 Cl
ATOM     21  O   UNL A   1      31.872  22.019  23.945  1.00  0.00    -0.422 OA
ATOM     22  C   UNL A   1      34.201  22.328  24.584  1.00  0.00     0.023 A 
ATOM     23  C   UNL A   1      31.650  23.383  23.900  1.00  0.00     0.340 A 
ATOM     24  C   UNL A   1      33.964  23.779  24.711  1.00  0.00    -0.029 A 
ATOM     25  O   UNL A   1      30.573  23.831  23.525  1.00  0.00    -0.246 OA
ATOM     26  C   UNL A   1      35.088  24.616  25.268  1.00  0.00     0.046 C 
BRANCH  15  27
ATOM     27  O   UNL A   1      34.549  18.152  24.615  1.00  0.00    -0.488 OA
BRANCH  27  28
ATOM     28  C   UNL A   1      33.304  17.543  25.003  1.00  0.00     0.260 C 
BRANCH  28  29
ATOM     29  C   UNL A   1      33.513  16.083  25.328  1.00  0.00    -0.043 C 
ATOM     30  C   UNL A   1      32.481  15.259  25.574  1.00  0.00     0.011 C 
ATOM     31  C   UNL A   1      34.934  15.594  25.334  1.00  0.00     0.042 C 
ENDBRANCH  28  29
ENDBRANCH  27  28
ENDBRANCH  15  27
ENDBRANCH  13  14
ENDBRANCH  11  13
ENDBRANCH   6  11
ENDBRANCH   1   5
BRANCH   3  32
ATOM     32  C   UNL A   1      34.396  31.564  28.692  1.00  0.00     0.116 C 
BRANCH  32  33
ATOM     33  C   UNL A   1      34.237  32.723  27.713  1.00  0.00     0.023 C 
BRANCH  33  34
ATOM     34  C   UNL A   1      33.428  33.904  28.241  1.00  0.00     0.023 C 
BRANCH  34  35
ATOM     35  C   UNL A   1      33.882  34.461  29.587  1.00  0.00     0.116 C 
BRANCH  35  36
ATOM     36  N   UNL A   1      32.911  35.306  30.273  1.00  0.00    -0.352 N 
ATOM     37  C   UNL A   1      32.842  35.576  31.627  1.00  0.00     0.251 C 
ATOM     38  H   UNL A   1      32.227  35.732  29.707  1.00  0.00     0.163 HD
ATOM     39  O   UNL A   1      31.935  36.246  32.101  1.00  0.00    -0.269 OA
BRANCH  37  40
ATOM     40  C   UNL A   1      33.868  34.977  32.509  1.00  0.00     0.039 A 
ATOM     41  C   UNL A   1      35.088  35.627  32.689  1.00  0.00     0.014 A 
ATOM     42  C   UNL A   1      33.658  33.699  33.032  1.00  0.00     0.014 A 
ATOM     43  C   UNL A   1      36.168  34.910  33.184  1.00  0.00     0.010 A 
ATOM     44  C   UNL A   1      34.726  33.014  33.620  1.00  0.00     0.010 A 
ATOM     45  C   UNL A   1      36.009  33.584  33.626  1.00  0.00    -0.014 A 
BRANCH  45  46
ATOM     46  C   UNL A   1      37.218  32.812  34.017  1.00  0.00     0.031 A 
ATOM     47  C   UNL A   1      37.870  31.857  33.050  1.00  0.00     0.074 A 
ATOM     48  C   UNL A   1      37.801  33.063  35.206  1.00  0.00     0.049 A 
ATOM     49  N   UNL A   1      38.983  31.176  33.186  1.00  0.00    -0.248 NA
ATOM     50  C   UNL A   1      37.192  31.633  31.763  1.00  0.00     0.031 C 
ATOM     51  C   UNL A   1      37.276  33.978  36.219  1.00  0.00     0.029 A 
ATOM     52  N   UNL A   1      38.984  32.618  35.738  1.00  0.00    -0.354 N 
ATOM     53  C   UNL A   1      39.120  30.429  32.023  1.00  0.00     0.074 A 
ATOM     54  C   UNL A   1      37.970  30.720  31.196  1.00  0.00     0.031 C 
ATOM     55  C   UNL A   1      38.172  34.097  37.208  1.00  0.00     0.029 A 
ATOM     56  C   UNL A   1      39.305  33.218  36.931  1.00  0.00     0.049 A 
ATOM     57  H   UNL A   1      39.548  31.935  35.308  1.00  0.00     0.167 HD
ATOM     58  C   UNL A   1      40.122  29.589  31.669  1.00  0.00     0.037 A 
ATOM     59  C   UNL A   1      40.392  33.083  37.713  1.00  0.00     0.037 A 
ATOM     60  C   UNL A   1      41.291  29.332  32.470  1.00  0.00     0.049 A 
ATOM     61  C   UNL A   1      41.477  32.129  37.309  1.00  0.00     0.074 A 
ATOM     62  C   UNL A   1      42.372  28.520  32.179  1.00  0.00     0.029 A 
ATOM     63  N   UNL A   1      41.533  29.892  33.713  1.00  0.00    -0.354 N 
ATOM     64  N   UNL A   1      41.586  31.424  36.210  1.00  0.00    -0.248 NA
ATOM     65  C   UNL A   1      42.578  31.935  38.263  1.00  0.00     0.031 C 
ATOM     66  C   UNL A   1      43.256  28.562  33.262  1.00  0.00     0.029 A 
ATOM     67  C   UNL A   1      42.739  29.426  34.212  1.00  0.00     0.049 A 
ATOM     68  H   UNL A   1      40.938  30.527  34.175  1.00  0.00     0.167 HD
ATOM     69  C   UNL A   1      42.761  30.697  36.340  1.00  0.00     0.074 A 
ATOM     70  C   UNL A   1      43.345  31.069  37.613  1.00  0.00     0.031 C 
ATOM     71  C   UNL A   1      43.300  29.796  35.486  1.00  0.00     0.037 A 
BRANCH  58  72
ATOM     72  C   UNL A   1      40.006  28.872  30.356  1.00  0.00     0.064 A 
ATOM     73  C   UNL A   1      40.506  29.428  29.171  1.00  0.00     0.173 A 
ATOM     74  C   UNL A   1      39.452  27.584  30.298  1.00  0.00     0.173 A 
ATOM     75  F   UNL A   1      41.034  30.662  29.173  1.00  0.00    -0.203 F 
ATOM     76  C   UNL A   1      40.445  28.725  27.970  1.00  0.00     0.198 A 
ATOM     77  C   UNL A   1      39.412  26.876  29.100  1.00  0.00     0.198 A 
ATOM     78  F   UNL A   1      38.968  27.007  31.406  1.00  0.00    -0.203 F 
ATOM     79  F   UNL A   1      40.904  29.287  26.843  1.00  0.00    -0.200 F 
ATOM     80  C   UNL A   1      39.907  27.448  27.937  1.00  0.00     0.200 A 
ATOM     81  F   UNL A   1      38.902  25.637  29.072  1.00  0.00    -0.200 F 
ATOM     82  F   UNL A   1      39.861  26.768  26.783  1.00  0.00    -0.200 F 
ENDBRANCH  58  72
BRANCH  59  83
ATOM     83  C   UNL A   1      40.503  33.893  38.952  1.00  0.00     0.064 A 
ATOM     84  C   UNL A   1      41.149  35.136  38.939  1.00  0.00     0.173 A 
ATOM     85  C   UNL A   1      39.928  33.463  40.157  1.00  0.00     0.173 A 
ATOM     86  F   UNL A   1      41.729  35.578  37.814  1.00  0.00    -0.203 F 
ATOM     87  C   UNL A   1      41.210  35.923  40.087  1.00  0.00     0.198 A 
ATOM     88  C   UNL A   1      39.970  34.262  41.297  1.00  0.00     0.198 A 
ATOM     89  F   UNL A   1      39.298  32.281  40.215  1.00  0.00    -0.203 F 
ATOM     90  F   UNL A   1      41.848  37.101  40.055  1.00  0.00    -0.200 F 
ATOM     91  C   UNL A   1      40.612  35.490  41.262  1.00  0.00     0.200 A 
ATOM     92  F   UNL A   1      39.377  33.847  42.424  1.00  0.00    -0.200 F 
ATOM     93  F   UNL A   1      40.656  36.256  42.359  1.00  0.00    -0.200 F 
ENDBRANCH  59  83
BRANCH  71  94
ATOM     94  C   UNL A   1      44.577  29.132  35.899  1.00  0.00     0.064 A 
ATOM     95  C   UNL A   1      44.565  27.914  36.595  1.00  0.00     0.173 A 
ATOM     96  C   UNL A   1      45.817  29.676  35.538  1.00  0.00     0.173 A 
ATOM     97  F   UNL A   1      43.402  27.365  36.973  1.00  0.00    -0.203 F 
ATOM     98  C   UNL A   1      45.753  27.268  36.920  1.00  0.00     0.198 A 
ATOM     99  C   UNL A   1      47.003  29.016  35.847  1.00  0.00     0.198 A 
ATOM    100  F   UNL A   1      45.877  30.836  34.866  1.00  0.00    -0.203 F 
ATOM    101  F   UNL A   1      45.722  26.117  37.605  1.00  0.00    -0.200 F 
ATOM    102  C   UNL A   1      46.970  27.815  36.539  1.00  0.00     0.200 A 
ATOM    103  F   UNL A   1      48.178  29.540  35.470  1.00  0.00    -0.200 F 
ATOM    104  F   UNL A   1      48.113  27.184  36.841  1.00  0.00    -0.200 F 
ENDBRANCH  71  94
ENDBRANCH  45  46
ENDBRANCH  37  40
ENDBRANCH  35  36
ENDBRANCH  34  35
ENDBRANCH  33  34
ENDBRANCH  32  33
ENDBRANCH   3  32
TORSDOF 17
ENDMDL
MODEL 3
REMARK VINA RESULT:     -13.0      3.194      9.086
REMARK SMILES C=C(C)COc1cc2oc(=O)c(CC(=O)N3CCC[C@H](C(=O)NCCCCNC(=O)c4ccc(-c5c6nc(c(-c7c(F)c(F)c(F)c(F)c7F)c7ccc([nH]7)c(-c7c(F)c(F)c(F)c(F)c7F)c7nc(c(-c8c(F)c(F)c(F)c(F)c8F)c8ccc5[nH]8)C=C7)C=C6)cc4)C3)c(C)c2cc1Cl
REMARK SMILES IDX 21 1 22 2 23 3 20 5 16 6 17 7 94 8 18 9 19 10 14 11 15 12
REMARK SMILES IDX 13 13 12 14 6 15 7 16 99 17 8 18 98 19 100 20 9 21 97 22
REMARK SMILES IDX 10 23 95 24 11 25 96 26 5 27 4 28 2 29 1 30 3 31 24 32 25 33
REMARK SMILES IDX 26 34 27 35 28 36 29 37 30 39 31 40 32 41 93 42 33 43 92 44
REMARK SMILES IDX 34 45 35 46 36 47 86 48 37 49 91 50 85 51 87 52 38 53 90 54
REMARK SMILES IDX 84 55 83 56 39 58 71 59 51 60 70 61 52 62 55 63 69 64 88 65
REMARK SMILES IDX 53 66 54 67 68 69 89 70 56 71 40 72 41 73 49 74 42 75 43 76
REMARK SMILES IDX 47 77 50 78 44 79 45 80 48 81 46 82 72 83 73 84 81 85 74 86
REMARK SMILES IDX 75 87 79 88 82 89 76 90 77 91 80 92 78 93 57 94 58 95 66 96
REMARK SMILES IDX 59 97 60 98 64 99 67 100 61 101 62 102 65 103 63 104
REMARK H PARENT 23 4 28 38 87 57 55 68
REMARK Flexibility Score: inf
ROOT
ATOM      1  C   UNL A   1      37.161  22.918  25.717  1.00  0.00     0.224 C 
ATOM      2  O   UNL A   1      36.786  24.092  25.822  1.00  0.00    -0.275 OA
ATOM      3  N   UNL A   1      38.479  22.692  25.944  1.00  0.00    -0.356 N 
ATOM      4  H   UNL A   1      39.024  23.509  26.010  1.00  0.00     0.163 HD
ENDROOT
BRANCH   1   5
ATOM      5  C   UNL A   1      36.129  21.833  25.374  1.00  0.00     0.098 C 
ATOM      6  N   UNL A   1      34.226  22.673  23.978  1.00  0.00    -0.342 N 
ATOM      7  C   UNL A   1      33.240  22.128  24.915  1.00  0.00     0.119 C 
ATOM      8  C   UNL A   1      35.509  21.984  23.983  1.00  0.00     0.133 C 
ATOM      9  C   UNL A   1      33.747  22.052  26.351  1.00  0.00     0.022 C 
ATOM     10  C   UNL A   1      35.146  21.458  26.482  1.00  0.00     0.017 C 
BRANCH   6  11
ATOM     11  C   UNL A   1      33.886  23.796  23.236  1.00  0.00     0.227 C 
ATOM     12  O   UNL A   1      33.869  23.730  21.999  1.00  0.00    -0.275 OA
BRANCH  11  13
ATOM     13  C   UNL A   1      33.666  25.184  23.870  1.00  0.00     0.143 C 
BRANCH  13  14
ATOM     14  C   UNL A   1      32.516  26.051  23.438  1.00  0.00     0.051 A 
ATOM     15  C   UNL A   1      28.498  29.046  22.804  1.00  0.00     0.142 A 
ATOM     16  C   UNL A   1      29.823  29.084  22.377  1.00  0.00     0.096 A 
ATOM     17  C   UNL A   1      28.014  27.912  23.459  1.00  0.00     0.083 A 
ATOM     18  C   UNL A   1      30.668  28.023  22.699  1.00  0.00     0.142 A 
ATOM     19  C   UNL A   1      28.888  26.871  23.798  1.00  0.00     0.036 A 
ATOM     20  Cl  UNL A   1      26.350  27.737  23.877  1.00  0.00    -0.080 Cl
ATOM     21  O   UNL A   1      31.981  28.111  22.218  1.00  0.00    -0.422 OA
ATOM     22  C   UNL A   1      30.244  26.926  23.448  1.00  0.00     0.023 A 
ATOM     23  C   UNL A   1      32.908  27.115  22.468  1.00  0.00     0.340 A 
ATOM     24  C   UNL A   1      31.243  25.928  23.877  1.00  0.00    -0.029 A 
ATOM     25  O   UNL A   1      34.028  27.164  21.974  1.00  0.00    -0.246 OA
ATOM     26  C   UNL A   1      30.796  24.891  24.877  1.00  0.00     0.046 C 
BRANCH  15  27
ATOM     27  O   UNL A   1      27.677  30.101  22.505  1.00  0.00    -0.488 OA
BRANCH  27  28
ATOM     28  C   UNL A   1      27.919  31.225  23.371  1.00  0.00     0.260 C 
BRANCH  28  29
ATOM     29  C   UNL A   1      28.378  32.418  22.567  1.00  0.00    -0.043 C 
ATOM     30  C   UNL A   1      29.082  33.418  23.124  1.00  0.00     0.011 C 
ATOM     31  C   UNL A   1      28.030  32.415  21.105  1.00  0.00     0.042 C 
ENDBRANCH  28  29
ENDBRANCH  27  28
ENDBRANCH  15  27
ENDBRANCH  13  14
ENDBRANCH  11  13
ENDBRANCH   6  11
ENDBRANCH   1   5
BRANCH   3  32
ATOM     32  C   UNL A   1      39.227  21.466  26.106  1.00  0.00     0.116 C 
BRANCH  32  33
ATOM     33  C   UNL A   1      40.723  21.627  25.855  1.00  0.00     0.023 C 
BRANCH  33  34
ATOM     34  C   UNL A   1      41.605  21.440  27.086  1.00  0.00     0.023 C 
BRANCH  34  35
ATOM     35  C   UNL A   1      42.672  22.509  27.298  1.00  0.00     0.116 C 
BRANCH  35  36
ATOM     36  N   UNL A   1      43.312  23.003  26.084  1.00  0.00    -0.352 N 
ATOM     37  C   UNL A   1      43.290  24.293  25.588  1.00  0.00     0.251 C 
ATOM     38  H   UNL A   1      43.817  22.341  25.557  1.00  0.00     0.163 HD
ATOM     39  O   UNL A   1      43.806  24.577  24.516  1.00  0.00    -0.269 OA
BRANCH  37  40
ATOM     40  C   UNL A   1      42.565  25.323  26.363  1.00  0.00     0.039 A 
ATOM     41  C   UNL A   1      43.046  26.631  26.392  1.00  0.00     0.014 A 
ATOM     42  C   UNL A   1      41.494  24.942  27.174  1.00  0.00     0.014 A 
ATOM     43  C   UNL A   1      42.613  27.488  27.394  1.00  0.00     0.010 A 
ATOM     44  C   UNL A   1      40.992  25.842  28.119  1.00  0.00     0.010 A 
ATOM     45  C   UNL A   1      41.603  27.094  28.291  1.00  0.00    -0.014 A 
BRANCH  45  46
ATOM     46  C   UNL A   1      41.271  27.989  29.431  1.00  0.00     0.031 A 
ATOM     47  C   UNL A   1      40.067  28.895  29.376  1.00  0.00     0.074 A 
ATOM     48  C   UNL A   1      41.988  27.897  30.568  1.00  0.00     0.049 A 
ATOM     49  N   UNL A   1      39.572  29.667  30.313  1.00  0.00    -0.248 NA
ATOM     50  C   UNL A   1      39.317  28.943  28.110  1.00  0.00     0.031 C 
ATOM     51  C   UNL A   1      43.163  27.045  30.750  1.00  0.00     0.029 A 
ATOM     52  N   UNL A   1      41.802  28.479  31.796  1.00  0.00    -0.354 N 
ATOM     53  C   UNL A   1      38.479  30.308  29.743  1.00  0.00     0.074 A 
ATOM     54  C   UNL A   1      38.389  29.854  28.373  1.00  0.00     0.031 C 
ATOM     55  C   UNL A   1      43.540  27.089  32.035  1.00  0.00     0.029 A 
ATOM     56  C   UNL A   1      42.674  28.021  32.753  1.00  0.00     0.049 A 
ATOM     57  H   UNL A   1      41.114  29.159  31.974  1.00  0.00     0.167 HD
ATOM     58  C   UNL A   1      37.619  31.185  30.314  1.00  0.00     0.037 A 
ATOM     59  C   UNL A   1      42.765  28.311  34.064  1.00  0.00     0.037 A 
ATOM     60  C   UNL A   1      37.677  31.605  31.690  1.00  0.00     0.049 A 
ATOM     61  C   UNL A   1      41.814  29.302  34.667  1.00  0.00     0.074 A 
ATOM     62  C   UNL A   1      36.830  32.465  32.365  1.00  0.00     0.029 A 
ATOM     63  N   UNL A   1      38.632  31.185  32.602  1.00  0.00    -0.354 N 
ATOM     64  N   UNL A   1      40.793  29.906  34.112  1.00  0.00    -0.248 NA
ATOM     65  C   UNL A   1      42.042  29.669  36.071  1.00  0.00     0.031 C 
ATOM     66  C   UNL A   1      37.291  32.593  33.679  1.00  0.00     0.029 A 
ATOM     67  C   UNL A   1      38.406  31.786  33.830  1.00  0.00     0.049 A 
ATOM     68  H   UNL A   1      39.363  30.554  32.408  1.00  0.00     0.167 HD
ATOM     69  C   UNL A   1      40.258  30.728  35.093  1.00  0.00     0.074 A 
ATOM     70  C   UNL A   1      41.052  30.525  36.288  1.00  0.00     0.031 C 
ATOM     71  C   UNL A   1      39.212  31.583  35.006  1.00  0.00     0.037 A 
BRANCH  58  72
ATOM     72  C   UNL A   1      36.532  31.763  29.456  1.00  0.00     0.064 A 
ATOM     73  C   UNL A   1      35.458  30.981  29.008  1.00  0.00     0.173 A 
ATOM     74  C   UNL A   1      36.530  33.130  29.139  1.00  0.00     0.173 A 
ATOM     75  F   UNL A   1      35.421  29.667  29.275  1.00  0.00    -0.203 F 
ATOM     76  C   UNL A   1      34.426  31.546  28.262  1.00  0.00     0.198 A 
ATOM     77  C   UNL A   1      35.486  33.695  28.412  1.00  0.00     0.198 A 
ATOM     78  F   UNL A   1      37.532  33.920  29.552  1.00  0.00    -0.203 F 
ATOM     79  F   UNL A   1      33.423  30.775  27.820  1.00  0.00    -0.200 F 
ATOM     80  C   UNL A   1      34.436  32.902  27.972  1.00  0.00     0.200 A 
ATOM     81  F   UNL A   1      35.492  35.008  28.143  1.00  0.00    -0.200 F 
ATOM     82  F   UNL A   1      33.435  33.446  27.266  1.00  0.00    -0.200 F 
ENDBRANCH  58  72
BRANCH  59  83
ATOM     83  C   UNL A   1      43.795  27.634  34.891  1.00  0.00     0.064 A 
ATOM     84  C   UNL A   1      45.052  28.218  35.090  1.00  0.00     0.173 A 
ATOM     85  C   UNL A   1      43.527  26.416  35.534  1.00  0.00     0.173 A 
ATOM     86  F   UNL A   1      45.357  29.373  34.480  1.00  0.00    -0.203 F 
ATOM     87  C   UNL A   1      46.003  27.612  35.908  1.00  0.00     0.198 A 
ATOM     88  C   UNL A   1      44.471  25.824  36.370  1.00  0.00     0.198 A 
ATOM     89  F   UNL A   1      42.337  25.820  35.374  1.00  0.00    -0.203 F 
ATOM     90  F   UNL A   1      47.205  28.182  36.070  1.00  0.00    -0.200 F 
ATOM     91  C   UNL A   1      45.708  26.421  36.555  1.00  0.00     0.200 A 
ATOM     92  F   UNL A   1      44.176  24.682  37.005  1.00  0.00    -0.200 F 
ATOM     93  F   UNL A   1      46.617  25.849  37.355  1.00  0.00    -0.200 F 
ENDBRANCH  59  83
BRANCH  71  94
ATOM     94  C   UNL A   1      38.867  32.378  36.228  1.00  0.00     0.064 A 
ATOM     95  C   UNL A   1      38.129  31.810  37.275  1.00  0.00     0.173 A 
ATOM     96  C   UNL A   1      39.336  33.690  36.384  1.00  0.00     0.173 A 
ATOM     97  F   UNL A   1      37.649  30.562  37.162  1.00  0.00    -0.203 F 
ATOM     98  C   UNL A   1      37.867  32.530  38.435  1.00  0.00     0.198 A 
ATOM     99  C   UNL A   1      39.089  34.401  37.554  1.00  0.00     0.198 A 
ATOM    100  F   UNL A   1      40.052  34.273  35.410  1.00  0.00    -0.203 F 
ATOM    101  F   UNL A   1      37.140  31.978  39.416  1.00  0.00    -0.200 F 
ATOM    102  C   UNL A   1      38.354  33.822  38.578  1.00  0.00     0.200 A 
ATOM    103  F   UNL A   1      39.568  35.645  37.695  1.00  0.00    -0.200 F 
ATOM    104  F   UNL A   1      38.111  34.510  39.702  1.00  0.00    -0.200 F 
ENDBRANCH  71  94
ENDBRANCH  45  46
ENDBRANCH  37  40
ENDBRANCH  35  36
ENDBRANCH  34  35
ENDBRANCH  33  34
ENDBRANCH  32  33
ENDBRANCH   3  32
TORSDOF 17
ENDMDL
