MODEL 1
REMARK VINA RESULT:     -13.1      0.000      0.000
REMARK SMILES O=C(NCCCCNC(=O)c1[nH]ncc1C[N@H+]1CCC[C@@H](C(=O)c2ccc(Oc3ccccc3)cc2)C1)c1ccc(-c2c3nc(c(-c4c(F)c(F)c(F)c(F)c4F)c4ccc([nH]4)c(-c4c(F)c(F)c(F)c(F)c4F)c4nc(c(-c5c(F)c(F)c(F)c(F)c5F)c5ccc2[nH]5)C=C4)C=C3)cc1
REMARK SMILES IDX 8 1 9 2 10 3 7 5 6 6 5 7 4 8 3 9 1 10 2 11 38 13 39 14
REMARK SMILES IDX 100 15 40 16 99 17 41 18 42 19 43 20 93 21 44 22 98 23 92 24
REMARK SMILES IDX 94 25 45 26 97 27 91 28 90 29 46 31 78 32 58 33 77 34 59 35
REMARK SMILES IDX 62 36 76 37 95 38 60 39 61 40 75 42 96 43 63 44 47 45 48 46
REMARK SMILES IDX 56 47 49 48 50 49 54 50 57 51 51 52 52 53 55 54 53 55 79 56
REMARK SMILES IDX 80 57 88 58 81 59 82 60 86 61 89 62 83 63 84 64 87 65 85 66
REMARK SMILES IDX 64 67 65 68 73 69 66 70 67 71 71 72 74 73 68 74 69 75 72 76
REMARK SMILES IDX 70 77 11 78 12 79 15 80 13 81 14 83 16 84 17 85 18 86 37 87
REMARK SMILES IDX 19 89 21 90 20 91 22 92 23 93 24 94 25 95 36 96 26 97 35 98
REMARK SMILES IDX 27 99 28 100 29 101 30 102 34 103 31 104 33 105 32 106
REMARK H PARENT 8 4 3 12 94 30 62 41 12 82 17 88
REMARK Flexibility Score: inf
ROOT
ATOM      1  N   UNL A   1      32.959  29.773  24.941  1.00  0.00    -0.351 N 
ATOM      2  C   UNL A   1      33.185  28.690  24.129  1.00  0.00     0.269 C 
ATOM      3  O   UNL A   1      34.336  28.301  23.952  1.00  0.00    -0.268 OA
ATOM      4  H   UNL A   1      33.758  30.277  25.217  1.00  0.00     0.163 HD
ENDROOT
BRANCH   1   5
ATOM      5  C   UNL A   1      31.687  30.272  25.446  1.00  0.00     0.116 C 
BRANCH   5   6
ATOM      6  C   UNL A   1      31.790  30.877  26.841  1.00  0.00     0.023 C 
BRANCH   6   7
ATOM      7  C   UNL A   1      31.616  32.389  26.896  1.00  0.00     0.023 C 
BRANCH   7   8
ATOM      8  C   UNL A   1      32.852  33.158  27.337  1.00  0.00     0.116 C 
BRANCH   8   9
ATOM      9  N   UNL A   1      32.548  34.498  27.819  1.00  0.00    -0.352 N 
ATOM     10  O   UNL A   1      32.595  36.240  29.259  1.00  0.00    -0.269 OA
ATOM     11  C   UNL A   1      33.066  35.166  28.904  1.00  0.00     0.251 C 
ATOM     12  H   UNL A   1      31.877  34.995  27.296  1.00  0.00     0.163 HD
BRANCH  11  13
ATOM     13  C   UNL A   1      34.181  34.558  29.657  1.00  0.00     0.039 A 
ATOM     14  C   UNL A   1      35.479  34.603  29.145  1.00  0.00     0.014 A 
ATOM     15  C   UNL A   1      33.921  33.906  30.865  1.00  0.00     0.014 A 
ATOM     16  C   UNL A   1      36.478  33.849  29.743  1.00  0.00     0.010 A 
ATOM     17  C   UNL A   1      34.956  33.237  31.525  1.00  0.00     0.010 A 
ATOM     18  C   UNL A   1      36.235  33.175  30.951  1.00  0.00    -0.014 A 
BRANCH  18  19
ATOM     19  C   UNL A   1      37.363  32.485  31.626  1.00  0.00     0.031 A 
ATOM     20  C   UNL A   1      38.095  31.347  30.972  1.00  0.00     0.074 A 
ATOM     21  C   UNL A   1      37.747  32.932  32.838  1.00  0.00     0.049 A 
ATOM     22  N   UNL A   1      39.114  30.657  31.423  1.00  0.00    -0.248 NA
ATOM     23  C   UNL A   1      37.623  30.920  29.646  1.00  0.00     0.031 C 
ATOM     24  C   UNL A   1      37.099  34.023  33.572  1.00  0.00     0.029 A 
ATOM     25  N   UNL A   1      38.776  32.547  33.655  1.00  0.00    -0.354 N 
ATOM     26  C   UNL A   1      39.393  29.707  30.448  1.00  0.00     0.074 A 
ATOM     27  C   UNL A   1      38.422  29.891  29.391  1.00  0.00     0.031 C 
ATOM     28  C   UNL A   1      37.777  34.254  34.704  1.00  0.00     0.029 A 
ATOM     29  C   UNL A   1      38.858  33.283  34.812  1.00  0.00     0.049 A 
ATOM     30  H   UNL A   1      39.397  31.815  33.436  1.00  0.00     0.167 HD
ATOM     31  C   UNL A   1      40.377  28.775  30.440  1.00  0.00     0.037 A 
ATOM     32  C   UNL A   1      39.695  33.174  35.859  1.00  0.00     0.037 A 
ATOM     33  C   UNL A   1      41.348  28.609  31.494  1.00  0.00     0.049 A 
ATOM     34  C   UNL A   1      40.755  32.113  35.831  1.00  0.00     0.074 A 
ATOM     35  C   UNL A   1      42.404  27.716  31.562  1.00  0.00     0.029 A 
ATOM     36  N   UNL A   1      41.378  29.350  32.666  1.00  0.00    -0.354 N 
ATOM     37  N   UNL A   1      41.030  31.244  34.888  1.00  0.00    -0.248 NA
ATOM     38  C   UNL A   1      41.619  32.014  37.013  1.00  0.00     0.031 C 
ATOM     39  C   UNL A   1      43.040  27.882  32.796  1.00  0.00     0.029 A 
ATOM     40  C   UNL A   1      42.418  28.916  33.476  1.00  0.00     0.049 A 
ATOM     41  H   UNL A   1      40.753  30.076  32.891  1.00  0.00     0.167 HD
ATOM     42  C   UNL A   1      42.105  30.504  35.356  1.00  0.00     0.074 A 
ATOM     43  C   UNL A   1      42.450  31.045  36.655  1.00  0.00     0.031 C 
ATOM     44  C   UNL A   1      42.745  29.465  34.767  1.00  0.00     0.037 A 
BRANCH  31  45
ATOM     45  C   UNL A   1      40.453  27.842  29.264  1.00  0.00     0.064 A 
ATOM     46  C   UNL A   1      39.672  26.679  29.191  1.00  0.00     0.173 A 
ATOM     47  C   UNL A   1      41.270  28.151  28.165  1.00  0.00     0.173 A 
ATOM     48  F   UNL A   1      38.882  26.331  30.217  1.00  0.00    -0.203 F 
ATOM     49  C   UNL A   1      39.721  25.852  28.071  1.00  0.00     0.198 A 
ATOM     50  C   UNL A   1      41.295  27.336  27.035  1.00  0.00     0.198 A 
ATOM     51  F   UNL A   1      42.032  29.256  28.178  1.00  0.00    -0.203 F 
ATOM     52  F   UNL A   1      38.993  24.726  28.039  1.00  0.00    -0.200 F 
ATOM     53  C   UNL A   1      40.525  26.185  26.992  1.00  0.00     0.200 A 
ATOM     54  F   UNL A   1      42.062  27.669  25.987  1.00  0.00    -0.200 F 
ATOM     55  F   UNL A   1      40.560  25.394  25.910  1.00  0.00    -0.200 F 
ENDBRANCH  31  45
BRANCH  32  56
ATOM     56  C   UNL A   1      39.548  34.089  37.020  1.00  0.00     0.064 A 
ATOM     57  C   UNL A   1      38.789  33.724  38.138  1.00  0.00     0.173 A 
ATOM     58  C   UNL A   1      40.172  35.346  37.035  1.00  0.00     0.173 A 
ATOM     59  F   UNL A   1      38.160  32.540  38.162  1.00  0.00    -0.203 F 
ATOM     60  C   UNL A   1      38.644  34.588  39.221  1.00  0.00     0.198 A 
ATOM     61  C   UNL A   1      40.055  36.195  38.133  1.00  0.00     0.198 A 
ATOM     62  F   UNL A   1      40.918  35.741  35.992  1.00  0.00    -0.203 F 
ATOM     63  F   UNL A   1      37.874  34.233  40.259  1.00  0.00    -0.200 F 
ATOM     64  C   UNL A   1      39.282  35.819  39.221  1.00  0.00     0.200 A 
ATOM     65  F   UNL A   1      40.691  37.373  38.137  1.00  0.00    -0.200 F 
ATOM     66  F   UNL A   1      39.148  36.646  40.266  1.00  0.00    -0.200 F 
ENDBRANCH  32  56
BRANCH  44  67
ATOM     67  C   UNL A   1      43.900  28.867  35.516  1.00  0.00     0.064 A 
ATOM     68  C   UNL A   1      43.719  27.813  36.423  1.00  0.00     0.173 A 
ATOM     69  C   UNL A   1      45.202  29.346  35.314  1.00  0.00     0.173 A 
ATOM     70  F   UNL A   1      42.491  27.333  36.667  1.00  0.00    -0.203 F 
ATOM     71  C   UNL A   1      44.798  27.281  37.126  1.00  0.00     0.198 A 
ATOM     72  C   UNL A   1      46.283  28.791  35.993  1.00  0.00     0.198 A 
ATOM     73  F   UNL A   1      45.428  30.350  34.452  1.00  0.00    -0.203 F 
ATOM     74  F   UNL A   1      44.595  26.314  38.030  1.00  0.00    -0.200 F 
ATOM     75  C   UNL A   1      46.079  27.766  36.905  1.00  0.00     0.200 A 
ATOM     76  F   UNL A   1      47.521  29.252  35.770  1.00  0.00    -0.200 F 
ATOM     77  F   UNL A   1      47.116  27.252  37.580  1.00  0.00    -0.200 F 
ENDBRANCH  44  67
ENDBRANCH  18  19
ENDBRANCH  11  13
ENDBRANCH   8   9
ENDBRANCH   7   8
ENDBRANCH   6   7
ENDBRANCH   5   6
ENDBRANCH   1   5
BRANCH   2  78
ATOM     78  C   UNL A   1      32.043  28.020  23.586  1.00  0.00     0.131 A 
ATOM     79  N   UNL A   1      31.544  28.324  22.352  1.00  0.00    -0.272 N 
ATOM     80  C   UNL A   1      31.244  26.997  24.084  1.00  0.00     0.057 A 
ATOM     81  N   UNL A   1      30.665  27.418  21.900  1.00  0.00    -0.183 NA
ATOM     82  H   UNL A   1      31.802  29.126  21.845  1.00  0.00     0.190 HD
ATOM     83  C   UNL A   1      30.498  26.604  22.944  1.00  0.00     0.145 A 
BRANCH  80  84
ATOM     84  C   UNL A   1      31.311  26.387  25.456  1.00  0.00     0.303 C 
BRANCH  84  85
ATOM     85  N   UNL A   1      31.755  24.987  25.514  1.00  0.00    -0.330 N 
ATOM     86  C   UNL A   1      30.767  24.025  25.037  1.00  0.00     0.262 C 
ATOM     87  C   UNL A   1      33.070  24.803  24.916  1.00  0.00     0.274 C 
ATOM     88  H   UNL A   1      31.853  24.776  26.507  1.00  0.00     0.348 HD
ATOM     89  C   UNL A   1      31.277  22.599  25.253  1.00  0.00     0.062 C 
ATOM     90  C   UNL A   1      33.673  23.402  25.008  1.00  0.00     0.116 C 
ATOM     91  C   UNL A   1      32.623  22.371  24.562  1.00  0.00     0.023 C 
BRANCH  90  92
ATOM     92  C   UNL A   1      34.959  23.212  24.168  1.00  0.00     0.171 C 
ATOM     93  O   UNL A   1      35.001  23.560  22.986  1.00  0.00    -0.294 OA
BRANCH  92  94
ATOM     94  C   UNL A   1      36.221  22.677  24.766  1.00  0.00     0.018 A 
ATOM     95  C   UNL A   1      36.547  21.335  24.547  1.00  0.00     0.015 A 
ATOM     96  C   UNL A   1      37.092  23.467  25.518  1.00  0.00     0.015 A 
ATOM     97  C   UNL A   1      37.764  20.820  25.017  1.00  0.00     0.048 A 
ATOM     98  C   UNL A   1      38.340  22.974  25.917  1.00  0.00     0.048 A 
ATOM     99  C   UNL A   1      38.680  21.642  25.684  1.00  0.00     0.127 A 
BRANCH  99 100
ATOM    100  O   UNL A   1      39.854  21.021  26.058  1.00  0.00    -0.457 OA
BRANCH 100 101
ATOM    101  C   UNL A   1      40.894  21.762  26.566  1.00  0.00     0.127 A 
ATOM    102  C   UNL A   1      40.883  22.032  27.936  1.00  0.00     0.047 A 
ATOM    103  C   UNL A   1      41.876  22.333  25.752  1.00  0.00     0.047 A 
ATOM    104  C   UNL A   1      41.894  22.810  28.503  1.00  0.00     0.004 A 
ATOM    105  C   UNL A   1      42.904  23.084  26.325  1.00  0.00     0.004 A 
ATOM    106  C   UNL A   1      42.915  23.320  27.700  1.00  0.00     0.000 A 
ENDBRANCH 100 101
ENDBRANCH  99 100
ENDBRANCH  92  94
ENDBRANCH  90  92
ENDBRANCH  84  85
ENDBRANCH  80  84
ENDBRANCH   2  78
TORSDOF 17
ENDMDL
MODEL 2
REMARK VINA RESULT:     -12.9      0.358      6.993
REMARK SMILES O=C(NCCCCNC(=O)c1[nH]ncc1C[N@H+]1CCC[C@@H](C(=O)c2ccc(Oc3ccccc3)cc2)C1)c1ccc(-c2c3nc(c(-c4c(F)c(F)c(F)c(F)c4F)c4ccc([nH]4)c(-c4c(F)c(F)c(F)c(F)c4F)c4nc(c(-c5c(F)c(F)c(F)c(F)c5F)c5ccc2[nH]5)C=C4)C=C3)cc1
REMARK SMILES IDX 8 1 9 2 10 3 7 5 6 6 5 7 4 8 3 9 1 10 2 11 38 13 39 14
REMARK SMILES IDX 100 15 40 16 99 17 41 18 42 19 43 20 93 21 44 22 98 23 92 24
REMARK SMILES IDX 94 25 45 26 97 27 91 28 90 29 46 31 78 32 58 33 77 34 59 35
REMARK SMILES IDX 62 36 76 37 95 38 60 39 61 40 75 42 96 43 63 44 47 45 48 46
REMARK SMILES IDX 56 47 49 48 50 49 54 50 57 51 51 52 52 53 55 54 53 55 79 56
REMARK SMILES IDX 80 57 88 58 81 59 82 60 86 61 89 62 83 63 84 64 87 65 85 66
REMARK SMILES IDX 64 67 65 68 73 69 66 70 67 71 71 72 74 73 68 74 69 75 72 76
REMARK SMILES IDX 70 77 11 78 12 79 15 80 13 81 14 83 16 84 17 85 18 86 37 87
REMARK SMILES IDX 19 89 21 90 20 91 22 92 23 93 24 94 25 95 36 96 26 97 35 98
REMARK SMILES IDX 27 99 28 100 29 101 30 102 34 103 31 104 33 105 32 106
REMARK H PARENT 8 4 3 12 94 30 62 41 12 82 17 88
REMARK Flexibility Score: inf
ROOT
ATOM      1  N   UNL A   1      32.885  29.865  24.928  1.00  0.00    -0.351 N 
ATOM      2  C   UNL A   1      33.132  28.774  24.132  1.00  0.00     0.269 C 
ATOM      3  O   UNL A   1      34.289  28.389  23.982  1.00  0.00    -0.268 OA
ATOM      4  H   UNL A   1      33.676  30.376  25.213  1.00  0.00     0.163 HD
ENDROOT
BRANCH   1   5
ATOM      5  C   UNL A   1      31.602  30.362  25.403  1.00  0.00     0.116 C 
BRANCH   5   6
ATOM      6  C   UNL A   1      31.683  31.021  26.775  1.00  0.00     0.023 C 
BRANCH   6   7
ATOM      7  C   UNL A   1      31.624  32.543  26.758  1.00  0.00     0.023 C 
BRANCH   7   8
ATOM      8  C   UNL A   1      32.810  33.234  27.414  1.00  0.00     0.116 C 
BRANCH   8   9
ATOM      9  N   UNL A   1      32.491  34.567  27.906  1.00  0.00    -0.352 N 
ATOM     10  O   UNL A   1      32.549  36.312  29.342  1.00  0.00    -0.269 OA
ATOM     11  C   UNL A   1      33.033  35.249  28.971  1.00  0.00     0.251 C 
ATOM     12  H   UNL A   1      31.790  35.047  27.408  1.00  0.00     0.163 HD
BRANCH  11  13
ATOM     13  C   UNL A   1      34.188  34.669  29.684  1.00  0.00     0.039 A 
ATOM     14  C   UNL A   1      35.442  34.635  29.073  1.00  0.00     0.014 A 
ATOM     15  C   UNL A   1      34.008  34.122  30.957  1.00  0.00     0.014 A 
ATOM     16  C   UNL A   1      36.467  33.900  29.652  1.00  0.00     0.010 A 
ATOM     17  C   UNL A   1      35.075  33.476  31.588  1.00  0.00     0.010 A 
ATOM     18  C   UNL A   1      36.303  33.331  30.926  1.00  0.00    -0.014 A 
BRANCH  18  19
ATOM     19  C   UNL A   1      37.464  32.662  31.566  1.00  0.00     0.031 A 
ATOM     20  C   UNL A   1      37.962  33.075  32.922  1.00  0.00     0.074 A 
ATOM     21  C   UNL A   1      38.044  31.636  30.912  1.00  0.00     0.049 A 
ATOM     22  N   UNL A   1      38.950  32.574  33.622  1.00  0.00    -0.248 NA
ATOM     23  C   UNL A   1      37.274  34.198  33.576  1.00  0.00     0.031 C 
ATOM     24  C   UNL A   1      37.648  31.158  29.584  1.00  0.00     0.029 A 
ATOM     25  N   UNL A   1      39.066  30.800  31.275  1.00  0.00    -0.354 N 
ATOM     26  C   UNL A   1      39.013  33.327  34.788  1.00  0.00     0.074 A 
ATOM     27  C   UNL A   1      37.980  34.337  34.691  1.00  0.00     0.031 C 
ATOM     28  C   UNL A   1      38.382  30.083  29.268  1.00  0.00     0.029 A 
ATOM     29  C   UNL A   1      39.347  29.842  30.332  1.00  0.00     0.049 A 
ATOM     30  H   UNL A   1      39.553  30.878  32.127  1.00  0.00     0.167 HD
ATOM     31  C   UNL A   1      39.853  33.180  35.841  1.00  0.00     0.037 A 
ATOM     32  C   UNL A   1      40.294  28.886  30.313  1.00  0.00     0.037 A 
ATOM     33  C   UNL A   1      40.870  32.161  35.932  1.00  0.00     0.049 A 
ATOM     34  C   UNL A   1      41.226  28.769  31.482  1.00  0.00     0.074 A 
ATOM     35  C   UNL A   1      41.748  31.909  36.973  1.00  0.00     0.029 A 
ATOM     36  N   UNL A   1      41.148  31.229  34.942  1.00  0.00    -0.354 N 
ATOM     37  N   UNL A   1      41.253  29.465  32.592  1.00  0.00    -0.248 NA
ATOM     38  C   UNL A   1      42.264  27.734  31.395  1.00  0.00     0.031 C 
ATOM     39  C   UNL A   1      42.590  30.859  36.591  1.00  0.00     0.029 A 
ATOM     40  C   UNL A   1      42.202  30.418  35.336  1.00  0.00     0.049 A 
ATOM     41  H   UNL A   1      40.669  31.156  34.086  1.00  0.00     0.167 HD
ATOM     42  C   UNL A   1      42.298  28.946  33.341  1.00  0.00     0.074 A 
ATOM     43  C   UNL A   1      42.863  27.858  32.570  1.00  0.00     0.031 C 
ATOM     44  C   UNL A   1      42.753  29.340  34.555  1.00  0.00     0.037 A 
BRANCH  31  45
ATOM     45  C   UNL A   1      39.728  34.149  36.982  1.00  0.00     0.064 A 
ATOM     46  C   UNL A   1      38.913  33.882  38.093  1.00  0.00     0.173 A 
ATOM     47  C   UNL A   1      40.484  35.332  36.995  1.00  0.00     0.173 A 
ATOM     48  F   UNL A   1      38.162  32.771  38.128  1.00  0.00    -0.203 F 
ATOM     49  C   UNL A   1      38.847  34.771  39.164  1.00  0.00     0.198 A 
ATOM     50  C   UNL A   1      40.436  36.205  38.080  1.00  0.00     0.198 A 
ATOM     51  F   UNL A   1      41.285  35.634  35.963  1.00  0.00    -0.203 F 
ATOM     52  F   UNL A   1      38.034  34.512  40.198  1.00  0.00    -0.200 F 
ATOM     53  C   UNL A   1      39.613  35.927  39.160  1.00  0.00     0.200 A 
ATOM     54  F   UNL A   1      41.189  37.314  38.081  1.00  0.00    -0.200 F 
ATOM     55  F   UNL A   1      39.558  36.773  40.198  1.00  0.00    -0.200 F 
ENDBRANCH  31  45
BRANCH  32  56
ATOM     56  C   UNL A   1      40.408  27.983  29.139  1.00  0.00     0.064 A 
ATOM     57  C   UNL A   1      41.212  28.319  28.043  1.00  0.00     0.173 A 
ATOM     58  C   UNL A   1      39.718  26.762  29.095  1.00  0.00     0.173 A 
ATOM     59  F   UNL A   1      41.877  29.484  28.032  1.00  0.00    -0.203 F 
ATOM     60  C   UNL A   1      41.309  27.475  26.939  1.00  0.00     0.198 A 
ATOM     61  C   UNL A   1      39.844  25.904  28.006  1.00  0.00     0.198 A 
ATOM     62  F   UNL A   1      38.942  26.390  30.123  1.00  0.00    -0.203 F 
ATOM     63  F   UNL A   1      42.049  27.841  25.883  1.00  0.00    -0.200 F 
ATOM     64  C   UNL A   1      40.630  26.266  26.924  1.00  0.00     0.200 A 
ATOM     65  F   UNL A   1      39.203  24.727  28.006  1.00  0.00    -0.200 F 
ATOM     66  F   UNL A   1      40.731  25.452  25.864  1.00  0.00    -0.200 F 
ENDBRANCH  32  56
BRANCH  44  67
ATOM     67  C   UNL A   1      43.904  28.568  35.131  1.00  0.00     0.064 A 
ATOM     68  C   UNL A   1      45.234  28.951  34.902  1.00  0.00     0.173 A 
ATOM     69  C   UNL A   1      43.673  27.440  35.931  1.00  0.00     0.173 A 
ATOM     70  F   UNL A   1      45.508  30.011  34.127  1.00  0.00    -0.203 F 
ATOM     71  C   UNL A   1      46.292  28.213  35.426  1.00  0.00     0.198 A 
ATOM     72  C   UNL A   1      44.732  26.723  36.482  1.00  0.00     0.198 A 
ATOM     73  F   UNL A   1      42.419  27.035  36.185  1.00  0.00    -0.203 F 
ATOM     74  F   UNL A   1      47.554  28.564  35.147  1.00  0.00    -0.200 F 
ATOM     75  C   UNL A   1      46.039  27.105  36.221  1.00  0.00     0.200 A 
ATOM     76  F   UNL A   1      44.487  25.660  37.258  1.00  0.00    -0.200 F 
ATOM     77  F   UNL A   1      47.058  26.396  36.727  1.00  0.00    -0.200 F 
ENDBRANCH  44  67
ENDBRANCH  18  19
ENDBRANCH  11  13
ENDBRANCH   8   9
ENDBRANCH   7   8
ENDBRANCH   6   7
ENDBRANCH   5   6
ENDBRANCH   1   5
BRANCH   2  78
ATOM     78  C   UNL A   1      32.005  28.092  23.575  1.00  0.00     0.131 A 
ATOM     79  N   UNL A   1      31.589  28.307  22.292  1.00  0.00    -0.272 N 
ATOM     80  C   UNL A   1      31.147  27.134  24.104  1.00  0.00     0.057 A 
ATOM     81  N   UNL A   1      30.711  27.390  21.861  1.00  0.00    -0.183 NA
ATOM     82  H   UNL A   1      31.902  29.058  21.740  1.00  0.00     0.190 HD
ATOM     83  C   UNL A   1      30.458  26.669  22.954  1.00  0.00     0.145 A 
BRANCH  80  84
ATOM     84  C   UNL A   1      31.114  26.636  25.521  1.00  0.00     0.303 C 
BRANCH  84  85
ATOM     85  N   UNL A   1      31.664  25.291  25.741  1.00  0.00    -0.330 N 
ATOM     86  C   UNL A   1      30.713  24.209  25.510  1.00  0.00     0.262 C 
ATOM     87  C   UNL A   1      32.933  25.096  25.051  1.00  0.00     0.274 C 
ATOM     88  H   UNL A   1      31.864  25.241  26.740  1.00  0.00     0.348 HD
ATOM     89  C   UNL A   1      31.345  22.866  25.883  1.00  0.00     0.062 C 
ATOM     90  C   UNL A   1      33.644  23.766  25.290  1.00  0.00     0.116 C 
ATOM     91  C   UNL A   1      32.638  22.617  25.105  1.00  0.00     0.023 C 
BRANCH  90  92
ATOM     92  C   UNL A   1      34.861  23.527  24.364  1.00  0.00     0.171 C 
ATOM     93  O   UNL A   1      34.842  23.886  23.186  1.00  0.00    -0.294 OA
BRANCH  92  94
ATOM     94  C   UNL A   1      36.134  22.928  24.874  1.00  0.00     0.018 A 
ATOM     95  C   UNL A   1      36.379  21.573  24.630  1.00  0.00     0.015 A 
ATOM     96  C   UNL A   1      37.092  23.671  25.567  1.00  0.00     0.015 A 
ATOM     97  C   UNL A   1      37.598  20.997  25.015  1.00  0.00     0.048 A 
ATOM     98  C   UNL A   1      38.339  23.115  25.878  1.00  0.00     0.048 A 
ATOM     99  C   UNL A   1      38.597  21.770  25.620  1.00  0.00     0.127 A 
BRANCH  99 100
ATOM    100  O   UNL A   1      39.762  21.091  25.911  1.00  0.00    -0.457 OA
BRANCH 100 101
ATOM    101  C   UNL A   1      40.819  21.753  26.487  1.00  0.00     0.127 A 
ATOM    102  C   UNL A   1      40.780  21.948  27.870  1.00  0.00     0.047 A 
ATOM    103  C   UNL A   1      41.850  22.319  25.734  1.00  0.00     0.047 A 
ATOM    104  C   UNL A   1      41.808  22.645  28.507  1.00  0.00     0.004 A 
ATOM    105  C   UNL A   1      42.895  22.988  26.375  1.00  0.00     0.004 A 
ATOM    106  C   UNL A   1      42.875  23.149  27.761  1.00  0.00     0.000 A 
ENDBRANCH 100 101
ENDBRANCH  99 100
ENDBRANCH  92  94
ENDBRANCH  90  92
ENDBRANCH  84  85
ENDBRANCH  80  84
ENDBRANCH   2  78
TORSDOF 17
ENDMDL
MODEL 3
REMARK VINA RESULT:     -12.4      1.155      2.131
REMARK SMILES O=C(NCCCCNC(=O)c1[nH]ncc1C[N@H+]1CCC[C@@H](C(=O)c2ccc(Oc3ccccc3)cc2)C1)c1ccc(-c2c3nc(c(-c4c(F)c(F)c(F)c(F)c4F)c4ccc([nH]4)c(-c4c(F)c(F)c(F)c(F)c4F)c4nc(c(-c5c(F)c(F)c(F)c(F)c5F)c5ccc2[nH]5)C=C4)C=C3)cc1
REMARK SMILES IDX 8 1 9 2 10 3 7 5 6 6 5 7 4 8 3 9 1 10 2 11 38 13 39 14
REMARK SMILES IDX 100 15 40 16 99 17 41 18 42 19 43 20 93 21 44 22 98 23 92 24
REMARK SMILES IDX 94 25 45 26 97 27 91 28 90 29 46 31 78 32 58 33 77 34 59 35
REMARK SMILES IDX 62 36 76 37 95 38 60 39 61 40 75 42 96 43 63 44 47 45 48 46
REMARK SMILES IDX 56 47 49 48 50 49 54 50 57 51 51 52 52 53 55 54 53 55 79 56
REMARK SMILES IDX 80 57 88 58 81 59 82 60 86 61 89 62 83 63 84 64 87 65 85 66
REMARK SMILES IDX 64 67 65 68 73 69 66 70 67 71 71 72 74 73 68 74 69 75 72 76
REMARK SMILES IDX 70 77 11 78 12 79 15 80 13 81 14 83 16 84 17 85 18 86 37 87
REMARK SMILES IDX 19 89 21 90 20 91 22 92 23 93 24 94 25 95 36 96 26 97 35 98
REMARK SMILES IDX 27 99 28 100 29 101 30 102 34 103 31 104 33 105 32 106
REMARK H PARENT 8 4 3 12 94 30 62 41 12 82 17 88
REMARK Flexibility Score: inf
ROOT
ATOM      1  N   UNL A   1      30.192  30.450  24.175  1.00  0.00    -0.351 N 
ATOM      2  C   UNL A   1      30.433  29.630  23.101  1.00  0.00     0.269 C 
ATOM      3  O   UNL A   1      29.695  29.691  22.121  1.00  0.00    -0.268 OA
ATOM      4  H   UNL A   1      29.337  30.937  24.160  1.00  0.00     0.163 HD
ENDROOT
BRANCH   1   5
ATOM      5  C   UNL A   1      31.039  30.689  25.335  1.00  0.00     0.116 C 
BRANCH   5   6
ATOM      6  C   UNL A   1      30.989  32.129  25.829  1.00  0.00     0.023 C 
BRANCH   6   7
ATOM      7  C   UNL A   1      31.501  32.336  27.249  1.00  0.00     0.023 C 
BRANCH   7   8
ATOM      8  C   UNL A   1      32.772  33.165  27.355  1.00  0.00     0.116 C 
BRANCH   8   9
ATOM      9  N   UNL A   1      32.528  34.528  27.803  1.00  0.00    -0.352 N 
ATOM     10  O   UNL A   1      32.668  36.308  29.190  1.00  0.00    -0.269 OA
ATOM     11  C   UNL A   1      33.092  35.207  28.858  1.00  0.00     0.251 C 
ATOM     12  H   UNL A   1      31.866  35.035  27.278  1.00  0.00     0.163 HD
BRANCH  11  13
ATOM     13  C   UNL A   1      34.197  34.578  29.609  1.00  0.00     0.039 A 
ATOM     14  C   UNL A   1      35.493  34.597  29.092  1.00  0.00     0.014 A 
ATOM     15  C   UNL A   1      33.928  33.934  30.818  1.00  0.00     0.014 A 
ATOM     16  C   UNL A   1      36.480  33.824  29.688  1.00  0.00     0.010 A 
ATOM     17  C   UNL A   1      34.952  33.246  31.477  1.00  0.00     0.010 A 
ATOM     18  C   UNL A   1      36.228  33.158  30.899  1.00  0.00    -0.014 A 
BRANCH  18  19
ATOM     19  C   UNL A   1      37.344  32.447  31.570  1.00  0.00     0.031 A 
ATOM     20  C   UNL A   1      38.073  31.315  30.903  1.00  0.00     0.074 A 
ATOM     21  C   UNL A   1      37.722  32.870  32.793  1.00  0.00     0.049 A 
ATOM     22  N   UNL A   1      39.082  30.608  31.351  1.00  0.00    -0.248 NA
ATOM     23  C   UNL A   1      37.608  30.914  29.566  1.00  0.00     0.031 C 
ATOM     24  C   UNL A   1      37.077  33.954  33.540  1.00  0.00     0.029 A 
ATOM     25  N   UNL A   1      38.741  32.463  33.612  1.00  0.00    -0.354 N 
ATOM     26  C   UNL A   1      39.362  29.673  30.363  1.00  0.00     0.074 A 
ATOM     27  C   UNL A   1      38.401  29.883  29.301  1.00  0.00     0.031 C 
ATOM     28  C   UNL A   1      37.747  34.160  34.681  1.00  0.00     0.029 A 
ATOM     29  C   UNL A   1      38.819  33.179  34.782  1.00  0.00     0.049 A 
ATOM     30  H   UNL A   1      39.358  31.730  33.386  1.00  0.00     0.167 HD
ATOM     31  C   UNL A   1      40.338  28.733  30.346  1.00  0.00     0.037 A 
ATOM     32  C   UNL A   1      39.647  33.045  35.834  1.00  0.00     0.037 A 
ATOM     33  C   UNL A   1      41.299  28.541  31.405  1.00  0.00     0.049 A 
ATOM     34  C   UNL A   1      40.697  31.976  35.796  1.00  0.00     0.074 A 
ATOM     35  C   UNL A   1      42.347  27.638  31.467  1.00  0.00     0.029 A 
ATOM     36  N   UNL A   1      41.325  29.262  32.591  1.00  0.00    -0.354 N 
ATOM     37  N   UNL A   1      40.973  31.121  34.842  1.00  0.00    -0.248 NA
ATOM     38  C   UNL A   1      41.551  31.849  36.984  1.00  0.00     0.031 C 
ATOM     39  C   UNL A   1      42.974  27.778  32.709  1.00  0.00     0.029 A 
ATOM     40  C   UNL A   1      42.354  28.806  33.401  1.00  0.00     0.049 A 
ATOM     41  H   UNL A   1      40.704  29.989  32.822  1.00  0.00     0.167 HD
ATOM     42  C   UNL A   1      42.038  30.364  35.306  1.00  0.00     0.074 A 
ATOM     43  C   UNL A   1      42.377  30.880  36.616  1.00  0.00     0.031 C 
ATOM     44  C   UNL A   1      42.675  29.330  34.704  1.00  0.00     0.037 A 
BRANCH  31  45
ATOM     45  C   UNL A   1      40.416  27.820  29.155  1.00  0.00     0.064 A 
ATOM     46  C   UNL A   1      39.611  26.676  29.046  1.00  0.00     0.173 A 
ATOM     47  C   UNL A   1      41.261  28.130  28.078  1.00  0.00     0.173 A 
ATOM     48  F   UNL A   1      38.793  26.328  30.051  1.00  0.00    -0.203 F 
ATOM     49  C   UNL A   1      39.663  25.867  27.913  1.00  0.00     0.198 A 
ATOM     50  C   UNL A   1      41.290  27.334  26.934  1.00  0.00     0.198 A 
ATOM     51  F   UNL A   1      42.047  29.216  28.125  1.00  0.00    -0.203 F 
ATOM     52  F   UNL A   1      38.912  24.760  27.847  1.00  0.00    -0.200 F 
ATOM     53  C   UNL A   1      40.496  26.201  26.855  1.00  0.00     0.200 A 
ATOM     54  F   UNL A   1      42.085  27.668  25.907  1.00  0.00    -0.200 F 
ATOM     55  F   UNL A   1      40.534  25.430  25.760  1.00  0.00    -0.200 F 
ENDBRANCH  31  45
BRANCH  32  56
ATOM     56  C   UNL A   1      39.497  33.942  37.009  1.00  0.00     0.064 A 
ATOM     57  C   UNL A   1      40.121  35.194  37.047  1.00  0.00     0.173 A 
ATOM     58  C   UNL A   1      38.719  33.564  38.114  1.00  0.00     0.173 A 
ATOM     59  F   UNL A   1      40.889  35.591  36.022  1.00  0.00    -0.203 F 
ATOM     60  C   UNL A   1      39.989  36.029  38.155  1.00  0.00     0.198 A 
ATOM     61  C   UNL A   1      38.558  34.414  39.205  1.00  0.00     0.198 A 
ATOM     62  F   UNL A   1      38.093  32.378  38.123  1.00  0.00    -0.203 F 
ATOM     63  F   UNL A   1      40.634  37.203  38.186  1.00  0.00    -0.200 F 
ATOM     64  C   UNL A   1      39.202  35.642  39.229  1.00  0.00     0.200 A 
ATOM     65  F   UNL A   1      37.780  34.044  40.230  1.00  0.00    -0.200 F 
ATOM     66  F   UNL A   1      39.068  36.449  40.290  1.00  0.00    -0.200 F 
ENDBRANCH  32  56
BRANCH  44  67
ATOM     67  C   UNL A   1      43.819  28.710  35.453  1.00  0.00     0.064 A 
ATOM     68  C   UNL A   1      45.138  29.154  35.278  1.00  0.00     0.173 A 
ATOM     69  C   UNL A   1      43.589  27.669  36.363  1.00  0.00     0.173 A 
ATOM     70  F   UNL A   1      45.411  30.134  34.404  1.00  0.00    -0.203 F 
ATOM     71  C   UNL A   1      46.190  28.555  35.965  1.00  0.00     0.198 A 
ATOM     72  C   UNL A   1      44.640  27.094  37.073  1.00  0.00     0.198 A 
ATOM     73  F   UNL A   1      42.345  27.211  36.570  1.00  0.00    -0.203 F 
ATOM     74  F   UNL A   1      47.449  28.957  35.740  1.00  0.00    -0.200 F 
ATOM     75  C   UNL A   1      45.940  27.531  36.866  1.00  0.00     0.200 A 
ATOM     76  F   UNL A   1      44.395  26.113  37.952  1.00  0.00    -0.200 F 
ATOM     77  F   UNL A   1      46.954  26.957  37.528  1.00  0.00    -0.200 F 
ENDBRANCH  44  67
ENDBRANCH  18  19
ENDBRANCH  11  13
ENDBRANCH   8   9
ENDBRANCH   7   8
ENDBRANCH   6   7
ENDBRANCH   5   6
ENDBRANCH   1   5
BRANCH   2  78
ATOM     78  C   UNL A   1      31.591  28.792  23.154  1.00  0.00     0.131 A 
ATOM     79  N   UNL A   1      32.657  28.974  22.321  1.00  0.00    -0.272 N 
ATOM     80  C   UNL A   1      31.920  27.717  23.972  1.00  0.00     0.057 A 
ATOM     81  N   UNL A   1      33.746  28.289  22.698  1.00  0.00    -0.183 NA
ATOM     82  H   UNL A   1      32.629  29.550  21.523  1.00  0.00     0.190 HD
ATOM     83  C   UNL A   1      33.303  27.541  23.710  1.00  0.00     0.145 A 
BRANCH  80  84
ATOM     84  C   UNL A   1      31.033  27.049  24.985  1.00  0.00     0.303 C 
BRANCH  84  85
ATOM     85  N   UNL A   1      31.006  25.580  24.945  1.00  0.00    -0.330 N 
ATOM     86  C   UNL A   1      31.128  25.015  23.605  1.00  0.00     0.262 C 
ATOM     87  C   UNL A   1      31.929  24.987  25.903  1.00  0.00     0.274 C 
ATOM     88  H   UNL A   1      30.067  25.319  25.243  1.00  0.00     0.348 HD
ATOM     89  C   UNL A   1      30.966  23.495  23.660  1.00  0.00     0.062 C 
ATOM     90  C   UNL A   1      31.913  23.464  26.015  1.00  0.00     0.116 C 
ATOM     91  C   UNL A   1      31.983  22.854  24.605  1.00  0.00     0.023 C 
BRANCH  90  92
ATOM     92  C   UNL A   1      33.060  22.882  26.877  1.00  0.00     0.171 C 
ATOM     93  O   UNL A   1      32.874  22.572  28.054  1.00  0.00    -0.294 OA
BRANCH  92  94
ATOM     94  C   UNL A   1      34.412  22.599  26.302  1.00  0.00     0.018 A 
ATOM     95  C   UNL A   1      35.299  23.665  26.126  1.00  0.00     0.015 A 
ATOM     96  C   UNL A   1      34.827  21.313  25.952  1.00  0.00     0.015 A 
ATOM     97  C   UNL A   1      36.605  23.427  25.673  1.00  0.00     0.048 A 
ATOM     98  C   UNL A   1      36.154  21.067  25.577  1.00  0.00     0.048 A 
ATOM     99  C   UNL A   1      37.049  22.124  25.418  1.00  0.00     0.127 A 
BRANCH  99 100
ATOM    100  O   UNL A   1      38.366  22.025  25.018  1.00  0.00    -0.457 OA
BRANCH 100 101
ATOM    101  C   UNL A   1      39.297  21.448  25.847  1.00  0.00     0.127 A 
ATOM    102  C   UNL A   1      39.926  22.274  26.781  1.00  0.00     0.047 A 
ATOM    103  C   UNL A   1      39.703  20.119  25.709  1.00  0.00     0.047 A 
ATOM    104  C   UNL A   1      40.907  21.752  27.627  1.00  0.00     0.004 A 
ATOM    105  C   UNL A   1      40.661  19.590  26.576  1.00  0.00     0.004 A 
ATOM    106  C   UNL A   1      41.261  20.405  27.536  1.00  0.00     0.000 A 
ENDBRANCH 100 101
ENDBRANCH  99 100
ENDBRANCH  92  94
ENDBRANCH  90  92
ENDBRANCH  84  85
ENDBRANCH  80  84
ENDBRANCH   2  78
TORSDOF 17
ENDMDL
