MODEL 1
REMARK VINA RESULT:     -13.5      0.000      0.000
REMARK SMILES Cc1ccc(S(=O)(=O)n2cc(C(=O)C(=O)NCC(=O)NCCCCNC(=O)c3ccc(-c4c5nc(c(-c6c(F)c(F)c(F)c(F)c6F)c6ccc([nH]6)c(-c6c(F)c(F)c(F)c(F)c6F)c6nc(c(-c7c(F)c(F)c(F)c(F)c7F)c7ccc4[nH]7)C=C6)C=C5)cc3)c3ccccc32)cc1
REMARK SMILES IDX 21 1 20 2 18 3 19 4 17 6 16 7 14 8 15 9 12 11 13 12 11 13
REMARK SMILES IDX 9 14 10 15 96 16 91 17 95 18 92 19 94 20 93 21 6 22 7 23
REMARK SMILES IDX 8 24 5 25 1 26 2 27 3 28 98 29 4 30 97 31 22 32 23 33 24 34
REMARK SMILES IDX 25 35 26 36 27 38 28 39 29 40 90 41 30 42 89 43 31 44 32 45
REMARK SMILES IDX 33 46 83 47 34 48 88 49 82 50 84 51 35 52 87 53 81 54 80 55
REMARK SMILES IDX 36 57 68 58 48 59 67 60 49 61 52 62 66 63 85 64 50 65 51 66
REMARK SMILES IDX 65 68 86 69 53 70 37 71 38 72 46 73 39 74 40 75 44 76 47 77
REMARK SMILES IDX 41 78 42 79 45 80 43 81 69 82 70 83 78 84 71 85 72 86 76 87
REMARK SMILES IDX 79 88 73 89 74 90 77 91 75 92 54 93 55 94 63 95 56 96 57 97
REMARK SMILES IDX 61 98 64 99 58 100 59 101 62 102 60 103
REMARK H PARENT 20 5 16 10 25 37 84 56 52 67
REMARK Flexibility Score: inf
ROOT
ATOM      1  C   UNL A   1      33.831  29.244  26.503  1.00  0.00     0.116 C 
ENDROOT
BRANCH   1   2
ATOM      2  N   UNL A   1      33.893  29.074  25.066  1.00  0.00    -0.355 N 
ATOM      3  C   UNL A   1      32.890  29.101  24.140  1.00  0.00     0.239 C 
ATOM      4  O   UNL A   1      33.203  29.012  22.951  1.00  0.00    -0.273 OA
ATOM      5  H   UNL A   1      34.794  28.914  24.701  1.00  0.00     0.163 HD
BRANCH   3   6
ATOM      6  C   UNL A   1      31.443  29.378  24.559  1.00  0.00     0.216 C 
BRANCH   6   7
ATOM      7  N   UNL A   1      30.532  29.582  23.439  1.00  0.00    -0.340 N 
ATOM      8  C   UNL A   1      29.519  28.797  22.930  1.00  0.00     0.292 C 
ATOM      9  O   UNL A   1      28.883  29.223  21.970  1.00  0.00    -0.265 OA
ATOM     10  H   UNL A   1      30.664  30.433  22.961  1.00  0.00     0.164 HD
BRANCH   8  11
ATOM     11  C   UNL A   1      29.209  27.396  23.519  1.00  0.00     0.252 C 
ATOM     12  O   UNL A   1      28.039  27.122  23.772  1.00  0.00    -0.283 OA
BRANCH  11  13
ATOM     13  C   UNL A   1      30.270  26.414  23.791  1.00  0.00     0.054 A 
ATOM     14  N   UNL A   1      31.664  24.998  24.819  1.00  0.00    -0.240 N 
ATOM     15  C   UNL A   1      30.556  25.789  24.994  1.00  0.00     0.117 A 
ATOM     16  C   UNL A   1      32.115  25.050  23.519  1.00  0.00     0.065 A 
ATOM     17  C   UNL A   1      31.259  25.937  22.851  1.00  0.00     0.012 A 
ATOM     18  C   UNL A   1      33.209  24.441  22.874  1.00  0.00     0.028 A 
ATOM     19  C   UNL A   1      31.506  26.200  21.486  1.00  0.00     0.011 A 
ATOM     20  C   UNL A   1      33.441  24.748  21.531  1.00  0.00     0.002 A 
ATOM     21  C   UNL A   1      32.599  25.610  20.843  1.00  0.00     0.001 A 
BRANCH  14  22
ATOM     22  S   UNL A   1      32.442  24.183  26.098  1.00  0.00     0.268 S 
ATOM     23  O   UNL A   1      31.427  24.055  27.137  1.00  0.00    -0.201 OA
ATOM     24  O   UNL A   1      33.682  24.885  26.322  1.00  0.00    -0.201 OA
BRANCH  22  25
ATOM     25  C   UNL A   1      32.848  22.546  25.544  1.00  0.00     0.088 A 
ATOM     26  C   UNL A   1      34.061  18.553  24.495  1.00  0.00     0.044 C 
ATOM     27  C   UNL A   1      33.633  19.950  24.838  1.00  0.00    -0.051 A 
ATOM     28  C   UNL A   1      34.590  20.898  25.218  1.00  0.00     0.005 A 
ATOM     29  C   UNL A   1      32.285  20.324  24.786  1.00  0.00     0.005 A 
ATOM     30  C   UNL A   1      34.201  22.190  25.575  1.00  0.00     0.022 A 
ATOM     31  C   UNL A   1      31.890  21.621  25.124  1.00  0.00     0.022 A 
ENDBRANCH  22  25
ENDBRANCH  14  22
ENDBRANCH  11  13
ENDBRANCH   8  11
ENDBRANCH   6   7
ENDBRANCH   3   6
ENDBRANCH   1   2
BRANCH   1  32
ATOM     32  C   UNL A   1      35.183  28.991  27.179  1.00  0.00     0.023 C 
BRANCH  32  33
ATOM     33  C   UNL A   1      35.481  29.918  28.357  1.00  0.00     0.023 C 
BRANCH  33  34
ATOM     34  C   UNL A   1      35.787  31.355  27.967  1.00  0.00     0.116 C 
BRANCH  34  35
ATOM     35  N   UNL A   1      34.820  32.329  28.457  1.00  0.00    -0.352 N 
ATOM     36  C   UNL A   1      34.871  33.149  29.575  1.00  0.00     0.251 C 
ATOM     37  H   UNL A   1      34.006  32.420  27.912  1.00  0.00     0.163 HD
ATOM     38  O   UNL A   1      33.884  33.799  29.905  1.00  0.00    -0.269 OA
BRANCH  36  39
ATOM     39  C   UNL A   1      36.171  33.400  30.245  1.00  0.00     0.039 A 
ATOM     40  C   UNL A   1      37.194  33.916  29.434  1.00  0.00     0.014 A 
ATOM     41  C   UNL A   1      36.476  32.769  31.441  1.00  0.00     0.014 A 
ATOM     42  C   UNL A   1      38.493  33.481  29.636  1.00  0.00     0.010 A 
ATOM     43  C   UNL A   1      37.717  32.201  31.549  1.00  0.00     0.010 A 
ATOM     44  C   UNL A   1      38.694  32.499  30.595  1.00  0.00    -0.014 A 
BRANCH  44  45
ATOM     45  C   UNL A   1      39.906  31.725  30.734  1.00  0.00     0.031 A 
ATOM     46  C   UNL A   1      39.936  30.413  30.082  1.00  0.00     0.074 A 
ATOM     47  C   UNL A   1      40.997  32.328  31.250  1.00  0.00     0.049 A 
ATOM     48  N   UNL A   1      40.849  29.534  30.272  1.00  0.00    -0.248 NA
ATOM     49  C   UNL A   1      38.885  29.967  29.175  1.00  0.00     0.031 C 
ATOM     50  C   UNL A   1      42.394  31.912  31.167  1.00  0.00     0.029 A 
ATOM     51  N   UNL A   1      41.015  33.394  32.164  1.00  0.00    -0.354 N 
ATOM     52  C   UNL A   1      40.684  28.552  29.323  1.00  0.00     0.074 A 
ATOM     53  C   UNL A   1      39.394  28.814  28.738  1.00  0.00     0.031 C 
ATOM     54  C   UNL A   1      43.069  32.464  32.190  1.00  0.00     0.029 A 
ATOM     55  C   UNL A   1      42.084  33.098  33.047  1.00  0.00     0.049 A 
ATOM     56  H   UNL A   1      40.415  34.174  32.187  1.00  0.00     0.167 HD
ATOM     57  C   UNL A   1      41.743  27.727  29.084  1.00  0.00     0.037 A 
ATOM     58  C   UNL A   1      41.808  32.729  34.336  1.00  0.00     0.037 A 
ATOM     59  C   UNL A   1      42.795  27.977  30.077  1.00  0.00     0.049 A 
ATOM     60  C   UNL A   1      42.222  31.303  34.666  1.00  0.00     0.074 A 
ATOM     61  C   UNL A   1      43.969  28.711  30.089  1.00  0.00     0.029 A 
ATOM     62  N   UNL A   1      42.496  27.729  31.405  1.00  0.00    -0.354 N 
ATOM     63  N   UNL A   1      42.621  30.425  33.784  1.00  0.00    -0.248 NA
ATOM     64  C   UNL A   1      42.139  30.734  36.009  1.00  0.00     0.031 C 
ATOM     65  C   UNL A   1      44.356  28.906  31.453  1.00  0.00     0.029 A 
ATOM     66  C   UNL A   1      43.433  28.266  32.261  1.00  0.00     0.049 A 
ATOM     67  H   UNL A   1      41.704  27.226  31.704  1.00  0.00     0.167 HD
ATOM     68  C   UNL A   1      42.823  29.211  34.388  1.00  0.00     0.074 A 
ATOM     69  C   UNL A   1      42.475  29.452  35.779  1.00  0.00     0.031 C 
ATOM     70  C   UNL A   1      43.232  28.102  33.695  1.00  0.00     0.037 A 
BRANCH  57  71
ATOM     71  C   UNL A   1      41.938  26.855  27.862  1.00  0.00     0.064 A 
ATOM     72  C   UNL A   1      41.260  25.619  27.772  1.00  0.00     0.173 A 
ATOM     73  C   UNL A   1      42.807  27.115  26.783  1.00  0.00     0.173 A 
ATOM     74  F   UNL A   1      40.345  25.255  28.680  1.00  0.00    -0.203 F 
ATOM     75  C   UNL A   1      41.497  24.698  26.746  1.00  0.00     0.198 A 
ATOM     76  C   UNL A   1      43.064  26.186  25.771  1.00  0.00     0.198 A 
ATOM     77  F   UNL A   1      43.417  28.290  26.624  1.00  0.00    -0.203 F 
ATOM     78  F   UNL A   1      40.833  23.534  26.733  1.00  0.00    -0.200 F 
ATOM     79  C   UNL A   1      42.417  24.972  25.756  1.00  0.00     0.200 A 
ATOM     80  F   UNL A   1      43.946  26.485  24.805  1.00  0.00    -0.200 F 
ATOM     81  F   UNL A   1      42.663  24.082  24.786  1.00  0.00    -0.200 F 
ENDBRANCH  57  71
BRANCH  58  82
ATOM     82  C   UNL A   1      40.584  33.423  34.856  1.00  0.00     0.064 A 
ATOM     83  C   UNL A   1      39.388  32.673  34.940  1.00  0.00     0.173 A 
ATOM     84  C   UNL A   1      40.677  34.569  35.652  1.00  0.00     0.173 A 
ATOM     85  F   UNL A   1      39.243  31.565  34.196  1.00  0.00    -0.203 F 
ATOM     86  C   UNL A   1      38.425  32.946  35.909  1.00  0.00     0.198 A 
ATOM     87  C   UNL A   1      39.685  34.867  36.590  1.00  0.00     0.198 A 
ATOM     88  F   UNL A   1      41.779  35.331  35.624  1.00  0.00    -0.203 F 
ATOM     89  F   UNL A   1      37.401  32.099  36.090  1.00  0.00    -0.200 F 
ATOM     90  C   UNL A   1      38.592  34.028  36.755  1.00  0.00     0.200 A 
ATOM     91  F   UNL A   1      39.852  35.904  37.423  1.00  0.00    -0.200 F 
ATOM     92  F   UNL A   1      37.735  34.230  37.765  1.00  0.00    -0.200 F 
ENDBRANCH  58  82
BRANCH  70  93
ATOM     93  C   UNL A   1      43.432  26.732  34.309  1.00  0.00     0.064 A 
ATOM     94  C   UNL A   1      42.371  25.943  34.779  1.00  0.00     0.173 A 
ATOM     95  C   UNL A   1      44.724  26.187  34.520  1.00  0.00     0.173 A 
ATOM     96  F   UNL A   1      41.115  26.410  34.788  1.00  0.00    -0.203 F 
ATOM     97  C   UNL A   1      42.577  24.659  35.292  1.00  0.00     0.198 A 
ATOM     98  C   UNL A   1      44.930  24.932  35.089  1.00  0.00     0.198 A 
ATOM     99  F   UNL A   1      45.842  26.831  34.167  1.00  0.00    -0.203 F 
ATOM    100  F   UNL A   1      41.523  23.910  35.645  1.00  0.00    -0.200 F 
ATOM    101  C   UNL A   1      43.855  24.152  35.442  1.00  0.00     0.200 A 
ATOM    102  F   UNL A   1      46.181  24.487  35.272  1.00  0.00    -0.200 F 
ATOM    103  F   UNL A   1      44.049  22.922  35.935  1.00  0.00    -0.200 F 
ENDBRANCH  70  93
ENDBRANCH  44  45
ENDBRANCH  36  39
ENDBRANCH  34  35
ENDBRANCH  33  34
ENDBRANCH  32  33
ENDBRANCH   1  32
TORSDOF 16
ENDMDL
MODEL 2
REMARK VINA RESULT:     -13.3      3.792      9.625
REMARK SMILES Cc1ccc(S(=O)(=O)n2cc(C(=O)C(=O)NCC(=O)NCCCCNC(=O)c3ccc(-c4c5nc(c(-c6c(F)c(F)c(F)c(F)c6F)c6ccc([nH]6)c(-c6c(F)c(F)c(F)c(F)c6F)c6nc(c(-c7c(F)c(F)c(F)c(F)c7F)c7ccc4[nH]7)C=C6)C=C5)cc3)c3ccccc32)cc1
REMARK SMILES IDX 21 1 20 2 18 3 19 4 17 6 16 7 14 8 15 9 12 11 13 12 11 13
REMARK SMILES IDX 9 14 10 15 96 16 91 17 95 18 92 19 94 20 93 21 6 22 7 23
REMARK SMILES IDX 8 24 5 25 1 26 2 27 3 28 98 29 4 30 97 31 22 32 23 33 24 34
REMARK SMILES IDX 25 35 26 36 27 38 28 39 29 40 90 41 30 42 89 43 31 44 32 45
REMARK SMILES IDX 33 46 83 47 34 48 88 49 82 50 84 51 35 52 87 53 81 54 80 55
REMARK SMILES IDX 36 57 68 58 48 59 67 60 49 61 52 62 66 63 85 64 50 65 51 66
REMARK SMILES IDX 65 68 86 69 53 70 37 71 38 72 46 73 39 74 40 75 44 76 47 77
REMARK SMILES IDX 41 78 42 79 45 80 43 81 69 82 70 83 78 84 71 85 72 86 76 87
REMARK SMILES IDX 79 88 73 89 74 90 77 91 75 92 54 93 55 94 63 95 56 96 57 97
REMARK SMILES IDX 61 98 64 99 58 100 59 101 62 102 60 103
REMARK H PARENT 20 5 16 10 25 37 84 56 52 67
REMARK Flexibility Score: inf
ROOT
ATOM      1  C   UNL A   1      37.020  23.081  24.654  1.00  0.00     0.116 C 
ENDROOT
BRANCH   1   2
ATOM      2  N   UNL A   1      37.152  21.639  24.694  1.00  0.00    -0.355 N 
ATOM      3  C   UNL A   1      36.250  20.692  25.084  1.00  0.00     0.239 C 
ATOM      4  O   UNL A   1      36.566  19.507  24.949  1.00  0.00    -0.273 OA
ATOM      5  H   UNL A   1      38.022  21.289  24.394  1.00  0.00     0.163 HD
BRANCH   3   6
ATOM      6  C   UNL A   1      34.841  21.088  25.537  1.00  0.00     0.216 C 
BRANCH   6   7
ATOM      7  N   UNL A   1      33.878  19.993  25.502  1.00  0.00    -0.340 N 
ATOM      8  C   UNL A   1      32.801  19.750  24.677  1.00  0.00     0.292 C 
ATOM      9  O   UNL A   1      32.153  18.724  24.857  1.00  0.00    -0.265 OA
ATOM     10  H   UNL A   1      34.024  19.305  26.190  1.00  0.00     0.164 HD
BRANCH   8  11
ATOM     11  C   UNL A   1      32.385  20.758  23.574  1.00  0.00     0.252 C 
ATOM     12  O   UNL A   1      32.113  20.317  22.460  1.00  0.00    -0.283 OA
BRANCH  11  13
ATOM     13  C   UNL A   1      32.324  22.207  23.825  1.00  0.00     0.054 A 
ATOM     14  N   UNL A   1      32.708  24.410  23.754  1.00  0.00    -0.240 N 
ATOM     15  C   UNL A   1      33.006  23.210  23.156  1.00  0.00     0.117 A 
ATOM     16  C   UNL A   1      31.819  24.244  24.792  1.00  0.00     0.065 A 
ATOM     17  C   UNL A   1      31.563  22.867  24.862  1.00  0.00     0.012 A 
ATOM     18  C   UNL A   1      31.245  25.154  25.700  1.00  0.00     0.028 A 
ATOM     19  C   UNL A   1      30.688  22.401  25.868  1.00  0.00     0.011 A 
ATOM     20  C   UNL A   1      30.407  24.656  26.699  1.00  0.00     0.002 A 
ATOM     21  C   UNL A   1      30.126  23.299  26.781  1.00  0.00     0.001 A 
BRANCH  14  22
ATOM     22  S   UNL A   1      33.469  25.877  23.337  1.00  0.00     0.268 S 
ATOM     23  O   UNL A   1      33.922  25.689  21.963  1.00  0.00    -0.201 OA
ATOM     24  O   UNL A   1      34.385  26.171  24.411  1.00  0.00    -0.201 OA
BRANCH  22  25
ATOM     25  C   UNL A   1      32.235  27.153  23.322  1.00  0.00     0.088 A 
ATOM     26  C   UNL A   1      28.987  29.976  23.290  1.00  0.00     0.044 C 
ATOM     27  C   UNL A   1      30.133  29.007  23.290  1.00  0.00    -0.051 A 
ATOM     28  C   UNL A   1      30.100  27.888  22.450  1.00  0.00     0.005 A 
ATOM     29  C   UNL A   1      31.243  29.204  24.121  1.00  0.00     0.005 A 
ATOM     30  C   UNL A   1      31.143  26.961  22.468  1.00  0.00     0.022 A 
ATOM     31  C   UNL A   1      32.299  28.289  24.130  1.00  0.00     0.022 A 
ENDBRANCH  22  25
ENDBRANCH  14  22
ENDBRANCH  11  13
ENDBRANCH   8  11
ENDBRANCH   6   7
ENDBRANCH   3   6
ENDBRANCH   1   2
BRANCH   1  32
ATOM     32  C   UNL A   1      37.296  23.729  26.015  1.00  0.00     0.023 C 
BRANCH  32  33
ATOM     33  C   UNL A   1      38.738  24.195  26.209  1.00  0.00     0.023 C 
BRANCH  33  34
ATOM     34  C   UNL A   1      39.545  23.358  27.189  1.00  0.00     0.116 C 
BRANCH  34  35
ATOM     35  N   UNL A   1      40.172  22.182  26.601  1.00  0.00    -0.352 N 
ATOM     36  C   UNL A   1      41.507  21.928  26.328  1.00  0.00     0.251 C 
ATOM     37  H   UNL A   1      39.553  21.457  26.359  1.00  0.00     0.163 HD
ATOM     38  O   UNL A   1      41.824  20.931  25.686  1.00  0.00    -0.269 OA
BRANCH  36  39
ATOM     39  C   UNL A   1      42.561  22.741  26.984  1.00  0.00     0.039 A 
ATOM     40  C   UNL A   1      42.638  22.639  28.382  1.00  0.00     0.014 A 
ATOM     41  C   UNL A   1      43.114  23.831  26.331  1.00  0.00     0.014 A 
ATOM     42  C   UNL A   1      42.929  23.772  29.122  1.00  0.00     0.010 A 
ATOM     43  C   UNL A   1      43.237  24.992  27.045  1.00  0.00     0.010 A 
ATOM     44  C   UNL A   1      43.061  24.967  28.432  1.00  0.00    -0.014 A 
BRANCH  44  45
ATOM     45  C   UNL A   1      43.068  26.274  29.047  1.00  0.00     0.031 A 
ATOM     46  C   UNL A   1      41.849  27.077  28.917  1.00  0.00     0.074 A 
ATOM     47  C   UNL A   1      44.083  26.587  29.879  1.00  0.00     0.049 A 
ATOM     48  N   UNL A   1      41.764  28.315  29.234  1.00  0.00    -0.248 NA
ATOM     49  C   UNL A   1      40.612  26.536  28.365  1.00  0.00     0.031 C 
ATOM     50  C   UNL A   1      44.148  27.648  30.879  1.00  0.00     0.029 A 
ATOM     51  N   UNL A   1      45.394  26.086  29.830  1.00  0.00    -0.354 N 
ATOM     52  C   UNL A   1      40.432  28.660  29.212  1.00  0.00     0.074 A 
ATOM     53  C   UNL A   1      39.773  27.553  28.568  1.00  0.00     0.031 C 
ATOM     54  C   UNL A   1      45.439  27.939  31.114  1.00  0.00     0.029 A 
ATOM     55  C   UNL A   1      46.219  27.197  30.140  1.00  0.00     0.049 A 
ATOM     56  H   UNL A   1      45.677  25.166  29.623  1.00  0.00     0.167 HD
ATOM     57  C   UNL A   1      40.068  29.795  29.874  1.00  0.00     0.037 A 
ATOM     58  C   UNL A   1      46.991  27.756  29.158  1.00  0.00     0.037 A 
ATOM     59  C   UNL A   1      41.269  30.516  30.313  1.00  0.00     0.049 A 
ATOM     60  C   UNL A   1      46.600  29.185  28.813  1.00  0.00     0.074 A 
ATOM     61  C   UNL A   1      41.969  30.606  31.505  1.00  0.00     0.029 A 
ATOM     62  N   UNL A   1      42.131  30.982  29.338  1.00  0.00    -0.354 N 
ATOM     63  N   UNL A   1      45.521  29.782  29.245  1.00  0.00    -0.248 NA
ATOM     64  C   UNL A   1      47.357  30.021  27.884  1.00  0.00     0.031 C 
ATOM     65  C   UNL A   1      43.271  31.124  31.215  1.00  0.00     0.029 A 
ATOM     66  C   UNL A   1      43.346  31.374  29.856  1.00  0.00     0.049 A 
ATOM     67  H   UNL A   1      41.901  31.030  28.381  1.00  0.00     0.167 HD
ATOM     68  C   UNL A   1      45.411  31.023  28.672  1.00  0.00     0.074 A 
ATOM     69  C   UNL A   1      46.572  31.110  27.803  1.00  0.00     0.031 C 
ATOM     70  C   UNL A   1      44.363  31.866  28.936  1.00  0.00     0.037 A 
BRANCH  57  71
ATOM     71  C   UNL A   1      38.666  30.163  30.313  1.00  0.00     0.064 A 
ATOM     72  C   UNL A   1      37.714  30.560  29.347  1.00  0.00     0.173 A 
ATOM     73  C   UNL A   1      38.196  30.219  31.640  1.00  0.00     0.173 A 
ATOM     74  F   UNL A   1      37.979  30.494  28.035  1.00  0.00    -0.203 F 
ATOM     75  C   UNL A   1      36.448  31.047  29.687  1.00  0.00     0.198 A 
ATOM     76  C   UNL A   1      36.941  30.730  31.983  1.00  0.00     0.198 A 
ATOM     77  F   UNL A   1      38.902  29.746  32.668  1.00  0.00    -0.203 F 
ATOM     78  F   UNL A   1      35.601  31.426  28.719  1.00  0.00    -0.200 F 
ATOM     79  C   UNL A   1      36.069  31.154  31.008  1.00  0.00     0.200 A 
ATOM     80  F   UNL A   1      36.586  30.801  33.275  1.00  0.00    -0.200 F 
ATOM     81  F   UNL A   1      34.866  31.643  31.337  1.00  0.00    -0.200 F 
ENDBRANCH  57  71
BRANCH  58  82
ATOM     82  C   UNL A   1      47.470  26.724  28.182  1.00  0.00     0.064 A 
ATOM     83  C   UNL A   1      46.834  26.665  26.920  1.00  0.00     0.173 A 
ATOM     84  C   UNL A   1      48.748  26.162  28.279  1.00  0.00     0.173 A 
ATOM     85  F   UNL A   1      45.605  27.185  26.769  1.00  0.00    -0.203 F 
ATOM     86  C   UNL A   1      47.516  26.248  25.780  1.00  0.00     0.198 A 
ATOM     87  C   UNL A   1      49.411  25.701  27.140  1.00  0.00     0.198 A 
ATOM     88  F   UNL A   1      49.412  26.178  29.444  1.00  0.00    -0.203 F 
ATOM     89  F   UNL A   1      46.951  26.391  24.572  1.00  0.00    -0.200 F 
ATOM     90  C   UNL A   1      48.819  25.795  25.888  1.00  0.00     0.200 A 
ATOM     91  F   UNL A   1      50.680  25.276  27.239  1.00  0.00    -0.200 F 
ATOM     92  F   UNL A   1      49.524  25.503  24.787  1.00  0.00    -0.200 F 
ENDBRANCH  58  82
BRANCH  70  93
ATOM     93  C   UNL A   1      44.177  33.229  28.301  1.00  0.00     0.064 A 
ATOM     94  C   UNL A   1      44.143  34.419  29.043  1.00  0.00     0.173 A 
ATOM     95  C   UNL A   1      43.946  33.382  26.911  1.00  0.00     0.173 A 
ATOM     96  F   UNL A   1      44.188  34.398  30.383  1.00  0.00    -0.203 F 
ATOM     97  C   UNL A   1      44.026  35.669  28.429  1.00  0.00     0.198 A 
ATOM     98  C   UNL A   1      43.766  34.625  26.308  1.00  0.00     0.198 A 
ATOM     99  F   UNL A   1      43.905  32.342  26.070  1.00  0.00    -0.203 F 
ATOM    100  F   UNL A   1      44.088  36.781  29.174  1.00  0.00    -0.200 F 
ATOM    101  C   UNL A   1      43.841  35.772  27.062  1.00  0.00     0.200 A 
ATOM    102  F   UNL A   1      43.536  34.693  24.989  1.00  0.00    -0.200 F 
ATOM    103  F   UNL A   1      43.727  36.971  26.476  1.00  0.00    -0.200 F 
ENDBRANCH  70  93
ENDBRANCH  44  45
ENDBRANCH  36  39
ENDBRANCH  34  35
ENDBRANCH  33  34
ENDBRANCH  32  33
ENDBRANCH   1  32
TORSDOF 16
ENDMDL
MODEL 3
REMARK VINA RESULT:     -13.3      1.420      2.034
REMARK SMILES Cc1ccc(S(=O)(=O)n2cc(C(=O)C(=O)NCC(=O)NCCCCNC(=O)c3ccc(-c4c5nc(c(-c6c(F)c(F)c(F)c(F)c6F)c6ccc([nH]6)c(-c6c(F)c(F)c(F)c(F)c6F)c6nc(c(-c7c(F)c(F)c(F)c(F)c7F)c7ccc4[nH]7)C=C6)C=C5)cc3)c3ccccc32)cc1
REMARK SMILES IDX 21 1 20 2 18 3 19 4 17 6 16 7 14 8 15 9 12 11 13 12 11 13
REMARK SMILES IDX 9 14 10 15 96 16 91 17 95 18 92 19 94 20 93 21 6 22 7 23
REMARK SMILES IDX 8 24 5 25 1 26 2 27 3 28 98 29 4 30 97 31 22 32 23 33 24 34
REMARK SMILES IDX 25 35 26 36 27 38 28 39 29 40 90 41 30 42 89 43 31 44 32 45
REMARK SMILES IDX 33 46 83 47 34 48 88 49 82 50 84 51 35 52 87 53 81 54 80 55
REMARK SMILES IDX 36 57 68 58 48 59 67 60 49 61 52 62 66 63 85 64 50 65 51 66
REMARK SMILES IDX 65 68 86 69 53 70 37 71 38 72 46 73 39 74 40 75 44 76 47 77
REMARK SMILES IDX 41 78 42 79 45 80 43 81 69 82 70 83 78 84 71 85 72 86 76 87
REMARK SMILES IDX 79 88 73 89 74 90 77 91 75 92 54 93 55 94 63 95 56 96 57 97
REMARK SMILES IDX 61 98 64 99 58 100 59 101 62 102 60 103
REMARK H PARENT 20 5 16 10 25 37 84 56 52 67
REMARK Flexibility Score: inf
ROOT
ATOM      1  C   UNL A   1      34.233  29.062  26.572  1.00  0.00     0.116 C 
ENDROOT
BRANCH   1   2
ATOM      2  N   UNL A   1      33.351  30.210  26.627  1.00  0.00    -0.355 N 
ATOM      3  C   UNL A   1      32.112  30.385  26.082  1.00  0.00     0.239 C 
ATOM      4  O   UNL A   1      31.514  31.433  26.337  1.00  0.00    -0.273 OA
ATOM      5  H   UNL A   1      33.696  30.980  27.134  1.00  0.00     0.163 HD
BRANCH   3   6
ATOM      6  C   UNL A   1      31.432  29.257  25.299  1.00  0.00     0.216 C 
BRANCH   6   7
ATOM      7  N   UNL A   1      31.141  29.592  23.910  1.00  0.00    -0.340 N 
ATOM      8  C   UNL A   1      30.407  28.935  22.945  1.00  0.00     0.292 C 
ATOM      9  O   UNL A   1      30.306  29.457  21.839  1.00  0.00    -0.265 OA
ATOM     10  H   UNL A   1      31.540  30.440  23.607  1.00  0.00     0.164 HD
BRANCH   8  11
ATOM     11  C   UNL A   1      29.757  27.555  23.226  1.00  0.00     0.252 C 
ATOM     12  O   UNL A   1      28.531  27.486  23.239  1.00  0.00    -0.283 OA
BRANCH  11  13
ATOM     13  C   UNL A   1      30.563  26.353  23.488  1.00  0.00     0.054 A 
ATOM     14  N   UNL A   1      32.004  24.655  23.279  1.00  0.00    -0.240 N 
ATOM     15  C   UNL A   1      31.557  25.811  22.689  1.00  0.00     0.117 A 
ATOM     16  C   UNL A   1      31.357  24.419  24.472  1.00  0.00     0.065 A 
ATOM     17  C   UNL A   1      30.443  25.470  24.626  1.00  0.00     0.012 A 
ATOM     18  C   UNL A   1      31.454  23.372  25.408  1.00  0.00     0.028 A 
ATOM     19  C   UNL A   1      29.615  25.471  25.771  1.00  0.00     0.011 A 
ATOM     20  C   UNL A   1      30.601  23.389  26.513  1.00  0.00     0.002 A 
ATOM     21  C   UNL A   1      29.696  24.426  26.697  1.00  0.00     0.001 A 
BRANCH  14  22
ATOM     22  S   UNL A   1      33.112  23.594  22.536  1.00  0.00     0.268 S 
ATOM     23  O   UNL A   1      33.405  24.201  21.242  1.00  0.00    -0.201 OA
ATOM     24  O   UNL A   1      32.541  22.275  22.650  1.00  0.00    -0.201 OA
BRANCH  22  25
ATOM     25  C   UNL A   1      34.613  23.611  23.484  1.00  0.00     0.088 A 
ATOM     26  C   UNL A   1      38.039  23.612  26.088  1.00  0.00     0.044 C 
ATOM     27  C   UNL A   1      36.856  23.624  25.164  1.00  0.00    -0.051 A 
ATOM     28  C   UNL A   1      35.727  24.386  25.488  1.00  0.00     0.005 A 
ATOM     29  C   UNL A   1      36.862  22.882  23.977  1.00  0.00     0.005 A 
ATOM     30  C   UNL A   1      34.607  24.376  24.655  1.00  0.00     0.022 A 
ATOM     31  C   UNL A   1      35.751  22.883  23.130  1.00  0.00     0.022 A 
ENDBRANCH  22  25
ENDBRANCH  14  22
ENDBRANCH  11  13
ENDBRANCH   8  11
ENDBRANCH   6   7
ENDBRANCH   3   6
ENDBRANCH   1   2
BRANCH   1  32
ATOM     32  C   UNL A   1      35.587  29.335  27.234  1.00  0.00     0.023 C 
BRANCH  32  33
ATOM     33  C   UNL A   1      35.512  30.221  28.477  1.00  0.00     0.023 C 
BRANCH  33  34
ATOM     34  C   UNL A   1      35.874  31.678  28.236  1.00  0.00     0.116 C 
BRANCH  34  35
ATOM     35  N   UNL A   1      34.901  32.632  28.751  1.00  0.00    -0.352 N 
ATOM     36  C   UNL A   1      34.927  33.392  29.911  1.00  0.00     0.251 C 
ATOM     37  H   UNL A   1      34.101  32.756  28.191  1.00  0.00     0.163 HD
ATOM     38  O   UNL A   1      33.936  34.031  30.250  1.00  0.00    -0.269 OA
BRANCH  36  39
ATOM     39  C   UNL A   1      36.211  33.600  30.626  1.00  0.00     0.039 A 
ATOM     40  C   UNL A   1      37.247  34.179  29.878  1.00  0.00     0.014 A 
ATOM     41  C   UNL A   1      36.495  32.884  31.778  1.00  0.00     0.014 A 
ATOM     42  C   UNL A   1      38.545  33.737  30.075  1.00  0.00     0.010 A 
ATOM     43  C   UNL A   1      37.737  32.316  31.871  1.00  0.00     0.010 A 
ATOM     44  C   UNL A   1      38.732  32.688  30.962  1.00  0.00    -0.014 A 
BRANCH  44  45
ATOM     45  C   UNL A   1      39.945  31.912  31.071  1.00  0.00     0.031 A 
ATOM     46  C   UNL A   1      39.991  30.642  30.341  1.00  0.00     0.074 A 
ATOM     47  C   UNL A   1      41.028  32.487  31.636  1.00  0.00     0.049 A 
ATOM     48  N   UNL A   1      40.905  29.757  30.489  1.00  0.00    -0.248 NA
ATOM     49  C   UNL A   1      38.953  30.248  29.395  1.00  0.00     0.031 C 
ATOM     50  C   UNL A   1      42.427  32.082  31.546  1.00  0.00     0.029 A 
ATOM     51  N   UNL A   1      41.028  33.495  32.613  1.00  0.00    -0.354 N 
ATOM     52  C   UNL A   1      40.757  28.833  29.480  1.00  0.00     0.074 A 
ATOM     53  C   UNL A   1      39.473  29.125  28.895  1.00  0.00     0.031 C 
ATOM     54  C   UNL A   1      43.087  32.574  32.610  1.00  0.00     0.029 A 
ATOM     55  C   UNL A   1      42.087  33.151  33.491  1.00  0.00     0.049 A 
ATOM     56  H   UNL A   1      40.425  34.270  32.676  1.00  0.00     0.167 HD
ATOM     57  C   UNL A   1      41.823  28.029  29.206  1.00  0.00     0.037 A 
ATOM     58  C   UNL A   1      41.797  32.703  34.752  1.00  0.00     0.037 A 
ATOM     59  C   UNL A   1      42.861  28.222  30.226  1.00  0.00     0.049 A 
ATOM     60  C   UNL A   1      42.214  31.261  35.000  1.00  0.00     0.074 A 
ATOM     61  C   UNL A   1      44.032  28.959  30.298  1.00  0.00     0.029 A 
ATOM     62  N   UNL A   1      42.546  27.893  31.532  1.00  0.00    -0.354 N 
ATOM     63  N   UNL A   1      42.628  30.440  34.071  1.00  0.00    -0.248 NA
ATOM     64  C   UNL A   1      42.115  30.612  36.304  1.00  0.00     0.031 C 
ATOM     65  C   UNL A   1      44.400  29.072  31.676  1.00  0.00     0.029 A 
ATOM     66  C   UNL A   1      43.470  28.380  32.432  1.00  0.00     0.049 A 
ATOM     67  H   UNL A   1      41.753  27.369  31.789  1.00  0.00     0.167 HD
ATOM     68  C   UNL A   1      42.828  29.193  34.604  1.00  0.00     0.074 A 
ATOM     69  C   UNL A   1      42.461  29.348  36.002  1.00  0.00     0.031 C 
ATOM     70  C   UNL A   1      43.251  28.129  33.850  1.00  0.00     0.037 A 
BRANCH  57  71
ATOM     71  C   UNL A   1      42.038  27.233  27.936  1.00  0.00     0.064 A 
ATOM     72  C   UNL A   1      42.160  25.827  28.006  1.00  0.00     0.173 A 
ATOM     73  C   UNL A   1      42.202  27.761  26.639  1.00  0.00     0.173 A 
ATOM     74  F   UNL A   1      41.959  25.164  29.153  1.00  0.00    -0.203 F 
ATOM     75  C   UNL A   1      42.499  25.040  26.901  1.00  0.00     0.198 A 
ATOM     76  C   UNL A   1      42.566  26.979  25.539  1.00  0.00     0.198 A 
ATOM     77  F   UNL A   1      41.978  29.044  26.357  1.00  0.00    -0.203 F 
ATOM     78  F   UNL A   1      42.618  23.712  27.043  1.00  0.00    -0.200 F 
ATOM     79  C   UNL A   1      42.725  25.619  25.670  1.00  0.00     0.200 A 
ATOM     80  F   UNL A   1      42.757  27.563  24.346  1.00  0.00    -0.200 F 
ATOM     81  F   UNL A   1      43.073  24.871  24.615  1.00  0.00    -0.200 F 
ENDBRANCH  57  71
BRANCH  58  82
ATOM     82  C   UNL A   1      40.563  33.359  35.296  1.00  0.00     0.064 A 
ATOM     83  C   UNL A   1      39.378  32.590  35.353  1.00  0.00     0.173 A 
ATOM     84  C   UNL A   1      40.639  34.477  36.134  1.00  0.00     0.173 A 
ATOM     85  F   UNL A   1      39.249  31.508  34.568  1.00  0.00    -0.203 F 
ATOM     86  C   UNL A   1      38.412  32.812  36.331  1.00  0.00     0.198 A 
ATOM     87  C   UNL A   1      39.643  34.725  37.083  1.00  0.00     0.198 A 
ATOM     88  F   UNL A   1      41.730  35.256  36.134  1.00  0.00    -0.203 F 
ATOM     89  F   UNL A   1      37.400  31.944  36.481  1.00  0.00    -0.200 F 
ATOM     90  C   UNL A   1      38.563  33.864  37.216  1.00  0.00     0.200 A 
ATOM     91  F   UNL A   1      39.795  35.733  37.953  1.00  0.00    -0.200 F 
ATOM     92  F   UNL A   1      37.704  34.016  38.233  1.00  0.00    -0.200 F 
ENDBRANCH  58  82
BRANCH  70  93
ATOM     93  C   UNL A   1      43.449  26.725  34.383  1.00  0.00     0.064 A 
ATOM     94  C   UNL A   1      42.386  25.902  34.783  1.00  0.00     0.173 A 
ATOM     95  C   UNL A   1      44.741  26.176  34.584  1.00  0.00     0.173 A 
ATOM     96  F   UNL A   1      41.127  26.360  34.796  1.00  0.00    -0.203 F 
ATOM     97  C   UNL A   1      42.591  24.590  35.219  1.00  0.00     0.198 A 
ATOM     98  C   UNL A   1      44.947  24.890  35.078  1.00  0.00     0.198 A 
ATOM     99  F   UNL A   1      45.861  26.848  34.292  1.00  0.00    -0.203 F 
ATOM    100  F   UNL A   1      41.537  23.815  35.506  1.00  0.00    -0.200 F 
ATOM    101  C   UNL A   1      43.870  24.083  35.363  1.00  0.00     0.200 A 
ATOM    102  F   UNL A   1      46.197  24.442  35.258  1.00  0.00    -0.200 F 
ATOM    103  F   UNL A   1      44.065  22.827  35.783  1.00  0.00    -0.200 F 
ENDBRANCH  70  93
ENDBRANCH  44  45
ENDBRANCH  36  39
ENDBRANCH  34  35
ENDBRANCH  33  34
ENDBRANCH  32  33
ENDBRANCH   1  32
TORSDOF 16
ENDMDL
