MODEL 1
REMARK VINA RESULT:     -13.3      0.000      0.000
REMARK SMILES CCC[NH+]1CCN(c2cc(C(=O)NCCCCNC(=O)c3ccc(-c4c5nc(c(-c6c(F)c(F)c(F)c(F)c6F)c6ccc([nH]6)c(-c6c(F)c(F)c(F)c(F)c6F)c6nc(c(-c7c(F)c(F)c(F)c(F)c7F)c7ccc4[nH]7)C=C6)C=C5)cc3)c3cc(NC(=O)c4ccc(F)cc4)ccc3n2)CC1
REMARK SMILES IDX 15 1 14 2 13 3 11 4 12 5 10 7 8 8 9 9 100 10 99 11 84 12
REMARK SMILES IDX 98 13 85 14 97 15 86 16 7 17 4 18 5 19 102 20 6 22 101 23
REMARK SMILES IDX 3 24 2 25 1 26 87 27 88 28 89 30 90 31 91 32 96 33 92 34
REMARK SMILES IDX 95 35 93 36 94 37 16 38 17 39 18 40 19 41 20 43 21 44 22 45
REMARK SMILES IDX 83 46 23 47 82 48 24 49 25 50 26 51 76 52 27 53 81 54 75 55
REMARK SMILES IDX 77 56 28 57 80 58 74 59 73 60 29 62 61 63 41 64 60 65 42 66
REMARK SMILES IDX 45 67 59 68 78 69 43 70 44 71 58 73 79 74 46 75 30 76 31 77
REMARK SMILES IDX 39 78 32 79 33 80 37 81 40 82 34 83 35 84 38 85 36 86 62 87
REMARK SMILES IDX 63 88 71 89 64 90 65 91 69 92 72 93 66 94 67 95 70 96 68 97
REMARK SMILES IDX 47 98 48 99 56 100 49 101 50 102 54 103 57 104 51 105 52 106
REMARK SMILES IDX 55 107 53 108
REMARK H PARENT 13 6 4 21 87 29 18 42 77 61 45 72
REMARK Flexibility Score: inf
ROOT
ATOM      1  C   UNL A   1      38.619  23.226  26.277  1.00  0.00     0.023 C 
ENDROOT
BRANCH   1   2
ATOM      2  C   UNL A   1      37.226  23.580  25.758  1.00  0.00     0.116 C 
BRANCH   2   3
ATOM      3  N   UNL A   1      37.040  23.527  24.313  1.00  0.00    -0.352 N 
ATOM      4  C   UNL A   1      35.992  23.096  23.513  1.00  0.00     0.252 C 
ATOM      5  O   UNL A   1      36.139  23.221  22.295  1.00  0.00    -0.269 OA
ATOM      6  H   UNL A   1      37.813  23.862  23.803  1.00  0.00     0.163 HD
BRANCH   4   7
ATOM      7  C   UNL A   1      34.719  22.457  23.997  1.00  0.00     0.052 A 
ATOM      8  C   UNL A   1      33.672  20.417  24.782  1.00  0.00     0.130 A 
ATOM      9  C   UNL A   1      34.815  21.114  24.409  1.00  0.00     0.061 A 
ATOM     10  N   UNL A   1      32.492  21.056  24.897  1.00  0.00    -0.231 NA
ATOM     11  C   UNL A   1      32.368  22.316  24.482  1.00  0.00     0.074 A 
ATOM     12  C   UNL A   1      33.433  23.028  23.921  1.00  0.00     0.015 A 
ATOM     13  C   UNL A   1      31.113  22.909  24.549  1.00  0.00     0.031 A 
ATOM     14  C   UNL A   1      33.121  24.215  23.239  1.00  0.00     0.037 A 
ATOM     15  C   UNL A   1      30.848  24.142  23.946  1.00  0.00     0.028 A 
ATOM     16  C   UNL A   1      31.842  24.762  23.203  1.00  0.00     0.042 A 
BRANCH   8  17
ATOM     17  N   UNL A   1      33.653  19.060  24.972  1.00  0.00    -0.345 N 
ATOM     18  N   UNL A   1      32.921  16.250  24.501  1.00  0.00    -0.332 N 
ATOM     19  C   UNL A   1      32.097  17.170  25.336  1.00  0.00     0.284 C 
ATOM     20  C   UNL A   1      33.630  17.073  23.499  1.00  0.00     0.284 C 
ATOM     21  H   UNL A   1      32.352  15.576  23.990  1.00  0.00     0.348 HD
ATOM     22  C   UNL A   1      32.849  18.375  25.978  1.00  0.00     0.179 C 
ATOM     23  C   UNL A   1      34.473  18.216  24.093  1.00  0.00     0.179 C 
BRANCH  18  24
ATOM     24  C   UNL A   1      33.785  15.415  25.352  1.00  0.00     0.262 C 
BRANCH  24  25
ATOM     25  C   UNL A   1      35.276  15.338  24.977  1.00  0.00     0.058 C 
ATOM     26  C   UNL A   1      36.203  16.046  25.959  1.00  0.00     0.010 C 
ENDBRANCH  24  25
ENDBRANCH  18  24
ENDBRANCH   8  17
BRANCH  16  27
ATOM     27  N   UNL A   1      31.513  25.907  22.459  1.00  0.00    -0.322 N 
ATOM     28  C   UNL A   1      31.472  27.243  22.806  1.00  0.00     0.255 C 
ATOM     29  H   UNL A   1      31.268  25.724  21.523  1.00  0.00     0.170 HD
ATOM     30  O   UNL A   1      30.949  28.061  22.053  1.00  0.00    -0.269 OA
BRANCH  28  31
ATOM     31  C   UNL A   1      32.066  27.737  24.069  1.00  0.00     0.040 A 
ATOM     32  C   UNL A   1      31.305  27.619  25.236  1.00  0.00     0.017 A 
ATOM     33  C   UNL A   1      33.377  28.228  24.136  1.00  0.00     0.017 A 
ATOM     34  C   UNL A   1      31.876  27.905  26.477  1.00  0.00     0.040 A 
ATOM     35  C   UNL A   1      33.951  28.497  25.381  1.00  0.00     0.040 A 
ATOM     36  C   UNL A   1      33.201  28.321  26.540  1.00  0.00     0.123 A 
ATOM     37  F   UNL A   1      33.760  28.544  27.735  1.00  0.00    -0.207 F 
ENDBRANCH  28  31
ENDBRANCH  16  27
ENDBRANCH   4   7
ENDBRANCH   2   3
ENDBRANCH   1   2
BRANCH   1  38
ATOM     38  C   UNL A   1      39.324  21.981  25.720  1.00  0.00     0.023 C 
BRANCH  38  39
ATOM     39  C   UNL A   1      39.345  20.670  26.519  1.00  0.00     0.116 C 
BRANCH  39  40
ATOM     40  N   UNL A   1      40.203  19.609  26.039  1.00  0.00    -0.352 N 
ATOM     41  C   UNL A   1      41.593  19.568  26.027  1.00  0.00     0.251 C 
ATOM     42  H   UNL A   1      39.745  18.817  25.675  1.00  0.00     0.163 HD
ATOM     43  O   UNL A   1      42.175  18.602  25.566  1.00  0.00    -0.269 OA
BRANCH  41  44
ATOM     44  C   UNL A   1      42.371  20.741  26.505  1.00  0.00     0.039 A 
ATOM     45  C   UNL A   1      43.031  21.522  25.553  1.00  0.00     0.014 A 
ATOM     46  C   UNL A   1      42.419  21.106  27.852  1.00  0.00     0.014 A 
ATOM     47  C   UNL A   1      43.618  22.734  25.932  1.00  0.00     0.010 A 
ATOM     48  C   UNL A   1      42.972  22.332  28.229  1.00  0.00     0.010 A 
ATOM     49  C   UNL A   1      43.530  23.180  27.262  1.00  0.00    -0.014 A 
BRANCH  49  50
ATOM     50  C   UNL A   1      43.864  24.585  27.608  1.00  0.00     0.031 A 
ATOM     51  C   UNL A   1      45.282  25.063  27.704  1.00  0.00     0.074 A 
ATOM     52  C   UNL A   1      42.853  25.424  27.912  1.00  0.00     0.049 A 
ATOM     53  N   UNL A   1      45.731  26.260  27.991  1.00  0.00    -0.248 NA
ATOM     54  C   UNL A   1      46.335  24.066  27.465  1.00  0.00     0.031 C 
ATOM     55  C   UNL A   1      41.435  25.056  27.933  1.00  0.00     0.029 A 
ATOM     56  N   UNL A   1      42.854  26.749  28.268  1.00  0.00    -0.354 N 
ATOM     57  C   UNL A   1      47.115  26.165  27.955  1.00  0.00     0.074 A 
ATOM     58  C   UNL A   1      47.434  24.780  27.672  1.00  0.00     0.031 C 
ATOM     59  C   UNL A   1      40.704  26.133  28.258  1.00  0.00     0.029 A 
ATOM     60  C   UNL A   1      41.600  27.260  28.497  1.00  0.00     0.049 A 
ATOM     61  H   UNL A   1      43.678  27.284  28.352  1.00  0.00     0.167 HD
ATOM     62  C   UNL A   1      48.034  27.150  28.122  1.00  0.00     0.037 A 
ATOM     63  C   UNL A   1      41.211  28.498  28.857  1.00  0.00     0.037 A 
ATOM     64  C   UNL A   1      47.712  28.524  28.414  1.00  0.00     0.049 A 
ATOM     65  C   UNL A   1      42.249  29.570  29.030  1.00  0.00     0.074 A 
ATOM     66  C   UNL A   1      48.571  29.601  28.564  1.00  0.00     0.029 A 
ATOM     67  N   UNL A   1      46.428  29.012  28.610  1.00  0.00    -0.354 N 
ATOM     68  N   UNL A   1      43.551  29.488  28.906  1.00  0.00    -0.248 NA
ATOM     69  C   UNL A   1      41.762  30.912  29.381  1.00  0.00     0.031 C 
ATOM     70  C   UNL A   1      47.811  30.729  28.889  1.00  0.00     0.029 A 
ATOM     71  C   UNL A   1      46.473  30.368  28.896  1.00  0.00     0.049 A 
ATOM     72  H   UNL A   1      45.605  28.474  28.555  1.00  0.00     0.167 HD
ATOM     73  C   UNL A   1      44.038  30.766  29.139  1.00  0.00     0.074 A 
ATOM     74  C   UNL A   1      42.890  31.610  29.394  1.00  0.00     0.031 C 
ATOM     75  C   UNL A   1      45.322  31.198  29.145  1.00  0.00     0.037 A 
BRANCH  62  76
ATOM     76  C   UNL A   1      49.481  26.776  27.980  1.00  0.00     0.064 A 
ATOM     77  C   UNL A   1      50.099  26.718  26.721  1.00  0.00     0.173 A 
ATOM     78  C   UNL A   1      50.272  26.516  29.110  1.00  0.00     0.173 A 
ATOM     79  F   UNL A   1      49.387  26.954  25.609  1.00  0.00    -0.203 F 
ATOM     80  C   UNL A   1      51.446  26.386  26.597  1.00  0.00     0.198 A 
ATOM     81  C   UNL A   1      51.625  26.211  28.985  1.00  0.00     0.198 A 
ATOM     82  F   UNL A   1      49.734  26.570  30.338  1.00  0.00    -0.203 F 
ATOM     83  F   UNL A   1      52.002  26.295  25.382  1.00  0.00    -0.200 F 
ATOM     84  C   UNL A   1      52.208  26.138  27.728  1.00  0.00     0.200 A 
ATOM     85  F   UNL A   1      52.365  25.987  30.079  1.00  0.00    -0.200 F 
ATOM     86  F   UNL A   1      53.505  25.824  27.608  1.00  0.00    -0.200 F 
ENDBRANCH  62  76
BRANCH  63  87
ATOM     87  C   UNL A   1      39.766  28.793  29.046  1.00  0.00     0.064 A 
ATOM     88  C   UNL A   1      39.161  28.653  30.303  1.00  0.00     0.173 A 
ATOM     89  C   UNL A   1      38.965  29.223  27.979  1.00  0.00     0.173 A 
ATOM     90  F   UNL A   1      39.882  28.228  31.350  1.00  0.00    -0.203 F 
ATOM     91  C   UNL A   1      37.803  28.911  30.479  1.00  0.00     0.198 A 
ATOM     92  C   UNL A   1      37.614  29.508  28.163  1.00  0.00     0.198 A 
ATOM     93  F   UNL A   1      39.499  29.381  26.759  1.00  0.00    -0.203 F 
ATOM     94  F   UNL A   1      37.239  28.728  31.681  1.00  0.00    -0.200 F 
ATOM     95  C   UNL A   1      37.032  29.345  29.411  1.00  0.00     0.200 A 
ATOM     96  F   UNL A   1      36.877  29.943  27.132  1.00  0.00    -0.200 F 
ATOM     97  F   UNL A   1      35.728  29.598  29.583  1.00  0.00    -0.200 F 
ENDBRANCH  63  87
BRANCH  75  98
ATOM     98  C   UNL A   1      45.552  32.657  29.412  1.00  0.00     0.064 A 
ATOM     99  C   UNL A   1      45.521  33.606  28.380  1.00  0.00     0.173 A 
ATOM    100  C   UNL A   1      45.772  33.115  30.720  1.00  0.00     0.173 A 
ATOM    101  F   UNL A   1      45.332  33.216  27.110  1.00  0.00    -0.203 F 
ATOM    102  C   UNL A   1      45.725  34.958  28.644  1.00  0.00     0.198 A 
ATOM    103  C   UNL A   1      45.948  34.470  30.984  1.00  0.00     0.198 A 
ATOM    104  F   UNL A   1      45.807  32.248  31.743  1.00  0.00    -0.203 F 
ATOM    105  F   UNL A   1      45.737  35.842  27.637  1.00  0.00    -0.200 F 
ATOM    106  C   UNL A   1      45.931  35.390  29.946  1.00  0.00     0.200 A 
ATOM    107  F   UNL A   1      46.137  34.888  32.244  1.00  0.00    -0.200 F 
ATOM    108  F   UNL A   1      46.121  36.692  30.199  1.00  0.00    -0.200 F 
ENDBRANCH  75  98
ENDBRANCH  49  50
ENDBRANCH  41  44
ENDBRANCH  39  40
ENDBRANCH  38  39
ENDBRANCH   1  38
TORSDOF 16
ENDMDL
MODEL 2
REMARK VINA RESULT:     -13.1      0.818      6.931
REMARK SMILES CCC[NH+]1CCN(c2cc(C(=O)NCCCCNC(=O)c3ccc(-c4c5nc(c(-c6c(F)c(F)c(F)c(F)c6F)c6ccc([nH]6)c(-c6c(F)c(F)c(F)c(F)c6F)c6nc(c(-c7c(F)c(F)c(F)c(F)c7F)c7ccc4[nH]7)C=C6)C=C5)cc3)c3cc(NC(=O)c4ccc(F)cc4)ccc3n2)CC1
REMARK SMILES IDX 15 1 14 2 13 3 11 4 12 5 10 7 8 8 9 9 100 10 99 11 84 12
REMARK SMILES IDX 98 13 85 14 97 15 86 16 7 17 4 18 5 19 102 20 6 22 101 23
REMARK SMILES IDX 3 24 2 25 1 26 87 27 88 28 89 30 90 31 91 32 96 33 92 34
REMARK SMILES IDX 95 35 93 36 94 37 16 38 17 39 18 40 19 41 20 43 21 44 22 45
REMARK SMILES IDX 83 46 23 47 82 48 24 49 25 50 26 51 76 52 27 53 81 54 75 55
REMARK SMILES IDX 77 56 28 57 80 58 74 59 73 60 29 62 61 63 41 64 60 65 42 66
REMARK SMILES IDX 45 67 59 68 78 69 43 70 44 71 58 73 79 74 46 75 30 76 31 77
REMARK SMILES IDX 39 78 32 79 33 80 37 81 40 82 34 83 35 84 38 85 36 86 62 87
REMARK SMILES IDX 63 88 71 89 64 90 65 91 69 92 72 93 66 94 67 95 70 96 68 97
REMARK SMILES IDX 47 98 48 99 56 100 49 101 50 102 54 103 57 104 51 105 52 106
REMARK SMILES IDX 55 107 53 108
REMARK H PARENT 13 6 4 21 87 29 18 42 77 61 45 72
REMARK Flexibility Score: inf
ROOT
ATOM      1  C   UNL A   1      38.903  23.080  26.379  1.00  0.00     0.023 C 
ENDROOT
BRANCH   1   2
ATOM      2  C   UNL A   1      37.553  23.573  25.859  1.00  0.00     0.116 C 
BRANCH   2   3
ATOM      3  N   UNL A   1      37.347  23.495  24.418  1.00  0.00    -0.352 N 
ATOM      4  C   UNL A   1      36.273  23.087  23.641  1.00  0.00     0.252 C 
ATOM      5  O   UNL A   1      36.408  23.179  22.419  1.00  0.00    -0.269 OA
ATOM      6  H   UNL A   1      38.125  23.789  23.891  1.00  0.00     0.163 HD
BRANCH   4   7
ATOM      7  C   UNL A   1      34.983  22.508  24.155  1.00  0.00     0.052 A 
ATOM      8  C   UNL A   1      33.837  20.503  24.890  1.00  0.00     0.130 A 
ATOM      9  C   UNL A   1      35.006  21.142  24.496  1.00  0.00     0.061 A 
ATOM     10  N   UNL A   1      32.710  21.210  25.094  1.00  0.00    -0.231 NA
ATOM     11  C   UNL A   1      32.652  22.495  24.748  1.00  0.00     0.074 A 
ATOM     12  C   UNL A   1      33.736  23.165  24.170  1.00  0.00     0.015 A 
ATOM     13  C   UNL A   1      31.445  23.165  24.905  1.00  0.00     0.031 A 
ATOM     14  C   UNL A   1      33.474  24.403  23.564  1.00  0.00     0.037 A 
ATOM     15  C   UNL A   1      31.236  24.442  24.377  1.00  0.00     0.028 A 
ATOM     16  C   UNL A   1      32.235  25.034  23.617  1.00  0.00     0.042 A 
BRANCH   8  17
ATOM     17  N   UNL A   1      33.736  19.142  25.015  1.00  0.00    -0.345 N 
ATOM     18  N   UNL A   1      32.910  16.396  24.354  1.00  0.00    -0.332 N 
ATOM     19  C   UNL A   1      32.062  17.323  25.158  1.00  0.00     0.284 C 
ATOM     20  C   UNL A   1      33.742  17.223  23.454  1.00  0.00     0.284 C 
ATOM     21  H   UNL A   1      32.355  15.775  23.766  1.00  0.00     0.348 HD
ATOM     22  C   UNL A   1      32.815  18.458  25.917  1.00  0.00     0.179 C 
ATOM     23  C   UNL A   1      34.586  18.293  24.170  1.00  0.00     0.179 C 
BRANCH  18  24
ATOM     24  C   UNL A   1      33.655  15.482  25.235  1.00  0.00     0.262 C 
BRANCH  24  25
ATOM     25  C   UNL A   1      35.140  15.247  24.907  1.00  0.00     0.058 C 
ATOM     26  C   UNL A   1      36.107  15.942  25.860  1.00  0.00     0.010 C 
ENDBRANCH  24  25
ENDBRANCH  18  24
ENDBRANCH   8  17
BRANCH  16  27
ATOM     27  N   UNL A   1      31.950  26.234  22.946  1.00  0.00    -0.322 N 
ATOM     28  C   UNL A   1      31.893  27.540  23.393  1.00  0.00     0.255 C 
ATOM     29  H   UNL A   1      31.756  26.126  21.988  1.00  0.00     0.170 HD
ATOM     30  O   UNL A   1      31.414  28.417  22.678  1.00  0.00    -0.269 OA
BRANCH  28  31
ATOM     31  C   UNL A   1      32.418  27.931  24.721  1.00  0.00     0.040 A 
ATOM     32  C   UNL A   1      33.787  28.196  24.827  1.00  0.00     0.017 A 
ATOM     33  C   UNL A   1      31.580  28.124  25.828  1.00  0.00     0.017 A 
ATOM     34  C   UNL A   1      34.307  28.735  26.005  1.00  0.00     0.040 A 
ATOM     35  C   UNL A   1      32.101  28.679  27.000  1.00  0.00     0.040 A 
ATOM     36  C   UNL A   1      33.455  28.991  27.073  1.00  0.00     0.123 A 
ATOM     37  F   UNL A   1      33.949  29.555  28.182  1.00  0.00    -0.207 F 
ENDBRANCH  28  31
ENDBRANCH  16  27
ENDBRANCH   4   7
ENDBRANCH   2   3
ENDBRANCH   1   2
BRANCH   1  38
ATOM     38  C   UNL A   1      39.509  21.805  25.776  1.00  0.00     0.023 C 
BRANCH  38  39
ATOM     39  C   UNL A   1      39.432  20.470  26.531  1.00  0.00     0.116 C 
BRANCH  39  40
ATOM     40  N   UNL A   1      40.296  19.399  26.083  1.00  0.00    -0.352 N 
ATOM     41  C   UNL A   1      41.687  19.372  26.057  1.00  0.00     0.251 C 
ATOM     42  H   UNL A   1      39.843  18.588  25.758  1.00  0.00     0.163 HD
ATOM     43  O   UNL A   1      42.274  18.395  25.628  1.00  0.00    -0.269 OA
BRANCH  41  44
ATOM     44  C   UNL A   1      42.457  20.572  26.478  1.00  0.00     0.039 A 
ATOM     45  C   UNL A   1      43.195  21.251  25.505  1.00  0.00     0.014 A 
ATOM     46  C   UNL A   1      42.424  21.059  27.786  1.00  0.00     0.014 A 
ATOM     47  C   UNL A   1      43.783  22.483  25.812  1.00  0.00     0.010 A 
ATOM     48  C   UNL A   1      42.977  22.305  28.086  1.00  0.00     0.010 A 
ATOM     49  C   UNL A   1      43.617  23.051  27.086  1.00  0.00    -0.014 A 
BRANCH  49  50
ATOM     50  C   UNL A   1      43.959  24.477  27.325  1.00  0.00     0.031 A 
ATOM     51  C   UNL A   1      42.932  25.477  27.763  1.00  0.00     0.074 A 
ATOM     52  C   UNL A   1      45.220  24.881  27.067  1.00  0.00     0.049 A 
ATOM     53  N   UNL A   1      43.080  26.754  28.016  1.00  0.00    -0.248 NA
ATOM     54  C   UNL A   1      41.555  24.988  27.920  1.00  0.00     0.031 C 
ATOM     55  C   UNL A   1      46.291  24.018  26.560  1.00  0.00     0.029 A 
ATOM     56  N   UNL A   1      45.817  26.111  27.184  1.00  0.00    -0.354 N 
ATOM     57  C   UNL A   1      41.823  27.219  28.374  1.00  0.00     0.074 A 
ATOM     58  C   UNL A   1      40.912  26.100  28.253  1.00  0.00     0.031 C 
ATOM     59  C   UNL A   1      47.415  24.738  26.433  1.00  0.00     0.029 A 
ATOM     60  C   UNL A   1      47.142  26.118  26.822  1.00  0.00     0.049 A 
ATOM     61  H   UNL A   1      45.339  26.914  27.498  1.00  0.00     0.167 HD
ATOM     62  C   UNL A   1      41.468  28.462  28.786  1.00  0.00     0.037 A 
ATOM     63  C   UNL A   1      48.039  27.121  26.806  1.00  0.00     0.037 A 
ATOM     64  C   UNL A   1      42.376  29.576  28.894  1.00  0.00     0.049 A 
ATOM     65  C   UNL A   1      47.621  28.486  27.272  1.00  0.00     0.074 A 
ATOM     66  C   UNL A   1      42.119  30.863  29.337  1.00  0.00     0.029 A 
ATOM     67  N   UNL A   1      43.719  29.539  28.547  1.00  0.00    -0.354 N 
ATOM     68  N   UNL A   1      46.448  28.891  27.694  1.00  0.00    -0.248 NA
ATOM     69  C   UNL A   1      48.654  29.532  27.273  1.00  0.00     0.031 C 
ATOM     70  C   UNL A   1      43.294  31.614  29.221  1.00  0.00     0.029 A 
ATOM     71  C   UNL A   1      44.298  30.783  28.749  1.00  0.00     0.049 A 
ATOM     72  H   UNL A   1      44.192  28.746  28.206  1.00  0.00     0.167 HD
ATOM     73  C   UNL A   1      46.605  30.228  28.032  1.00  0.00     0.074 A 
ATOM     74  C   UNL A   1      47.992  30.561  27.785  1.00  0.00     0.031 C 
ATOM     75  C   UNL A   1      45.681  31.101  28.501  1.00  0.00     0.037 A 
BRANCH  62  76
ATOM     76  C   UNL A   1      40.032  28.681  29.165  1.00  0.00     0.064 A 
ATOM     77  C   UNL A   1      39.577  28.443  30.471  1.00  0.00     0.173 A 
ATOM     78  C   UNL A   1      39.108  29.174  28.230  1.00  0.00     0.173 A 
ATOM     79  F   UNL A   1      40.419  27.967  31.401  1.00  0.00    -0.203 F 
ATOM     80  C   UNL A   1      38.247  28.662  30.820  1.00  0.00     0.198 A 
ATOM     81  C   UNL A   1      37.785  29.418  28.589  1.00  0.00     0.198 A 
ATOM     82  F   UNL A   1      39.492  29.430  26.971  1.00  0.00    -0.203 F 
ATOM     83  F   UNL A   1      37.828  28.386  32.062  1.00  0.00    -0.200 F 
ATOM     84  C   UNL A   1      37.354  29.154  29.881  1.00  0.00     0.200 A 
ATOM     85  F   UNL A   1      36.925  29.909  27.685  1.00  0.00    -0.200 F 
ATOM     86  F   UNL A   1      36.075  29.370  30.220  1.00  0.00    -0.200 F 
ENDBRANCH  62  76
BRANCH  63  87
ATOM     87  C   UNL A   1      49.433  26.859  26.359  1.00  0.00     0.064 A 
ATOM     88  C   UNL A   1      50.404  26.399  27.260  1.00  0.00     0.173 A 
ATOM     89  C   UNL A   1      49.820  27.057  25.026  1.00  0.00     0.173 A 
ATOM     90  F   UNL A   1      50.086  26.210  28.548  1.00  0.00    -0.203 F 
ATOM     91  C   UNL A   1      51.715  26.170  26.847  1.00  0.00     0.198 A 
ATOM     92  C   UNL A   1      51.124  26.800  24.609  1.00  0.00     0.198 A 
ATOM     93  F   UNL A   1      48.925  27.487  24.124  1.00  0.00    -0.203 F 
ATOM     94  F   UNL A   1      52.635  25.773  27.738  1.00  0.00    -0.200 F 
ATOM     95  C   UNL A   1      52.073  26.364  25.522  1.00  0.00     0.200 A 
ATOM     96  F   UNL A   1      51.461  26.973  23.324  1.00  0.00    -0.200 F 
ATOM     97  F   UNL A   1      53.332  26.138  25.126  1.00  0.00    -0.200 F 
ENDBRANCH  63  87
BRANCH  75  98
ATOM     98  C   UNL A   1      46.147  32.495  28.803  1.00  0.00     0.064 A 
ATOM     99  C   UNL A   1      46.644  32.846  30.067  1.00  0.00     0.173 A 
ATOM    100  C   UNL A   1      46.128  33.483  27.806  1.00  0.00     0.173 A 
ATOM    101  F   UNL A   1      46.666  31.942  31.058  1.00  0.00    -0.203 F 
ATOM    102  C   UNL A   1      47.083  34.141  30.329  1.00  0.00     0.198 A 
ATOM    103  C   UNL A   1      46.593  34.769  28.063  1.00  0.00     0.198 A 
ATOM    104  F   UNL A   1      45.665  33.197  26.580  1.00  0.00    -0.203 F 
ATOM    105  F   UNL A   1      47.510  34.467  31.556  1.00  0.00    -0.200 F 
ATOM    106  C   UNL A   1      47.064  35.099  29.325  1.00  0.00     0.200 A 
ATOM    107  F   UNL A   1      46.584  35.691  27.091  1.00  0.00    -0.200 F 
ATOM    108  F   UNL A   1      47.493  36.344  29.577  1.00  0.00    -0.200 F 
ENDBRANCH  75  98
ENDBRANCH  49  50
ENDBRANCH  41  44
ENDBRANCH  39  40
ENDBRANCH  38  39
ENDBRANCH   1  38
TORSDOF 16
ENDMDL
MODEL 3
REMARK VINA RESULT:     -12.2      1.225      6.930
REMARK SMILES CCC[NH+]1CCN(c2cc(C(=O)NCCCCNC(=O)c3ccc(-c4c5nc(c(-c6c(F)c(F)c(F)c(F)c6F)c6ccc([nH]6)c(-c6c(F)c(F)c(F)c(F)c6F)c6nc(c(-c7c(F)c(F)c(F)c(F)c7F)c7ccc4[nH]7)C=C6)C=C5)cc3)c3cc(NC(=O)c4ccc(F)cc4)ccc3n2)CC1
REMARK SMILES IDX 15 1 14 2 13 3 11 4 12 5 10 7 8 8 9 9 100 10 99 11 84 12
REMARK SMILES IDX 98 13 85 14 97 15 86 16 7 17 4 18 5 19 102 20 6 22 101 23
REMARK SMILES IDX 3 24 2 25 1 26 87 27 88 28 89 30 90 31 91 32 96 33 92 34
REMARK SMILES IDX 95 35 93 36 94 37 16 38 17 39 18 40 19 41 20 43 21 44 22 45
REMARK SMILES IDX 83 46 23 47 82 48 24 49 25 50 26 51 76 52 27 53 81 54 75 55
REMARK SMILES IDX 77 56 28 57 80 58 74 59 73 60 29 62 61 63 41 64 60 65 42 66
REMARK SMILES IDX 45 67 59 68 78 69 43 70 44 71 58 73 79 74 46 75 30 76 31 77
REMARK SMILES IDX 39 78 32 79 33 80 37 81 40 82 34 83 35 84 38 85 36 86 62 87
REMARK SMILES IDX 63 88 71 89 64 90 65 91 69 92 72 93 66 94 67 95 70 96 68 97
REMARK SMILES IDX 47 98 48 99 56 100 49 101 50 102 54 103 57 104 51 105 52 106
REMARK SMILES IDX 55 107 53 108
REMARK H PARENT 13 6 4 21 87 29 18 42 77 61 45 72
REMARK Flexibility Score: inf
ROOT
ATOM      1  C   UNL A   1      37.169  21.661  24.957  1.00  0.00     0.023 C 
ENDROOT
BRANCH   1   2
ATOM      2  C   UNL A   1      37.056  22.993  24.217  1.00  0.00     0.116 C 
BRANCH   2   3
ATOM      3  N   UNL A   1      36.433  24.089  24.948  1.00  0.00    -0.352 N 
ATOM      4  C   UNL A   1      35.118  24.367  25.288  1.00  0.00     0.252 C 
ATOM      5  O   UNL A   1      34.923  25.383  25.959  1.00  0.00    -0.269 OA
ATOM      6  H   UNL A   1      37.073  24.768  25.262  1.00  0.00     0.163 HD
BRANCH   4   7
ATOM      7  C   UNL A   1      33.913  23.565  24.878  1.00  0.00     0.052 A 
ATOM      8  C   UNL A   1      32.987  21.344  24.587  1.00  0.00     0.130 A 
ATOM      9  C   UNL A   1      34.015  22.168  25.028  1.00  0.00     0.061 A 
ATOM     10  N   UNL A   1      31.828  21.874  24.153  1.00  0.00    -0.231 NA
ATOM     11  C   UNL A   1      31.718  23.189  23.970  1.00  0.00     0.074 A 
ATOM     12  C   UNL A   1      32.775  24.070  24.217  1.00  0.00     0.015 A 
ATOM     13  C   UNL A   1      30.529  23.682  23.448  1.00  0.00     0.031 A 
ATOM     14  C   UNL A   1      32.659  25.370  23.701  1.00  0.00     0.037 A 
ATOM     15  C   UNL A   1      30.403  25.010  23.029  1.00  0.00     0.028 A 
ATOM     16  C   UNL A   1      31.511  25.843  23.073  1.00  0.00     0.042 A 
BRANCH   8  17
ATOM     17  N   UNL A   1      33.111  19.983  24.491  1.00  0.00    -0.345 N 
ATOM     18  N   UNL A   1      32.277  17.190  24.092  1.00  0.00    -0.332 N 
ATOM     19  C   UNL A   1      32.189  17.877  25.412  1.00  0.00     0.284 C 
ATOM     20  C   UNL A   1      32.149  18.223  23.042  1.00  0.00     0.284 C 
ATOM     21  H   UNL A   1      31.518  16.522  23.952  1.00  0.00     0.348 HD
ATOM     22  C   UNL A   1      33.167  19.072  25.629  1.00  0.00     0.179 C 
ATOM     23  C   UNL A   1      33.165  19.374  23.155  1.00  0.00     0.179 C 
BRANCH  18  24
ATOM     24  C   UNL A   1      33.495  16.366  24.018  1.00  0.00     0.262 C 
BRANCH  24  25
ATOM     25  C   UNL A   1      33.786  15.436  25.210  1.00  0.00     0.058 C 
ATOM     26  C   UNL A   1      32.615  14.543  25.604  1.00  0.00     0.010 C 
ENDBRANCH  24  25
ENDBRANCH  18  24
ENDBRANCH   8  17
BRANCH  16  27
ATOM     27  N   UNL A   1      31.421  27.117  22.487  1.00  0.00    -0.322 N 
ATOM     28  C   UNL A   1      31.571  28.382  23.022  1.00  0.00     0.255 C 
ATOM     29  H   UNL A   1      31.213  27.107  21.526  1.00  0.00     0.170 HD
ATOM     30  O   UNL A   1      31.238  29.370  22.373  1.00  0.00    -0.269 OA
BRANCH  28  31
ATOM     31  C   UNL A   1      32.150  28.593  24.369  1.00  0.00     0.040 A 
ATOM     32  C   UNL A   1      33.532  28.441  24.513  1.00  0.00     0.017 A 
ATOM     33  C   UNL A   1      31.375  29.018  25.456  1.00  0.00     0.017 A 
ATOM     34  C   UNL A   1      34.154  28.796  25.712  1.00  0.00     0.040 A 
ATOM     35  C   UNL A   1      32.003  29.388  26.649  1.00  0.00     0.040 A 
ATOM     36  C   UNL A   1      33.386  29.286  26.761  1.00  0.00     0.123 A 
ATOM     37  F   UNL A   1      33.993  29.673  27.889  1.00  0.00    -0.207 F 
ENDBRANCH  28  31
ENDBRANCH  16  27
ENDBRANCH   4   7
ENDBRANCH   2   3
ENDBRANCH   1   2
BRANCH   1  38
ATOM     38  C   UNL A   1      38.436  20.814  24.772  1.00  0.00     0.023 C 
BRANCH  38  39
ATOM     39  C   UNL A   1      39.410  20.595  25.939  1.00  0.00     0.116 C 
BRANCH  39  40
ATOM     40  N   UNL A   1      40.221  19.398  25.917  1.00  0.00    -0.352 N 
ATOM     41  C   UNL A   1      41.576  19.273  26.206  1.00  0.00     0.251 C 
ATOM     42  H   UNL A   1      39.755  18.568  25.665  1.00  0.00     0.163 HD
ATOM     43  O   UNL A   1      42.124  18.189  26.121  1.00  0.00    -0.269 OA
BRANCH  41  44
ATOM     44  C   UNL A   1      42.373  20.481  26.542  1.00  0.00     0.039 A 
ATOM     45  C   UNL A   1      42.998  21.165  25.496  1.00  0.00     0.014 A 
ATOM     46  C   UNL A   1      42.474  20.970  27.846  1.00  0.00     0.014 A 
ATOM     47  C   UNL A   1      43.603  22.404  25.738  1.00  0.00     0.010 A 
ATOM     48  C   UNL A   1      43.043  22.223  28.084  1.00  0.00     0.010 A 
ATOM     49  C   UNL A   1      43.566  22.973  27.022  1.00  0.00    -0.014 A 
BRANCH  49  50
ATOM     50  C   UNL A   1      43.917  24.403  27.222  1.00  0.00     0.031 A 
ATOM     51  C   UNL A   1      42.898  25.420  27.639  1.00  0.00     0.074 A 
ATOM     52  C   UNL A   1      45.179  24.793  26.947  1.00  0.00     0.049 A 
ATOM     53  N   UNL A   1      43.054  26.702  27.857  1.00  0.00    -0.248 NA
ATOM     54  C   UNL A   1      41.519  24.942  27.816  1.00  0.00     0.031 C 
ATOM     55  C   UNL A   1      46.242  23.912  26.457  1.00  0.00     0.029 A 
ATOM     56  N   UNL A   1      45.782  26.023  27.028  1.00  0.00    -0.354 N 
ATOM     57  C   UNL A   1      41.801  27.183  28.210  1.00  0.00     0.074 A 
ATOM     58  C   UNL A   1      40.883  26.066  28.123  1.00  0.00     0.031 C 
ATOM     59  C   UNL A   1      47.370  24.622  26.305  1.00  0.00     0.029 A 
ATOM     60  C   UNL A   1      47.106  26.013  26.659  1.00  0.00     0.049 A 
ATOM     61  H   UNL A   1      45.311  26.836  27.323  1.00  0.00     0.167 HD
ATOM     62  C   UNL A   1      41.455  28.438  28.591  1.00  0.00     0.037 A 
ATOM     63  C   UNL A   1      48.008  27.010  26.612  1.00  0.00     0.037 A 
ATOM     64  C   UNL A   1      42.369  29.550  28.666  1.00  0.00     0.049 A 
ATOM     65  C   UNL A   1      47.599  28.390  27.045  1.00  0.00     0.074 A 
ATOM     66  C   UNL A   1      42.121  30.849  29.076  1.00  0.00     0.029 A 
ATOM     67  N   UNL A   1      43.710  29.496  28.312  1.00  0.00    -0.354 N 
ATOM     68  N   UNL A   1      46.431  28.812  27.462  1.00  0.00    -0.248 NA
ATOM     69  C   UNL A   1      48.638  29.429  27.013  1.00  0.00     0.031 C 
ATOM     70  C   UNL A   1      43.299  31.590  28.934  1.00  0.00     0.029 A 
ATOM     71  C   UNL A   1      44.296  30.742  28.478  1.00  0.00     0.049 A 
ATOM     72  H   UNL A   1      44.178  28.692  27.990  1.00  0.00     0.167 HD
ATOM     73  C   UNL A   1      46.597  30.156  27.764  1.00  0.00     0.074 A 
ATOM     74  C   UNL A   1      47.984  30.475  27.501  1.00  0.00     0.031 C 
ATOM     75  C   UNL A   1      45.680  31.046  28.216  1.00  0.00     0.037 A 
BRANCH  62  76
ATOM     76  C   UNL A   1      40.022  28.674  28.972  1.00  0.00     0.064 A 
ATOM     77  C   UNL A   1      39.080  29.114  28.029  1.00  0.00     0.173 A 
ATOM     78  C   UNL A   1      39.571  28.417  30.276  1.00  0.00     0.173 A 
ATOM     79  F   UNL A   1      39.460  29.378  26.769  1.00  0.00    -0.203 F 
ATOM     80  C   UNL A   1      37.749  29.316  28.384  1.00  0.00     0.198 A 
ATOM     81  C   UNL A   1      38.233  28.593  30.621  1.00  0.00     0.198 A 
ATOM     82  F   UNL A   1      40.426  27.983  31.213  1.00  0.00    -0.203 F 
ATOM     83  F   UNL A   1      36.878  29.778  27.476  1.00  0.00    -0.200 F 
ATOM     84  C   UNL A   1      37.326  29.051  29.677  1.00  0.00     0.200 A 
ATOM     85  F   UNL A   1      37.822  28.322  31.867  1.00  0.00    -0.200 F 
ATOM     86  F   UNL A   1      36.043  29.240  30.015  1.00  0.00    -0.200 F 
ENDBRANCH  62  76
BRANCH  63  87
ATOM     87  C   UNL A   1      49.398  26.729  26.165  1.00  0.00     0.064 A 
ATOM     88  C   UNL A   1      49.785  26.944  24.834  1.00  0.00     0.173 A 
ATOM     89  C   UNL A   1      50.366  26.245  27.056  1.00  0.00     0.173 A 
ATOM     90  F   UNL A   1      48.889  27.390  23.941  1.00  0.00    -0.203 F 
ATOM     91  C   UNL A   1      51.081  26.664  24.409  1.00  0.00     0.198 A 
ATOM     92  C   UNL A   1      51.669  25.993  26.636  1.00  0.00     0.198 A 
ATOM     93  F   UNL A   1      50.048  26.032  28.342  1.00  0.00    -0.203 F 
ATOM     94  F   UNL A   1      51.413  26.837  23.122  1.00  0.00    -0.200 F 
ATOM     95  C   UNL A   1      52.025  26.195  25.310  1.00  0.00     0.200 A 
ATOM     96  F   UNL A   1      52.582  25.556  27.514  1.00  0.00    -0.200 F 
ATOM     97  F   UNL A   1      53.272  25.931  24.901  1.00  0.00    -0.200 F 
ENDBRANCH  63  87
BRANCH  75  98
ATOM     98  C   UNL A   1      46.155  32.445  28.478  1.00  0.00     0.064 A 
ATOM     99  C   UNL A   1      46.096  33.438  27.490  1.00  0.00     0.173 A 
ATOM    100  C   UNL A   1      46.644  32.804  29.743  1.00  0.00     0.173 A 
ATOM    101  F   UNL A   1      45.654  33.140  26.259  1.00  0.00    -0.203 F 
ATOM    102  C   UNL A   1      46.531  34.735  27.751  1.00  0.00     0.198 A 
ATOM    103  C   UNL A   1      47.052  34.108  30.010  1.00  0.00     0.198 A 
ATOM    104  F   UNL A   1      46.718  31.892  30.724  1.00  0.00    -0.203 F 
ATOM    105  F   UNL A   1      46.509  35.657  26.779  1.00  0.00    -0.200 F 
ATOM    106  C   UNL A   1      47.001  35.071  29.013  1.00  0.00     0.200 A 
ATOM    107  F   UNL A   1      47.497  34.434  31.232  1.00  0.00    -0.200 F 
ATOM    108  F   UNL A   1      47.414  36.321  29.265  1.00  0.00    -0.200 F 
ENDBRANCH  75  98
ENDBRANCH  49  50
ENDBRANCH  41  44
ENDBRANCH  39  40
ENDBRANCH  38  39
ENDBRANCH   1  38
TORSDOF 16
ENDMDL
