MODEL 1
REMARK VINA RESULT:     -12.9      0.000      0.000
REMARK SMILES O=C(C[C@@H](C(=O)NCCCCNC(=O)c1ccc(-c2c3nc(c(-c4c(F)c(F)c(F)c(F)c4F)c4ccc([nH]4)c(-c4c(F)c(F)c(F)c(F)c4F)c4nc(c(-c5c(F)c(F)c(F)c(F)c5F)c5ccc2[nH]5)C=C4)C=C3)cc1)c1ccccc1)Nc1cc(C(F)(F)F)ccc1-n1cncn1
REMARK SMILES IDX 8 1 7 2 5 3 6 4 4 6 3 7 2 8 1 9 84 10 85 12 86 13 94 14
REMARK SMILES IDX 87 15 93 16 92 17 95 18 96 19 99 20 97 21 98 22 88 23 89 24
REMARK SMILES IDX 90 25 91 26 78 27 79 28 83 29 80 30 82 31 81 32 9 33 10 34
REMARK SMILES IDX 11 35 12 36 13 37 14 39 15 40 16 41 77 42 17 43 76 44 18 45
REMARK SMILES IDX 19 46 20 47 70 48 21 49 75 50 69 51 71 52 22 53 74 54 68 55
REMARK SMILES IDX 67 56 23 58 55 59 35 60 54 61 36 62 39 63 53 64 72 65 37 66
REMARK SMILES IDX 38 67 52 69 73 70 40 71 24 72 25 73 33 74 26 75 27 76 31 77
REMARK SMILES IDX 34 78 28 79 29 80 32 81 30 82 56 83 57 84 65 85 58 86 59 87
REMARK SMILES IDX 63 88 66 89 60 90 61 91 64 92 62 93 41 94 42 95 50 96 43 97
REMARK SMILES IDX 44 98 48 99 51 100 45 101 46 102 49 103 47 104
REMARK H PARENT 7 5 84 11 12 38 71 57 39 68
REMARK Flexibility Score: inf
ROOT
ATOM      1  C   UNL A   1      33.030  29.433  25.906  1.00  0.00     0.116 C 
ENDROOT
BRANCH   1   2
ATOM      2  N   UNL A   1      32.493  29.798  24.607  1.00  0.00    -0.356 N 
ATOM      3  C   UNL A   1      32.559  28.892  23.577  1.00  0.00     0.228 C 
ATOM      4  O   UNL A   1      33.526  28.904  22.816  1.00  0.00    -0.274 OA
ATOM      5  H   UNL A   1      32.088  30.683  24.466  1.00  0.00     0.163 HD
BRANCH   3   6
ATOM      6  C   UNL A   1      31.371  27.948  23.404  1.00  0.00     0.118 C 
BRANCH   6   7
ATOM      7  C   UNL A   1      31.811  26.842  22.424  1.00  0.00     0.118 C 
BRANCH   7   8
ATOM      8  C   UNL A   1      32.241  25.558  23.116  1.00  0.00     0.225 C 
ATOM      9  O   UNL A   1      32.147  24.469  22.559  1.00  0.00    -0.275 OA
ATOM     10  N   UNL A   1      32.741  25.738  24.398  1.00  0.00    -0.324 N 
ATOM     11  H   UNL A   1      32.577  26.603  24.839  1.00  0.00     0.170 HD
BRANCH  10  12
ATOM     12  C   UNL A   1      33.474  24.754  25.118  1.00  0.00     0.067 A 
ATOM     13  C   UNL A   1      34.763  24.469  24.657  1.00  0.00     0.041 A 
ATOM     14  C   UNL A   1      33.000  24.043  26.236  1.00  0.00     0.090 A 
ATOM     15  C   UNL A   1      35.618  23.586  25.344  1.00  0.00     0.058 A 
ATOM     16  C   UNL A   1      33.872  23.218  26.978  1.00  0.00     0.031 A 
ATOM     17  C   UNL A   1      35.175  22.993  26.530  1.00  0.00     0.015 A 
BRANCH  14  18
ATOM     18  N   UNL A   1      31.612  23.903  26.492  1.00  0.00    -0.219 N 
ATOM     19  C   UNL A   1      30.984  22.820  27.067  1.00  0.00     0.226 A 
ATOM     20  N   UNL A   1      30.739  24.941  26.450  1.00  0.00    -0.155 NA
ATOM     21  N   UNL A   1      29.713  23.071  27.270  1.00  0.00    -0.223 NA
ATOM     22  C   UNL A   1      29.607  24.367  26.862  1.00  0.00     0.246 A 
ENDBRANCH  14  18
BRANCH  15  23
ATOM     23  C   UNL A   1      36.962  23.263  24.746  1.00  0.00     0.416 C 
ATOM     24  F   UNL A   1      36.933  23.308  23.385  1.00  0.00    -0.166 F 
ATOM     25  F   UNL A   1      37.921  24.157  25.109  1.00  0.00    -0.166 F 
ATOM     26  F   UNL A   1      37.439  22.031  25.066  1.00  0.00    -0.166 F 
ENDBRANCH  15  23
ENDBRANCH  10  12
ENDBRANCH   7   8
ENDBRANCH   6   7
BRANCH   6  27
ATOM     27  C   UNL A   1      30.134  28.703  22.872  1.00  0.00    -0.035 A 
ATOM     28  C   UNL A   1      28.845  28.323  23.284  1.00  0.00     0.004 A 
ATOM     29  C   UNL A   1      30.232  29.788  21.979  1.00  0.00     0.004 A 
ATOM     30  C   UNL A   1      27.706  28.970  22.790  1.00  0.00     0.000 A 
ATOM     31  C   UNL A   1      29.095  30.441  21.493  1.00  0.00     0.000 A 
ATOM     32  C   UNL A   1      27.831  30.026  21.891  1.00  0.00     0.000 A 
ENDBRANCH   6  27
ENDBRANCH   3   6
ENDBRANCH   1   2
BRANCH   1  33
ATOM     33  C   UNL A   1      32.164  30.020  27.026  1.00  0.00     0.023 C 
BRANCH  33  34
ATOM     34  C   UNL A   1      31.726  31.475  26.888  1.00  0.00     0.023 C 
BRANCH  34  35
ATOM     35  C   UNL A   1      32.844  32.502  26.994  1.00  0.00     0.116 C 
BRANCH  35  36
ATOM     36  N   UNL A   1      32.463  33.765  27.598  1.00  0.00    -0.352 N 
ATOM     37  C   UNL A   1      33.061  34.614  28.510  1.00  0.00     0.251 C 
ATOM     38  H   UNL A   1      31.586  34.089  27.290  1.00  0.00     0.163 HD
ATOM     39  O   UNL A   1      32.507  35.674  28.749  1.00  0.00    -0.269 OA
BRANCH  37  40
ATOM     40  C   UNL A   1      34.283  34.250  29.288  1.00  0.00     0.039 A 
ATOM     41  C   UNL A   1      34.116  33.430  30.419  1.00  0.00     0.014 A 
ATOM     42  C   UNL A   1      35.569  34.631  28.940  1.00  0.00     0.014 A 
ATOM     43  C   UNL A   1      35.222  32.903  31.101  1.00  0.00     0.010 A 
ATOM     44  C   UNL A   1      36.669  34.034  29.544  1.00  0.00     0.010 A 
ATOM     45  C   UNL A   1      36.512  33.169  30.637  1.00  0.00    -0.014 A 
BRANCH  45  46
ATOM     46  C   UNL A   1      37.746  32.684  31.307  1.00  0.00     0.031 A 
ATOM     47  C   UNL A   1      38.475  31.524  30.686  1.00  0.00     0.074 A 
ATOM     48  C   UNL A   1      38.124  33.159  32.508  1.00  0.00     0.049 A 
ATOM     49  N   UNL A   1      39.359  30.715  31.209  1.00  0.00    -0.248 NA
ATOM     50  C   UNL A   1      38.096  31.186  29.303  1.00  0.00     0.031 C 
ATOM     51  C   UNL A   1      37.489  34.259  33.233  1.00  0.00     0.029 A 
ATOM     52  N   UNL A   1      39.124  32.739  33.350  1.00  0.00    -0.354 N 
ATOM     53  C   UNL A   1      39.590  29.743  30.243  1.00  0.00     0.074 A 
ATOM     54  C   UNL A   1      38.711  30.028  29.132  1.00  0.00     0.031 C 
ATOM     55  C   UNL A   1      38.116  34.428  34.412  1.00  0.00     0.029 A 
ATOM     56  C   UNL A   1      39.164  33.420  34.544  1.00  0.00     0.049 A 
ATOM     57  H   UNL A   1      39.754  32.017  33.122  1.00  0.00     0.167 HD
ATOM     58  C   UNL A   1      40.478  28.722  30.269  1.00  0.00     0.037 A 
ATOM     59  C   UNL A   1      39.947  33.229  35.624  1.00  0.00     0.037 A 
ATOM     60  C   UNL A   1      41.404  28.494  31.343  1.00  0.00     0.049 A 
ATOM     61  C   UNL A   1      40.959  32.110  35.610  1.00  0.00     0.074 A 
ATOM     62  C   UNL A   1      42.393  27.532  31.442  1.00  0.00     0.029 A 
ATOM     63  N   UNL A   1      41.472  29.263  32.495  1.00  0.00    -0.354 N 
ATOM     64  N   UNL A   1      41.194  31.213  34.684  1.00  0.00    -0.248 NA
ATOM     65  C   UNL A   1      41.820  31.980  36.796  1.00  0.00     0.031 C 
ATOM     66  C   UNL A   1      43.046  27.706  32.667  1.00  0.00     0.029 A 
ATOM     67  C   UNL A   1      42.490  28.800  33.309  1.00  0.00     0.049 A 
ATOM     68  H   UNL A   1      40.884  30.025  32.702  1.00  0.00     0.167 HD
ATOM     69  C   UNL A   1      42.250  30.442  35.154  1.00  0.00     0.074 A 
ATOM     70  C   UNL A   1      42.618  30.982  36.446  1.00  0.00     0.031 C 
ATOM     71  C   UNL A   1      42.859  29.380  34.574  1.00  0.00     0.037 A 
BRANCH  58  72
ATOM     72  C   UNL A   1      40.501  27.796  29.089  1.00  0.00     0.064 A 
ATOM     73  C   UNL A   1      39.676  26.663  29.027  1.00  0.00     0.173 A 
ATOM     74  C   UNL A   1      41.348  28.051  27.999  1.00  0.00     0.173 A 
ATOM     75  F   UNL A   1      38.860  26.365  30.050  1.00  0.00    -0.203 F 
ATOM     76  C   UNL A   1      39.725  25.798  27.938  1.00  0.00     0.198 A 
ATOM     77  C   UNL A   1      41.367  27.203  26.894  1.00  0.00     0.198 A 
ATOM     78  F   UNL A   1      42.156  29.122  28.004  1.00  0.00    -0.203 F 
ATOM     79  F   UNL A   1      38.975  24.688  27.931  1.00  0.00    -0.200 F 
ATOM     80  C   UNL A   1      40.564  26.072  26.868  1.00  0.00     0.200 A 
ATOM     81  F   UNL A   1      42.171  27.476  25.857  1.00  0.00    -0.200 F 
ATOM     82  F   UNL A   1      40.606  25.242  25.818  1.00  0.00    -0.200 F 
ENDBRANCH  58  72
BRANCH  59  83
ATOM     83  C   UNL A   1      39.830  34.121  36.809  1.00  0.00     0.064 A 
ATOM     84  C   UNL A   1      40.576  35.306  36.886  1.00  0.00     0.173 A 
ATOM     85  C   UNL A   1      39.019  33.791  37.904  1.00  0.00     0.173 A 
ATOM     86  F   UNL A   1      41.386  35.652  35.874  1.00  0.00    -0.203 F 
ATOM     87  C   UNL A   1      40.542  36.109  38.024  1.00  0.00     0.198 A 
ATOM     88  C   UNL A   1      38.963  34.610  39.031  1.00  0.00     0.198 A 
ATOM     89  F   UNL A   1      38.283  32.669  37.883  1.00  0.00    -0.203 F 
ATOM     90  F   UNL A   1      41.317  37.201  38.095  1.00  0.00    -0.200 F 
ATOM     91  C   UNL A   1      39.735  35.761  39.096  1.00  0.00     0.200 A 
ATOM     92  F   UNL A   1      38.174  34.276  40.062  1.00  0.00    -0.200 F 
ATOM     93  F   UNL A   1      39.711  36.526  40.195  1.00  0.00    -0.200 F 
ENDBRANCH  59  83
BRANCH  71  94
ATOM     94  C   UNL A   1      44.027  28.771  35.295  1.00  0.00     0.064 A 
ATOM     95  C   UNL A   1      45.339  29.210  35.075  1.00  0.00     0.173 A 
ATOM     96  C   UNL A   1      43.817  27.777  36.263  1.00  0.00     0.173 A 
ATOM     97  F   UNL A   1      45.591  30.149  34.150  1.00  0.00    -0.203 F 
ATOM     98  C   UNL A   1      46.403  28.662  35.786  1.00  0.00     0.198 A 
ATOM     99  C   UNL A   1      44.879  27.252  36.992  1.00  0.00     0.198 A 
ATOM    100  F   UNL A   1      42.577  27.330  36.515  1.00  0.00    -0.203 F 
ATOM    101  F   UNL A   1      47.656  29.068  35.533  1.00  0.00    -0.200 F 
ATOM    102  C   UNL A   1      46.171  27.690  36.749  1.00  0.00     0.200 A 
ATOM    103  F   UNL A   1      44.651  26.325  37.933  1.00  0.00    -0.200 F 
ATOM    104  F   UNL A   1      47.195  27.174  37.442  1.00  0.00    -0.200 F 
ENDBRANCH  71  94
ENDBRANCH  45  46
ENDBRANCH  37  40
ENDBRANCH  35  36
ENDBRANCH  34  35
ENDBRANCH  33  34
ENDBRANCH   1  33
TORSDOF 17
ENDMDL
MODEL 2
REMARK VINA RESULT:     -12.8      2.710      7.792
REMARK SMILES O=C(C[C@@H](C(=O)NCCCCNC(=O)c1ccc(-c2c3nc(c(-c4c(F)c(F)c(F)c(F)c4F)c4ccc([nH]4)c(-c4c(F)c(F)c(F)c(F)c4F)c4nc(c(-c5c(F)c(F)c(F)c(F)c5F)c5ccc2[nH]5)C=C4)C=C3)cc1)c1ccccc1)Nc1cc(C(F)(F)F)ccc1-n1cncn1
REMARK SMILES IDX 8 1 7 2 5 3 6 4 4 6 3 7 2 8 1 9 84 10 85 12 86 13 94 14
REMARK SMILES IDX 87 15 93 16 92 17 95 18 96 19 99 20 97 21 98 22 88 23 89 24
REMARK SMILES IDX 90 25 91 26 78 27 79 28 83 29 80 30 82 31 81 32 9 33 10 34
REMARK SMILES IDX 11 35 12 36 13 37 14 39 15 40 16 41 77 42 17 43 76 44 18 45
REMARK SMILES IDX 19 46 20 47 70 48 21 49 75 50 69 51 71 52 22 53 74 54 68 55
REMARK SMILES IDX 67 56 23 58 55 59 35 60 54 61 36 62 39 63 53 64 72 65 37 66
REMARK SMILES IDX 38 67 52 69 73 70 40 71 24 72 25 73 33 74 26 75 27 76 31 77
REMARK SMILES IDX 34 78 28 79 29 80 32 81 30 82 56 83 57 84 65 85 58 86 59 87
REMARK SMILES IDX 63 88 66 89 60 90 61 91 64 92 62 93 41 94 42 95 50 96 43 97
REMARK SMILES IDX 44 98 48 99 51 100 45 101 46 102 49 103 47 104
REMARK H PARENT 7 5 84 11 12 38 71 57 39 68
REMARK Flexibility Score: inf
ROOT
ATOM      1  C   UNL A   1      33.347  26.945  26.170  1.00  0.00     0.116 C 
ENDROOT
BRANCH   1   2
ATOM      2  N   UNL A   1      33.235  25.499  26.115  1.00  0.00    -0.356 N 
ATOM      3  C   UNL A   1      32.002  24.930  25.910  1.00  0.00     0.228 C 
ATOM      4  O   UNL A   1      31.305  24.620  26.877  1.00  0.00    -0.274 OA
ATOM      5  H   UNL A   1      34.032  24.932  26.224  1.00  0.00     0.163 HD
BRANCH   3   6
ATOM      6  C   UNL A   1      31.592  24.658  24.464  1.00  0.00     0.118 C 
BRANCH   6   7
ATOM      7  C   UNL A   1      32.881  24.339  23.681  1.00  0.00     0.118 C 
BRANCH   7   8
ATOM      8  C   UNL A   1      33.183  22.851  23.595  1.00  0.00     0.225 C 
ATOM      9  O   UNL A   1      32.907  22.198  22.594  1.00  0.00    -0.275 OA
ATOM     10  N   UNL A   1      33.791  22.323  24.727  1.00  0.00    -0.324 N 
ATOM     11  H   UNL A   1      33.774  22.861  25.551  1.00  0.00     0.170 HD
BRANCH  10  12
ATOM     12  C   UNL A   1      34.434  21.055  24.773  1.00  0.00     0.067 A 
ATOM     13  C   UNL A   1      33.612  19.929  24.667  1.00  0.00     0.041 A 
ATOM     14  C   UNL A   1      35.818  20.851  24.932  1.00  0.00     0.090 A 
ATOM     15  C   UNL A   1      34.143  18.627  24.603  1.00  0.00     0.058 A 
ATOM     16  C   UNL A   1      36.368  19.560  24.790  1.00  0.00     0.031 A 
ATOM     17  C   UNL A   1      35.531  18.455  24.627  1.00  0.00     0.015 A 
BRANCH  14  18
ATOM     18  N   UNL A   1      36.654  21.845  25.502  1.00  0.00    -0.219 N 
ATOM     19  C   UNL A   1      38.017  21.769  25.690  1.00  0.00     0.226 A 
ATOM     20  N   UNL A   1      36.258  23.129  25.696  1.00  0.00    -0.155 NA
ATOM     21  N   UNL A   1      38.492  22.911  26.127  1.00  0.00    -0.223 NA
ATOM     22  C   UNL A   1      37.382  23.701  26.132  1.00  0.00     0.246 A 
ENDBRANCH  14  18
BRANCH  15  23
ATOM     23  C   UNL A   1      33.196  17.456  24.571  1.00  0.00     0.416 C 
ATOM     24  F   UNL A   1      33.145  16.882  23.336  1.00  0.00    -0.166 F 
ATOM     25  F   UNL A   1      33.578  16.456  25.411  1.00  0.00    -0.166 F 
ATOM     26  F   UNL A   1      31.911  17.763  24.891  1.00  0.00    -0.166 F 
ENDBRANCH  15  23
ENDBRANCH  10  12
ENDBRANCH   7   8
ENDBRANCH   6   7
BRANCH   6  27
ATOM     27  C   UNL A   1      30.859  25.873  23.857  1.00  0.00    -0.035 A 
ATOM     28  C   UNL A   1      31.514  26.701  22.929  1.00  0.00     0.004 A 
ATOM     29  C   UNL A   1      29.528  26.199  24.185  1.00  0.00     0.004 A 
ATOM     30  C   UNL A   1      30.882  27.828  22.391  1.00  0.00     0.000 A 
ATOM     31  C   UNL A   1      28.893  27.318  23.639  1.00  0.00     0.000 A 
ATOM     32  C   UNL A   1      29.573  28.138  22.748  1.00  0.00     0.000 A 
ENDBRANCH   6  27
ENDBRANCH   3   6
ENDBRANCH   1   2
BRANCH   1  33
ATOM     33  C   UNL A   1      32.084  27.556  26.787  1.00  0.00     0.023 C 
BRANCH  33  34
ATOM     34  C   UNL A   1      31.495  28.789  26.109  1.00  0.00     0.023 C 
BRANCH  34  35
ATOM     35  C   UNL A   1      32.508  29.840  25.679  1.00  0.00     0.116 C 
BRANCH  35  36
ATOM     36  N   UNL A   1      32.429  31.100  26.395  1.00  0.00    -0.352 N 
ATOM     37  C   UNL A   1      33.278  31.776  27.250  1.00  0.00     0.251 C 
ATOM     38  H   UNL A   1      31.584  31.579  26.236  1.00  0.00     0.163 HD
ATOM     39  O   UNL A   1      32.945  32.888  27.621  1.00  0.00    -0.269 OA
BRANCH  37  40
ATOM     40  C   UNL A   1      34.517  31.168  27.821  1.00  0.00     0.039 A 
ATOM     41  C   UNL A   1      35.594  32.028  28.106  1.00  0.00     0.014 A 
ATOM     42  C   UNL A   1      34.654  29.824  28.131  1.00  0.00     0.014 A 
ATOM     43  C   UNL A   1      36.724  31.569  28.798  1.00  0.00     0.010 A 
ATOM     44  C   UNL A   1      35.720  29.384  28.905  1.00  0.00     0.010 A 
ATOM     45  C   UNL A   1      36.773  30.246  29.243  1.00  0.00    -0.014 A 
BRANCH  45  46
ATOM     46  C   UNL A   1      37.935  29.659  29.956  1.00  0.00     0.031 A 
ATOM     47  C   UNL A   1      38.228  30.148  31.349  1.00  0.00     0.074 A 
ATOM     48  C   UNL A   1      38.793  28.829  29.334  1.00  0.00     0.049 A 
ATOM     49  N   UNL A   1      39.325  30.054  32.056  1.00  0.00    -0.248 NA
ATOM     50  C   UNL A   1      37.154  30.914  32.006  1.00  0.00     0.031 C 
ATOM     51  C   UNL A   1      38.644  28.302  27.978  1.00  0.00     0.029 A 
ATOM     52  N   UNL A   1      39.992  28.313  29.762  1.00  0.00    -0.354 N 
ATOM     53  C   UNL A   1      39.090  30.800  33.204  1.00  0.00     0.074 A 
ATOM     54  C   UNL A   1      37.777  31.387  33.072  1.00  0.00     0.031 C 
ATOM     55  C   UNL A   1      39.711  27.536  27.685  1.00  0.00     0.029 A 
ATOM     56  C   UNL A   1      40.638  27.557  28.813  1.00  0.00     0.049 A 
ATOM     57  H   UNL A   1      40.356  28.471  30.663  1.00  0.00     0.167 HD
ATOM     58  C   UNL A   1      39.889  30.957  34.286  1.00  0.00     0.037 A 
ATOM     59  C   UNL A   1      41.851  26.970  28.851  1.00  0.00     0.037 A 
ATOM     60  C   UNL A   1      41.158  30.304  34.444  1.00  0.00     0.049 A 
ATOM     61  C   UNL A   1      42.703  27.124  30.087  1.00  0.00     0.074 A 
ATOM     62  C   UNL A   1      42.018  30.337  35.527  1.00  0.00     0.029 A 
ATOM     63  N   UNL A   1      41.736  29.473  33.495  1.00  0.00    -0.354 N 
ATOM     64  N   UNL A   1      42.466  27.805  31.181  1.00  0.00    -0.248 NA
ATOM     65  C   UNL A   1      43.996  26.421  30.092  1.00  0.00     0.031 C 
ATOM     66  C   UNL A   1      43.128  29.541  35.224  1.00  0.00     0.029 A 
ATOM     67  C   UNL A   1      42.939  28.983  33.970  1.00  0.00     0.049 A 
ATOM     68  H   UNL A   1      41.347  29.264  32.615  1.00  0.00     0.167 HD
ATOM     69  C   UNL A   1      43.553  27.582  32.016  1.00  0.00     0.074 A 
ATOM     70  C   UNL A   1      44.449  26.694  31.307  1.00  0.00     0.031 C 
ATOM     71  C   UNL A   1      43.794  28.070  33.258  1.00  0.00     0.037 A 
BRANCH  58  72
ATOM     72  C   UNL A   1      39.394  31.847  35.387  1.00  0.00     0.064 A 
ATOM     73  C   UNL A   1      38.565  31.361  36.409  1.00  0.00     0.173 A 
ATOM     74  C   UNL A   1      39.765  33.200  35.432  1.00  0.00     0.173 A 
ATOM     75  F   UNL A   1      38.168  30.079  36.404  1.00  0.00    -0.203 F 
ATOM     76  C   UNL A   1      38.093  32.202  37.412  1.00  0.00     0.198 A 
ATOM     77  C   UNL A   1      39.320  34.031  36.457  1.00  0.00     0.198 A 
ATOM     78  F   UNL A   1      40.559  33.717  34.482  1.00  0.00    -0.203 F 
ATOM     79  F   UNL A   1      37.250  31.729  38.339  1.00  0.00    -0.200 F 
ATOM     80  C   UNL A   1      38.477  33.534  37.441  1.00  0.00     0.200 A 
ATOM     81  F   UNL A   1      39.702  35.315  36.490  1.00  0.00    -0.200 F 
ATOM     82  F   UNL A   1      38.027  34.342  38.410  1.00  0.00    -0.200 F 
ENDBRANCH  58  72
BRANCH  59  83
ATOM     83  C   UNL A   1      42.337  26.165  27.699  1.00  0.00     0.064 A 
ATOM     84  C   UNL A   1      41.908  24.841  27.523  1.00  0.00     0.173 A 
ATOM     85  C   UNL A   1      43.271  26.673  26.785  1.00  0.00     0.173 A 
ATOM     86  F   UNL A   1      41.034  24.302  28.385  1.00  0.00    -0.203 F 
ATOM     87  C   UNL A   1      42.418  24.046  26.498  1.00  0.00     0.198 A 
ATOM     88  C   UNL A   1      43.759  25.886  25.742  1.00  0.00     0.198 A 
ATOM     89  F   UNL A   1      43.715  27.933  26.907  1.00  0.00    -0.203 F 
ATOM     90  F   UNL A   1      42.038  22.765  26.394  1.00  0.00    -0.200 F 
ATOM     91  C   UNL A   1      43.343  24.570  25.607  1.00  0.00     0.200 A 
ATOM     92  F   UNL A   1      44.646  26.398  24.878  1.00  0.00    -0.200 F 
ATOM     93  F   UNL A   1      43.842  23.803  24.629  1.00  0.00    -0.200 F 
ENDBRANCH  59  83
BRANCH  71  94
ATOM     94  C   UNL A   1      45.039  27.606  33.957  1.00  0.00     0.064 A 
ATOM     95  C   UNL A   1      46.244  28.314  33.862  1.00  0.00     0.173 A 
ATOM     96  C   UNL A   1      45.003  26.472  34.782  1.00  0.00     0.173 A 
ATOM     97  F   UNL A   1      46.331  29.398  33.075  1.00  0.00    -0.203 F 
ATOM     98  C   UNL A   1      47.376  27.893  34.554  1.00  0.00     0.198 A 
ATOM     99  C   UNL A   1      46.128  26.069  35.495  1.00  0.00     0.198 A 
ATOM    100  F   UNL A   1      43.869  25.766  34.912  1.00  0.00    -0.203 F 
ATOM    101  F   UNL A   1      48.530  28.561  34.419  1.00  0.00    -0.200 F 
ATOM    102  C   UNL A   1      47.314  26.776  35.376  1.00  0.00     0.200 A 
ATOM    103  F   UNL A   1      46.061  25.000  36.300  1.00  0.00    -0.200 F 
ATOM    104  F   UNL A   1      48.401  26.379  36.051  1.00  0.00    -0.200 F 
ENDBRANCH  71  94
ENDBRANCH  45  46
ENDBRANCH  37  40
ENDBRANCH  35  36
ENDBRANCH  34  35
ENDBRANCH  33  34
ENDBRANCH   1  33
TORSDOF 17
ENDMDL
MODEL 3
REMARK VINA RESULT:     -12.7      5.609     10.935
REMARK SMILES O=C(C[C@@H](C(=O)NCCCCNC(=O)c1ccc(-c2c3nc(c(-c4c(F)c(F)c(F)c(F)c4F)c4ccc([nH]4)c(-c4c(F)c(F)c(F)c(F)c4F)c4nc(c(-c5c(F)c(F)c(F)c(F)c5F)c5ccc2[nH]5)C=C4)C=C3)cc1)c1ccccc1)Nc1cc(C(F)(F)F)ccc1-n1cncn1
REMARK SMILES IDX 8 1 7 2 5 3 6 4 4 6 3 7 2 8 1 9 84 10 85 12 86 13 94 14
REMARK SMILES IDX 87 15 93 16 92 17 95 18 96 19 99 20 97 21 98 22 88 23 89 24
REMARK SMILES IDX 90 25 91 26 78 27 79 28 83 29 80 30 82 31 81 32 9 33 10 34
REMARK SMILES IDX 11 35 12 36 13 37 14 39 15 40 16 41 77 42 17 43 76 44 18 45
REMARK SMILES IDX 19 46 20 47 70 48 21 49 75 50 69 51 71 52 22 53 74 54 68 55
REMARK SMILES IDX 67 56 23 58 55 59 35 60 54 61 36 62 39 63 53 64 72 65 37 66
REMARK SMILES IDX 38 67 52 69 73 70 40 71 24 72 25 73 33 74 26 75 27 76 31 77
REMARK SMILES IDX 34 78 28 79 29 80 32 81 30 82 56 83 57 84 65 85 58 86 59 87
REMARK SMILES IDX 63 88 66 89 60 90 61 91 64 92 62 93 41 94 42 95 50 96 43 97
REMARK SMILES IDX 44 98 48 99 51 100 45 101 46 102 49 103 47 104
REMARK H PARENT 7 5 84 11 12 38 71 57 39 68
REMARK Flexibility Score: inf
ROOT
ATOM      1  C   UNL A   1      37.515  22.284  25.338  1.00  0.00     0.116 C 
ENDROOT
BRANCH   1   2
ATOM      2  N   UNL A   1      37.168  23.418  24.500  1.00  0.00    -0.356 N 
ATOM      3  C   UNL A   1      36.241  23.254  23.501  1.00  0.00     0.228 C 
ATOM      4  O   UNL A   1      36.614  22.948  22.368  1.00  0.00    -0.274 OA
ATOM      5  H   UNL A   1      37.593  24.294  24.646  1.00  0.00     0.163 HD
BRANCH   3   6
ATOM      6  C   UNL A   1      34.781  23.526  23.855  1.00  0.00     0.118 C 
BRANCH   6   7
ATOM      7  C   UNL A   1      34.630  25.053  24.010  1.00  0.00     0.118 C 
BRANCH   7   8
ATOM      8  C   UNL A   1      33.329  25.592  23.436  1.00  0.00     0.225 C 
ATOM      9  O   UNL A   1      32.993  25.357  22.280  1.00  0.00    -0.275 OA
ATOM     10  N   UNL A   1      32.580  26.349  24.327  1.00  0.00    -0.324 N 
ATOM     11  H   UNL A   1      33.022  26.664  25.148  1.00  0.00     0.170 HD
BRANCH  10  12
ATOM     12  C   UNL A   1      31.215  26.699  24.130  1.00  0.00     0.067 A 
ATOM     13  C   UNL A   1      30.963  27.955  23.569  1.00  0.00     0.041 A 
ATOM     14  C   UNL A   1      30.112  25.894  24.468  1.00  0.00     0.090 A 
ATOM     15  C   UNL A   1      29.660  28.372  23.238  1.00  0.00     0.058 A 
ATOM     16  C   UNL A   1      28.810  26.264  24.070  1.00  0.00     0.031 A 
ATOM     17  C   UNL A   1      28.589  27.500  23.459  1.00  0.00     0.015 A 
BRANCH  14  18
ATOM     18  N   UNL A   1      30.217  24.858  25.432  1.00  0.00    -0.219 N 
ATOM     19  C   UNL A   1      29.523  24.761  26.619  1.00  0.00     0.226 A 
ATOM     20  N   UNL A   1      30.826  23.670  25.186  1.00  0.00    -0.155 NA
ATOM     21  N   UNL A   1      29.769  23.618  27.211  1.00  0.00    -0.223 NA
ATOM     22  C   UNL A   1      30.580  22.996  26.311  1.00  0.00     0.246 A 
ENDBRANCH  14  18
BRANCH  15  23
ATOM     23  C   UNL A   1      29.454  29.768  22.713  1.00  0.00     0.416 C 
ATOM     24  F   UNL A   1      30.237  30.019  21.627  1.00  0.00    -0.166 F 
ATOM     25  F   UNL A   1      28.180  29.981  22.288  1.00  0.00    -0.166 F 
ATOM     26  F   UNL A   1      29.735  30.753  23.607  1.00  0.00    -0.166 F 
ENDBRANCH  15  23
ENDBRANCH  10  12
ENDBRANCH   7   8
ENDBRANCH   6   7
BRANCH   6  27
ATOM     27  C   UNL A   1      34.378  22.793  25.152  1.00  0.00    -0.035 A 
ATOM     28  C   UNL A   1      34.400  23.472  26.382  1.00  0.00     0.004 A 
ATOM     29  C   UNL A   1      33.968  21.445  25.167  1.00  0.00     0.004 A 
ATOM     30  C   UNL A   1      34.072  22.819  27.577  1.00  0.00     0.000 A 
ATOM     31  C   UNL A   1      33.630  20.796  26.358  1.00  0.00     0.000 A 
ATOM     32  C   UNL A   1      33.691  21.480  27.565  1.00  0.00     0.000 A 
ENDBRANCH   6  27
ENDBRANCH   3   6
ENDBRANCH   1   2
BRANCH   1  33
ATOM     33  C   UNL A   1      37.358  20.975  24.557  1.00  0.00     0.023 C 
BRANCH  33  34
ATOM     34  C   UNL A   1      38.112  19.754  25.073  1.00  0.00     0.023 C 
BRANCH  34  35
ATOM     35  C   UNL A   1      39.308  20.057  25.964  1.00  0.00     0.116 C 
BRANCH  35  36
ATOM     36  N   UNL A   1      40.430  19.149  25.818  1.00  0.00    -0.352 N 
ATOM     37  C   UNL A   1      41.780  19.232  26.105  1.00  0.00     0.251 C 
ATOM     38  H   UNL A   1      40.174  18.281  25.430  1.00  0.00     0.163 HD
ATOM     39  O   UNL A   1      42.458  18.231  25.945  1.00  0.00    -0.269 OA
BRANCH  37  40
ATOM     40  C   UNL A   1      42.457  20.505  26.492  1.00  0.00     0.039 A 
ATOM     41  C   UNL A   1      42.973  21.310  25.460  1.00  0.00     0.014 A 
ATOM     42  C   UNL A   1      42.566  20.963  27.796  1.00  0.00     0.014 A 
ATOM     43  C   UNL A   1      43.468  22.596  25.723  1.00  0.00     0.010 A 
ATOM     44  C   UNL A   1      42.958  22.271  28.053  1.00  0.00     0.010 A 
ATOM     45  C   UNL A   1      43.421  23.102  27.024  1.00  0.00    -0.014 A 
BRANCH  45  46
ATOM     46  C   UNL A   1      43.948  24.437  27.408  1.00  0.00     0.031 A 
ATOM     47  C   UNL A   1      42.973  25.453  27.938  1.00  0.00     0.074 A 
ATOM     48  C   UNL A   1      45.222  24.788  27.153  1.00  0.00     0.049 A 
ATOM     49  N   UNL A   1      43.089  26.751  28.040  1.00  0.00    -0.248 NA
ATOM     50  C   UNL A   1      41.653  24.935  28.341  1.00  0.00     0.031 C 
ATOM     51  C   UNL A   1      46.260  23.911  26.613  1.00  0.00     0.029 A 
ATOM     52  N   UNL A   1      45.847  26.004  27.284  1.00  0.00    -0.354 N 
ATOM     53  C   UNL A   1      41.844  27.204  28.456  1.00  0.00     0.074 A 
ATOM     54  C   UNL A   1      40.972  26.053  28.529  1.00  0.00     0.031 C 
ATOM     55  C   UNL A   1      47.395  24.617  26.461  1.00  0.00     0.029 A 
ATOM     56  C   UNL A   1      47.151  26.005  26.846  1.00  0.00     0.049 A 
ATOM     57  H   UNL A   1      45.404  26.801  27.655  1.00  0.00     0.167 HD
ATOM     58  C   UNL A   1      41.468  28.464  28.779  1.00  0.00     0.037 A 
ATOM     59  C   UNL A   1      48.031  27.020  26.750  1.00  0.00     0.037 A 
ATOM     60  C   UNL A   1      42.362  29.589  28.783  1.00  0.00     0.049 A 
ATOM     61  C   UNL A   1      47.601  28.407  27.158  1.00  0.00     0.074 A 
ATOM     62  C   UNL A   1      42.105  30.895  29.157  1.00  0.00     0.029 A 
ATOM     63  N   UNL A   1      43.699  29.528  28.418  1.00  0.00    -0.354 N 
ATOM     64  N   UNL A   1      46.432  28.826  27.578  1.00  0.00    -0.248 NA
ATOM     65  C   UNL A   1      48.619  29.467  27.079  1.00  0.00     0.031 C 
ATOM     66  C   UNL A   1      43.284  31.632  28.999  1.00  0.00     0.029 A 
ATOM     67  C   UNL A   1      44.282  30.774  28.564  1.00  0.00     0.049 A 
ATOM     68  H   UNL A   1      44.163  28.719  28.103  1.00  0.00     0.167 HD
ATOM     69  C   UNL A   1      46.584  30.179  27.851  1.00  0.00     0.074 A 
ATOM     70  C   UNL A   1      47.961  30.513  27.557  1.00  0.00     0.031 C 
ATOM     71  C   UNL A   1      45.666  31.070  28.300  1.00  0.00     0.037 A 
BRANCH  58  72
ATOM     72  C   UNL A   1      40.038  28.679  29.177  1.00  0.00     0.064 A 
ATOM     73  C   UNL A   1      39.070  29.092  28.249  1.00  0.00     0.173 A 
ATOM     74  C   UNL A   1      39.625  28.456  30.500  1.00  0.00     0.173 A 
ATOM     75  F   UNL A   1      39.417  29.334  26.975  1.00  0.00    -0.203 F 
ATOM     76  C   UNL A   1      37.752  29.312  28.636  1.00  0.00     0.198 A 
ATOM     77  C   UNL A   1      38.297  28.642  30.876  1.00  0.00     0.198 A 
ATOM     78  F   UNL A   1      40.508  28.058  31.428  1.00  0.00    -0.203 F 
ATOM     79  F   UNL A   1      36.861  29.768  27.746  1.00  0.00    -0.200 F 
ATOM     80  C   UNL A   1      37.364  29.079  29.947  1.00  0.00     0.200 A 
ATOM     81  F   UNL A   1      37.921  28.406  32.140  1.00  0.00    -0.200 F 
ATOM     82  F   UNL A   1      36.093  29.286  30.318  1.00  0.00    -0.200 F 
ENDBRANCH  58  72
BRANCH  59  83
ATOM     83  C   UNL A   1      49.417  26.775  26.267  1.00  0.00     0.064 A 
ATOM     84  C   UNL A   1      49.747  26.972  24.918  1.00  0.00     0.173 A 
ATOM     85  C   UNL A   1      50.422  26.296  27.119  1.00  0.00     0.173 A 
ATOM     86  F   UNL A   1      48.813  27.405  24.058  1.00  0.00    -0.203 F 
ATOM     87  C   UNL A   1      51.017  26.667  24.433  1.00  0.00     0.198 A 
ATOM     88  C   UNL A   1      51.701  26.018  26.638  1.00  0.00     0.198 A 
ATOM     89  F   UNL A   1      50.161  26.091  28.419  1.00  0.00    -0.203 F 
ATOM     90  F   UNL A   1      51.283  26.802  23.126  1.00  0.00    -0.200 F 
ATOM     91  C   UNL A   1      51.994  26.191  25.293  1.00  0.00     0.200 A 
ATOM     92  F   UNL A   1      52.646  25.568  27.475  1.00  0.00    -0.200 F 
ATOM     93  F   UNL A   1      53.212  25.887  24.825  1.00  0.00    -0.200 F 
ENDBRANCH  59  83
BRANCH  71  94
ATOM     94  C   UNL A   1      46.132  32.472  28.565  1.00  0.00     0.064 A 
ATOM     95  C   UNL A   1      46.063  33.469  27.584  1.00  0.00     0.173 A 
ATOM     96  C   UNL A   1      46.593  32.832  29.841  1.00  0.00     0.173 A 
ATOM     97  F   UNL A   1      45.642  33.170  26.345  1.00  0.00    -0.203 F 
ATOM     98  C   UNL A   1      46.459  34.774  27.863  1.00  0.00     0.198 A 
ATOM     99  C   UNL A   1      46.960  34.144  30.125  1.00  0.00     0.198 A 
ATOM    100  F   UNL A   1      46.667  31.915  30.817  1.00  0.00    -0.203 F 
ATOM    101  F   UNL A   1      46.423  35.705  26.899  1.00  0.00    -0.200 F 
ATOM    102  C   UNL A   1      46.898  35.112  29.136  1.00  0.00     0.200 A 
ATOM    103  F   UNL A   1      47.368  34.471  31.359  1.00  0.00    -0.200 F 
ATOM    104  F   UNL A   1      47.265  36.372  29.406  1.00  0.00    -0.200 F 
ENDBRANCH  71  94
ENDBRANCH  45  46
ENDBRANCH  37  40
ENDBRANCH  35  36
ENDBRANCH  34  35
ENDBRANCH  33  34
ENDBRANCH   1  33
TORSDOF 17
ENDMDL
