MODEL 1
REMARK VINA RESULT:     -12.2      0.000      0.000
REMARK SMILES C[C@H](C(=O)NCCCCNC(=O)c1ccc(-c2c3nc(c(-c4c(F)c(F)c(F)c(F)c4F)c4ccc([nH]4)c(-c4c(F)c(F)c(F)c(F)c4F)c4nc(c(-c5c(F)c(F)c(F)c(F)c5F)c5ccc2[nH]5)C=C4)C=C3)cc1)[C@H](C)[N@@H+]1CC[C@H]([NH+]2CCCCC2)C1
REMARK SMILES IDX 7 1 6 2 5 3 3 4 4 5 2 7 1 8 76 9 77 10 78 11 79 12 88 13
REMARK SMILES IDX 80 15 81 16 82 17 83 18 87 19 84 21 86 22 85 23 8 24 9 25
REMARK SMILES IDX 10 26 11 27 12 29 13 30 14 31 75 32 15 33 74 34 16 35 17 36
REMARK SMILES IDX 18 37 68 38 19 39 73 40 67 41 69 42 20 43 72 44 66 45 65 46
REMARK SMILES IDX 21 48 53 49 33 50 52 51 34 52 37 53 51 54 70 55 35 56 36 57
REMARK SMILES IDX 50 59 71 60 38 61 22 62 23 63 31 64 24 65 25 66 29 67 32 68
REMARK SMILES IDX 26 69 27 70 30 71 28 72 54 73 55 74 63 75 56 76 57 77 61 78
REMARK SMILES IDX 64 79 58 80 59 81 62 82 60 83 39 84 40 85 48 86 41 87 42 88
REMARK SMILES IDX 46 89 49 90 43 91 44 92 47 93 45 94
REMARK H PARENT 5 6 78 14 82 20 10 28 69 47 37 58
REMARK Flexibility Score: inf
ROOT
ATOM      1  C   UNL A   1      31.556  30.975  25.867  1.00  0.00     0.023 C 
ENDROOT
BRANCH   1   2
ATOM      2  C   UNL A   1      32.810  30.105  25.942  1.00  0.00     0.116 C 
BRANCH   2   3
ATOM      3  N   UNL A   1      33.226  29.608  24.644  1.00  0.00    -0.356 N 
ATOM      4  C   UNL A   1      32.690  28.600  23.891  1.00  0.00     0.228 C 
ATOM      5  O   UNL A   1      33.155  28.416  22.766  1.00  0.00    -0.275 OA
ATOM      6  H   UNL A   1      34.007  30.060  24.249  1.00  0.00     0.163 HD
BRANCH   4   7
ATOM      7  C   UNL A   1      31.592  27.720  24.488  1.00  0.00     0.133 C 
ATOM      8  C   UNL A   1      30.288  27.854  23.694  1.00  0.00     0.024 C 
BRANCH   7   9
ATOM      9  C   UNL A   1      32.114  26.257  24.586  1.00  0.00     0.193 C 
ATOM     10  C   UNL A   1      33.482  26.218  25.285  1.00  0.00     0.076 C 
BRANCH   9  11
ATOM     11  N   UNL A   1      31.970  25.623  23.247  1.00  0.00    -0.327 N 
ATOM     12  C   UNL A   1      30.951  24.556  23.246  1.00  0.00     0.269 C 
ATOM     13  C   UNL A   1      33.152  24.981  22.636  1.00  0.00     0.328 C 
ATOM     14  H   UNL A   1      31.738  26.451  22.697  1.00  0.00     0.348 HD
ATOM     15  C   UNL A   1      31.716  23.298  23.618  1.00  0.00     0.132 C 
ATOM     16  C   UNL A   1      33.000  23.442  22.797  1.00  0.00     0.245 C 
BRANCH  16  17
ATOM     17  N   UNL A   1      34.183  22.668  23.231  1.00  0.00    -0.328 N 
ATOM     18  C   UNL A   1      35.375  23.489  23.465  1.00  0.00     0.262 C 
ATOM     19  C   UNL A   1      33.880  21.822  24.396  1.00  0.00     0.262 C 
ATOM     20  H   UNL A   1      34.414  22.060  22.444  1.00  0.00     0.348 HD
ATOM     21  C   UNL A   1      36.603  22.673  23.863  1.00  0.00     0.062 C 
ATOM     22  C   UNL A   1      35.074  20.950  24.797  1.00  0.00     0.062 C 
ATOM     23  C   UNL A   1      36.307  21.801  25.071  1.00  0.00     0.012 C 
ENDBRANCH  16  17
ENDBRANCH   9  11
ENDBRANCH   7   9
ENDBRANCH   4   7
ENDBRANCH   2   3
ENDBRANCH   1   2
BRANCH   1  24
ATOM     24  C   UNL A   1      31.419  32.016  26.975  1.00  0.00     0.023 C 
BRANCH  24  25
ATOM     25  C   UNL A   1      32.673  32.831  27.259  1.00  0.00     0.116 C 
BRANCH  25  26
ATOM     26  N   UNL A   1      32.389  34.212  27.617  1.00  0.00    -0.352 N 
ATOM     27  C   UNL A   1      32.989  35.002  28.567  1.00  0.00     0.251 C 
ATOM     28  H   UNL A   1      31.664  34.641  27.105  1.00  0.00     0.163 HD
ATOM     29  O   UNL A   1      32.539  36.115  28.820  1.00  0.00    -0.269 OA
BRANCH  27  30
ATOM     30  C   UNL A   1      34.160  34.492  29.311  1.00  0.00     0.039 A 
ATOM     31  C   UNL A   1      33.964  33.946  30.582  1.00  0.00     0.014 A 
ATOM     32  C   UNL A   1      35.439  34.535  28.753  1.00  0.00     0.014 A 
ATOM     33  C   UNL A   1      35.044  33.380  31.264  1.00  0.00     0.010 A 
ATOM     34  C   UNL A   1      36.496  33.899  29.396  1.00  0.00     0.010 A 
ATOM     35  C   UNL A   1      36.310  33.321  30.662  1.00  0.00    -0.014 A 
BRANCH  35  36
ATOM     36  C   UNL A   1      37.459  32.671  31.340  1.00  0.00     0.031 A 
ATOM     37  C   UNL A   1      38.187  31.540  30.670  1.00  0.00     0.074 A 
ATOM     38  C   UNL A   1      37.804  33.052  32.585  1.00  0.00     0.049 A 
ATOM     39  N   UNL A   1      39.166  30.798  31.124  1.00  0.00    -0.248 NA
ATOM     40  C   UNL A   1      37.732  31.173  29.320  1.00  0.00     0.031 C 
ATOM     41  C   UNL A   1      37.146  34.104  33.361  1.00  0.00     0.029 A 
ATOM     42  N   UNL A   1      38.789  32.588  33.422  1.00  0.00    -0.354 N 
ATOM     43  C   UNL A   1      39.427  29.869  30.127  1.00  0.00     0.074 A 
ATOM     44  C   UNL A   1      38.467  30.101  29.069  1.00  0.00     0.031 C 
ATOM     45  C   UNL A   1      37.762  34.224  34.549  1.00  0.00     0.029 A 
ATOM     46  C   UNL A   1      38.832  33.234  34.632  1.00  0.00     0.049 A 
ATOM     47  H   UNL A   1      39.407  31.863  33.176  1.00  0.00     0.167 HD
ATOM     48  C   UNL A   1      40.396  28.922  30.084  1.00  0.00     0.037 A 
ATOM     49  C   UNL A   1      39.641  33.045  35.692  1.00  0.00     0.037 A 
ATOM     50  C   UNL A   1      41.365  28.711  31.126  1.00  0.00     0.049 A 
ATOM     51  C   UNL A   1      40.708  31.987  35.623  1.00  0.00     0.074 A 
ATOM     52  C   UNL A   1      42.425  27.823  31.153  1.00  0.00     0.029 A 
ATOM     53  N   UNL A   1      41.386  29.396  32.333  1.00  0.00    -0.354 N 
ATOM     54  N   UNL A   1      40.993  31.160  34.647  1.00  0.00    -0.248 NA
ATOM     55  C   UNL A   1      41.570  31.840  36.805  1.00  0.00     0.031 C 
ATOM     56  C   UNL A   1      43.059  27.937  32.395  1.00  0.00     0.029 A 
ATOM     57  C   UNL A   1      42.429  28.935  33.121  1.00  0.00     0.049 A 
ATOM     58  H   UNL A   1      40.755  30.106  32.591  1.00  0.00     0.167 HD
ATOM     59  C   UNL A   1      42.084  30.418  35.080  1.00  0.00     0.074 A 
ATOM     60  C   UNL A   1      42.416  30.900  36.404  1.00  0.00     0.031 C 
ATOM     61  C   UNL A   1      42.752  29.430  34.435  1.00  0.00     0.037 A 
BRANCH  48  62
ATOM     62  C   UNL A   1      40.448  28.044  28.866  1.00  0.00     0.064 A 
ATOM     63  C   UNL A   1      41.198  28.397  27.733  1.00  0.00     0.173 A 
ATOM     64  C   UNL A   1      39.747  26.829  28.834  1.00  0.00     0.173 A 
ATOM     65  F   UNL A   1      41.877  29.554  27.706  1.00  0.00    -0.203 F 
ATOM     66  C   UNL A   1      41.210  27.588  26.599  1.00  0.00     0.198 A 
ATOM     67  C   UNL A   1      39.790  26.006  27.712  1.00  0.00     0.198 A 
ATOM     68  F   UNL A   1      39.020  26.439  29.891  1.00  0.00    -0.203 F 
ATOM     69  F   UNL A   1      41.881  27.979  25.507  1.00  0.00    -0.200 F 
ATOM     70  C   UNL A   1      40.511  26.391  26.591  1.00  0.00     0.200 A 
ATOM     71  F   UNL A   1      39.125  24.842  27.711  1.00  0.00    -0.200 F 
ATOM     72  F   UNL A   1      40.524  25.614  25.501  1.00  0.00    -0.200 F 
ENDBRANCH  48  62
BRANCH  49  73
ATOM     73  C   UNL A   1      39.498  33.909  36.893  1.00  0.00     0.064 A 
ATOM     74  C   UNL A   1      40.110  35.170  36.945  1.00  0.00     0.173 A 
ATOM     75  C   UNL A   1      38.746  33.502  38.004  1.00  0.00     0.173 A 
ATOM     76  F   UNL A   1      40.856  35.594  35.914  1.00  0.00    -0.203 F 
ATOM     77  C   UNL A   1      39.985  35.984  38.068  1.00  0.00     0.198 A 
ATOM     78  C   UNL A   1      38.600  34.329  39.115  1.00  0.00     0.198 A 
ATOM     79  F   UNL A   1      38.137  32.307  38.001  1.00  0.00    -0.203 F 
ATOM     80  F   UNL A   1      40.611  37.168  38.107  1.00  0.00    -0.200 F 
ATOM     81  C   UNL A   1      39.225  35.567  39.150  1.00  0.00     0.200 A 
ATOM     82  F   UNL A   1      37.852  33.928  40.153  1.00  0.00    -0.200 F 
ATOM     83  F   UNL A   1      39.099  36.354  40.226  1.00  0.00    -0.200 F 
ENDBRANCH  49  73
BRANCH  61  84
ATOM     84  C   UNL A   1      43.937  28.830  35.136  1.00  0.00     0.064 A 
ATOM     85  C   UNL A   1      45.229  29.352  34.982  1.00  0.00     0.173 A 
ATOM     86  C   UNL A   1      43.768  27.739  36.003  1.00  0.00     0.173 A 
ATOM     87  F   UNL A   1      45.445  30.384  34.152  1.00  0.00    -0.203 F 
ATOM     88  C   UNL A   1      46.313  28.790  35.652  1.00  0.00     0.198 A 
ATOM     89  C   UNL A   1      44.848  27.200  36.695  1.00  0.00     0.198 A 
ATOM     90  F   UNL A   1      42.552  27.205  36.190  1.00  0.00    -0.203 F 
ATOM     91  F   UNL A   1      47.546  29.275  35.453  1.00  0.00    -0.200 F 
ATOM     92  C   UNL A   1      46.120  27.721  36.514  1.00  0.00     0.200 A 
ATOM     93  F   UNL A   1      44.658  26.175  37.538  1.00  0.00    -0.200 F 
ATOM     94  F   UNL A   1      47.163  27.186  37.164  1.00  0.00    -0.200 F 
ENDBRANCH  61  84
ENDBRANCH  35  36
ENDBRANCH  27  30
ENDBRANCH  25  26
ENDBRANCH  24  25
ENDBRANCH   1  24
TORSDOF 14
ENDMDL
MODEL 2
REMARK VINA RESULT:     -12.2      0.601      7.460
REMARK SMILES C[C@H](C(=O)NCCCCNC(=O)c1ccc(-c2c3nc(c(-c4c(F)c(F)c(F)c(F)c4F)c4ccc([nH]4)c(-c4c(F)c(F)c(F)c(F)c4F)c4nc(c(-c5c(F)c(F)c(F)c(F)c5F)c5ccc2[nH]5)C=C4)C=C3)cc1)[C@H](C)[N@@H+]1CC[C@H]([NH+]2CCCCC2)C1
REMARK SMILES IDX 7 1 6 2 5 3 3 4 4 5 2 7 1 8 76 9 77 10 78 11 79 12 88 13
REMARK SMILES IDX 80 15 81 16 82 17 83 18 87 19 84 21 86 22 85 23 8 24 9 25
REMARK SMILES IDX 10 26 11 27 12 29 13 30 14 31 75 32 15 33 74 34 16 35 17 36
REMARK SMILES IDX 18 37 68 38 19 39 73 40 67 41 69 42 20 43 72 44 66 45 65 46
REMARK SMILES IDX 21 48 53 49 33 50 52 51 34 52 37 53 51 54 70 55 35 56 36 57
REMARK SMILES IDX 50 59 71 60 38 61 22 62 23 63 31 64 24 65 25 66 29 67 32 68
REMARK SMILES IDX 26 69 27 70 30 71 28 72 54 73 55 74 63 75 56 76 57 77 61 78
REMARK SMILES IDX 64 79 58 80 59 81 62 82 60 83 39 84 40 85 48 86 41 87 42 88
REMARK SMILES IDX 46 89 49 90 43 91 44 92 47 93 45 94
REMARK H PARENT 5 6 78 14 82 20 10 28 69 47 37 58
REMARK Flexibility Score: inf
ROOT
ATOM      1  C   UNL A   1      31.544  30.904  26.109  1.00  0.00     0.023 C 
ENDROOT
BRANCH   1   2
ATOM      2  C   UNL A   1      32.845  30.174  26.436  1.00  0.00     0.116 C 
BRANCH   2   3
ATOM      3  N   UNL A   1      33.513  29.662  25.253  1.00  0.00    -0.356 N 
ATOM      4  C   UNL A   1      33.155  28.622  24.440  1.00  0.00     0.228 C 
ATOM      5  O   UNL A   1      33.829  28.428  23.428  1.00  0.00    -0.275 OA
ATOM      6  H   UNL A   1      34.342  30.128  25.002  1.00  0.00     0.163 HD
BRANCH   4   7
ATOM      7  C   UNL A   1      31.986  27.723  24.842  1.00  0.00     0.133 C 
ATOM      8  C   UNL A   1      30.756  27.998  23.970  1.00  0.00     0.024 C 
BRANCH   7   9
ATOM      9  C   UNL A   1      32.454  26.238  24.808  1.00  0.00     0.193 C 
ATOM     10  C   UNL A   1      33.722  26.054  25.655  1.00  0.00     0.076 C 
BRANCH   9  11
ATOM     11  N   UNL A   1      32.463  25.789  23.388  1.00  0.00    -0.327 N 
ATOM     12  C   UNL A   1      31.374  24.835  23.104  1.00  0.00     0.269 C 
ATOM     13  C   UNL A   1      33.668  25.113  22.867  1.00  0.00     0.328 C 
ATOM     14  H   UNL A   1      32.382  26.696  22.928  1.00  0.00     0.348 HD
ATOM     15  C   UNL A   1      31.972  23.472  23.406  1.00  0.00     0.132 C 
ATOM     16  C   UNL A   1      33.372  23.587  22.798  1.00  0.00     0.245 C 
BRANCH  16  17
ATOM     17  N   UNL A   1      34.411  22.655  23.284  1.00  0.00    -0.328 N 
ATOM     18  C   UNL A   1      35.702  23.294  23.552  1.00  0.00     0.262 C 
ATOM     19  C   UNL A   1      33.946  21.882  24.447  1.00  0.00     0.262 C 
ATOM     20  H   UNL A   1      34.577  22.006  22.514  1.00  0.00     0.348 HD
ATOM     21  C   UNL A   1      36.781  22.312  24.006  1.00  0.00     0.062 C 
ATOM     22  C   UNL A   1      34.982  20.850  24.901  1.00  0.00     0.062 C 
ATOM     23  C   UNL A   1      36.318  21.513  25.211  1.00  0.00     0.012 C 
ENDBRANCH  16  17
ENDBRANCH   9  11
ENDBRANCH   7   9
ENDBRANCH   4   7
ENDBRANCH   2   3
ENDBRANCH   1   2
BRANCH   1  24
ATOM     24  C   UNL A   1      31.351  32.241  26.821  1.00  0.00     0.023 C 
BRANCH  24  25
ATOM     25  C   UNL A   1      32.635  32.960  27.210  1.00  0.00     0.116 C 
BRANCH  25  26
ATOM     26  N   UNL A   1      32.409  34.315  27.689  1.00  0.00    -0.352 N 
ATOM     27  C   UNL A   1      33.046  34.994  28.699  1.00  0.00     0.251 C 
ATOM     28  H   UNL A   1      31.700  34.815  27.224  1.00  0.00     0.163 HD
ATOM     29  O   UNL A   1      32.643  36.098  29.052  1.00  0.00    -0.269 OA
BRANCH  27  30
ATOM     30  C   UNL A   1      34.199  34.375  29.386  1.00  0.00     0.039 A 
ATOM     31  C   UNL A   1      33.961  33.525  30.468  1.00  0.00     0.014 A 
ATOM     32  C   UNL A   1      35.505  34.616  28.953  1.00  0.00     0.014 A 
ATOM     33  C   UNL A   1      35.031  32.863  31.075  1.00  0.00     0.010 A 
ATOM     34  C   UNL A   1      36.559  33.894  29.503  1.00  0.00     0.010 A 
ATOM     35  C   UNL A   1      36.334  33.015  30.574  1.00  0.00    -0.014 A 
BRANCH  35  36
ATOM     36  C   UNL A   1      37.479  32.276  31.162  1.00  0.00     0.031 A 
ATOM     37  C   UNL A   1      37.974  32.627  32.537  1.00  0.00     0.074 A 
ATOM     38  C   UNL A   1      38.115  31.338  30.435  1.00  0.00     0.049 A 
ATOM     39  N   UNL A   1      39.000  32.151  33.196  1.00  0.00    -0.248 NA
ATOM     40  C   UNL A   1      37.236  33.679  33.253  1.00  0.00     0.031 C 
ATOM     41  C   UNL A   1      37.761  30.940  29.072  1.00  0.00     0.029 A 
ATOM     42  N   UNL A   1      39.202  30.556  30.738  1.00  0.00    -0.354 N 
ATOM     43  C   UNL A   1      39.040  32.856  34.391  1.00  0.00     0.074 A 
ATOM     44  C   UNL A   1      37.973  33.833  34.342  1.00  0.00     0.031 C 
ATOM     45  C   UNL A   1      38.596  29.969  28.667  1.00  0.00     0.029 A 
ATOM     46  C   UNL A   1      39.567  29.705  29.725  1.00  0.00     0.049 A 
ATOM     47  H   UNL A   1      39.673  30.600  31.601  1.00  0.00     0.167 HD
ATOM     48  C   UNL A   1      39.874  32.689  35.446  1.00  0.00     0.037 A 
ATOM     49  C   UNL A   1      40.574  28.814  29.656  1.00  0.00     0.037 A 
ATOM     50  C   UNL A   1      40.917  31.700  35.501  1.00  0.00     0.049 A 
ATOM     51  C   UNL A   1      41.490  28.647  30.838  1.00  0.00     0.074 A 
ATOM     52  C   UNL A   1      41.775  31.406  36.547  1.00  0.00     0.029 A 
ATOM     53  N   UNL A   1      41.248  30.843  34.460  1.00  0.00    -0.354 N 
ATOM     54  N   UNL A   1      41.475  29.269  31.992  1.00  0.00    -0.248 NA
ATOM     55  C   UNL A   1      42.560  27.647  30.710  1.00  0.00     0.031 C 
ATOM     56  C   UNL A   1      42.655  30.405  36.121  1.00  0.00     0.029 A 
ATOM     57  C   UNL A   1      42.312  30.036  34.831  1.00  0.00     0.049 A 
ATOM     58  H   UNL A   1      40.793  30.813  33.588  1.00  0.00     0.167 HD
ATOM     59  C   UNL A   1      42.509  28.718  32.738  1.00  0.00     0.074 A 
ATOM     60  C   UNL A   1      43.124  27.702  31.909  1.00  0.00     0.031 C 
ATOM     61  C   UNL A   1      42.908  29.023  33.997  1.00  0.00     0.037 A 
BRANCH  48  62
ATOM     62  C   UNL A   1      39.688  33.604  36.623  1.00  0.00     0.064 A 
ATOM     63  C   UNL A   1      38.853  33.261  37.698  1.00  0.00     0.173 A 
ATOM     64  C   UNL A   1      40.361  34.833  36.683  1.00  0.00     0.173 A 
ATOM     65  F   UNL A   1      38.176  32.103  37.686  1.00  0.00    -0.203 F 
ATOM     66  C   UNL A   1      38.665  34.134  38.768  1.00  0.00     0.198 A 
ATOM     67  C   UNL A   1      40.199  35.687  37.771  1.00  0.00     0.198 A 
ATOM     68  F   UNL A   1      41.178  35.207  35.687  1.00  0.00    -0.203 F 
ATOM     69  F   UNL A   1      37.811  33.813  39.750  1.00  0.00    -0.200 F 
ATOM     70  C   UNL A   1      39.342  35.343  38.806  1.00  0.00     0.200 A 
ATOM     71  F   UNL A   1      40.865  36.850  37.813  1.00  0.00    -0.200 F 
ATOM     72  F   UNL A   1      39.161  36.182  39.834  1.00  0.00    -0.200 F 
ENDBRANCH  48  62
BRANCH  49  73
ATOM     73  C   UNL A   1      40.742  27.980  28.437  1.00  0.00     0.064 A 
ATOM     74  C   UNL A   1      40.126  26.725  28.338  1.00  0.00     0.173 A 
ATOM     75  C   UNL A   1      41.506  28.420  27.348  1.00  0.00     0.173 A 
ATOM     76  F   UNL A   1      39.400  26.253  29.363  1.00  0.00    -0.203 F 
ATOM     77  C   UNL A   1      40.280  25.935  27.202  1.00  0.00     0.198 A 
ATOM     78  C   UNL A   1      41.638  27.641  26.201  1.00  0.00     0.198 A 
ATOM     79  F   UNL A   1      42.111  29.617  27.391  1.00  0.00    -0.203 F 
ATOM     80  F   UNL A   1      39.712  24.723  27.148  1.00  0.00    -0.200 F 
ATOM     81  C   UNL A   1      41.030  26.396  26.131  1.00  0.00     0.200 A 
ATOM     82  F   UNL A   1      42.352  28.096  25.162  1.00  0.00    -0.200 F 
ATOM     83  F   UNL A   1      41.172  25.640  25.034  1.00  0.00    -0.200 F 
ENDBRANCH  49  73
BRANCH  61  84
ATOM     84  C   UNL A   1      44.040  28.222  34.573  1.00  0.00     0.064 A 
ATOM     85  C   UNL A   1      45.372  28.651  34.482  1.00  0.00     0.173 A 
ATOM     86  C   UNL A   1      43.781  27.026  35.262  1.00  0.00     0.173 A 
ATOM     87  F   UNL A   1      45.673  29.779  33.820  1.00  0.00    -0.203 F 
ATOM     88  C   UNL A   1      46.406  27.901  35.037  1.00  0.00     0.198 A 
ATOM     89  C   UNL A   1      44.813  26.295  35.842  1.00  0.00     0.198 A 
ATOM     90  F   UNL A   1      42.524  26.575  35.384  1.00  0.00    -0.203 F 
ATOM     91  F   UNL A   1      47.675  28.305  34.894  1.00  0.00    -0.200 F 
ATOM     92  C   UNL A   1      46.125  26.729  35.723  1.00  0.00     0.200 A 
ATOM     93  F   UNL A   1      44.539  25.170  36.517  1.00  0.00    -0.200 F 
ATOM     94  F   UNL A   1      47.120  26.012  36.263  1.00  0.00    -0.200 F 
ENDBRANCH  61  84
ENDBRANCH  35  36
ENDBRANCH  27  30
ENDBRANCH  25  26
ENDBRANCH  24  25
ENDBRANCH   1  24
TORSDOF 14
ENDMDL
MODEL 3
REMARK VINA RESULT:     -12.2      5.670     11.297
REMARK SMILES C[C@H](C(=O)NCCCCNC(=O)c1ccc(-c2c3nc(c(-c4c(F)c(F)c(F)c(F)c4F)c4ccc([nH]4)c(-c4c(F)c(F)c(F)c(F)c4F)c4nc(c(-c5c(F)c(F)c(F)c(F)c5F)c5ccc2[nH]5)C=C4)C=C3)cc1)[C@H](C)[N@@H+]1CC[C@H]([NH+]2CCCCC2)C1
REMARK SMILES IDX 7 1 6 2 5 3 3 4 4 5 2 7 1 8 76 9 77 10 78 11 79 12 88 13
REMARK SMILES IDX 80 15 81 16 82 17 83 18 87 19 84 21 86 22 85 23 8 24 9 25
REMARK SMILES IDX 10 26 11 27 12 29 13 30 14 31 75 32 15 33 74 34 16 35 17 36
REMARK SMILES IDX 18 37 68 38 19 39 73 40 67 41 69 42 20 43 72 44 66 45 65 46
REMARK SMILES IDX 21 48 53 49 33 50 52 51 34 52 37 53 51 54 70 55 35 56 36 57
REMARK SMILES IDX 50 59 71 60 38 61 22 62 23 63 31 64 24 65 25 66 29 67 32 68
REMARK SMILES IDX 26 69 27 70 30 71 28 72 54 73 55 74 63 75 56 76 57 77 61 78
REMARK SMILES IDX 64 79 58 80 59 81 62 82 60 83 39 84 40 85 48 86 41 87 42 88
REMARK SMILES IDX 46 89 49 90 43 91 44 92 47 93 45 94
REMARK H PARENT 5 6 78 14 82 20 10 28 69 47 37 58
REMARK Flexibility Score: inf
ROOT
ATOM      1  C   UNL A   1      37.077  20.847  24.630  1.00  0.00     0.023 C 
ENDROOT
BRANCH   1   2
ATOM      2  C   UNL A   1      36.877  21.906  25.713  1.00  0.00     0.116 C 
BRANCH   2   3
ATOM      3  N   UNL A   1      35.687  21.674  26.511  1.00  0.00    -0.356 N 
ATOM      4  C   UNL A   1      34.388  21.536  26.108  1.00  0.00     0.228 C 
ATOM      5  O   UNL A   1      33.551  21.246  26.963  1.00  0.00    -0.275 OA
ATOM      6  H   UNL A   1      35.838  21.607  27.482  1.00  0.00     0.163 HD
BRANCH   4   7
ATOM      7  C   UNL A   1      34.023  21.800  24.647  1.00  0.00     0.133 C 
ATOM      8  C   UNL A   1      33.089  20.710  24.109  1.00  0.00     0.024 C 
BRANCH   7   9
ATOM      9  C   UNL A   1      33.440  23.238  24.523  1.00  0.00     0.193 C 
ATOM     10  C   UNL A   1      34.572  24.273  24.427  1.00  0.00     0.076 C 
BRANCH   9  11
ATOM     11  N   UNL A   1      32.396  23.406  25.571  1.00  0.00    -0.327 N 
ATOM     12  C   UNL A   1      31.055  23.609  24.989  1.00  0.00     0.269 C 
ATOM     13  C   UNL A   1      32.532  24.516  26.536  1.00  0.00     0.328 C 
ATOM     14  H   UNL A   1      32.526  22.528  26.075  1.00  0.00     0.348 HD
ATOM     15  C   UNL A   1      30.940  25.113  24.813  1.00  0.00     0.132 C 
ATOM     16  C   UNL A   1      31.544  25.642  26.117  1.00  0.00     0.245 C 
BRANCH  16  17
ATOM     17  N   UNL A   1      32.033  27.037  26.131  1.00  0.00    -0.328 N 
ATOM     18  C   UNL A   1      31.491  27.844  27.227  1.00  0.00     0.262 C 
ATOM     19  C   UNL A   1      33.503  27.097  26.100  1.00  0.00     0.262 C 
ATOM     20  H   UNL A   1      31.677  27.458  25.272  1.00  0.00     0.348 HD
ATOM     21  C   UNL A   1      31.964  29.296  27.201  1.00  0.00     0.062 C 
ATOM     22  C   UNL A   1      34.017  28.537  26.024  1.00  0.00     0.062 C 
ATOM     23  C   UNL A   1      33.481  29.374  27.178  1.00  0.00     0.012 C 
ENDBRANCH  16  17
ENDBRANCH   9  11
ENDBRANCH   7   9
ENDBRANCH   4   7
ENDBRANCH   2   3
ENDBRANCH   1   2
BRANCH   1  24
ATOM     24  C   UNL A   1      38.037  19.717  24.993  1.00  0.00     0.023 C 
BRANCH  24  25
ATOM     25  C   UNL A   1      39.286  20.145  25.751  1.00  0.00     0.116 C 
BRANCH  25  26
ATOM     26  N   UNL A   1      40.277  19.087  25.865  1.00  0.00    -0.352 N 
ATOM     27  C   UNL A   1      41.625  19.185  26.107  1.00  0.00     0.251 C 
ATOM     28  H   UNL A   1      39.932  18.171  25.752  1.00  0.00     0.163 HD
ATOM     29  O   UNL A   1      42.338  18.188  26.050  1.00  0.00    -0.269 OA
BRANCH  27  30
ATOM     30  C   UNL A   1      42.223  20.505  26.401  1.00  0.00     0.039 A 
ATOM     31  C   UNL A   1      42.702  21.279  25.342  1.00  0.00     0.014 A 
ATOM     32  C   UNL A   1      42.294  20.984  27.712  1.00  0.00     0.014 A 
ATOM     33  C   UNL A   1      43.190  22.564  25.590  1.00  0.00     0.010 A 
ATOM     34  C   UNL A   1      42.703  22.293  27.948  1.00  0.00     0.010 A 
ATOM     35  C   UNL A   1      43.162  23.093  26.890  1.00  0.00    -0.014 A 
BRANCH  35  36
ATOM     36  C   UNL A   1      43.618  24.477  27.171  1.00  0.00     0.031 A 
ATOM     37  C   UNL A   1      42.648  25.498  27.696  1.00  0.00     0.074 A 
ATOM     38  C   UNL A   1      44.886  24.835  26.889  1.00  0.00     0.049 A 
ATOM     39  N   UNL A   1      42.832  26.772  27.937  1.00  0.00    -0.248 NA
ATOM     40  C   UNL A   1      41.278  25.029  27.956  1.00  0.00     0.031 C 
ATOM     41  C   UNL A   1      45.910  23.950  26.331  1.00  0.00     0.029 A 
ATOM     42  N   UNL A   1      45.526  26.042  27.023  1.00  0.00    -0.354 N 
ATOM     43  C   UNL A   1      41.600  27.257  28.355  1.00  0.00     0.074 A 
ATOM     44  C   UNL A   1      40.663  26.156  28.280  1.00  0.00     0.031 C 
ATOM     45  C   UNL A   1      47.057  24.636  26.197  1.00  0.00     0.029 A 
ATOM     46  C   UNL A   1      46.838  26.017  26.622  1.00  0.00     0.049 A 
ATOM     47  H   UNL A   1      45.085  26.848  27.376  1.00  0.00     0.167 HD
ATOM     48  C   UNL A   1      41.283  28.501  28.788  1.00  0.00     0.037 A 
ATOM     49  C   UNL A   1      47.761  26.997  26.597  1.00  0.00     0.037 A 
ATOM     50  C   UNL A   1      42.223  29.586  28.885  1.00  0.00     0.049 A 
ATOM     51  C   UNL A   1      47.385  28.372  27.079  1.00  0.00     0.074 A 
ATOM     52  C   UNL A   1      42.018  30.866  29.370  1.00  0.00     0.029 A 
ATOM     53  N   UNL A   1      43.550  29.517  28.484  1.00  0.00    -0.354 N 
ATOM     54  N   UNL A   1      46.237  28.803  27.540  1.00  0.00    -0.248 NA
ATOM     55  C   UNL A   1      48.439  29.396  27.043  1.00  0.00     0.031 C 
ATOM     56  C   UNL A   1      43.208  31.586  29.218  1.00  0.00     0.029 A 
ATOM     57  C   UNL A   1      44.170  30.740  28.690  1.00  0.00     0.049 A 
ATOM     58  H   UNL A   1      43.987  28.719  28.110  1.00  0.00     0.167 HD
ATOM     59  C   UNL A   1      46.436  30.135  27.878  1.00  0.00     0.074 A 
ATOM     60  C   UNL A   1      47.820  30.438  27.578  1.00  0.00     0.031 C 
ATOM     61  C   UNL A   1      45.552  31.024  28.393  1.00  0.00     0.037 A 
BRANCH  48  62
ATOM     62  C   UNL A   1      39.855  28.750  29.184  1.00  0.00     0.064 A 
ATOM     63  C   UNL A   1      39.404  28.526  30.494  1.00  0.00     0.173 A 
ATOM     64  C   UNL A   1      38.929  29.228  28.245  1.00  0.00     0.173 A 
ATOM     65  F   UNL A   1      40.245  28.058  31.428  1.00  0.00    -0.203 F 
ATOM     66  C   UNL A   1      38.069  28.731  30.838  1.00  0.00     0.198 A 
ATOM     67  C   UNL A   1      37.604  29.465  28.601  1.00  0.00     0.198 A 
ATOM     68  F   UNL A   1      39.308  29.465  26.980  1.00  0.00    -0.203 F 
ATOM     69  F   UNL A   1      37.649  28.447  32.079  1.00  0.00    -0.200 F 
ATOM     70  C   UNL A   1      37.172  29.204  29.894  1.00  0.00     0.200 A 
ATOM     71  F   UNL A   1      36.741  29.936  27.691  1.00  0.00    -0.200 F 
ATOM     72  F   UNL A   1      35.889  29.401  30.225  1.00  0.00    -0.200 F 
ENDBRANCH  48  62
BRANCH  49  73
ATOM     73  C   UNL A   1      49.142  26.700  26.135  1.00  0.00     0.064 A 
ATOM     74  C   UNL A   1      50.086  26.147  27.012  1.00  0.00     0.173 A 
ATOM     75  C   UNL A   1      49.544  26.951  24.816  1.00  0.00     0.173 A 
ATOM     76  F   UNL A   1      49.753  25.907  28.289  1.00  0.00    -0.203 F 
ATOM     77  C   UNL A   1      51.384  25.869  26.590  1.00  0.00     0.198 A 
ATOM     78  C   UNL A   1      50.835  26.648  24.388  1.00  0.00     0.198 A 
ATOM     79  F   UNL A   1      48.676  27.475  23.938  1.00  0.00    -0.203 F 
ATOM     80  F   UNL A   1      52.277  25.376  27.458  1.00  0.00    -0.200 F 
ATOM     81  C   UNL A   1      51.756  26.114  25.277  1.00  0.00     0.200 A 
ATOM     82  F   UNL A   1      51.187  26.872  23.114  1.00  0.00    -0.200 F 
ATOM     83  F   UNL A   1      53.002  25.839  24.869  1.00  0.00    -0.200 F 
ENDBRANCH  49  73
BRANCH  61  84
ATOM     84  C   UNL A   1      46.063  32.401  28.707  1.00  0.00     0.064 A 
ATOM     85  C   UNL A   1      46.638  32.711  29.948  1.00  0.00     0.173 A 
ATOM     86  C   UNL A   1      46.013  33.413  27.736  1.00  0.00     0.173 A 
ATOM     87  F   UNL A   1      46.695  31.783  30.916  1.00  0.00    -0.203 F 
ATOM     88  C   UNL A   1      47.120  33.990  30.214  1.00  0.00     0.198 A 
ATOM     89  C   UNL A   1      46.524  34.681  27.994  1.00  0.00     0.198 A 
ATOM     90  F   UNL A   1      45.479  33.167  26.530  1.00  0.00    -0.203 F 
ATOM     91  F   UNL A   1      47.621  34.277  31.424  1.00  0.00    -0.200 F 
ATOM     92  C   UNL A   1      47.070  34.971  29.235  1.00  0.00     0.200 A 
ATOM     93  F   UNL A   1      46.488  35.624  27.041  1.00  0.00    -0.200 F 
ATOM     94  F   UNL A   1      47.542  36.199  29.490  1.00  0.00    -0.200 F 
ENDBRANCH  61  84
ENDBRANCH  35  36
ENDBRANCH  27  30
ENDBRANCH  25  26
ENDBRANCH  24  25
ENDBRANCH   1  24
TORSDOF 14
ENDMDL
