MODEL 1
REMARK VINA RESULT:     -13.5      0.000      0.000
REMARK SMILES Cc1ccc(S(=O)(=O)N2CCCC2)cc1C(=O)N[C@H](CC1=c2ccccc2=NC1)C(=O)NCCCCNC(=O)c1ccc(-c2c3nc(c(-c4c(F)c(F)c(F)c(F)c4F)c4ccc([nH]4)c(-c4c(F)c(F)c(F)c(F)c4F)c4nc(c(-c5c(F)c(F)c(F)c(F)c5F)c5ccc2[nH]5)C=C4)C=C3)cc1
REMARK SMILES IDX 33 1 32 2 30 3 31 4 19 6 18 7 16 8 17 9 15 11 1 12 2 13 3 14
REMARK SMILES IDX 4 15 14 16 5 17 6 18 7 19 8 20 9 21 10 22 13 23 11 24 12 25
REMARK SMILES IDX 20 26 21 27 22 28 29 29 23 30 27 31 28 32 24 33 26 34 25 35
REMARK SMILES IDX 34 36 35 37 36 38 37 39 38 40 39 42 40 43 41 44 102 45 42 46
REMARK SMILES IDX 101 47 43 48 44 49 45 50 95 51 46 52 100 53 94 54 96 55
REMARK SMILES IDX 47 56 99 57 93 58 92 59 48 61 80 62 60 63 79 64 61 65 64 66
REMARK SMILES IDX 78 67 97 68 62 69 63 70 77 72 98 73 65 74 49 75 50 76 58 77
REMARK SMILES IDX 51 78 52 79 56 80 59 81 53 82 54 83 57 84 55 85 81 86 82 87
REMARK SMILES IDX 90 88 83 89 84 90 88 91 91 92 85 93 86 94 89 95 87 96 66 97
REMARK SMILES IDX 67 98 75 99 68 100 69 101 73 102 76 103 70 104 71 105 74 106
REMARK SMILES IDX 72 107
REMARK H PARENT 32 5 18 10 37 41 96 60 64 71
REMARK Flexibility Score: inf
ROOT
ATOM      1  C   UNL A   1      35.634  22.440  24.532  1.00  0.00     0.116 C 
ENDROOT
BRANCH   1   2
ATOM      2  N   UNL A   1      34.901  23.114  25.583  1.00  0.00    -0.354 N 
ATOM      3  C   UNL A   1      33.589  23.161  25.916  1.00  0.00     0.242 C 
ATOM      4  O   UNL A   1      33.363  23.670  27.023  1.00  0.00    -0.273 OA
ATOM      5  H   UNL A   1      35.474  23.648  26.178  1.00  0.00     0.163 HD
BRANCH   3   6
ATOM      6  C   UNL A   1      32.393  22.695  25.028  1.00  0.00     0.175 C 
BRANCH   6   7
ATOM      7  N   UNL A   1      31.452  23.686  24.401  1.00  0.00    -0.340 N 
ATOM      8  C   UNL A   1      31.241  24.965  23.955  1.00  0.00     0.252 C 
ATOM      9  O   UNL A   1      30.132  25.090  23.411  1.00  0.00    -0.269 OA
ATOM     10  H   UNL A   1      30.613  23.199  24.240  1.00  0.00     0.164 HD
BRANCH   8  11
ATOM     11  C   UNL A   1      32.107  26.202  23.958  1.00  0.00     0.044 A 
ATOM     12  C   UNL A   1      32.782  26.285  21.516  1.00  0.00     0.045 C 
ATOM     13  C   UNL A   1      32.820  26.765  22.898  1.00  0.00    -0.038 A 
ATOM     14  C   UNL A   1      33.651  27.894  23.059  1.00  0.00     0.005 A 
ATOM     15  C   UNL A   1      33.802  28.494  24.283  1.00  0.00     0.022 A 
ATOM     16  C   UNL A   1      32.250  26.863  25.204  1.00  0.00     0.035 A 
ATOM     17  C   UNL A   1      33.113  27.968  25.361  1.00  0.00     0.083 A 
BRANCH  17  18
ATOM     18  S   UNL A   1      33.444  28.780  26.899  1.00  0.00     0.243 S 
ATOM     19  O   UNL A   1      32.604  28.162  27.898  1.00  0.00    -0.207 OA
ATOM     20  O   UNL A   1      34.887  28.803  27.043  1.00  0.00    -0.207 OA
BRANCH  18  21
ATOM     21  N   UNL A   1      32.917  30.350  26.691  1.00  0.00    -0.198 NA
ATOM     22  C   UNL A   1      31.471  30.627  26.689  1.00  0.00     0.102 C 
ATOM     23  C   UNL A   1      33.510  31.367  27.576  1.00  0.00     0.102 C 
ATOM     24  C   UNL A   1      31.494  32.123  26.437  1.00  0.00     0.018 C 
ATOM     25  C   UNL A   1      32.663  32.611  27.296  1.00  0.00     0.018 C 
ENDBRANCH  18  21
ENDBRANCH  17  18
ENDBRANCH   8  11
ENDBRANCH   6   7
BRANCH   6  26
ATOM     26  C   UNL A   1      31.854  21.222  25.276  1.00  0.00     0.068 C 
BRANCH  26  27
ATOM     27  C   UNL A   1      32.193  20.083  24.321  1.00  0.00    -0.037 C 
ATOM     28  C   UNL A   1      32.622  18.860  24.634  1.00  0.00     0.001 A 
ATOM     29  C   UNL A   1      32.210  20.206  22.818  1.00  0.00     0.174 C 
ATOM     30  C   UNL A   1      32.903  18.171  25.849  1.00  0.00     0.010 A 
ATOM     31  C   UNL A   1      32.789  18.193  23.331  1.00  0.00     0.065 A 
ATOM     32  N   UNL A   1      32.655  18.911  22.263  1.00  0.00    -0.280 NA
ATOM     33  C   UNL A   1      33.208  16.865  25.791  1.00  0.00     0.001 A 
ATOM     34  C   UNL A   1      33.071  16.748  23.344  1.00  0.00     0.028 A 
ATOM     35  C   UNL A   1      33.245  16.145  24.530  1.00  0.00     0.002 A 
ENDBRANCH  26  27
ENDBRANCH   6  26
ENDBRANCH   3   6
ENDBRANCH   1   2
BRANCH   1  36
ATOM     36  C   UNL A   1      36.116  21.050  24.947  1.00  0.00     0.023 C 
BRANCH  36  37
ATOM     37  C   UNL A   1      37.608  20.871  25.170  1.00  0.00     0.023 C 
BRANCH  37  38
ATOM     38  C   UNL A   1      38.326  22.174  25.429  1.00  0.00     0.116 C 
BRANCH  38  39
ATOM     39  N   UNL A   1      39.612  22.096  26.109  1.00  0.00    -0.352 N 
ATOM     40  C   UNL A   1      40.432  23.138  26.532  1.00  0.00     0.251 C 
ATOM     41  H   UNL A   1      39.944  21.188  26.294  1.00  0.00     0.163 HD
ATOM     42  O   UNL A   1      41.576  22.911  26.912  1.00  0.00    -0.269 OA
BRANCH  40  43
ATOM     43  C   UNL A   1      39.862  24.505  26.704  1.00  0.00     0.039 A 
ATOM     44  C   UNL A   1      40.522  25.555  26.053  1.00  0.00     0.014 A 
ATOM     45  C   UNL A   1      39.067  24.779  27.801  1.00  0.00     0.014 A 
ATOM     46  C   UNL A   1      40.681  26.763  26.720  1.00  0.00     0.010 A 
ATOM     47  C   UNL A   1      39.435  25.841  28.578  1.00  0.00     0.010 A 
ATOM     48  C   UNL A   1      40.276  26.814  28.046  1.00  0.00    -0.014 A 
BRANCH  48  49
ATOM     49  C   UNL A   1      40.509  27.911  28.955  1.00  0.00     0.031 A 
ATOM     50  C   UNL A   1      39.569  29.030  28.860  1.00  0.00     0.074 A 
ATOM     51  C   UNL A   1      41.392  27.756  29.963  1.00  0.00     0.049 A 
ATOM     52  N   UNL A   1      39.784  30.200  29.330  1.00  0.00    -0.248 NA
ATOM     53  C   UNL A   1      38.279  28.908  28.184  1.00  0.00     0.031 C 
ATOM     54  C   UNL A   1      41.622  28.589  31.136  1.00  0.00     0.029 A 
ATOM     55  N   UNL A   1      42.483  26.884  29.963  1.00  0.00    -0.354 N 
ATOM     56  C   UNL A   1      38.572  30.852  29.349  1.00  0.00     0.074 A 
ATOM     57  C   UNL A   1      37.706  30.065  28.510  1.00  0.00     0.031 C 
ATOM     58  C   UNL A   1      42.917  28.474  31.492  1.00  0.00     0.029 A 
ATOM     59  C   UNL A   1      43.556  27.662  30.468  1.00  0.00     0.049 A 
ATOM     60  H   UNL A   1      42.504  25.942  29.677  1.00  0.00     0.167 HD
ATOM     61  C   UNL A   1      38.428  31.881  30.229  1.00  0.00     0.037 A 
ATOM     62  C   UNL A   1      44.542  28.059  29.604  1.00  0.00     0.037 A 
ATOM     63  C   UNL A   1      39.718  32.168  30.868  1.00  0.00     0.049 A 
ATOM     64  C   UNL A   1      44.601  29.566  29.444  1.00  0.00     0.074 A 
ATOM     65  C   UNL A   1      40.298  31.825  32.078  1.00  0.00     0.029 A 
ATOM     66  N   UNL A   1      40.759  32.580  30.056  1.00  0.00    -0.354 N 
ATOM     67  N   UNL A   1      43.652  30.370  29.842  1.00  0.00    -0.248 NA
ATOM     68  C   UNL A   1      45.687  30.285  28.779  1.00  0.00     0.031 C 
ATOM     69  C   UNL A   1      41.714  31.985  31.949  1.00  0.00     0.029 A 
ATOM     70  C   UNL A   1      41.985  32.436  30.669  1.00  0.00     0.049 A 
ATOM     71  H   UNL A   1      40.638  32.934  29.146  1.00  0.00     0.167 HD
ATOM     72  C   UNL A   1      43.976  31.660  29.541  1.00  0.00     0.074 A 
ATOM     73  C   UNL A   1      45.239  31.552  28.829  1.00  0.00     0.031 C 
ATOM     74  C   UNL A   1      43.186  32.717  29.895  1.00  0.00     0.037 A 
BRANCH  61  75
ATOM     75  C   UNL A   1      37.116  32.460  30.701  1.00  0.00     0.064 A 
ATOM     76  C   UNL A   1      36.382  33.305  29.841  1.00  0.00     0.173 A 
ATOM     77  C   UNL A   1      36.537  32.281  31.973  1.00  0.00     0.173 A 
ATOM     78  F   UNL A   1      36.763  33.519  28.575  1.00  0.00    -0.203 F 
ATOM     79  C   UNL A   1      35.220  33.967  30.243  1.00  0.00     0.198 A 
ATOM     80  C   UNL A   1      35.391  32.969  32.388  1.00  0.00     0.198 A 
ATOM     81  F   UNL A   1      37.009  31.399  32.855  1.00  0.00    -0.203 F 
ATOM     82  F   UNL A   1      34.577  34.761  29.376  1.00  0.00    -0.200 F 
ATOM     83  C   UNL A   1      34.735  33.816  31.524  1.00  0.00     0.200 A 
ATOM     84  F   UNL A   1      34.928  32.791  33.634  1.00  0.00    -0.200 F 
ATOM     85  F   UNL A   1      33.629  34.462  31.916  1.00  0.00    -0.200 F 
ENDBRANCH  61  75
BRANCH  62  86
ATOM     86  C   UNL A   1      44.767  27.039  28.522  1.00  0.00     0.064 A 
ATOM     87  C   UNL A   1      44.357  27.399  27.216  1.00  0.00     0.173 A 
ATOM     88  C   UNL A   1      45.698  26.002  28.624  1.00  0.00     0.173 A 
ATOM     89  F   UNL A   1      43.423  28.351  27.041  1.00  0.00    -0.203 F 
ATOM     90  C   UNL A   1      45.043  26.951  26.094  1.00  0.00     0.198 A 
ATOM     91  C   UNL A   1      46.281  25.449  27.477  1.00  0.00     0.198 A 
ATOM     92  F   UNL A   1      46.141  25.594  29.821  1.00  0.00    -0.203 F 
ATOM     93  F   UNL A   1      44.830  27.547  24.913  1.00  0.00    -0.200 F 
ATOM     94  C   UNL A   1      45.995  25.963  26.220  1.00  0.00     0.200 A 
ATOM     95  F   UNL A   1      47.232  24.512  27.602  1.00  0.00    -0.200 F 
ATOM     96  F   UNL A   1      46.672  25.539  25.145  1.00  0.00    -0.200 F 
ENDBRANCH  62  86
BRANCH  74  97
ATOM     97  C   UNL A   1      43.498  34.133  29.517  1.00  0.00     0.064 A 
ATOM     98  C   UNL A   1      43.718  35.131  30.475  1.00  0.00     0.173 A 
ATOM     99  C   UNL A   1      43.500  34.554  28.168  1.00  0.00     0.173 A 
ATOM    100  F   UNL A   1      43.644  34.852  31.785  1.00  0.00    -0.203 F 
ATOM    101  C   UNL A   1      44.009  36.444  30.104  1.00  0.00     0.198 A 
ATOM    102  C   UNL A   1      43.718  35.878  27.805  1.00  0.00     0.198 A 
ATOM    103  F   UNL A   1      43.331  33.690  27.156  1.00  0.00    -0.203 F 
ATOM    104  F   UNL A   1      44.302  37.349  31.048  1.00  0.00    -0.200 F 
ATOM    105  C   UNL A   1      44.001  36.819  28.772  1.00  0.00     0.200 A 
ATOM    106  F   UNL A   1      43.667  36.227  26.512  1.00  0.00    -0.200 F 
ATOM    107  F   UNL A   1      44.273  38.081  28.419  1.00  0.00    -0.200 F 
ENDBRANCH  74  97
ENDBRANCH  48  49
ENDBRANCH  40  43
ENDBRANCH  38  39
ENDBRANCH  37  38
ENDBRANCH  36  37
ENDBRANCH   1  36
TORSDOF 17
ENDMDL
MODEL 2
REMARK VINA RESULT:     -13.3      3.634      9.904
REMARK SMILES Cc1ccc(S(=O)(=O)N2CCCC2)cc1C(=O)N[C@H](CC1=c2ccccc2=NC1)C(=O)NCCCCNC(=O)c1ccc(-c2c3nc(c(-c4c(F)c(F)c(F)c(F)c4F)c4ccc([nH]4)c(-c4c(F)c(F)c(F)c(F)c4F)c4nc(c(-c5c(F)c(F)c(F)c(F)c5F)c5ccc2[nH]5)C=C4)C=C3)cc1
REMARK SMILES IDX 33 1 32 2 30 3 31 4 19 6 18 7 16 8 17 9 15 11 1 12 2 13 3 14
REMARK SMILES IDX 4 15 14 16 5 17 6 18 7 19 8 20 9 21 10 22 13 23 11 24 12 25
REMARK SMILES IDX 20 26 21 27 22 28 29 29 23 30 27 31 28 32 24 33 26 34 25 35
REMARK SMILES IDX 34 36 35 37 36 38 37 39 38 40 39 42 40 43 41 44 102 45 42 46
REMARK SMILES IDX 101 47 43 48 44 49 45 50 95 51 46 52 100 53 94 54 96 55
REMARK SMILES IDX 47 56 99 57 93 58 92 59 48 61 80 62 60 63 79 64 61 65 64 66
REMARK SMILES IDX 78 67 97 68 62 69 63 70 77 72 98 73 65 74 49 75 50 76 58 77
REMARK SMILES IDX 51 78 52 79 56 80 59 81 53 82 54 83 57 84 55 85 81 86 82 87
REMARK SMILES IDX 90 88 83 89 84 90 88 91 91 92 85 93 86 94 89 95 87 96 66 97
REMARK SMILES IDX 67 98 75 99 68 100 69 101 73 102 76 103 70 104 71 105 74 106
REMARK SMILES IDX 72 107
REMARK H PARENT 32 5 18 10 37 41 96 60 64 71
REMARK Flexibility Score: inf
ROOT
ATOM      1  C   UNL A   1      34.509  28.915  26.903  1.00  0.00     0.116 C 
ENDROOT
BRANCH   1   2
ATOM      2  N   UNL A   1      34.315  28.723  25.481  1.00  0.00    -0.354 N 
ATOM      3  C   UNL A   1      33.216  28.691  24.692  1.00  0.00     0.242 C 
ATOM      4  O   UNL A   1      33.460  28.726  23.477  1.00  0.00    -0.273 OA
ATOM      5  H   UNL A   1      35.155  28.590  24.987  1.00  0.00     0.163 HD
BRANCH   3   6
ATOM      6  C   UNL A   1      31.737  28.562  25.172  1.00  0.00     0.175 C 
BRANCH   6   7
ATOM      7  N   UNL A   1      31.096  27.217  25.378  1.00  0.00    -0.340 N 
ATOM      8  C   UNL A   1      31.157  25.861  25.190  1.00  0.00     0.252 C 
ATOM      9  O   UNL A   1      30.224  25.270  25.757  1.00  0.00    -0.269 OA
ATOM     10  H   UNL A   1      30.258  27.387  25.864  1.00  0.00     0.164 HD
BRANCH   8  11
ATOM     11  C   UNL A   1      32.153  24.973  24.482  1.00  0.00     0.044 A 
ATOM     12  C   UNL A   1      32.017  25.924  22.136  1.00  0.00     0.045 C 
ATOM     13  C   UNL A   1      32.505  24.968  23.132  1.00  0.00    -0.038 A 
ATOM     14  C   UNL A   1      33.408  24.030  22.587  1.00  0.00     0.005 A 
ATOM     15  C   UNL A   1      33.983  23.063  23.371  1.00  0.00     0.022 A 
ATOM     16  C   UNL A   1      32.791  23.989  25.278  1.00  0.00     0.035 A 
ATOM     17  C   UNL A   1      33.662  23.032  24.716  1.00  0.00     0.083 A 
BRANCH  17  18
ATOM     18  S   UNL A   1      34.407  21.697  25.609  1.00  0.00     0.243 S 
ATOM     19  O   UNL A   1      33.729  21.603  26.880  1.00  0.00    -0.207 OA
ATOM     20  O   UNL A   1      34.447  20.571  24.695  1.00  0.00    -0.207 OA
BRANCH  18  21
ATOM     21  N   UNL A   1      35.976  22.185  25.902  1.00  0.00    -0.198 NA
ATOM     22  C   UNL A   1      37.066  21.617  25.092  1.00  0.00     0.102 C 
ATOM     23  C   UNL A   1      36.222  23.637  25.927  1.00  0.00     0.102 C 
ATOM     24  C   UNL A   1      38.254  22.309  25.735  1.00  0.00     0.018 C 
ATOM     25  C   UNL A   1      37.748  23.732  25.978  1.00  0.00     0.018 C 
ENDBRANCH  18  21
ENDBRANCH  17  18
ENDBRANCH   8  11
ENDBRANCH   6   7
BRANCH   6  26
ATOM     26  C   UNL A   1      30.781  29.795  24.876  1.00  0.00     0.068 C 
BRANCH  26  27
ATOM     27  C   UNL A   1      29.965  29.875  23.590  1.00  0.00    -0.037 C 
ATOM     28  C   UNL A   1      29.321  30.934  23.101  1.00  0.00     0.001 A 
ATOM     29  C   UNL A   1      29.653  28.695  22.703  1.00  0.00     0.174 C 
ATOM     30  C   UNL A   1      29.146  32.286  23.513  1.00  0.00     0.010 A 
ATOM     31  C   UNL A   1      28.711  30.439  21.855  1.00  0.00     0.065 A 
ATOM     32  N   UNL A   1      28.786  29.171  21.607  1.00  0.00    -0.280 NA
ATOM     33  C   UNL A   1      28.515  33.134  22.685  1.00  0.00     0.001 A 
ATOM     34  C   UNL A   1      28.083  31.434  20.969  1.00  0.00     0.028 A 
ATOM     35  C   UNL A   1      28.024  32.708  21.385  1.00  0.00     0.002 A 
ENDBRANCH  26  27
ENDBRANCH   6  26
ENDBRANCH   3   6
ENDBRANCH   1   2
BRANCH   1  36
ATOM     36  C   UNL A   1      34.512  30.391  27.305  1.00  0.00     0.023 C 
BRANCH  36  37
ATOM     37  C   UNL A   1      35.770  30.928  27.964  1.00  0.00     0.023 C 
BRANCH  37  38
ATOM     38  C   UNL A   1      35.636  31.073  29.461  1.00  0.00     0.116 C 
BRANCH  38  39
ATOM     39  N   UNL A   1      34.704  32.082  29.947  1.00  0.00    -0.352 N 
ATOM     40  C   UNL A   1      34.846  32.940  31.033  1.00  0.00     0.251 C 
ATOM     41  H   UNL A   1      33.865  32.168  29.440  1.00  0.00     0.163 HD
ATOM     42  O   UNL A   1      33.890  33.595  31.434  1.00  0.00    -0.269 OA
BRANCH  40  43
ATOM     43  C   UNL A   1      36.202  33.206  31.593  1.00  0.00     0.039 A 
ATOM     44  C   UNL A   1      37.115  33.865  30.760  1.00  0.00     0.014 A 
ATOM     45  C   UNL A   1      36.671  32.434  32.639  1.00  0.00     0.014 A 
ATOM     46  C   UNL A   1      38.438  33.442  30.749  1.00  0.00     0.010 A 
ATOM     47  C   UNL A   1      37.880  31.823  32.459  1.00  0.00     0.010 A 
ATOM     48  C   UNL A   1      38.748  32.307  31.484  1.00  0.00    -0.014 A 
BRANCH  48  49
ATOM     49  C   UNL A   1      40.014  31.613  31.468  1.00  0.00     0.031 A 
ATOM     50  C   UNL A   1      40.037  30.346  30.732  1.00  0.00     0.074 A 
ATOM     51  C   UNL A   1      41.120  32.249  31.905  1.00  0.00     0.049 A 
ATOM     52  N   UNL A   1      40.937  29.447  30.866  1.00  0.00    -0.248 NA
ATOM     53  C   UNL A   1      38.997  29.984  29.773  1.00  0.00     0.031 C 
ATOM     54  C   UNL A   1      42.523  31.878  31.765  1.00  0.00     0.029 A 
ATOM     55  N   UNL A   1      41.148  33.288  32.837  1.00  0.00    -0.354 N 
ATOM     56  C   UNL A   1      40.809  28.592  29.795  1.00  0.00     0.074 A 
ATOM     57  C   UNL A   1      39.519  28.887  29.227  1.00  0.00     0.031 C 
ATOM     58  C   UNL A   1      43.198  32.366  32.825  1.00  0.00     0.029 A 
ATOM     59  C   UNL A   1      42.206  32.943  33.717  1.00  0.00     0.049 A 
ATOM     60  H   UNL A   1      40.566  34.082  32.875  1.00  0.00     0.167 HD
ATOM     61  C   UNL A   1      41.908  27.873  29.434  1.00  0.00     0.037 A 
ATOM     62  C   UNL A   1      41.894  32.520  34.982  1.00  0.00     0.037 A 
ATOM     63  C   UNL A   1      42.974  28.071  30.422  1.00  0.00     0.049 A 
ATOM     64  C   UNL A   1      42.311  31.083  35.231  1.00  0.00     0.074 A 
ATOM     65  C   UNL A   1      44.098  28.879  30.487  1.00  0.00     0.029 A 
ATOM     66  N   UNL A   1      42.732  27.661  31.720  1.00  0.00    -0.354 N 
ATOM     67  N   UNL A   1      42.654  30.258  34.279  1.00  0.00    -0.248 NA
ATOM     68  C   UNL A   1      42.322  30.441  36.545  1.00  0.00     0.031 C 
ATOM     69  C   UNL A   1      44.483  28.988  31.860  1.00  0.00     0.029 A 
ATOM     70  C   UNL A   1      43.602  28.238  32.619  1.00  0.00     0.049 A 
ATOM     71  H   UNL A   1      42.020  27.030  31.972  1.00  0.00     0.167 HD
ATOM     72  C   UNL A   1      42.952  29.035  34.805  1.00  0.00     0.074 A 
ATOM     73  C   UNL A   1      42.679  29.184  36.226  1.00  0.00     0.031 C 
ATOM     74  C   UNL A   1      43.395  27.994  34.040  1.00  0.00     0.037 A 
BRANCH  61  75
ATOM     75  C   UNL A   1      42.122  27.202  28.098  1.00  0.00     0.064 A 
ATOM     76  C   UNL A   1      42.321  25.806  28.048  1.00  0.00     0.173 A 
ATOM     77  C   UNL A   1      42.191  27.845  26.845  1.00  0.00     0.173 A 
ATOM     78  F   UNL A   1      42.215  25.042  29.143  1.00  0.00    -0.203 F 
ATOM     79  C   UNL A   1      42.636  25.130  26.866  1.00  0.00     0.198 A 
ATOM     80  C   UNL A   1      42.539  27.174  25.668  1.00  0.00     0.198 A 
ATOM     81  F   UNL A   1      41.876  29.130  26.684  1.00  0.00    -0.203 F 
ATOM     82  F   UNL A   1      42.820  23.802  26.893  1.00  0.00    -0.200 F 
ATOM     83  C   UNL A   1      42.766  25.816  25.679  1.00  0.00     0.200 A 
ATOM     84  F   UNL A   1      42.641  27.862  24.521  1.00  0.00    -0.200 F 
ATOM     85  F   UNL A   1      43.082  25.172  24.548  1.00  0.00    -0.200 F 
ENDBRANCH  61  75
BRANCH  62  86
ATOM     86  C   UNL A   1      40.647  33.187  35.493  1.00  0.00     0.064 A 
ATOM     87  C   UNL A   1      39.523  32.353  35.703  1.00  0.00     0.173 A 
ATOM     88  C   UNL A   1      40.649  34.417  36.156  1.00  0.00     0.173 A 
ATOM     89  F   UNL A   1      39.425  31.178  35.057  1.00  0.00    -0.203 F 
ATOM     90  C   UNL A   1      38.614  32.608  36.722  1.00  0.00     0.198 A 
ATOM     91  C   UNL A   1      39.643  34.733  37.078  1.00  0.00     0.198 A 
ATOM     92  F   UNL A   1      41.672  35.271  36.012  1.00  0.00    -0.203 F 
ATOM     93  F   UNL A   1      37.754  31.649  37.091  1.00  0.00    -0.200 F 
ATOM     94  C   UNL A   1      38.662  33.806  37.401  1.00  0.00     0.200 A 
ATOM     95  F   UNL A   1      39.710  35.885  37.763  1.00  0.00    -0.200 F 
ATOM     96  F   UNL A   1      37.800  34.052  38.396  1.00  0.00    -0.200 F 
ENDBRANCH  62  86
BRANCH  74  97
ATOM     97  C   UNL A   1      43.666  26.629  34.595  1.00  0.00     0.064 A 
ATOM     98  C   UNL A   1      44.966  26.128  34.745  1.00  0.00     0.173 A 
ATOM     99  C   UNL A   1      42.616  25.740  34.916  1.00  0.00     0.173 A 
ATOM    100  F   UNL A   1      46.029  26.860  34.379  1.00  0.00    -0.203 F 
ATOM    101  C   UNL A   1      45.200  24.855  35.266  1.00  0.00     0.198 A 
ATOM    102  C   UNL A   1      42.851  24.446  35.364  1.00  0.00     0.198 A 
ATOM    103  F   UNL A   1      41.329  26.109  34.843  1.00  0.00    -0.203 F 
ATOM    104  F   UNL A   1      46.458  24.447  35.477  1.00  0.00    -0.200 F 
ATOM    105  C   UNL A   1      44.144  24.012  35.567  1.00  0.00     0.200 A 
ATOM    106  F   UNL A   1      41.815  23.633  35.614  1.00  0.00    -0.200 F 
ATOM    107  F   UNL A   1      44.370  22.788  36.059  1.00  0.00    -0.200 F 
ENDBRANCH  74  97
ENDBRANCH  48  49
ENDBRANCH  40  43
ENDBRANCH  38  39
ENDBRANCH  37  38
ENDBRANCH  36  37
ENDBRANCH   1  36
TORSDOF 17
ENDMDL
MODEL 3
REMARK VINA RESULT:     -12.8      1.508      2.127
REMARK SMILES Cc1ccc(S(=O)(=O)N2CCCC2)cc1C(=O)N[C@H](CC1=c2ccccc2=NC1)C(=O)NCCCCNC(=O)c1ccc(-c2c3nc(c(-c4c(F)c(F)c(F)c(F)c4F)c4ccc([nH]4)c(-c4c(F)c(F)c(F)c(F)c4F)c4nc(c(-c5c(F)c(F)c(F)c(F)c5F)c5ccc2[nH]5)C=C4)C=C3)cc1
REMARK SMILES IDX 33 1 32 2 30 3 31 4 19 6 18 7 16 8 17 9 15 11 1 12 2 13 3 14
REMARK SMILES IDX 4 15 14 16 5 17 6 18 7 19 8 20 9 21 10 22 13 23 11 24 12 25
REMARK SMILES IDX 20 26 21 27 22 28 29 29 23 30 27 31 28 32 24 33 26 34 25 35
REMARK SMILES IDX 34 36 35 37 36 38 37 39 38 40 39 42 40 43 41 44 102 45 42 46
REMARK SMILES IDX 101 47 43 48 44 49 45 50 95 51 46 52 100 53 94 54 96 55
REMARK SMILES IDX 47 56 99 57 93 58 92 59 48 61 80 62 60 63 79 64 61 65 64 66
REMARK SMILES IDX 78 67 97 68 62 69 63 70 77 72 98 73 65 74 49 75 50 76 58 77
REMARK SMILES IDX 51 78 52 79 56 80 59 81 53 82 54 83 57 84 55 85 81 86 82 87
REMARK SMILES IDX 90 88 83 89 84 90 88 91 91 92 85 93 86 94 89 95 87 96 66 97
REMARK SMILES IDX 67 98 75 99 68 100 69 101 73 102 76 103 70 104 71 105 74 106
REMARK SMILES IDX 72 107
REMARK H PARENT 32 5 18 10 37 41 96 60 64 71
REMARK Flexibility Score: inf
ROOT
ATOM      1  C   UNL A   1      36.221  22.417  24.855  1.00  0.00     0.116 C 
ENDROOT
BRANCH   1   2
ATOM      2  N   UNL A   1      35.839  22.980  26.133  1.00  0.00    -0.354 N 
ATOM      3  C   UNL A   1      34.724  22.877  26.895  1.00  0.00     0.242 C 
ATOM      4  O   UNL A   1      34.849  23.328  28.043  1.00  0.00    -0.273 OA
ATOM      5  H   UNL A   1      36.532  23.555  26.530  1.00  0.00     0.163 HD
BRANCH   3   6
ATOM      6  C   UNL A   1      33.343  22.311  26.441  1.00  0.00     0.175 C 
BRANCH   6   7
ATOM      7  N   UNL A   1      32.077  23.102  26.619  1.00  0.00    -0.340 N 
ATOM      8  C   UNL A   1      31.227  24.059  26.128  1.00  0.00     0.252 C 
ATOM      9  O   UNL A   1      30.205  24.175  26.825  1.00  0.00    -0.269 OA
ATOM     10  H   UNL A   1      31.684  22.799  27.468  1.00  0.00     0.164 HD
BRANCH   8  11
ATOM     11  C   UNL A   1      31.278  24.936  24.900  1.00  0.00     0.044 A 
ATOM     12  C   UNL A   1      30.994  23.188  23.085  1.00  0.00     0.045 C 
ATOM     13  C   UNL A   1      31.217  24.556  23.558  1.00  0.00    -0.038 A 
ATOM     14  C   UNL A   1      31.347  25.482  22.502  1.00  0.00     0.005 A 
ATOM     15  C   UNL A   1      31.548  26.815  22.749  1.00  0.00     0.022 A 
ATOM     16  C   UNL A   1      31.447  26.325  25.129  1.00  0.00     0.035 A 
ATOM     17  C   UNL A   1      31.614  27.236  24.065  1.00  0.00     0.083 A 
BRANCH  17  18
ATOM     18  S   UNL A   1      31.949  28.964  24.259  1.00  0.00     0.243 S 
ATOM     19  O   UNL A   1      32.939  29.320  23.270  1.00  0.00    -0.207 OA
ATOM     20  O   UNL A   1      30.659  29.625  24.300  1.00  0.00    -0.207 OA
BRANCH  18  21
ATOM     21  N   UNL A   1      32.656  29.110  25.764  1.00  0.00    -0.198 NA
ATOM     22  C   UNL A   1      34.047  28.663  25.949  1.00  0.00     0.102 C 
ATOM     23  C   UNL A   1      32.582  30.435  26.402  1.00  0.00     0.102 C 
ATOM     24  C   UNL A   1      34.216  28.951  27.430  1.00  0.00     0.018 C 
ATOM     25  C   UNL A   1      33.503  30.291  27.616  1.00  0.00     0.018 C 
ENDBRANCH  18  21
ENDBRANCH  17  18
ENDBRANCH   8  11
ENDBRANCH   6   7
BRANCH   6  26
ATOM     26  C   UNL A   1      33.216  20.732  26.345  1.00  0.00     0.068 C 
BRANCH  26  27
ATOM     27  C   UNL A   1      32.959  20.035  25.013  1.00  0.00    -0.037 C 
ATOM     28  C   UNL A   1      33.519  18.914  24.560  1.00  0.00     0.001 A 
ATOM     29  C   UNL A   1      32.088  20.592  23.914  1.00  0.00     0.174 C 
ATOM     30  C   UNL A   1      34.476  17.989  25.068  1.00  0.00     0.010 A 
ATOM     31  C   UNL A   1      32.906  18.716  23.235  1.00  0.00     0.065 A 
ATOM     32  N   UNL A   1      32.155  19.660  22.770  1.00  0.00    -0.280 NA
ATOM     33  C   UNL A   1      34.721  16.869  24.370  1.00  0.00     0.001 A 
ATOM     34  C   UNL A   1      33.177  17.441  22.550  1.00  0.00     0.028 A 
ATOM     35  C   UNL A   1      34.028  16.578  23.126  1.00  0.00     0.002 A 
ENDBRANCH  26  27
ENDBRANCH   6  26
ENDBRANCH   3   6
ENDBRANCH   1   2
BRANCH   1  36
ATOM     36  C   UNL A   1      37.152  21.212  24.996  1.00  0.00     0.023 C 
BRANCH  36  37
ATOM     37  C   UNL A   1      38.584  21.488  25.419  1.00  0.00     0.023 C 
BRANCH  37  38
ATOM     38  C   UNL A   1      38.700  22.632  26.398  1.00  0.00     0.116 C 
BRANCH  38  39
ATOM     39  N   UNL A   1      39.985  22.805  27.063  1.00  0.00    -0.352 N 
ATOM     40  C   UNL A   1      40.650  23.990  27.366  1.00  0.00     0.251 C 
ATOM     41  H   UNL A   1      40.442  21.977  27.334  1.00  0.00     0.163 HD
ATOM     42  O   UNL A   1      41.815  23.966  27.749  1.00  0.00    -0.269 OA
BRANCH  40  43
ATOM     43  C   UNL A   1      39.893  25.274  27.407  1.00  0.00     0.039 A 
ATOM     44  C   UNL A   1      40.400  26.335  26.645  1.00  0.00     0.014 A 
ATOM     45  C   UNL A   1      39.065  25.542  28.480  1.00  0.00     0.014 A 
ATOM     46  C   UNL A   1      40.386  27.614  27.185  1.00  0.00     0.010 A 
ATOM     47  C   UNL A   1      39.278  26.719  29.142  1.00  0.00     0.010 A 
ATOM     48  C   UNL A   1      39.974  27.742  28.504  1.00  0.00    -0.014 A 
BRANCH  48  49
ATOM     49  C   UNL A   1      40.049  28.947  29.296  1.00  0.00     0.031 A 
ATOM     50  C   UNL A   1      39.069  29.986  28.971  1.00  0.00     0.074 A 
ATOM     51  C   UNL A   1      40.823  28.963  30.401  1.00  0.00     0.049 A 
ATOM     52  N   UNL A   1      39.170  31.212  29.319  1.00  0.00    -0.248 NA
ATOM     53  C   UNL A   1      37.869  29.705  28.185  1.00  0.00     0.031 C 
ATOM     54  C   UNL A   1      40.878  29.936  31.484  1.00  0.00     0.029 A 
ATOM     55  N   UNL A   1      41.950  28.168  30.618  1.00  0.00    -0.354 N 
ATOM     56  C   UNL A   1      37.931  31.783  29.134  1.00  0.00     0.074 A 
ATOM     57  C   UNL A   1      37.205  30.853  28.309  1.00  0.00     0.031 C 
ATOM     58  C   UNL A   1      42.131  29.945  31.983  1.00  0.00     0.029 A 
ATOM     59  C   UNL A   1      42.919  29.066  31.135  1.00  0.00     0.049 A 
ATOM     60  H   UNL A   1      42.051  27.203  30.450  1.00  0.00     0.167 HD
ATOM     61  C   UNL A   1      37.639  32.894  29.866  1.00  0.00     0.037 A 
ATOM     62  C   UNL A   1      43.973  29.424  30.337  1.00  0.00     0.037 A 
ATOM     63  C   UNL A   1      38.834  33.332  30.596  1.00  0.00     0.049 A 
ATOM     64  C   UNL A   1      43.972  30.904  30.006  1.00  0.00     0.074 A 
ATOM     65  C   UNL A   1      39.294  33.166  31.892  1.00  0.00     0.029 A 
ATOM     66  N   UNL A   1      39.935  33.716  29.854  1.00  0.00    -0.354 N 
ATOM     67  N   UNL A   1      42.944  31.686  30.205  1.00  0.00    -0.248 NA
ATOM     68  C   UNL A   1      45.085  31.612  29.377  1.00  0.00     0.031 C 
ATOM     69  C   UNL A   1      40.704  33.401  31.893  1.00  0.00     0.029 A 
ATOM     70  C   UNL A   1      41.092  33.722  30.604  1.00  0.00     0.049 A 
ATOM     71  H   UNL A   1      39.897  33.957  28.901  1.00  0.00     0.167 HD
ATOM     72  C   UNL A   1      43.232  32.952  29.788  1.00  0.00     0.074 A 
ATOM     73  C   UNL A   1      44.570  32.846  29.228  1.00  0.00     0.031 C 
ATOM     74  C   UNL A   1      42.355  33.989  29.930  1.00  0.00     0.037 A 
BRANCH  61  75
ATOM     75  C   UNL A   1      36.254  33.437  30.127  1.00  0.00     0.064 A 
ATOM     76  C   UNL A   1      35.489  33.931  29.049  1.00  0.00     0.173 A 
ATOM     77  C   UNL A   1      35.629  33.553  31.385  1.00  0.00     0.173 A 
ATOM     78  F   UNL A   1      35.914  33.829  27.783  1.00  0.00    -0.203 F 
ATOM     79  C   UNL A   1      34.249  34.551  29.224  1.00  0.00     0.198 A 
ATOM     80  C   UNL A   1      34.403  34.202  31.565  1.00  0.00     0.198 A 
ATOM     81  F   UNL A   1      36.136  33.001  32.488  1.00  0.00    -0.203 F 
ATOM     82  F   UNL A   1      33.580  35.004  28.155  1.00  0.00    -0.200 F 
ATOM     83  C   UNL A   1      33.715  34.706  30.484  1.00  0.00     0.200 A 
ATOM     84  F   UNL A   1      33.894  34.324  32.800  1.00  0.00    -0.200 F 
ATOM     85  F   UNL A   1      32.533  35.313  30.655  1.00  0.00    -0.200 F 
ENDBRANCH  61  75
BRANCH  62  86
ATOM     86  C   UNL A   1      44.368  28.305  29.413  1.00  0.00     0.064 A 
ATOM     87  C   UNL A   1      44.035  28.463  28.047  1.00  0.00     0.173 A 
ATOM     88  C   UNL A   1      45.372  27.380  29.712  1.00  0.00     0.173 A 
ATOM     89  F   UNL A   1      43.041  29.296  27.688  1.00  0.00    -0.203 F 
ATOM     90  C   UNL A   1      44.843  27.948  27.042  1.00  0.00     0.198 A 
ATOM     91  C   UNL A   1      46.089  26.748  28.688  1.00  0.00     0.198 A 
ATOM     92  F   UNL A   1      45.750  27.164  30.979  1.00  0.00    -0.203 F 
ATOM     93  F   UNL A   1      44.676  28.374  25.782  1.00  0.00    -0.200 F 
ATOM     94  C   UNL A   1      45.862  27.076  27.358  1.00  0.00     0.200 A 
ATOM     95  F   UNL A   1      47.102  25.926  28.997  1.00  0.00    -0.200 F 
ATOM     96  F   UNL A   1      46.655  26.589  26.396  1.00  0.00    -0.200 F 
ENDBRANCH  62  86
BRANCH  74  97
ATOM     97  C   UNL A   1      42.633  35.371  29.420  1.00  0.00     0.064 A 
ATOM     98  C   UNL A   1      42.223  35.795  28.149  1.00  0.00     0.173 A 
ATOM     99  C   UNL A   1      43.402  36.292  30.166  1.00  0.00     0.173 A 
ATOM    100  F   UNL A   1      41.569  34.962  27.327  1.00  0.00    -0.203 F 
ATOM    101  C   UNL A   1      42.489  37.086  27.692  1.00  0.00     0.198 A 
ATOM    102  C   UNL A   1      43.728  37.552  29.678  1.00  0.00     0.198 A 
ATOM    103  F   UNL A   1      43.828  36.017  31.407  1.00  0.00    -0.203 F 
ATOM    104  F   UNL A   1      42.004  37.482  26.509  1.00  0.00    -0.200 F 
ATOM    105  C   UNL A   1      43.247  37.960  28.452  1.00  0.00     0.200 A 
ATOM    106  F   UNL A   1      44.496  38.368  30.412  1.00  0.00    -0.200 F 
ATOM    107  F   UNL A   1      43.508  39.196  28.008  1.00  0.00    -0.200 F 
ENDBRANCH  74  97
ENDBRANCH  48  49
ENDBRANCH  40  43
ENDBRANCH  38  39
ENDBRANCH  37  38
ENDBRANCH  36  37
ENDBRANCH   1  36
TORSDOF 17
ENDMDL
