MODEL 1
REMARK VINA RESULT:     -13.7      0.000      0.000
REMARK SMILES O=C(CCOc1cccc(/C=C2/SC(=S)N(c3ccc(Cl)c(Cl)c3)C2=O)c1)NCCCCNC(=O)c1ccc(-c2c3nc(c(-c4c(F)c(F)c(F)c(F)c4F)c4ccc([nH]4)c(-c4c(F)c(F)c(F)c(F)c4F)c4nc(c(-c5c(F)c(F)c(F)c(F)c5F)c5ccc2[nH]5)C=C4)C=C3)cc1
REMARK SMILES IDX 29 1 28 2 1 3 2 4 3 6 4 7 5 8 6 9 7 10 27 11 8 12 10 13 9 14
REMARK SMILES IDX 11 15 12 16 13 17 25 18 14 19 16 20 26 21 15 22 17 23 18 24
REMARK SMILES IDX 24 25 19 26 22 27 20 28 23 29 21 30 30 31 31 32 32 33 33 34
REMARK SMILES IDX 34 35 35 37 36 38 37 39 98 40 38 41 97 42 39 43 40 44 41 45
REMARK SMILES IDX 91 46 42 47 96 48 90 49 92 50 43 51 95 52 89 53 88 54 44 56
REMARK SMILES IDX 76 57 56 58 75 59 57 60 60 61 74 62 93 63 58 64 59 65 73 67
REMARK SMILES IDX 94 68 61 69 45 70 46 71 54 72 47 73 48 74 52 75 55 76 49 77
REMARK SMILES IDX 50 78 53 79 51 80 77 81 78 82 86 83 79 84 80 85 84 86 87 87
REMARK SMILES IDX 81 88 82 89 85 90 83 91 62 92 63 93 71 94 64 95 65 96 69 97
REMARK SMILES IDX 72 98 66 99 67 100 70 101 68 102
REMARK H PARENT 28 5 33 36 92 55 60 66
REMARK Flexibility Score: inf
ROOT
ATOM      1  C   UNL A   1      30.181  31.674  24.807  1.00  0.00     0.116 C 
ENDROOT
BRANCH   1   2
ATOM      2  N   UNL A   1      29.091  31.579  23.872  1.00  0.00    -0.356 N 
ATOM      3  O   UNL A   1      29.028  33.767  23.115  1.00  0.00    -0.275 OA
ATOM      4  C   UNL A   1      28.863  32.565  22.932  1.00  0.00     0.223 C 
ATOM      5  H   UNL A   1      28.496  30.795  23.904  1.00  0.00     0.163 HD
BRANCH   4   6
ATOM      6  C   UNL A   1      28.574  32.001  21.574  1.00  0.00     0.141 C 
BRANCH   6   7
ATOM      7  C   UNL A   1      28.363  30.486  21.710  1.00  0.00     0.239 C 
BRANCH   7   8
ATOM      8  O   UNL A   1      29.567  29.730  21.824  1.00  0.00    -0.493 OA
BRANCH   8   9
ATOM      9  C   UNL A   1      29.637  28.416  22.261  1.00  0.00     0.119 A 
ATOM     10  C   UNL A   1      28.524  28.092  23.040  1.00  0.00     0.046 A 
ATOM     11  C   UNL A   1      30.813  27.619  22.377  1.00  0.00     0.054 A 
ATOM     12  C   UNL A   1      28.586  27.023  23.932  1.00  0.00     0.004 A 
ATOM     13  C   UNL A   1      30.971  26.665  23.445  1.00  0.00    -0.021 A 
ATOM     14  C   UNL A   1      29.798  26.335  24.148  1.00  0.00     0.008 A 
BRANCH  13  15
ATOM     15  C   UNL A   1      32.321  26.073  23.916  1.00  0.00     0.029 C 
ATOM     16  C   UNL A   1      32.934  24.847  24.059  1.00  0.00     0.081 C 
ATOM     17  S   UNL A   1      34.558  24.705  24.723  1.00  0.00    -0.054 SA
ATOM     18  C   UNL A   1      32.574  23.406  23.741  1.00  0.00     0.270 C 
ATOM     19  C   UNL A   1      34.516  22.923  24.889  1.00  0.00     0.152 C 
ATOM     20  N   UNL A   1      33.304  22.453  24.447  1.00  0.00    -0.261 N 
ATOM     21  O   UNL A   1      31.834  23.126  22.828  1.00  0.00    -0.268 OA
ATOM     22  S   UNL A   1      35.846  22.047  25.397  1.00  0.00    -0.051 S 
BRANCH  20  23
ATOM     23  C   UNL A   1      32.804  21.084  24.543  1.00  0.00     0.052 A 
ATOM     24  C   UNL A   1      32.899  20.359  25.747  1.00  0.00     0.028 A 
ATOM     25  C   UNL A   1      32.517  20.343  23.380  1.00  0.00     0.048 A 
ATOM     26  C   UNL A   1      32.903  18.955  25.777  1.00  0.00     0.024 A 
ATOM     27  C   UNL A   1      32.533  18.926  23.403  1.00  0.00     0.061 A 
ATOM     28  C   UNL A   1      32.773  18.234  24.595  1.00  0.00     0.059 A 
ATOM     29  Cl  UNL A   1      32.370  18.088  21.897  1.00  0.00    -0.083 Cl
ATOM     30  Cl  UNL A   1      33.000  16.521  24.667  1.00  0.00    -0.083 Cl
ENDBRANCH  20  23
ENDBRANCH  13  15
ENDBRANCH   8   9
ENDBRANCH   7   8
ENDBRANCH   6   7
ENDBRANCH   4   6
ENDBRANCH   1   2
BRANCH   1  31
ATOM     31  C   UNL A   1      30.821  30.294  25.055  1.00  0.00     0.023 C 
BRANCH  31  32
ATOM     32  C   UNL A   1      32.293  30.078  25.369  1.00  0.00     0.023 C 
BRANCH  32  33
ATOM     33  C   UNL A   1      32.591  30.371  26.872  1.00  0.00     0.116 C 
BRANCH  33  34
ATOM     34  N   UNL A   1      32.507  31.755  27.381  1.00  0.00    -0.352 N 
ATOM     35  C   UNL A   1      33.526  32.615  27.759  1.00  0.00     0.251 C 
ATOM     36  H   UNL A   1      31.597  32.119  27.464  1.00  0.00     0.163 HD
ATOM     37  O   UNL A   1      33.317  33.775  28.098  1.00  0.00    -0.269 OA
BRANCH  35  38
ATOM     38  C   UNL A   1      34.892  32.061  27.829  1.00  0.00     0.039 A 
ATOM     39  C   UNL A   1      35.969  32.934  28.004  1.00  0.00     0.014 A 
ATOM     40  C   UNL A   1      35.050  30.690  27.988  1.00  0.00     0.014 A 
ATOM     41  C   UNL A   1      37.156  32.439  28.543  1.00  0.00     0.010 A 
ATOM     42  C   UNL A   1      36.172  30.227  28.652  1.00  0.00     0.010 A 
ATOM     43  C   UNL A   1      37.220  31.104  28.974  1.00  0.00    -0.014 A 
BRANCH  43  44
ATOM     44  C   UNL A   1      38.329  30.606  29.827  1.00  0.00     0.031 A 
ATOM     45  C   UNL A   1      39.282  29.579  29.288  1.00  0.00     0.074 A 
ATOM     46  C   UNL A   1      38.396  30.984  31.121  1.00  0.00     0.049 A 
ATOM     47  N   UNL A   1      40.239  28.933  29.904  1.00  0.00    -0.248 NA
ATOM     48  C   UNL A   1      39.105  29.188  27.880  1.00  0.00     0.031 C 
ATOM     49  C   UNL A   1      37.476  31.912  31.787  1.00  0.00     0.029 A 
ATOM     50  N   UNL A   1      39.271  30.626  32.117  1.00  0.00    -0.354 N 
ATOM     51  C   UNL A   1      40.758  28.052  28.966  1.00  0.00     0.074 A 
ATOM     52  C   UNL A   1      39.962  28.188  27.767  1.00  0.00     0.031 C 
ATOM     53  C   UNL A   1      37.862  32.083  33.060  1.00  0.00     0.029 A 
ATOM     54  C   UNL A   1      39.024  31.241  33.322  1.00  0.00     0.049 A 
ATOM     55  H   UNL A   1      40.008  29.988  31.981  1.00  0.00     0.167 HD
ATOM     56  C   UNL A   1      41.826  27.230  29.083  1.00  0.00     0.037 A 
ATOM     57  C   UNL A   1      39.663  31.134  34.502  1.00  0.00     0.037 A 
ATOM     58  C   UNL A   1      42.632  27.126  30.269  1.00  0.00     0.049 A 
ATOM     59  C   UNL A   1      40.852  30.215  34.604  1.00  0.00     0.074 A 
ATOM     60  C   UNL A   1      43.779  26.381  30.469  1.00  0.00     0.029 A 
ATOM     61  N   UNL A   1      42.370  27.789  31.460  1.00  0.00    -0.354 N 
ATOM     62  N   UNL A   1      41.392  29.455  33.682  1.00  0.00    -0.248 NA
ATOM     63  C   UNL A   1      41.525  30.145  35.909  1.00  0.00     0.031 C 
ATOM     64  C   UNL A   1      44.179  26.547  31.798  1.00  0.00     0.029 A 
ATOM     65  C   UNL A   1      43.319  27.447  32.408  1.00  0.00     0.049 A 
ATOM     66  H   UNL A   1      41.619  28.409  31.609  1.00  0.00     0.167 HD
ATOM     67  C   UNL A   1      42.484  28.844  34.283  1.00  0.00     0.074 A 
ATOM     68  C   UNL A   1      42.539  29.335  35.644  1.00  0.00     0.031 C 
ATOM     69  C   UNL A   1      43.364  27.958  33.755  1.00  0.00     0.037 A 
BRANCH  56  70
ATOM     70  C   UNL A   1      42.186  26.389  27.891  1.00  0.00     0.064 A 
ATOM     71  C   UNL A   1      41.546  25.168  27.631  1.00  0.00     0.173 A 
ATOM     72  C   UNL A   1      43.169  26.819  26.988  1.00  0.00     0.173 A 
ATOM     73  F   UNL A   1      40.609  24.702  28.470  1.00  0.00    -0.203 F 
ATOM     74  C   UNL A   1      41.902  24.390  26.532  1.00  0.00     0.198 A 
ATOM     75  C   UNL A   1      43.497  26.057  25.870  1.00  0.00     0.198 A 
ATOM     76  F   UNL A   1      43.812  27.980  27.188  1.00  0.00    -0.203 F 
ATOM     77  F   UNL A   1      41.320  23.199  26.340  1.00  0.00    -0.200 F 
ATOM     78  C   UNL A   1      42.870  24.840  25.648  1.00  0.00     0.200 A 
ATOM     79  F   UNL A   1      44.424  26.499  25.009  1.00  0.00    -0.200 F 
ATOM     80  F   UNL A   1      43.208  24.095  24.586  1.00  0.00    -0.200 F 
ENDBRANCH  56  70
BRANCH  57  81
ATOM     81  C   UNL A   1      39.223  31.943  35.673  1.00  0.00     0.064 A 
ATOM     82  C   UNL A   1      38.349  31.405  36.629  1.00  0.00     0.173 A 
ATOM     83  C   UNL A   1      39.649  33.266  35.857  1.00  0.00     0.173 A 
ATOM     84  F   UNL A   1      37.896  30.150  36.490  1.00  0.00    -0.203 F 
ATOM     85  C   UNL A   1      37.896  32.166  37.705  1.00  0.00     0.198 A 
ATOM     86  C   UNL A   1      39.221  34.017  36.951  1.00  0.00     0.198 A 
ATOM     87  F   UNL A   1      40.491  33.830  34.977  1.00  0.00    -0.203 F 
ATOM     88  F   UNL A   1      37.019  31.642  38.572  1.00  0.00    -0.200 F 
ATOM     89  C   UNL A   1      38.337  33.470  37.868  1.00  0.00     0.200 A 
ATOM     90  F   UNL A   1      39.663  35.271  37.114  1.00  0.00    -0.200 F 
ATOM     91  F   UNL A   1      37.904  34.201  38.904  1.00  0.00    -0.200 F 
ENDBRANCH  57  81
BRANCH  69  92
ATOM     92  C   UNL A   1      44.488  27.493  34.636  1.00  0.00     0.064 A 
ATOM     93  C   UNL A   1      45.697  28.198  34.727  1.00  0.00     0.173 A 
ATOM     94  C   UNL A   1      44.332  26.350  35.436  1.00  0.00     0.173 A 
ATOM     95  F   UNL A   1      45.901  29.289  33.972  1.00  0.00    -0.203 F 
ATOM     96  C   UNL A   1      46.718  27.761  35.565  1.00  0.00     0.198 A 
ATOM     97  C   UNL A   1      45.341  25.938  36.301  1.00  0.00     0.198 A 
ATOM     98  F   UNL A   1      43.192  25.645  35.394  1.00  0.00    -0.203 F 
ATOM     99  F   UNL A   1      47.884  28.422  35.598  1.00  0.00    -0.200 F 
ATOM    100  C   UNL A   1      46.537  26.637  36.358  1.00  0.00     0.200 A 
ATOM    101  F   UNL A   1      45.155  24.863  37.079  1.00  0.00    -0.200 F 
ATOM    102  F   UNL A   1      47.516  26.226  37.175  1.00  0.00    -0.200 F 
ENDBRANCH  69  92
ENDBRANCH  43  44
ENDBRANCH  35  38
ENDBRANCH  33  34
ENDBRANCH  32  33
ENDBRANCH  31  32
ENDBRANCH   1  31
TORSDOF 16
ENDMDL
MODEL 2
REMARK VINA RESULT:     -13.6      0.466      7.155
REMARK SMILES O=C(CCOc1cccc(/C=C2/SC(=S)N(c3ccc(Cl)c(Cl)c3)C2=O)c1)NCCCCNC(=O)c1ccc(-c2c3nc(c(-c4c(F)c(F)c(F)c(F)c4F)c4ccc([nH]4)c(-c4c(F)c(F)c(F)c(F)c4F)c4nc(c(-c5c(F)c(F)c(F)c(F)c5F)c5ccc2[nH]5)C=C4)C=C3)cc1
REMARK SMILES IDX 29 1 28 2 1 3 2 4 3 6 4 7 5 8 6 9 7 10 27 11 8 12 10 13 9 14
REMARK SMILES IDX 11 15 12 16 13 17 25 18 14 19 16 20 26 21 15 22 17 23 18 24
REMARK SMILES IDX 24 25 19 26 22 27 20 28 23 29 21 30 30 31 31 32 32 33 33 34
REMARK SMILES IDX 34 35 35 37 36 38 37 39 98 40 38 41 97 42 39 43 40 44 41 45
REMARK SMILES IDX 91 46 42 47 96 48 90 49 92 50 43 51 95 52 89 53 88 54 44 56
REMARK SMILES IDX 76 57 56 58 75 59 57 60 60 61 74 62 93 63 58 64 59 65 73 67
REMARK SMILES IDX 94 68 61 69 45 70 46 71 54 72 47 73 48 74 52 75 55 76 49 77
REMARK SMILES IDX 50 78 53 79 51 80 77 81 78 82 86 83 79 84 80 85 84 86 87 87
REMARK SMILES IDX 81 88 82 89 85 90 83 91 62 92 63 93 71 94 64 95 65 96 69 97
REMARK SMILES IDX 72 98 66 99 67 100 70 101 68 102
REMARK H PARENT 28 5 33 36 92 55 60 66
REMARK Flexibility Score: inf
ROOT
ATOM      1  C   UNL A   1      30.173  31.697  24.789  1.00  0.00     0.116 C 
ENDROOT
BRANCH   1   2
ATOM      2  N   UNL A   1      29.092  31.603  23.843  1.00  0.00    -0.356 N 
ATOM      3  O   UNL A   1      29.004  33.804  23.127  1.00  0.00    -0.275 OA
ATOM      4  C   UNL A   1      28.858  32.604  22.920  1.00  0.00     0.223 C 
ATOM      5  H   UNL A   1      28.509  30.810  23.854  1.00  0.00     0.163 HD
BRANCH   4   6
ATOM      6  C   UNL A   1      28.589  32.062  21.548  1.00  0.00     0.141 C 
BRANCH   6   7
ATOM      7  C   UNL A   1      28.349  30.549  21.660  1.00  0.00     0.239 C 
BRANCH   7   8
ATOM      8  O   UNL A   1      29.538  29.768  21.755  1.00  0.00    -0.493 OA
BRANCH   8   9
ATOM      9  C   UNL A   1      29.591  28.464  22.223  1.00  0.00     0.119 A 
ATOM     10  C   UNL A   1      28.453  28.158  22.973  1.00  0.00     0.046 A 
ATOM     11  C   UNL A   1      30.761  27.668  22.395  1.00  0.00     0.054 A 
ATOM     12  C   UNL A   1      28.484  27.109  23.889  1.00  0.00     0.004 A 
ATOM     13  C   UNL A   1      30.883  26.738  23.488  1.00  0.00    -0.021 A 
ATOM     14  C   UNL A   1      29.687  26.425  24.160  1.00  0.00     0.008 A 
BRANCH  13  15
ATOM     15  C   UNL A   1      32.216  26.155  24.016  1.00  0.00     0.029 C 
ATOM     16  C   UNL A   1      32.838  24.935  24.169  1.00  0.00     0.081 C 
ATOM     17  S   UNL A   1      34.429  24.803  24.910  1.00  0.00    -0.054 SA
ATOM     18  C   UNL A   1      32.513  23.495  23.811  1.00  0.00     0.270 C 
ATOM     19  C   UNL A   1      34.402  23.018  25.046  1.00  0.00     0.152 C 
ATOM     20  N   UNL A   1      33.220  22.539  24.537  1.00  0.00    -0.261 N 
ATOM     21  O   UNL A   1      31.822  23.221  22.858  1.00  0.00    -0.268 OA
ATOM     22  S   UNL A   1      35.717  22.150  25.605  1.00  0.00    -0.051 S 
BRANCH  20  23
ATOM     23  C   UNL A   1      32.735  21.163  24.586  1.00  0.00     0.052 A 
ATOM     24  C   UNL A   1      32.843  20.397  25.763  1.00  0.00     0.028 A 
ATOM     25  C   UNL A   1      32.449  20.461  23.399  1.00  0.00     0.048 A 
ATOM     26  C   UNL A   1      32.861  18.993  25.743  1.00  0.00     0.024 A 
ATOM     27  C   UNL A   1      32.479  19.045  23.371  1.00  0.00     0.061 A 
ATOM     28  C   UNL A   1      32.733  18.313  24.537  1.00  0.00     0.059 A 
ATOM     29  Cl  UNL A   1      32.318  18.259  21.837  1.00  0.00    -0.083 Cl
ATOM     30  Cl  UNL A   1      32.977  16.601  24.546  1.00  0.00    -0.083 Cl
ENDBRANCH  20  23
ENDBRANCH  13  15
ENDBRANCH   8   9
ENDBRANCH   7   8
ENDBRANCH   6   7
ENDBRANCH   4   6
ENDBRANCH   1   2
BRANCH   1  31
ATOM     31  C   UNL A   1      30.792  30.311  25.062  1.00  0.00     0.023 C 
BRANCH  31  32
ATOM     32  C   UNL A   1      32.276  30.067  25.282  1.00  0.00     0.023 C 
BRANCH  32  33
ATOM     33  C   UNL A   1      32.658  30.273  26.781  1.00  0.00     0.116 C 
BRANCH  33  34
ATOM     34  N   UNL A   1      32.596  31.624  27.375  1.00  0.00    -0.352 N 
ATOM     35  C   UNL A   1      33.629  32.447  27.794  1.00  0.00     0.251 C 
ATOM     36  H   UNL A   1      31.691  31.992  27.491  1.00  0.00     0.163 HD
ATOM     37  O   UNL A   1      33.438  33.587  28.206  1.00  0.00    -0.269 OA
BRANCH  35  38
ATOM     38  C   UNL A   1      34.989  31.875  27.813  1.00  0.00     0.039 A 
ATOM     39  C   UNL A   1      36.074  32.714  28.081  1.00  0.00     0.014 A 
ATOM     40  C   UNL A   1      35.132  30.492  27.834  1.00  0.00     0.014 A 
ATOM     41  C   UNL A   1      37.253  32.154  28.572  1.00  0.00     0.010 A 
ATOM     42  C   UNL A   1      36.246  29.954  28.453  1.00  0.00     0.010 A 
ATOM     43  C   UNL A   1      37.301  30.782  28.867  1.00  0.00    -0.014 A 
BRANCH  43  44
ATOM     44  C   UNL A   1      38.400  30.189  29.670  1.00  0.00     0.031 A 
ATOM     45  C   UNL A   1      38.618  30.641  31.085  1.00  0.00     0.074 A 
ATOM     46  C   UNL A   1      39.273  29.344  29.083  1.00  0.00     0.049 A 
ATOM     47  N   UNL A   1      39.586  30.337  31.911  1.00  0.00    -0.248 NA
ATOM     48  C   UNL A   1      37.646  31.603  31.629  1.00  0.00     0.031 C 
ATOM     49  C   UNL A   1      39.218  28.894  27.688  1.00  0.00     0.029 A 
ATOM     50  N   UNL A   1      40.390  28.718  29.581  1.00  0.00    -0.354 N 
ATOM     51  C   UNL A   1      39.347  31.083  33.057  1.00  0.00     0.074 A 
ATOM     52  C   UNL A   1      38.193  31.912  32.793  1.00  0.00     0.031 C 
ATOM     53  C   UNL A   1      40.223  28.035  27.458  1.00  0.00     0.029 A 
ATOM     54  C   UNL A   1      41.026  27.908  28.669  1.00  0.00     0.049 A 
ATOM     55  H   UNL A   1      40.706  28.838  30.505  1.00  0.00     0.167 HD
ATOM     56  C   UNL A   1      40.009  31.052  34.236  1.00  0.00     0.037 A 
ATOM     57  C   UNL A   1      42.132  27.151  28.798  1.00  0.00     0.037 A 
ATOM     58  C   UNL A   1      41.137  30.200  34.500  1.00  0.00     0.049 A 
ATOM     59  C   UNL A   1      42.848  27.132  30.123  1.00  0.00     0.074 A 
ATOM     60  C   UNL A   1      41.834  30.036  35.683  1.00  0.00     0.029 A 
ATOM     61  N   UNL A   1      41.734  29.369  33.562  1.00  0.00    -0.354 N 
ATOM     62  N   UNL A   1      42.558  27.771  31.230  1.00  0.00    -0.248 NA
ATOM     63  C   UNL A   1      44.041  26.278  30.219  1.00  0.00     0.031 C 
ATOM     64  C   UNL A   1      42.889  29.149  35.446  1.00  0.00     0.029 A 
ATOM     65  C   UNL A   1      42.809  28.710  34.133  1.00  0.00     0.049 A 
ATOM     66  H   UNL A   1      41.436  29.264  32.629  1.00  0.00     0.167 HD
ATOM     67  C   UNL A   1      43.509  27.374  32.161  1.00  0.00     0.074 A 
ATOM     68  C   UNL A   1      44.375  26.425  31.492  1.00  0.00     0.031 C 
ATOM     69  C   UNL A   1      43.652  27.758  33.453  1.00  0.00     0.037 A 
BRANCH  56  70
ATOM     70  C   UNL A   1      39.521  31.960  35.328  1.00  0.00     0.064 A 
ATOM     71  C   UNL A   1      40.001  33.271  35.467  1.00  0.00     0.173 A 
ATOM     72  C   UNL A   1      38.546  31.520  36.236  1.00  0.00     0.173 A 
ATOM     73  F   UNL A   1      40.945  33.738  34.635  1.00  0.00    -0.203 F 
ATOM     74  C   UNL A   1      39.552  34.096  36.495  1.00  0.00     0.198 A 
ATOM     75  C   UNL A   1      38.072  32.361  37.240  1.00  0.00     0.198 A 
ATOM     76  F   UNL A   1      38.051  30.277  36.148  1.00  0.00    -0.203 F 
ATOM     77  F   UNL A   1      40.072  35.322  36.644  1.00  0.00    -0.200 F 
ATOM     78  C   UNL A   1      38.581  33.643  37.374  1.00  0.00     0.200 A 
ATOM     79  F   UNL A   1      37.124  31.926  38.082  1.00  0.00    -0.200 F 
ATOM     80  F   UNL A   1      38.144  34.440  38.359  1.00  0.00    -0.200 F 
ENDBRANCH  56  70
BRANCH  57  81
ATOM     81  C   UNL A   1      42.612  26.319  27.660  1.00  0.00     0.064 A 
ATOM     82  C   UNL A   1      43.582  26.809  26.773  1.00  0.00     0.173 A 
ATOM     83  C   UNL A   1      42.109  25.031  27.424  1.00  0.00     0.173 A 
ATOM     84  F   UNL A   1      44.082  28.041  26.942  1.00  0.00    -0.203 F 
ATOM     85  C   UNL A   1      44.008  26.056  25.680  1.00  0.00     0.198 A 
ATOM     86  C   UNL A   1      42.559  24.266  26.350  1.00  0.00     0.198 A 
ATOM     87  F   UNL A   1      41.185  24.510  28.246  1.00  0.00    -0.203 F 
ATOM     88  F   UNL A   1      44.896  26.572  24.819  1.00  0.00    -0.200 F 
ATOM     89  C   UNL A   1      43.499  24.783  25.472  1.00  0.00     0.200 A 
ATOM     90  F   UNL A   1      42.077  23.030  26.162  1.00  0.00    -0.200 F 
ATOM     91  F   UNL A   1      43.910  24.059  24.422  1.00  0.00    -0.200 F 
ENDBRANCH  57  81
BRANCH  69  92
ATOM     92  C   UNL A   1      44.758  27.121  34.245  1.00  0.00     0.064 A 
ATOM     93  C   UNL A   1      44.577  25.908  34.926  1.00  0.00     0.173 A 
ATOM     94  C   UNL A   1      46.030  27.712  34.282  1.00  0.00     0.173 A 
ATOM     95  F   UNL A   1      43.375  25.311  34.933  1.00  0.00    -0.203 F 
ATOM     96  C   UNL A   1      45.622  25.325  35.636  1.00  0.00     0.198 A 
ATOM     97  C   UNL A   1      47.082  27.107  34.962  1.00  0.00     0.198 A 
ATOM     98  F   UNL A   1      46.259  28.868  33.639  1.00  0.00    -0.203 F 
ATOM     99  F   UNL A   1      45.412  24.193  36.322  1.00  0.00    -0.200 F 
ATOM    100  C   UNL A   1      46.875  25.919  35.647  1.00  0.00     0.200 A 
ATOM    101  F   UNL A   1      48.296  27.674  34.954  1.00  0.00    -0.200 F 
ATOM    102  F   UNL A   1      47.883  25.349  36.320  1.00  0.00    -0.200 F 
ENDBRANCH  69  92
ENDBRANCH  43  44
ENDBRANCH  35  38
ENDBRANCH  33  34
ENDBRANCH  32  33
ENDBRANCH  31  32
ENDBRANCH   1  31
TORSDOF 16
ENDMDL
MODEL 3
REMARK VINA RESULT:     -13.5      1.767      7.476
REMARK SMILES O=C(CCOc1cccc(/C=C2/SC(=S)N(c3ccc(Cl)c(Cl)c3)C2=O)c1)NCCCCNC(=O)c1ccc(-c2c3nc(c(-c4c(F)c(F)c(F)c(F)c4F)c4ccc([nH]4)c(-c4c(F)c(F)c(F)c(F)c4F)c4nc(c(-c5c(F)c(F)c(F)c(F)c5F)c5ccc2[nH]5)C=C4)C=C3)cc1
REMARK SMILES IDX 29 1 28 2 1 3 2 4 3 6 4 7 5 8 6 9 7 10 27 11 8 12 10 13 9 14
REMARK SMILES IDX 11 15 12 16 13 17 25 18 14 19 16 20 26 21 15 22 17 23 18 24
REMARK SMILES IDX 24 25 19 26 22 27 20 28 23 29 21 30 30 31 31 32 32 33 33 34
REMARK SMILES IDX 34 35 35 37 36 38 37 39 98 40 38 41 97 42 39 43 40 44 41 45
REMARK SMILES IDX 91 46 42 47 96 48 90 49 92 50 43 51 95 52 89 53 88 54 44 56
REMARK SMILES IDX 76 57 56 58 75 59 57 60 60 61 74 62 93 63 58 64 59 65 73 67
REMARK SMILES IDX 94 68 61 69 45 70 46 71 54 72 47 73 48 74 52 75 55 76 49 77
REMARK SMILES IDX 50 78 53 79 51 80 77 81 78 82 86 83 79 84 80 85 84 86 87 87
REMARK SMILES IDX 81 88 82 89 85 90 83 91 62 92 63 93 71 94 64 95 65 96 69 97
REMARK SMILES IDX 72 98 66 99 67 100 70 101 68 102
REMARK H PARENT 28 5 33 36 92 55 60 66
REMARK Flexibility Score: inf
ROOT
ATOM      1  C   UNL A   1      30.275  32.436  24.626  1.00  0.00     0.116 C 
ENDROOT
BRANCH   1   2
ATOM      2  N   UNL A   1      29.171  31.883  23.886  1.00  0.00    -0.356 N 
ATOM      3  O   UNL A   1      28.462  33.779  22.760  1.00  0.00    -0.275 OA
ATOM      4  C   UNL A   1      28.607  32.563  22.824  1.00  0.00     0.223 C 
ATOM      5  H   UNL A   1      28.811  31.003  24.142  1.00  0.00     0.163 HD
BRANCH   4   6
ATOM      6  C   UNL A   1      28.359  31.671  21.645  1.00  0.00     0.141 C 
BRANCH   6   7
ATOM      7  C   UNL A   1      27.980  30.275  22.160  1.00  0.00     0.239 C 
BRANCH   7   8
ATOM      8  O   UNL A   1      28.928  29.255  21.854  1.00  0.00    -0.493 OA
BRANCH   8   9
ATOM      9  C   UNL A   1      29.944  28.841  22.701  1.00  0.00     0.119 A 
ATOM     10  C   UNL A   1      31.179  29.336  22.275  1.00  0.00     0.046 A 
ATOM     11  C   UNL A   1      29.920  27.714  23.573  1.00  0.00     0.054 A 
ATOM     12  C   UNL A   1      32.357  28.712  22.680  1.00  0.00     0.004 A 
ATOM     13  C   UNL A   1      31.101  26.925  23.814  1.00  0.00    -0.021 A 
ATOM     14  C   UNL A   1      32.318  27.511  23.419  1.00  0.00     0.008 A 
BRANCH  13  15
ATOM     15  C   UNL A   1      31.109  25.482  24.373  1.00  0.00     0.029 C 
ATOM     16  C   UNL A   1      32.004  24.546  24.845  1.00  0.00     0.081 C 
ATOM     17  S   UNL A   1      31.477  22.943  25.344  1.00  0.00    -0.054 SA
ATOM     18  C   UNL A   1      33.498  24.509  25.117  1.00  0.00     0.270 C 
ATOM     19  C   UNL A   1      33.127  22.264  25.494  1.00  0.00     0.152 C 
ATOM     20  N   UNL A   1      34.048  23.231  25.178  1.00  0.00    -0.261 N 
ATOM     21  O   UNL A   1      34.110  25.506  25.421  1.00  0.00    -0.268 OA
ATOM     22  S   UNL A   1      33.401  20.715  26.060  1.00  0.00    -0.051 S 
BRANCH  20  23
ATOM     23  C   UNL A   1      35.491  23.057  25.033  1.00  0.00     0.052 A 
ATOM     24  C   UNL A   1      36.025  21.904  24.425  1.00  0.00     0.028 A 
ATOM     25  C   UNL A   1      36.387  23.857  25.768  1.00  0.00     0.048 A 
ATOM     26  C   UNL A   1      37.331  21.457  24.688  1.00  0.00     0.024 A 
ATOM     27  C   UNL A   1      37.700  23.405  26.045  1.00  0.00     0.061 A 
ATOM     28  C   UNL A   1      38.155  22.180  25.543  1.00  0.00     0.059 A 
ATOM     29  Cl  UNL A   1      38.674  24.349  27.121  1.00  0.00    -0.083 Cl
ATOM     30  Cl  UNL A   1      39.667  21.473  25.995  1.00  0.00    -0.083 Cl
ENDBRANCH  20  23
ENDBRANCH  13  15
ENDBRANCH   8   9
ENDBRANCH   7   8
ENDBRANCH   6   7
ENDBRANCH   4   6
ENDBRANCH   1   2
BRANCH   1  31
ATOM     31  C   UNL A   1      30.650  31.534  25.819  1.00  0.00     0.023 C 
BRANCH  31  32
ATOM     32  C   UNL A   1      31.731  30.465  25.775  1.00  0.00     0.023 C 
BRANCH  32  33
ATOM     33  C   UNL A   1      32.856  30.768  26.813  1.00  0.00     0.116 C 
BRANCH  33  34
ATOM     34  N   UNL A   1      32.875  32.066  27.517  1.00  0.00    -0.352 N 
ATOM     35  C   UNL A   1      33.951  32.767  28.037  1.00  0.00     0.251 C 
ATOM     36  H   UNL A   1      31.997  32.495  27.634  1.00  0.00     0.163 HD
ATOM     37  O   UNL A   1      33.832  33.881  28.538  1.00  0.00    -0.269 OA
BRANCH  35  38
ATOM     38  C   UNL A   1      35.261  32.089  28.052  1.00  0.00     0.039 A 
ATOM     39  C   UNL A   1      36.418  32.852  28.227  1.00  0.00     0.014 A 
ATOM     40  C   UNL A   1      35.295  30.703  28.162  1.00  0.00     0.014 A 
ATOM     41  C   UNL A   1      37.567  32.231  28.718  1.00  0.00     0.010 A 
ATOM     42  C   UNL A   1      36.385  30.117  28.781  1.00  0.00     0.010 A 
ATOM     43  C   UNL A   1      37.517  30.882  29.104  1.00  0.00    -0.014 A 
BRANCH  43  44
ATOM     44  C   UNL A   1      38.595  30.255  29.910  1.00  0.00     0.031 A 
ATOM     45  C   UNL A   1      38.791  30.666  31.340  1.00  0.00     0.074 A 
ATOM     46  C   UNL A   1      39.470  29.417  29.315  1.00  0.00     0.049 A 
ATOM     47  N   UNL A   1      39.741  30.328  32.176  1.00  0.00    -0.248 NA
ATOM     48  C   UNL A   1      37.819  31.622  31.893  1.00  0.00     0.031 C 
ATOM     49  C   UNL A   1      39.436  29.007  27.908  1.00  0.00     0.029 A 
ATOM     50  N   UNL A   1      40.571  28.766  29.816  1.00  0.00    -0.354 N 
ATOM     51  C   UNL A   1      39.488  31.045  33.337  1.00  0.00     0.074 A 
ATOM     52  C   UNL A   1      38.347  31.893  33.075  1.00  0.00     0.031 C 
ATOM     53  C   UNL A   1      40.436  28.144  27.672  1.00  0.00     0.029 A 
ATOM     54  C   UNL A   1      41.215  27.975  28.893  1.00  0.00     0.049 A 
ATOM     55  H   UNL A   1      40.871  28.856  30.749  1.00  0.00     0.167 HD
ATOM     56  C   UNL A   1      40.128  30.974  34.527  1.00  0.00     0.037 A 
ATOM     57  C   UNL A   1      42.311  27.202  29.021  1.00  0.00     0.037 A 
ATOM     58  C   UNL A   1      41.242  30.103  34.787  1.00  0.00     0.049 A 
ATOM     59  C   UNL A   1      43.002  27.138  30.358  1.00  0.00     0.074 A 
ATOM     60  C   UNL A   1      41.915  29.898  35.977  1.00  0.00     0.029 A 
ATOM     61  N   UNL A   1      41.847  29.292  33.838  1.00  0.00    -0.354 N 
ATOM     62  N   UNL A   1      42.698  27.750  31.478  1.00  0.00    -0.248 NA
ATOM     63  C   UNL A   1      44.184  26.270  30.452  1.00  0.00     0.031 C 
ATOM     64  C   UNL A   1      42.965  29.007  35.735  1.00  0.00     0.029 A 
ATOM     65  C   UNL A   1      42.905  28.606  34.409  1.00  0.00     0.049 A 
ATOM     66  H   UNL A   1      41.566  29.216  32.896  1.00  0.00     0.167 HD
ATOM     67  C   UNL A   1      43.627  27.317  32.413  1.00  0.00     0.074 A 
ATOM     68  C   UNL A   1      44.495  26.378  31.735  1.00  0.00     0.031 C 
ATOM     69  C   UNL A   1      43.750  27.664  33.718  1.00  0.00     0.037 A 
BRANCH  56  70
ATOM     70  C   UNL A   1      39.629  31.856  35.635  1.00  0.00     0.064 A 
ATOM     71  C   UNL A   1      40.152  33.141  35.846  1.00  0.00     0.173 A 
ATOM     72  C   UNL A   1      38.601  31.420  36.483  1.00  0.00     0.173 A 
ATOM     73  F   UNL A   1      41.147  33.603  35.073  1.00  0.00    -0.203 F 
ATOM     74  C   UNL A   1      39.691  33.942  36.889  1.00  0.00     0.198 A 
ATOM     75  C   UNL A   1      38.117  32.238  37.501  1.00  0.00     0.198 A 
ATOM     76  F   UNL A   1      38.063  30.201  36.325  1.00  0.00    -0.203 F 
ATOM     77  F   UNL A   1      40.251  35.140  37.109  1.00  0.00    -0.200 F 
ATOM     78  C   UNL A   1      38.668  33.493  37.709  1.00  0.00     0.200 A 
ATOM     79  F   UNL A   1      37.119  31.808  38.286  1.00  0.00    -0.200 F 
ATOM     80  F   UNL A   1      38.220  34.267  38.707  1.00  0.00    -0.200 F 
ENDBRANCH  56  70
BRANCH  57  81
ATOM     81  C   UNL A   1      42.803  26.397  27.870  1.00  0.00     0.064 A 
ATOM     82  C   UNL A   1      43.684  26.953  26.930  1.00  0.00     0.173 A 
ATOM     83  C   UNL A   1      42.399  25.068  27.673  1.00  0.00     0.173 A 
ATOM     84  F   UNL A   1      44.086  28.225  27.062  1.00  0.00    -0.203 F 
ATOM     85  C   UNL A   1      44.118  26.222  25.825  1.00  0.00     0.198 A 
ATOM     86  C   UNL A   1      42.859  24.328  26.585  1.00  0.00     0.198 A 
ATOM     87  F   UNL A   1      41.564  24.483  28.545  1.00  0.00    -0.203 F 
ATOM     88  F   UNL A   1      44.916  26.798  24.916  1.00  0.00    -0.200 F 
ATOM     89  C   UNL A   1      43.709  24.909  25.656  1.00  0.00     0.200 A 
ATOM     90  F   UNL A   1      42.474  23.054  26.434  1.00  0.00    -0.200 F 
ATOM     91  F   UNL A   1      44.128  24.206  24.595  1.00  0.00    -0.200 F 
ENDBRANCH  57  81
BRANCH  69  92
ATOM     92  C   UNL A   1      44.835  26.993  34.512  1.00  0.00     0.064 A 
ATOM     93  C   UNL A   1      44.625  25.770  35.165  1.00  0.00     0.173 A 
ATOM     94  C   UNL A   1      46.115  27.563  34.579  1.00  0.00     0.173 A 
ATOM     95  F   UNL A   1      43.414  25.191  35.143  1.00  0.00    -0.203 F 
ATOM     96  C   UNL A   1      45.650  25.155  35.878  1.00  0.00     0.198 A 
ATOM     97  C   UNL A   1      47.148  26.928  35.261  1.00  0.00     0.198 A 
ATOM     98  F   UNL A   1      46.371  28.728  33.964  1.00  0.00    -0.203 F 
ATOM     99  F   UNL A   1      45.414  24.012  36.537  1.00  0.00    -0.200 F 
ATOM    100  C   UNL A   1      46.913  25.729  35.918  1.00  0.00     0.200 A 
ATOM    101  F   UNL A   1      48.371  27.475  35.283  1.00  0.00    -0.200 F 
ATOM    102  F   UNL A   1      47.902  25.129  36.594  1.00  0.00    -0.200 F 
ENDBRANCH  69  92
ENDBRANCH  43  44
ENDBRANCH  35  38
ENDBRANCH  33  34
ENDBRANCH  32  33
ENDBRANCH  31  32
ENDBRANCH   1  31
TORSDOF 16
ENDMDL
