MODEL 1
REMARK VINA RESULT:     -13.3      0.000      0.000
REMARK SMILES Cc1cc2c(cc1C(=O)c1ccccc1C(=O)NCCCCNC(=O)c1ccc(-c3c4nc(c(-c5c(F)c(F)c(F)c(F)c5F)c5ccc([nH]5)c(-c5c(F)c(F)c(F)c(F)c5F)c5nc(c(-c6c(F)c(F)c(F)c(F)c6F)c6ccc3[nH]6)C=C5)C=C4)cc1)CCCC2
REMARK SMILES IDX 20 1 19 2 18 3 16 4 17 5 15 7 10 8 11 9 12 10 14 11 13 12
REMARK SMILES IDX 8 13 9 14 7 15 1 16 2 17 3 18 4 19 6 20 5 21 92 22 89 23
REMARK SMILES IDX 91 24 90 25 21 26 22 27 23 28 24 29 25 31 26 32 27 33 88 34
REMARK SMILES IDX 28 35 87 36 29 37 30 38 31 39 81 40 32 41 86 42 80 43 82 44
REMARK SMILES IDX 33 45 85 46 79 47 78 48 34 50 66 51 46 52 65 53 47 54 50 55
REMARK SMILES IDX 64 56 83 57 48 58 49 59 63 61 84 62 51 63 35 64 36 65 44 66
REMARK SMILES IDX 37 67 38 68 42 69 45 70 39 71 40 72 43 73 41 74 67 75 68 76
REMARK SMILES IDX 76 77 69 78 70 79 74 80 77 81 71 82 72 83 75 84 73 85 52 86
REMARK SMILES IDX 53 87 61 88 54 89 55 90 59 91 62 92 56 93 57 94 60 95 58 96
REMARK H PARENT 18 6 23 30 82 49 50 60
REMARK Flexibility Score: inf
ROOT
ATOM      1  C   UNL A   1      37.400  22.496  24.677  1.00  0.00     0.023 C 
ENDROOT
BRANCH   1   2
ATOM      2  C   UNL A   1      36.992  23.649  25.593  1.00  0.00     0.116 C 
BRANCH   2   3
ATOM      3  N   UNL A   1      36.029  23.183  26.557  1.00  0.00    -0.352 N 
ATOM      4  C   UNL A   1      34.808  22.582  26.556  1.00  0.00     0.252 C 
ATOM      5  O   UNL A   1      34.327  22.508  27.696  1.00  0.00    -0.269 OA
ATOM      6  H   UNL A   1      36.342  23.346  27.476  1.00  0.00     0.163 HD
BRANCH   4   7
ATOM      7  C   UNL A   1      34.011  21.981  25.432  1.00  0.00     0.050 A 
ATOM      8  C   UNL A   1      33.518  22.498  24.223  1.00  0.00     0.035 A 
ATOM      9  C   UNL A   1      32.794  21.672  23.322  1.00  0.00     0.013 A 
ATOM     10  C   UNL A   1      32.478  20.355  23.633  1.00  0.00     0.001 A 
ATOM     11  C   UNL A   1      33.669  20.625  25.700  1.00  0.00     0.014 A 
ATOM     12  C   UNL A   1      32.911  19.831  24.834  1.00  0.00     0.001 A 
BRANCH   8  13
ATOM     13  C   UNL A   1      33.689  23.842  23.677  1.00  0.00     0.194 C 
ATOM     14  O   UNL A   1      34.364  23.906  22.648  1.00  0.00    -0.289 OA
BRANCH  13  15
ATOM     15  C   UNL A   1      32.988  25.068  24.189  1.00  0.00     0.026 A 
ATOM     16  C   UNL A   1      30.624  24.579  23.274  1.00  0.00     0.045 C 
ATOM     17  C   UNL A   1      31.627  25.393  24.041  1.00  0.00    -0.040 A 
ATOM     18  C   UNL A   1      31.153  26.585  24.631  1.00  0.00     0.008 A 
ATOM     19  C   UNL A   1      31.975  27.421  25.402  1.00  0.00    -0.044 A 
ATOM     20  C   UNL A   1      33.822  25.956  24.907  1.00  0.00     0.016 A 
ATOM     21  C   UNL A   1      33.324  27.099  25.550  1.00  0.00    -0.044 A 
ATOM     22  C   UNL A   1      31.402  28.683  25.999  1.00  0.00     0.036 C 
ATOM     23  C   UNL A   1      34.224  27.869  26.487  1.00  0.00     0.036 C 
ATOM     24  C   UNL A   1      32.202  29.181  27.201  1.00  0.00     0.005 C 
ATOM     25  C   UNL A   1      33.687  29.249  26.861  1.00  0.00     0.005 C 
ENDBRANCH  13  15
ENDBRANCH   8  13
ENDBRANCH   4   7
ENDBRANCH   2   3
ENDBRANCH   1   2
BRANCH   1  26
ATOM     26  C   UNL A   1      37.801  21.210  25.394  1.00  0.00     0.023 C 
BRANCH  26  27
ATOM     27  C   UNL A   1      39.245  21.179  25.885  1.00  0.00     0.116 C 
BRANCH  27  28
ATOM     28  N   UNL A   1      39.911  19.884  25.768  1.00  0.00    -0.352 N 
ATOM     29  C   UNL A   1      41.229  19.581  26.034  1.00  0.00     0.251 C 
ATOM     30  H   UNL A   1      39.350  19.137  25.460  1.00  0.00     0.163 HD
ATOM     31  O   UNL A   1      41.677  18.459  25.830  1.00  0.00    -0.269 OA
BRANCH  29  32
ATOM     32  C   UNL A   1      42.110  20.668  26.504  1.00  0.00     0.039 A 
ATOM     33  C   UNL A   1      42.205  20.936  27.870  1.00  0.00     0.014 A 
ATOM     34  C   UNL A   1      42.695  21.520  25.567  1.00  0.00     0.014 A 
ATOM     35  C   UNL A   1      42.675  22.174  28.281  1.00  0.00     0.010 A 
ATOM     36  C   UNL A   1      43.258  22.724  25.994  1.00  0.00     0.010 A 
ATOM     37  C   UNL A   1      43.174  23.096  27.346  1.00  0.00    -0.014 A 
BRANCH  37  38
ATOM     38  C   UNL A   1      43.519  24.468  27.801  1.00  0.00     0.031 A 
ATOM     39  C   UNL A   1      44.946  24.951  27.773  1.00  0.00     0.074 A 
ATOM     40  C   UNL A   1      42.530  25.317  28.139  1.00  0.00     0.049 A 
ATOM     41  N   UNL A   1      45.427  26.125  28.098  1.00  0.00    -0.248 NA
ATOM     42  C   UNL A   1      45.972  23.993  27.326  1.00  0.00     0.031 C 
ATOM     43  C   UNL A   1      41.108  24.975  28.180  1.00  0.00     0.029 A 
ATOM     44  N   UNL A   1      42.564  26.648  28.465  1.00  0.00    -0.354 N 
ATOM     45  C   UNL A   1      46.803  26.033  27.939  1.00  0.00     0.074 A 
ATOM     46  C   UNL A   1      47.090  24.687  27.494  1.00  0.00     0.031 C 
ATOM     47  C   UNL A   1      40.399  26.084  28.434  1.00  0.00     0.029 A 
ATOM     48  C   UNL A   1      41.319  27.198  28.639  1.00  0.00     0.049 A 
ATOM     49  H   UNL A   1      43.400  27.159  28.565  1.00  0.00     0.167 HD
ATOM     50  C   UNL A   1      47.742  26.988  28.138  1.00  0.00     0.037 A 
ATOM     51  C   UNL A   1      40.956  28.460  28.934  1.00  0.00     0.037 A 
ATOM     52  C   UNL A   1      47.455  28.346  28.519  1.00  0.00     0.049 A 
ATOM     53  C   UNL A   1      42.015  29.500  29.146  1.00  0.00     0.074 A 
ATOM     54  C   UNL A   1      48.339  29.395  28.705  1.00  0.00     0.029 A 
ATOM     55  N   UNL A   1      46.184  28.845  28.756  1.00  0.00    -0.354 N 
ATOM     56  N   UNL A   1      43.315  29.390  29.021  1.00  0.00    -0.248 NA
ATOM     57  C   UNL A   1      41.560  30.833  29.563  1.00  0.00     0.031 C 
ATOM     58  C   UNL A   1      47.604  30.524  29.082  1.00  0.00     0.029 A 
ATOM     59  C   UNL A   1      46.262  30.184  29.102  1.00  0.00     0.049 A 
ATOM     60  H   UNL A   1      45.350  28.326  28.687  1.00  0.00     0.167 HD
ATOM     61  C   UNL A   1      43.835  30.629  29.357  1.00  0.00     0.074 A 
ATOM     62  C   UNL A   1      42.708  31.489  29.659  1.00  0.00     0.031 C 
ATOM     63  C   UNL A   1      45.131  31.016  29.420  1.00  0.00     0.037 A 
BRANCH  50  64
ATOM     64  C   UNL A   1      49.181  26.604  27.962  1.00  0.00     0.064 A 
ATOM     65  C   UNL A   1      49.780  26.548  26.696  1.00  0.00     0.173 A 
ATOM     66  C   UNL A   1      49.987  26.356  29.084  1.00  0.00     0.173 A 
ATOM     67  F   UNL A   1      49.048  26.764  25.593  1.00  0.00    -0.203 F 
ATOM     68  C   UNL A   1      51.133  26.246  26.558  1.00  0.00     0.198 A 
ATOM     69  C   UNL A   1      51.343  26.075  28.944  1.00  0.00     0.198 A 
ATOM     70  F   UNL A   1      49.462  26.403  30.317  1.00  0.00    -0.203 F 
ATOM     71  F   UNL A   1      51.681  26.172  25.337  1.00  0.00    -0.200 F 
ATOM     72  C   UNL A   1      51.914  26.019  27.682  1.00  0.00     0.200 A 
ATOM     73  F   UNL A   1      52.098  25.863  30.030  1.00  0.00    -0.200 F 
ATOM     74  F   UNL A   1      53.219  25.740  27.547  1.00  0.00    -0.200 F 
ENDBRANCH  50  64
BRANCH  51  75
ATOM     75  C   UNL A   1      39.515  28.792  29.043  1.00  0.00     0.064 A 
ATOM     76  C   UNL A   1      38.850  28.701  30.272  1.00  0.00     0.173 A 
ATOM     77  C   UNL A   1      38.791  29.260  27.937  1.00  0.00     0.173 A 
ATOM     78  F   UNL A   1      39.498  28.241  31.352  1.00  0.00    -0.203 F 
ATOM     79  C   UNL A   1      37.512  29.073  30.392  1.00  0.00     0.198 A 
ATOM     80  C   UNL A   1      37.463  29.653  28.063  1.00  0.00     0.198 A 
ATOM     81  F   UNL A   1      39.389  29.367  26.742  1.00  0.00    -0.203 F 
ATOM     82  F   UNL A   1      36.893  28.964  31.575  1.00  0.00    -0.200 F 
ATOM     83  C   UNL A   1      36.824  29.559  29.290  1.00  0.00     0.200 A 
ATOM     84  F   UNL A   1      36.805  30.137  27.000  1.00  0.00    -0.200 F 
ATOM     85  F   UNL A   1      35.544  29.936  29.411  1.00  0.00    -0.200 F 
ENDBRANCH  51  75
BRANCH  63  86
ATOM     86  C   UNL A   1      45.405  32.422  29.856  1.00  0.00     0.064 A 
ATOM     87  C   UNL A   1      45.409  33.476  28.932  1.00  0.00     0.173 A 
ATOM     88  C   UNL A   1      45.604  32.727  31.210  1.00  0.00     0.173 A 
ATOM     89  F   UNL A   1      45.235  33.227  27.625  1.00  0.00    -0.203 F 
ATOM     90  C   UNL A   1      45.615  34.788  29.347  1.00  0.00     0.198 A 
ATOM     91  C   UNL A   1      45.792  34.042  31.623  1.00  0.00     0.198 A 
ATOM     92  F   UNL A   1      45.604  31.751  32.130  1.00  0.00    -0.203 F 
ATOM     93  F   UNL A   1      45.641  35.778  28.444  1.00  0.00    -0.200 F 
ATOM     94  C   UNL A   1      45.799  35.070  30.692  1.00  0.00     0.200 A 
ATOM     95  F   UNL A   1      45.963  34.316  32.925  1.00  0.00    -0.200 F 
ATOM     96  F   UNL A   1      45.988  36.335  31.092  1.00  0.00    -0.200 F 
ENDBRANCH  63  86
ENDBRANCH  37  38
ENDBRANCH  29  32
ENDBRANCH  27  28
ENDBRANCH  26  27
ENDBRANCH   1  26
TORSDOF 13
ENDMDL
MODEL 2
REMARK VINA RESULT:     -13.3      5.252     10.326
REMARK SMILES Cc1cc2c(cc1C(=O)c1ccccc1C(=O)NCCCCNC(=O)c1ccc(-c3c4nc(c(-c5c(F)c(F)c(F)c(F)c5F)c5ccc([nH]5)c(-c5c(F)c(F)c(F)c(F)c5F)c5nc(c(-c6c(F)c(F)c(F)c(F)c6F)c6ccc3[nH]6)C=C5)C=C4)cc1)CCCC2
REMARK SMILES IDX 20 1 19 2 18 3 16 4 17 5 15 7 10 8 11 9 12 10 14 11 13 12
REMARK SMILES IDX 8 13 9 14 7 15 1 16 2 17 3 18 4 19 6 20 5 21 92 22 89 23
REMARK SMILES IDX 91 24 90 25 21 26 22 27 23 28 24 29 25 31 26 32 27 33 88 34
REMARK SMILES IDX 28 35 87 36 29 37 30 38 31 39 81 40 32 41 86 42 80 43 82 44
REMARK SMILES IDX 33 45 85 46 79 47 78 48 34 50 66 51 46 52 65 53 47 54 50 55
REMARK SMILES IDX 64 56 83 57 48 58 49 59 63 61 84 62 51 63 35 64 36 65 44 66
REMARK SMILES IDX 37 67 38 68 42 69 45 70 39 71 40 72 43 73 41 74 67 75 68 76
REMARK SMILES IDX 76 77 69 78 70 79 74 80 77 81 71 82 72 83 75 84 73 85 52 86
REMARK SMILES IDX 53 87 61 88 54 89 55 90 59 91 62 92 56 93 57 94 60 95 58 96
REMARK H PARENT 18 6 23 30 82 49 50 60
REMARK Flexibility Score: inf
ROOT
ATOM      1  C   UNL A   1      32.610  29.690  27.243  1.00  0.00     0.023 C 
ENDROOT
BRANCH   1   2
ATOM      2  C   UNL A   1      33.937  28.987  26.959  1.00  0.00     0.116 C 
BRANCH   2   3
ATOM      3  N   UNL A   1      34.148  28.909  25.536  1.00  0.00    -0.352 N 
ATOM      4  C   UNL A   1      33.499  28.421  24.444  1.00  0.00     0.252 C 
ATOM      5  O   UNL A   1      34.194  28.495  23.420  1.00  0.00    -0.269 OA
ATOM      6  H   UNL A   1      35.003  29.326  25.283  1.00  0.00     0.163 HD
BRANCH   4   7
ATOM      7  C   UNL A   1      32.109  27.868  24.294  1.00  0.00     0.050 A 
ATOM      8  C   UNL A   1      31.376  26.906  25.008  1.00  0.00     0.035 A 
ATOM      9  C   UNL A   1      30.041  26.590  24.641  1.00  0.00     0.013 A 
ATOM     10  C   UNL A   1      29.439  27.156  23.524  1.00  0.00     0.001 A 
ATOM     11  C   UNL A   1      31.445  28.426  23.164  1.00  0.00     0.014 A 
ATOM     12  C   UNL A   1      30.148  28.073  22.776  1.00  0.00     0.001 A 
BRANCH   8  13
ATOM     13  C   UNL A   1      31.784  26.156  26.193  1.00  0.00     0.194 C 
ATOM     14  O   UNL A   1      31.371  26.606  27.264  1.00  0.00    -0.289 OA
BRANCH  13  15
ATOM     15  C   UNL A   1      32.509  24.841  26.166  1.00  0.00     0.026 A 
ATOM     16  C   UNL A   1      30.510  23.280  26.648  1.00  0.00     0.045 C 
ATOM     17  C   UNL A   1      31.953  23.560  26.338  1.00  0.00    -0.040 A 
ATOM     18  C   UNL A   1      32.805  22.438  26.240  1.00  0.00     0.008 A 
ATOM     19  C   UNL A   1      34.167  22.554  25.923  1.00  0.00    -0.044 A 
ATOM     20  C   UNL A   1      33.897  24.948  25.918  1.00  0.00     0.016 A 
ATOM     21  C   UNL A   1      34.720  23.824  25.751  1.00  0.00    -0.044 A 
ATOM     22  C   UNL A   1      35.020  21.312  25.840  1.00  0.00     0.036 C 
ATOM     23  C   UNL A   1      36.136  24.012  25.262  1.00  0.00     0.036 C 
ATOM     24  C   UNL A   1      36.275  21.516  24.994  1.00  0.00     0.005 C 
ATOM     25  C   UNL A   1      37.015  22.775  25.432  1.00  0.00     0.005 C 
ENDBRANCH  13  15
ENDBRANCH   8  13
ENDBRANCH   4   7
ENDBRANCH   2   3
ENDBRANCH   1   2
BRANCH   1  26
ATOM     26  C   UNL A   1      32.531  31.139  26.771  1.00  0.00     0.023 C 
BRANCH  26  27
ATOM     27  C   UNL A   1      33.258  32.140  27.663  1.00  0.00     0.116 C 
BRANCH  27  28
ATOM     28  N   UNL A   1      32.653  33.468  27.724  1.00  0.00    -0.352 N 
ATOM     29  C   UNL A   1      33.054  34.549  28.479  1.00  0.00     0.251 C 
ATOM     30  H   UNL A   1      31.860  33.607  27.158  1.00  0.00     0.163 HD
ATOM     31  O   UNL A   1      32.413  35.594  28.486  1.00  0.00    -0.269 OA
BRANCH  29  32
ATOM     32  C   UNL A   1      34.242  34.391  29.341  1.00  0.00     0.039 A 
ATOM     33  C   UNL A   1      35.514  34.603  28.808  1.00  0.00     0.014 A 
ATOM     34  C   UNL A   1      34.084  33.864  30.623  1.00  0.00     0.014 A 
ATOM     35  C   UNL A   1      36.614  34.066  29.460  1.00  0.00     0.010 A 
ATOM     36  C   UNL A   1      35.206  33.414  31.321  1.00  0.00     0.010 A 
ATOM     37  C   UNL A   1      36.469  33.434  30.706  1.00  0.00    -0.014 A 
BRANCH  37  38
ATOM     38  C   UNL A   1      37.637  32.732  31.298  1.00  0.00     0.031 A 
ATOM     39  C   UNL A   1      38.074  33.024  32.711  1.00  0.00     0.074 A 
ATOM     40  C   UNL A   1      38.240  31.753  30.599  1.00  0.00     0.049 A 
ATOM     41  N   UNL A   1      39.047  32.484  33.402  1.00  0.00    -0.248 NA
ATOM     42  C   UNL A   1      37.328  34.060  33.446  1.00  0.00     0.031 C 
ATOM     43  C   UNL A   1      37.890  31.360  29.233  1.00  0.00     0.029 A 
ATOM     44  N   UNL A   1      39.236  30.880  30.954  1.00  0.00    -0.354 N 
ATOM     45  C   UNL A   1      39.057  33.140  34.626  1.00  0.00     0.074 A 
ATOM     46  C   UNL A   1      37.998  34.125  34.588  1.00  0.00     0.031 C 
ATOM     47  C   UNL A   1      38.603  30.276  28.894  1.00  0.00     0.029 A 
ATOM     48  C   UNL A   1      39.505  29.940  29.992  1.00  0.00     0.049 A 
ATOM     49  H   UNL A   1      39.712  30.925  31.815  1.00  0.00     0.167 HD
ATOM     50  C   UNL A   1      39.870  32.933  35.689  1.00  0.00     0.037 A 
ATOM     51  C   UNL A   1      40.382  28.920  29.989  1.00  0.00     0.037 A 
ATOM     52  C   UNL A   1      40.881  31.911  35.754  1.00  0.00     0.049 A 
ATOM     53  C   UNL A   1      41.269  28.709  31.181  1.00  0.00     0.074 A 
ATOM     54  C   UNL A   1      41.726  31.600  36.804  1.00  0.00     0.029 A 
ATOM     55  N   UNL A   1      41.171  31.025  34.729  1.00  0.00    -0.354 N 
ATOM     56  N   UNL A   1      41.286  29.357  32.319  1.00  0.00    -0.248 NA
ATOM     57  C   UNL A   1      42.273  27.642  31.078  1.00  0.00     0.031 C 
ATOM     58  C   UNL A   1      42.549  30.541  36.405  1.00  0.00     0.029 A 
ATOM     59  C   UNL A   1      42.194  30.175  35.117  1.00  0.00     0.049 A 
ATOM     60  H   UNL A   1      40.717  31.001  33.856  1.00  0.00     0.167 HD
ATOM     61  C   UNL A   1      42.309  28.790  33.063  1.00  0.00     0.074 A 
ATOM     62  C   UNL A   1      42.868  27.721  32.260  1.00  0.00     0.031 C 
ATOM     63  C   UNL A   1      42.751  29.132  34.297  1.00  0.00     0.037 A 
BRANCH  50  64
ATOM     64  C   UNL A   1      39.716  33.837  36.876  1.00  0.00     0.064 A 
ATOM     65  C   UNL A   1      40.310  35.107  36.918  1.00  0.00     0.173 A 
ATOM     66  C   UNL A   1      38.906  33.453  37.955  1.00  0.00     0.173 A 
ATOM     67  F   UNL A   1      41.103  35.514  35.916  1.00  0.00    -0.203 F 
ATOM     68  C   UNL A   1      40.107  35.955  38.003  1.00  0.00     0.198 A 
ATOM     69  C   UNL A   1      38.688  34.310  39.030  1.00  0.00     0.198 A 
ATOM     70  F   UNL A   1      38.312  32.250  37.959  1.00  0.00    -0.203 F 
ATOM     71  F   UNL A   1      40.703  37.154  38.036  1.00  0.00    -0.200 F 
ATOM     72  C   UNL A   1      39.290  35.560  39.053  1.00  0.00     0.200 A 
ATOM     73  F   UNL A   1      37.893  33.931  40.039  1.00  0.00    -0.200 F 
ATOM     74  F   UNL A   1      39.086  36.383  40.092  1.00  0.00    -0.200 F 
ENDBRANCH  50  64
BRANCH  51  75
ATOM     75  C   UNL A   1      40.452  28.027  28.808  1.00  0.00     0.064 A 
ATOM     76  C   UNL A   1      39.720  26.834  28.767  1.00  0.00     0.173 A 
ATOM     77  C   UNL A   1      41.203  28.376  27.676  1.00  0.00     0.173 A 
ATOM     78  F   UNL A   1      39.002  26.452  29.833  1.00  0.00    -0.203 F 
ATOM     79  C   UNL A   1      39.732  26.024  27.634  1.00  0.00     0.198 A 
ATOM     80  C   UNL A   1      41.196  27.579  26.536  1.00  0.00     0.198 A 
ATOM     81  F   UNL A   1      41.916  29.512  27.670  1.00  0.00    -0.203 F 
ATOM     82  F   UNL A   1      39.035  24.880  27.623  1.00  0.00    -0.200 F 
ATOM     83  C   UNL A   1      40.461  26.403  26.516  1.00  0.00     0.200 A 
ATOM     84  F   UNL A   1      41.889  27.956  25.453  1.00  0.00    -0.200 F 
ATOM     85  F   UNL A   1      40.456  25.634  25.418  1.00  0.00    -0.200 F 
ENDBRANCH  51  75
BRANCH  63  86
ATOM     86  C   UNL A   1      43.912  28.363  34.845  1.00  0.00     0.064 A 
ATOM     87  C   UNL A   1      45.226  28.824  34.680  1.00  0.00     0.173 A 
ATOM     88  C   UNL A   1      43.709  27.192  35.590  1.00  0.00     0.173 A 
ATOM     89  F   UNL A   1      45.465  29.933  33.964  1.00  0.00    -0.203 F 
ATOM     90  C   UNL A   1      46.299  28.133  35.233  1.00  0.00     0.198 A 
ATOM     91  C   UNL A   1      44.784  26.514  36.157  1.00  0.00     0.198 A 
ATOM     92  F   UNL A   1      42.469  26.717  35.778  1.00  0.00    -0.203 F 
ATOM     93  F   UNL A   1      47.548  28.577  35.041  1.00  0.00    -0.200 F 
ATOM     94  C   UNL A   1      46.077  26.983  35.976  1.00  0.00     0.200 A 
ATOM     95  F   UNL A   1      44.569  25.406  36.881  1.00  0.00    -0.200 F 
ATOM     96  F   UNL A   1      47.111  26.324  36.516  1.00  0.00    -0.200 F 
ENDBRANCH  63  86
ENDBRANCH  37  38
ENDBRANCH  29  32
ENDBRANCH  27  28
ENDBRANCH  26  27
ENDBRANCH   1  26
TORSDOF 13
ENDMDL
MODEL 3
REMARK VINA RESULT:     -13.2      5.272      9.690
REMARK SMILES Cc1cc2c(cc1C(=O)c1ccccc1C(=O)NCCCCNC(=O)c1ccc(-c3c4nc(c(-c5c(F)c(F)c(F)c(F)c5F)c5ccc([nH]5)c(-c5c(F)c(F)c(F)c(F)c5F)c5nc(c(-c6c(F)c(F)c(F)c(F)c6F)c6ccc3[nH]6)C=C5)C=C4)cc1)CCCC2
REMARK SMILES IDX 20 1 19 2 18 3 16 4 17 5 15 7 10 8 11 9 12 10 14 11 13 12
REMARK SMILES IDX 8 13 9 14 7 15 1 16 2 17 3 18 4 19 6 20 5 21 92 22 89 23
REMARK SMILES IDX 91 24 90 25 21 26 22 27 23 28 24 29 25 31 26 32 27 33 88 34
REMARK SMILES IDX 28 35 87 36 29 37 30 38 31 39 81 40 32 41 86 42 80 43 82 44
REMARK SMILES IDX 33 45 85 46 79 47 78 48 34 50 66 51 46 52 65 53 47 54 50 55
REMARK SMILES IDX 64 56 83 57 48 58 49 59 63 61 84 62 51 63 35 64 36 65 44 66
REMARK SMILES IDX 37 67 38 68 42 69 45 70 39 71 40 72 43 73 41 74 67 75 68 76
REMARK SMILES IDX 76 77 69 78 70 79 74 80 77 81 71 82 72 83 75 84 73 85 52 86
REMARK SMILES IDX 53 87 61 88 54 89 55 90 59 91 62 92 56 93 57 94 60 95 58 96
REMARK H PARENT 18 6 23 30 82 49 50 60
REMARK Flexibility Score: inf
ROOT
ATOM      1  C   UNL A   1      32.455  29.797  27.255  1.00  0.00     0.023 C 
ENDROOT
BRANCH   1   2
ATOM      2  C   UNL A   1      33.796  29.115  26.984  1.00  0.00     0.116 C 
BRANCH   2   3
ATOM      3  N   UNL A   1      34.013  29.023  25.562  1.00  0.00    -0.352 N 
ATOM      4  C   UNL A   1      33.385  28.498  24.476  1.00  0.00     0.252 C 
ATOM      5  O   UNL A   1      34.080  28.581  23.453  1.00  0.00    -0.269 OA
ATOM      6  H   UNL A   1      34.855  29.466  25.305  1.00  0.00     0.163 HD
BRANCH   4   7
ATOM      7  C   UNL A   1      32.014  27.897  24.330  1.00  0.00     0.050 A 
ATOM      8  C   UNL A   1      31.322  26.904  25.042  1.00  0.00     0.035 A 
ATOM      9  C   UNL A   1      29.997  26.543  24.681  1.00  0.00     0.013 A 
ATOM     10  C   UNL A   1      29.367  27.093  23.572  1.00  0.00     0.001 A 
ATOM     11  C   UNL A   1      31.324  28.437  23.209  1.00  0.00     0.014 A 
ATOM     12  C   UNL A   1      30.039  28.041  22.825  1.00  0.00     0.001 A 
BRANCH   8  13
ATOM     13  C   UNL A   1      31.764  26.161  26.220  1.00  0.00     0.194 C 
ATOM     14  O   UNL A   1      31.372  26.611  27.299  1.00  0.00    -0.289 OA
BRANCH  13  15
ATOM     15  C   UNL A   1      32.500  24.852  26.179  1.00  0.00     0.026 A 
ATOM     16  C   UNL A   1      30.510  23.270  26.628  1.00  0.00     0.045 C 
ATOM     17  C   UNL A   1      31.952  23.565  26.331  1.00  0.00    -0.040 A 
ATOM     18  C   UNL A   1      32.815  22.452  26.223  1.00  0.00     0.008 A 
ATOM     19  C   UNL A   1      34.177  22.583  25.916  1.00  0.00    -0.044 A 
ATOM     20  C   UNL A   1      33.888  24.974  25.941  1.00  0.00     0.016 A 
ATOM     21  C   UNL A   1      34.721  23.859  25.765  1.00  0.00    -0.044 A 
ATOM     22  C   UNL A   1      35.041  21.349  25.822  1.00  0.00     0.036 C 
ATOM     23  C   UNL A   1      36.139  24.065  25.286  1.00  0.00     0.036 C 
ATOM     24  C   UNL A   1      36.299  21.574  24.986  1.00  0.00     0.005 C 
ATOM     25  C   UNL A   1      37.026  22.833  25.446  1.00  0.00     0.005 C 
ENDBRANCH  13  15
ENDBRANCH   8  13
ENDBRANCH   4   7
ENDBRANCH   2   3
ENDBRANCH   1   2
BRANCH   1  26
ATOM     26  C   UNL A   1      32.361  31.247  26.789  1.00  0.00     0.023 C 
BRANCH  26  27
ATOM     27  C   UNL A   1      33.180  32.235  27.613  1.00  0.00     0.116 C 
BRANCH  27  28
ATOM     28  N   UNL A   1      32.638  33.589  27.675  1.00  0.00    -0.352 N 
ATOM     29  C   UNL A   1      33.057  34.636  28.469  1.00  0.00     0.251 C 
ATOM     30  H   UNL A   1      31.878  33.777  27.079  1.00  0.00     0.163 HD
ATOM     31  O   UNL A   1      32.467  35.709  28.469  1.00  0.00    -0.269 OA
BRANCH  29  32
ATOM     32  C   UNL A   1      34.197  34.404  29.377  1.00  0.00     0.039 A 
ATOM     33  C   UNL A   1      35.499  34.475  28.881  1.00  0.00     0.014 A 
ATOM     34  C   UNL A   1      33.950  33.947  30.672  1.00  0.00     0.014 A 
ATOM     35  C   UNL A   1      36.523  33.866  29.591  1.00  0.00     0.010 A 
ATOM     36  C   UNL A   1      35.002  33.424  31.426  1.00  0.00     0.010 A 
ATOM     37  C   UNL A   1      36.280  33.302  30.855  1.00  0.00    -0.014 A 
BRANCH  37  38
ATOM     38  C   UNL A   1      37.358  32.520  31.514  1.00  0.00     0.031 A 
ATOM     39  C   UNL A   1      38.109  31.456  30.756  1.00  0.00     0.074 A 
ATOM     40  C   UNL A   1      37.734  32.844  32.766  1.00  0.00     0.049 A 
ATOM     41  N   UNL A   1      39.101  30.701  31.158  1.00  0.00    -0.248 NA
ATOM     42  C   UNL A   1      37.693  31.200  29.367  1.00  0.00     0.031 C 
ATOM     43  C   UNL A   1      37.102  33.873  33.592  1.00  0.00     0.029 A 
ATOM     44  N   UNL A   1      38.764  32.377  33.541  1.00  0.00    -0.354 N 
ATOM     45  C   UNL A   1      39.395  29.857  30.094  1.00  0.00     0.074 A 
ATOM     46  C   UNL A   1      38.475  30.183  29.027  1.00  0.00     0.031 C 
ATOM     47  C   UNL A   1      37.804  34.015  34.726  1.00  0.00     0.029 A 
ATOM     48  C   UNL A   1      38.893  33.043  34.734  1.00  0.00     0.049 A 
ATOM     49  H   UNL A   1      39.352  31.635  33.268  1.00  0.00     0.167 HD
ATOM     50  C   UNL A   1      40.351  28.902  30.013  1.00  0.00     0.037 A 
ATOM     51  C   UNL A   1      39.787  32.888  35.727  1.00  0.00     0.037 A 
ATOM     52  C   UNL A   1      41.309  28.619  31.049  1.00  0.00     0.049 A 
ATOM     53  C   UNL A   1      40.840  31.826  35.611  1.00  0.00     0.074 A 
ATOM     54  C   UNL A   1      42.341  27.697  31.041  1.00  0.00     0.029 A 
ATOM     55  N   UNL A   1      41.361  29.268  32.272  1.00  0.00    -0.354 N 
ATOM     56  N   UNL A   1      41.086  31.016  34.612  1.00  0.00    -0.248 NA
ATOM     57  C   UNL A   1      41.723  31.640  36.769  1.00  0.00     0.031 C 
ATOM     58  C   UNL A   1      43.001  27.768  32.271  1.00  0.00     0.029 A 
ATOM     59  C   UNL A   1      42.398  28.755  33.034  1.00  0.00     0.049 A 
ATOM     60  H   UNL A   1      40.752  29.987  32.558  1.00  0.00     0.167 HD
ATOM     61  C   UNL A   1      42.139  30.214  35.022  1.00  0.00     0.074 A 
ATOM     62  C   UNL A   1      42.510  30.658  36.351  1.00  0.00     0.031 C 
ATOM     63  C   UNL A   1      42.738  29.195  34.361  1.00  0.00     0.037 A 
BRANCH  50  64
ATOM     64  C   UNL A   1      40.410  28.074  28.764  1.00  0.00     0.064 A 
ATOM     65  C   UNL A   1      41.185  28.458  27.661  1.00  0.00     0.173 A 
ATOM     66  C   UNL A   1      39.736  26.845  28.700  1.00  0.00     0.173 A 
ATOM     67  F   UNL A   1      41.838  29.629  27.669  1.00  0.00    -0.203 F 
ATOM     68  C   UNL A   1      41.274  27.645  26.533  1.00  0.00     0.198 A 
ATOM     69  C   UNL A   1      39.842  26.026  27.580  1.00  0.00     0.198 A 
ATOM     70  F   UNL A   1      38.986  26.432  29.733  1.00  0.00    -0.203 F 
ATOM     71  F   UNL A   1      42.000  28.041  25.478  1.00  0.00    -0.200 F 
ATOM     72  C   UNL A   1      40.610  26.427  26.497  1.00  0.00     0.200 A 
ATOM     73  F   UNL A   1      39.208  24.846  27.550  1.00  0.00    -0.200 F 
ATOM     74  F   UNL A   1      40.707  25.641  25.415  1.00  0.00    -0.200 F 
ENDBRANCH  50  64
BRANCH  51  75
ATOM     75  C   UNL A   1      39.711  33.773  36.914  1.00  0.00     0.064 A 
ATOM     76  C   UNL A   1      40.374  35.006  36.933  1.00  0.00     0.173 A 
ATOM     77  C   UNL A   1      38.929  33.430  38.027  1.00  0.00     0.173 A 
ATOM     78  F   UNL A   1      41.147  35.366  35.898  1.00  0.00    -0.203 F 
ATOM     79  C   UNL A   1      40.253  35.868  38.021  1.00  0.00     0.198 A 
ATOM     80  C   UNL A   1      38.790  34.302  39.102  1.00  0.00     0.198 A 
ATOM     81  F   UNL A   1      38.273  32.261  38.051  1.00  0.00    -0.203 F 
ATOM     82  F   UNL A   1      40.908  37.037  38.022  1.00  0.00    -0.200 F 
ATOM     83  C   UNL A   1      39.452  35.520  39.099  1.00  0.00     0.200 A 
ATOM     84  F   UNL A   1      38.003  33.969  40.135  1.00  0.00    -0.200 F 
ATOM     85  F   UNL A   1      39.320  36.359  40.135  1.00  0.00    -0.200 F 
ENDBRANCH  51  75
BRANCH  63  86
ATOM     86  C   UNL A   1      43.838  28.471  35.072  1.00  0.00     0.064 A 
ATOM     87  C   UNL A   1      43.573  27.324  35.833  1.00  0.00     0.173 A 
ATOM     88  C   UNL A   1      45.170  28.889  34.946  1.00  0.00     0.173 A 
ATOM     89  F   UNL A   1      42.310  26.896  35.989  1.00  0.00    -0.203 F 
ATOM     90  C   UNL A   1      44.603  26.624  36.452  1.00  0.00     0.198 A 
ATOM     91  C   UNL A   1      46.201  28.176  35.552  1.00  0.00     0.198 A 
ATOM     92  F   UNL A   1      45.472  29.979  34.224  1.00  0.00    -0.203 F 
ATOM     93  F   UNL A   1      44.325  25.545  37.195  1.00  0.00    -0.200 F 
ATOM     94  C   UNL A   1      45.916  27.047  36.306  1.00  0.00     0.200 A 
ATOM     95  F   UNL A   1      47.471  28.581  35.405  1.00  0.00    -0.200 F 
ATOM     96  F   UNL A   1      46.909  26.367  36.895  1.00  0.00    -0.200 F 
ENDBRANCH  63  86
ENDBRANCH  37  38
ENDBRANCH  29  32
ENDBRANCH  27  28
ENDBRANCH  26  27
ENDBRANCH   1  26
TORSDOF 13
ENDMDL
