MODEL 1
REMARK VINA RESULT:     -12.2      0.000      0.000
REMARK SMILES C[C@@H](C(=O)NCCCCNC(=O)c1ccc(-c2c3nc(c(-c4c(F)c(F)c(F)c(F)c4F)c4ccc([nH]4)c(-c4c(F)c(F)c(F)c(F)c4F)c4nc(c(-c5c(F)c(F)c(F)c(F)c5F)c5ccc2[nH]5)C=C4)C=C3)cc1)[C@H](C)[N@@H+]1C[C@H]2C[NH2+]C[C@@H]2[C@@H]1C
REMARK SMILES IDX 7 1 6 2 5 3 3 4 4 5 2 7 1 8 76 9 77 10 78 11 79 12 85 13
REMARK SMILES IDX 80 15 84 16 86 17 81 18 83 19 82 20 8 23 9 24 10 25 11 26
REMARK SMILES IDX 12 28 13 29 14 30 75 31 15 32 74 33 16 34 17 35 18 36 68 37
REMARK SMILES IDX 19 38 73 39 67 40 69 41 20 42 72 43 66 44 65 45 21 47 53 48
REMARK SMILES IDX 33 49 52 50 34 51 37 52 51 53 70 54 35 55 36 56 50 58 71 59
REMARK SMILES IDX 38 60 22 61 23 62 31 63 24 64 25 65 29 66 32 67 26 68 27 69
REMARK SMILES IDX 30 70 28 71 54 72 55 73 63 74 56 75 57 76 61 77 64 78 58 79
REMARK SMILES IDX 59 80 62 81 60 82 39 83 40 84 48 85 41 86 42 87 46 88 49 89
REMARK SMILES IDX 43 90 44 91 47 92 45 93
REMARK H PARENT 5 6 78 14 82 21 82 22 10 27 69 46 37 57
REMARK Flexibility Score: inf
ROOT
ATOM      1  C   UNL A   1      31.917  30.386  26.457  1.00  0.00     0.023 C 
ENDROOT
BRANCH   1   2
ATOM      2  C   UNL A   1      31.387  29.785  25.153  1.00  0.00     0.116 C 
BRANCH   2   3
ATOM      3  N   UNL A   1      32.462  29.538  24.215  1.00  0.00    -0.356 N 
ATOM      4  C   UNL A   1      33.346  28.506  24.135  1.00  0.00     0.228 C 
ATOM      5  O   UNL A   1      34.251  28.623  23.307  1.00  0.00    -0.275 OA
ATOM      6  H   UNL A   1      32.570  30.229  23.521  1.00  0.00     0.163 HD
BRANCH   4   7
ATOM      7  C   UNL A   1      33.204  27.282  25.048  1.00  0.00     0.133 C 
ATOM      8  C   UNL A   1      34.007  27.540  26.328  1.00  0.00     0.024 C 
BRANCH   7   9
ATOM      9  C   UNL A   1      33.667  26.005  24.271  1.00  0.00     0.193 C 
ATOM     10  C   UNL A   1      32.553  25.568  23.311  1.00  0.00     0.076 C 
BRANCH   9  11
ATOM     11  N   UNL A   1      34.221  24.975  25.156  1.00  0.00    -0.329 N 
ATOM     12  C   UNL A   1      35.265  24.124  24.536  1.00  0.00     0.272 C 
ATOM     13  C   UNL A   1      33.581  24.272  26.296  1.00  0.00     0.190 C 
ATOM     14  H   UNL A   1      34.463  25.775  25.742  1.00  0.00     0.348 HD
ATOM     15  C   UNL A   1      34.728  22.768  24.872  1.00  0.00     0.114 C 
ATOM     16  C   UNL A   1      34.369  22.958  26.323  1.00  0.00     0.116 C 
ATOM     17  C   UNL A   1      32.080  24.020  26.339  1.00  0.00     0.076 C 
ATOM     18  C   UNL A   1      35.549  21.514  24.930  1.00  0.00     0.270 C 
ATOM     19  C   UNL A   1      33.858  21.573  26.642  1.00  0.00     0.271 C 
ATOM     20  N   UNL A   1      34.785  20.677  25.893  1.00  0.00    -0.345 N 
ATOM     21  H   UNL A   1      35.426  20.222  26.542  1.00  0.00     0.346 HD
ATOM     22  H   UNL A   1      34.259  19.956  25.398  1.00  0.00     0.346 HD
ENDBRANCH   9  11
ENDBRANCH   7   9
ENDBRANCH   4   7
ENDBRANCH   2   3
ENDBRANCH   1   2
BRANCH   1  23
ATOM     23  C   UNL A   1      31.665  31.887  26.629  1.00  0.00     0.023 C 
BRANCH  23  24
ATOM     24  C   UNL A   1      32.780  32.658  27.325  1.00  0.00     0.116 C 
BRANCH  24  25
ATOM     25  N   UNL A   1      32.416  34.034  27.625  1.00  0.00    -0.352 N 
ATOM     26  C   UNL A   1      32.969  34.886  28.550  1.00  0.00     0.251 C 
ATOM     27  H   UNL A   1      31.673  34.405  27.096  1.00  0.00     0.163 HD
ATOM     28  O   UNL A   1      32.466  35.982  28.770  1.00  0.00    -0.269 OA
BRANCH  26  29
ATOM     29  C   UNL A   1      34.164  34.456  29.307  1.00  0.00     0.039 A 
ATOM     30  C   UNL A   1      33.996  33.861  30.560  1.00  0.00     0.014 A 
ATOM     31  C   UNL A   1      35.440  34.614  28.762  1.00  0.00     0.014 A 
ATOM     32  C   UNL A   1      35.108  33.354  31.238  1.00  0.00     0.010 A 
ATOM     33  C   UNL A   1      36.536  34.052  29.408  1.00  0.00     0.010 A 
ATOM     34  C   UNL A   1      36.380  33.413  30.649  1.00  0.00    -0.014 A 
BRANCH  34  35
ATOM     35  C   UNL A   1      37.577  32.824  31.299  1.00  0.00     0.031 A 
ATOM     36  C   UNL A   1      38.284  31.674  30.644  1.00  0.00     0.074 A 
ATOM     37  C   UNL A   1      37.951  33.240  32.522  1.00  0.00     0.049 A 
ATOM     38  N   UNL A   1      39.218  30.892  31.120  1.00  0.00    -0.248 NA
ATOM     39  C   UNL A   1      37.851  31.334  29.279  1.00  0.00     0.031 C 
ATOM     40  C   UNL A   1      37.323  34.324  33.277  1.00  0.00     0.029 A 
ATOM     41  N   UNL A   1      38.934  32.776  33.361  1.00  0.00    -0.354 N 
ATOM     42  C   UNL A   1      39.458  29.948  30.131  1.00  0.00     0.074 A 
ATOM     43  C   UNL A   1      38.547  30.232  29.044  1.00  0.00     0.031 C 
ATOM     44  C   UNL A   1      37.932  34.441  34.467  1.00  0.00     0.029 A 
ATOM     45  C   UNL A   1      38.964  33.413  34.577  1.00  0.00     0.049 A 
ATOM     46  H   UNL A   1      39.556  32.055  33.114  1.00  0.00     0.167 HD
ATOM     47  C   UNL A   1      40.366  28.942  30.128  1.00  0.00     0.037 A 
ATOM     48  C   UNL A   1      39.722  33.180  35.665  1.00  0.00     0.037 A 
ATOM     49  C   UNL A   1      41.293  28.688  31.198  1.00  0.00     0.049 A 
ATOM     50  C   UNL A   1      40.734  32.069  35.634  1.00  0.00     0.074 A 
ATOM     51  C   UNL A   1      42.298  27.739  31.263  1.00  0.00     0.029 A 
ATOM     52  N   UNL A   1      41.329  29.392  32.393  1.00  0.00    -0.354 N 
ATOM     53  N   UNL A   1      40.990  31.211  34.676  1.00  0.00    -0.248 NA
ATOM     54  C   UNL A   1      41.567  31.894  36.833  1.00  0.00     0.031 C 
ATOM     55  C   UNL A   1      42.916  27.841  32.513  1.00  0.00     0.029 A 
ATOM     56  C   UNL A   1      42.329  28.887  33.209  1.00  0.00     0.049 A 
ATOM     57  H   UNL A   1      40.732  30.139  32.627  1.00  0.00     0.167 HD
ATOM     58  C   UNL A   1      42.029  30.416  35.141  1.00  0.00     0.074 A 
ATOM     59  C   UNL A   1      42.359  30.895  36.468  1.00  0.00     0.031 C 
ATOM     60  C   UNL A   1      42.655  29.386  34.521  1.00  0.00     0.037 A 
BRANCH  47  61
ATOM     61  C   UNL A   1      40.385  28.038  28.931  1.00  0.00     0.064 A 
ATOM     62  C   UNL A   1      39.656  26.840  28.898  1.00  0.00     0.173 A 
ATOM     63  C   UNL A   1      41.139  28.377  27.796  1.00  0.00     0.173 A 
ATOM     64  F   UNL A   1      38.929  26.463  29.961  1.00  0.00    -0.203 F 
ATOM     65  C   UNL A   1      39.714  25.996  27.792  1.00  0.00     0.198 A 
ATOM     66  C   UNL A   1      41.168  27.547  26.680  1.00  0.00     0.198 A 
ATOM     67  F   UNL A   1      41.850  29.515  27.772  1.00  0.00    -0.203 F 
ATOM     68  F   UNL A   1      39.058  24.827  27.810  1.00  0.00    -0.200 F 
ATOM     69  C   UNL A   1      40.464  26.352  26.683  1.00  0.00     0.200 A 
ATOM     70  F   UNL A   1      41.886  27.898  25.604  1.00  0.00    -0.200 F 
ATOM     71  F   UNL A   1      40.521  25.537  25.620  1.00  0.00    -0.200 F 
ENDBRANCH  47  61
BRANCH  48  72
ATOM     72  C   UNL A   1      39.559  34.035  36.868  1.00  0.00     0.064 A 
ATOM     73  C   UNL A   1      38.772  33.609  37.948  1.00  0.00     0.173 A 
ATOM     74  C   UNL A   1      40.203  35.275  36.976  1.00  0.00     0.173 A 
ATOM     75  F   UNL A   1      38.121  32.439  37.880  1.00  0.00    -0.203 F 
ATOM     76  C   UNL A   1      38.632  34.397  39.088  1.00  0.00     0.198 A 
ATOM     77  C   UNL A   1      40.080  36.051  38.128  1.00  0.00     0.198 A 
ATOM     78  F   UNL A   1      40.970  35.724  35.972  1.00  0.00    -0.203 F 
ATOM     79  F   UNL A   1      37.851  33.979  40.094  1.00  0.00    -0.200 F 
ATOM     80  C   UNL A   1      39.292  35.613  39.181  1.00  0.00     0.200 A 
ATOM     81  F   UNL A   1      40.731  37.218  38.219  1.00  0.00    -0.200 F 
ATOM     82  F   UNL A   1      39.166  36.363  40.283  1.00  0.00    -0.200 F 
ENDBRANCH  48  72
BRANCH  60  83
ATOM     83  C   UNL A   1      43.794  28.732  35.245  1.00  0.00     0.064 A 
ATOM     84  C   UNL A   1      45.119  29.155  35.069  1.00  0.00     0.173 A 
ATOM     85  C   UNL A   1      43.545  27.712  36.177  1.00  0.00     0.173 A 
ATOM     86  F   UNL A   1      45.409  30.116  34.179  1.00  0.00    -0.203 F 
ATOM     87  C   UNL A   1      46.156  28.571  35.793  1.00  0.00     0.198 A 
ATOM     88  C   UNL A   1      44.581  27.150  36.916  1.00  0.00     0.198 A 
ATOM     89  F   UNL A   1      42.293  27.277  36.383  1.00  0.00    -0.203 F 
ATOM     90  F   UNL A   1      47.420  28.968  35.588  1.00  0.00    -0.200 F 
ATOM     91  C   UNL A   1      45.885  27.577  36.721  1.00  0.00     0.200 A 
ATOM     92  F   UNL A   1      44.315  26.197  37.821  1.00  0.00    -0.200 F 
ATOM     93  F   UNL A   1      46.883  27.027  37.427  1.00  0.00    -0.200 F 
ENDBRANCH  60  83
ENDBRANCH  34  35
ENDBRANCH  26  29
ENDBRANCH  24  25
ENDBRANCH  23  24
ENDBRANCH   1  23
TORSDOF 13
ENDMDL
MODEL 2
REMARK VINA RESULT:     -12.1      0.990      1.759
REMARK SMILES C[C@@H](C(=O)NCCCCNC(=O)c1ccc(-c2c3nc(c(-c4c(F)c(F)c(F)c(F)c4F)c4ccc([nH]4)c(-c4c(F)c(F)c(F)c(F)c4F)c4nc(c(-c5c(F)c(F)c(F)c(F)c5F)c5ccc2[nH]5)C=C4)C=C3)cc1)[C@H](C)[N@@H+]1C[C@H]2C[NH2+]C[C@@H]2[C@@H]1C
REMARK SMILES IDX 7 1 6 2 5 3 3 4 4 5 2 7 1 8 76 9 77 10 78 11 79 12 85 13
REMARK SMILES IDX 80 15 84 16 86 17 81 18 83 19 82 20 8 23 9 24 10 25 11 26
REMARK SMILES IDX 12 28 13 29 14 30 75 31 15 32 74 33 16 34 17 35 18 36 68 37
REMARK SMILES IDX 19 38 73 39 67 40 69 41 20 42 72 43 66 44 65 45 21 47 53 48
REMARK SMILES IDX 33 49 52 50 34 51 37 52 51 53 70 54 35 55 36 56 50 58 71 59
REMARK SMILES IDX 38 60 22 61 23 62 31 63 24 64 25 65 29 66 32 67 26 68 27 69
REMARK SMILES IDX 30 70 28 71 54 72 55 73 63 74 56 75 57 76 61 77 64 78 58 79
REMARK SMILES IDX 59 80 62 81 60 82 39 83 40 84 48 85 41 86 42 87 46 88 49 89
REMARK SMILES IDX 43 90 44 91 47 92 45 93
REMARK H PARENT 5 6 78 14 82 21 82 22 10 27 69 46 37 57
REMARK Flexibility Score: inf
ROOT
ATOM      1  C   UNL A   1      31.857  30.307  26.689  1.00  0.00     0.023 C 
ENDROOT
BRANCH   1   2
ATOM      2  C   UNL A   1      33.196  29.820  26.133  1.00  0.00     0.116 C 
BRANCH   2   3
ATOM      3  N   UNL A   1      33.169  29.748  24.687  1.00  0.00    -0.356 N 
ATOM      4  C   UNL A   1      33.030  28.678  23.858  1.00  0.00     0.228 C 
ATOM      5  O   UNL A   1      33.180  28.894  22.653  1.00  0.00    -0.275 OA
ATOM      6  H   UNL A   1      33.267  30.615  24.229  1.00  0.00     0.163 HD
BRANCH   4   7
ATOM      7  C   UNL A   1      32.714  27.287  24.422  1.00  0.00     0.133 C 
ATOM      8  C   UNL A   1      33.887  26.357  24.096  1.00  0.00     0.024 C 
BRANCH   7   9
ATOM      9  C   UNL A   1      31.348  26.793  23.838  1.00  0.00     0.193 C 
ATOM     10  C   UNL A   1      30.335  27.944  23.881  1.00  0.00     0.076 C 
BRANCH   9  11
ATOM     11  N   UNL A   1      30.921  25.511  24.409  1.00  0.00    -0.329 N 
ATOM     12  C   UNL A   1      31.057  25.416  25.883  1.00  0.00     0.272 C 
ATOM     13  C   UNL A   1      30.924  24.160  23.795  1.00  0.00     0.190 C 
ATOM     14  H   UNL A   1      30.030  25.746  23.970  1.00  0.00     0.348 HD
ATOM     15  C   UNL A   1      31.806  24.125  25.992  1.00  0.00     0.114 C 
ATOM     16  C   UNL A   1      31.025  23.264  25.033  1.00  0.00     0.116 C 
ATOM     17  C   UNL A   1      31.947  23.765  22.738  1.00  0.00     0.076 C 
ATOM     18  C   UNL A   1      31.839  23.256  27.215  1.00  0.00     0.270 C 
ATOM     19  C   UNL A   1      31.782  21.965  25.184  1.00  0.00     0.271 C 
ATOM     20  N   UNL A   1      32.093  21.908  26.640  1.00  0.00    -0.345 N 
ATOM     21  H   UNL A   1      31.495  21.219  27.095  1.00  0.00     0.346 HD
ATOM     22  H   UNL A   1      33.066  21.638  26.785  1.00  0.00     0.346 HD
ENDBRANCH   9  11
ENDBRANCH   7   9
ENDBRANCH   4   7
ENDBRANCH   2   3
ENDBRANCH   1   2
BRANCH   1  23
ATOM     23  C   UNL A   1      31.673  31.828  26.700  1.00  0.00     0.023 C 
BRANCH  23  24
ATOM     24  C   UNL A   1      32.809  32.615  27.341  1.00  0.00     0.116 C 
BRANCH  24  25
ATOM     25  N   UNL A   1      32.451  33.996  27.627  1.00  0.00    -0.352 N 
ATOM     26  C   UNL A   1      33.008  34.855  28.543  1.00  0.00     0.251 C 
ATOM     27  H   UNL A   1      31.711  34.364  27.092  1.00  0.00     0.163 HD
ATOM     28  O   UNL A   1      32.509  35.956  28.750  1.00  0.00    -0.269 OA
BRANCH  26  29
ATOM     29  C   UNL A   1      34.199  34.428  29.305  1.00  0.00     0.039 A 
ATOM     30  C   UNL A   1      34.026  33.804  30.544  1.00  0.00     0.014 A 
ATOM     31  C   UNL A   1      35.480  34.615  28.780  1.00  0.00     0.014 A 
ATOM     32  C   UNL A   1      35.136  33.300  31.226  1.00  0.00     0.010 A 
ATOM     33  C   UNL A   1      36.576  34.057  29.428  1.00  0.00     0.010 A 
ATOM     34  C   UNL A   1      36.414  33.391  30.654  1.00  0.00    -0.014 A 
BRANCH  34  35
ATOM     35  C   UNL A   1      37.612  32.807  31.306  1.00  0.00     0.031 A 
ATOM     36  C   UNL A   1      38.323  31.656  30.655  1.00  0.00     0.074 A 
ATOM     37  C   UNL A   1      37.984  33.227  32.529  1.00  0.00     0.049 A 
ATOM     38  N   UNL A   1      39.258  30.878  31.135  1.00  0.00    -0.248 NA
ATOM     39  C   UNL A   1      37.892  31.311  29.292  1.00  0.00     0.031 C 
ATOM     40  C   UNL A   1      37.353  34.312  33.280  1.00  0.00     0.029 A 
ATOM     41  N   UNL A   1      38.967  32.768  33.370  1.00  0.00    -0.354 N 
ATOM     42  C   UNL A   1      39.501  29.931  30.149  1.00  0.00     0.074 A 
ATOM     43  C   UNL A   1      38.591  30.210  29.060  1.00  0.00     0.031 C 
ATOM     44  C   UNL A   1      37.961  34.433  34.470  1.00  0.00     0.029 A 
ATOM     45  C   UNL A   1      38.995  33.408  34.584  1.00  0.00     0.049 A 
ATOM     46  H   UNL A   1      39.592  32.047  33.126  1.00  0.00     0.167 HD
ATOM     47  C   UNL A   1      40.412  28.928  30.150  1.00  0.00     0.037 A 
ATOM     48  C   UNL A   1      39.753  33.180  35.673  1.00  0.00     0.037 A 
ATOM     49  C   UNL A   1      41.338  28.679  31.221  1.00  0.00     0.049 A 
ATOM     50  C   UNL A   1      40.767  32.071  35.647  1.00  0.00     0.074 A 
ATOM     51  C   UNL A   1      42.345  27.732  31.290  1.00  0.00     0.029 A 
ATOM     52  N   UNL A   1      41.372  29.386  32.415  1.00  0.00    -0.354 N 
ATOM     53  N   UNL A   1      41.026  31.211  34.692  1.00  0.00    -0.248 NA
ATOM     54  C   UNL A   1      41.599  31.902  36.847  1.00  0.00     0.031 C 
ATOM     55  C   UNL A   1      42.962  27.840  32.541  1.00  0.00     0.029 A 
ATOM     56  C   UNL A   1      42.372  28.886  33.233  1.00  0.00     0.049 A 
ATOM     57  H   UNL A   1      40.773  30.132  32.646  1.00  0.00     0.167 HD
ATOM     58  C   UNL A   1      42.067  30.420  35.160  1.00  0.00     0.074 A 
ATOM     59  C   UNL A   1      42.393  30.904  36.486  1.00  0.00     0.031 C 
ATOM     60  C   UNL A   1      42.695  29.390  34.544  1.00  0.00     0.037 A 
BRANCH  47  61
ATOM     61  C   UNL A   1      40.434  28.020  28.955  1.00  0.00     0.064 A 
ATOM     62  C   UNL A   1      41.202  28.314  27.818  1.00  0.00     0.173 A 
ATOM     63  C   UNL A   1      39.682  26.835  28.950  1.00  0.00     0.173 A 
ATOM     64  F   UNL A   1      41.930  29.439  27.767  1.00  0.00    -0.203 F 
ATOM     65  C   UNL A   1      41.183  27.476  26.705  1.00  0.00     0.198 A 
ATOM     66  C   UNL A   1      39.691  25.985  27.848  1.00  0.00     0.198 A 
ATOM     67  F   UNL A   1      38.935  26.503  30.014  1.00  0.00    -0.203 F 
ATOM     68  F   UNL A   1      41.876  27.811  25.607  1.00  0.00    -0.200 F 
ATOM     69  C   UNL A   1      40.433  26.312  26.723  1.00  0.00     0.200 A 
ATOM     70  F   UNL A   1      38.973  24.853  27.871  1.00  0.00    -0.200 F 
ATOM     71  F   UNL A   1      40.413  25.509  25.650  1.00  0.00    -0.200 F 
ENDBRANCH  47  61
BRANCH  48  72
ATOM     72  C   UNL A   1      39.586  34.039  36.874  1.00  0.00     0.064 A 
ATOM     73  C   UNL A   1      38.786  33.622  37.947  1.00  0.00     0.173 A 
ATOM     74  C   UNL A   1      40.240  35.273  36.986  1.00  0.00     0.173 A 
ATOM     75  F   UNL A   1      38.125  32.457  37.875  1.00  0.00    -0.203 F 
ATOM     76  C   UNL A   1      38.643  34.412  39.085  1.00  0.00     0.198 A 
ATOM     77  C   UNL A   1      40.114  36.052  38.135  1.00  0.00     0.198 A 
ATOM     78  F   UNL A   1      41.020  35.713  35.988  1.00  0.00    -0.203 F 
ATOM     79  F   UNL A   1      37.849  34.003  40.085  1.00  0.00    -0.200 F 
ATOM     80  C   UNL A   1      39.313  35.622  39.183  1.00  0.00     0.200 A 
ATOM     81  F   UNL A   1      40.774  37.213  38.231  1.00  0.00    -0.200 F 
ATOM     82  F   UNL A   1      39.183  36.375  40.282  1.00  0.00    -0.200 F 
ENDBRANCH  48  72
BRANCH  60  83
ATOM     83  C   UNL A   1      43.835  28.740  35.270  1.00  0.00     0.064 A 
ATOM     84  C   UNL A   1      45.155  29.186  35.118  1.00  0.00     0.173 A 
ATOM     85  C   UNL A   1      43.591  27.701  36.182  1.00  0.00     0.173 A 
ATOM     86  F   UNL A   1      45.441  30.167  34.249  1.00  0.00    -0.203 F 
ATOM     87  C   UNL A   1      46.192  28.606  35.846  1.00  0.00     0.198 A 
ATOM     88  C   UNL A   1      44.625  27.142  36.924  1.00  0.00     0.198 A 
ATOM     89  F   UNL A   1      42.343  27.244  36.365  1.00  0.00    -0.203 F 
ATOM     90  F   UNL A   1      47.452  29.026  35.663  1.00  0.00    -0.200 F 
ATOM     91  C   UNL A   1      45.925  27.592  36.753  1.00  0.00     0.200 A 
ATOM     92  F   UNL A   1      44.363  26.170  37.809  1.00  0.00    -0.200 F 
ATOM     93  F   UNL A   1      46.922  27.045  37.462  1.00  0.00    -0.200 F 
ENDBRANCH  60  83
ENDBRANCH  34  35
ENDBRANCH  26  29
ENDBRANCH  24  25
ENDBRANCH  23  24
ENDBRANCH   1  23
TORSDOF 13
ENDMDL
MODEL 3
REMARK VINA RESULT:     -12.1      0.103      1.623
REMARK SMILES C[C@@H](C(=O)NCCCCNC(=O)c1ccc(-c2c3nc(c(-c4c(F)c(F)c(F)c(F)c4F)c4ccc([nH]4)c(-c4c(F)c(F)c(F)c(F)c4F)c4nc(c(-c5c(F)c(F)c(F)c(F)c5F)c5ccc2[nH]5)C=C4)C=C3)cc1)[C@H](C)[N@@H+]1C[C@H]2C[NH2+]C[C@@H]2[C@@H]1C
REMARK SMILES IDX 7 1 6 2 5 3 3 4 4 5 2 7 1 8 76 9 77 10 78 11 79 12 85 13
REMARK SMILES IDX 80 15 84 16 86 17 81 18 83 19 82 20 8 23 9 24 10 25 11 26
REMARK SMILES IDX 12 28 13 29 14 30 75 31 15 32 74 33 16 34 17 35 18 36 68 37
REMARK SMILES IDX 19 38 73 39 67 40 69 41 20 42 72 43 66 44 65 45 21 47 53 48
REMARK SMILES IDX 33 49 52 50 34 51 37 52 51 53 70 54 35 55 36 56 50 58 71 59
REMARK SMILES IDX 38 60 22 61 23 62 31 63 24 64 25 65 29 66 32 67 26 68 27 69
REMARK SMILES IDX 30 70 28 71 54 72 55 73 63 74 56 75 57 76 61 77 64 78 58 79
REMARK SMILES IDX 59 80 62 81 60 82 39 83 40 84 48 85 41 86 42 87 46 88 49 89
REMARK SMILES IDX 43 90 44 91 47 92 45 93
REMARK H PARENT 5 6 78 14 82 21 82 22 10 27 69 46 37 57
REMARK Flexibility Score: inf
ROOT
ATOM      1  C   UNL A   1      32.004  30.337  26.436  1.00  0.00     0.023 C 
ENDROOT
BRANCH   1   2
ATOM      2  C   UNL A   1      31.417  29.765  25.144  1.00  0.00     0.116 C 
BRANCH   2   3
ATOM      3  N   UNL A   1      32.454  29.504  24.167  1.00  0.00    -0.356 N 
ATOM      4  C   UNL A   1      33.331  28.469  24.064  1.00  0.00     0.228 C 
ATOM      5  O   UNL A   1      34.204  28.573  23.201  1.00  0.00    -0.275 OA
ATOM      6  H   UNL A   1      32.538  30.188  23.462  1.00  0.00     0.163 HD
BRANCH   4   7
ATOM      7  C   UNL A   1      33.221  27.256  24.996  1.00  0.00     0.133 C 
ATOM      8  C   UNL A   1      34.061  27.532  26.248  1.00  0.00     0.024 C 
BRANCH   7   9
ATOM      9  C   UNL A   1      33.665  25.970  24.221  1.00  0.00     0.193 C 
ATOM     10  C   UNL A   1      32.527  25.523  23.293  1.00  0.00     0.076 C 
BRANCH   9  11
ATOM     11  N   UNL A   1      34.242  24.950  25.102  1.00  0.00    -0.329 N 
ATOM     12  C   UNL A   1      35.287  24.108  24.472  1.00  0.00     0.272 C 
ATOM     13  C   UNL A   1      33.625  24.244  26.253  1.00  0.00     0.190 C 
ATOM     14  H   UNL A   1      34.483  25.754  25.682  1.00  0.00     0.348 HD
ATOM     15  C   UNL A   1      34.769  22.747  24.819  1.00  0.00     0.114 C 
ATOM     16  C   UNL A   1      34.427  22.939  26.274  1.00  0.00     0.116 C 
ATOM     17  C   UNL A   1      32.127  23.976  26.316  1.00  0.00     0.076 C 
ATOM     18  C   UNL A   1      35.605  21.502  24.870  1.00  0.00     0.270 C 
ATOM     19  C   UNL A   1      33.936  21.549  26.604  1.00  0.00     0.271 C 
ATOM     20  N   UNL A   1      34.862  20.661  25.847  1.00  0.00    -0.345 N 
ATOM     21  H   UNL A   1      35.516  20.215  26.488  1.00  0.00     0.346 HD
ATOM     22  H   UNL A   1      34.339  19.933  25.361  1.00  0.00     0.346 HD
ENDBRANCH   9  11
ENDBRANCH   7   9
ENDBRANCH   4   7
ENDBRANCH   2   3
ENDBRANCH   1   2
BRANCH   1  23
ATOM     23  C   UNL A   1      31.694  31.815  26.691  1.00  0.00     0.023 C 
BRANCH  23  24
ATOM     24  C   UNL A   1      32.836  32.623  27.295  1.00  0.00     0.116 C 
BRANCH  24  25
ATOM     25  N   UNL A   1      32.455  33.989  27.619  1.00  0.00    -0.352 N 
ATOM     26  C   UNL A   1      32.993  34.829  28.564  1.00  0.00     0.251 C 
ATOM     27  H   UNL A   1      31.711  34.361  27.092  1.00  0.00     0.163 HD
ATOM     28  O   UNL A   1      32.476  35.915  28.802  1.00  0.00    -0.269 OA
BRANCH  26  29
ATOM     29  C   UNL A   1      34.188  34.399  29.319  1.00  0.00     0.039 A 
ATOM     30  C   UNL A   1      34.019  33.730  30.534  1.00  0.00     0.014 A 
ATOM     31  C   UNL A   1      35.468  34.628  28.809  1.00  0.00     0.014 A 
ATOM     32  C   UNL A   1      35.134  33.224  31.206  1.00  0.00     0.010 A 
ATOM     33  C   UNL A   1      36.570  34.069  29.445  1.00  0.00     0.010 A 
ATOM     34  C   UNL A   1      36.414  33.358  30.647  1.00  0.00    -0.014 A 
BRANCH  34  35
ATOM     35  C   UNL A   1      37.618  32.774  31.287  1.00  0.00     0.031 A 
ATOM     36  C   UNL A   1      38.336  31.638  30.617  1.00  0.00     0.074 A 
ATOM     37  C   UNL A   1      37.991  33.180  32.514  1.00  0.00     0.049 A 
ATOM     38  N   UNL A   1      39.280  30.861  31.083  1.00  0.00    -0.248 NA
ATOM     39  C   UNL A   1      37.904  31.310  29.251  1.00  0.00     0.031 C 
ATOM     40  C   UNL A   1      37.354  34.249  33.283  1.00  0.00     0.029 A 
ATOM     41  N   UNL A   1      38.981  32.717  33.346  1.00  0.00    -0.354 N 
ATOM     42  C   UNL A   1      39.527  29.930  30.083  1.00  0.00     0.074 A 
ATOM     43  C   UNL A   1      38.610  30.218  29.001  1.00  0.00     0.031 C 
ATOM     44  C   UNL A   1      37.965  34.359  34.472  1.00  0.00     0.029 A 
ATOM     45  C   UNL A   1      39.008  33.341  34.568  1.00  0.00     0.049 A 
ATOM     46  H   UNL A   1      39.611  32.005  33.089  1.00  0.00     0.167 HD
ATOM     47  C   UNL A   1      40.445  28.935  30.067  1.00  0.00     0.037 A 
ATOM     48  C   UNL A   1      39.771  33.104  35.652  1.00  0.00     0.037 A 
ATOM     49  C   UNL A   1      41.378  28.678  31.132  1.00  0.00     0.049 A 
ATOM     50  C   UNL A   1      40.794  32.003  35.606  1.00  0.00     0.074 A 
ATOM     51  C   UNL A   1      42.392  27.739  31.184  1.00  0.00     0.029 A 
ATOM     52  N   UNL A   1      41.409  29.369  32.335  1.00  0.00    -0.354 N 
ATOM     53  N   UNL A   1      41.057  31.159  34.638  1.00  0.00    -0.248 NA
ATOM     54  C   UNL A   1      41.632  31.824  36.801  1.00  0.00     0.031 C 
ATOM     55  C   UNL A   1      43.012  27.834  32.434  1.00  0.00     0.029 A 
ATOM     56  C   UNL A   1      42.416  28.865  33.143  1.00  0.00     0.049 A 
ATOM     57  H   UNL A   1      40.805  30.107  32.578  1.00  0.00     0.167 HD
ATOM     58  C   UNL A   1      42.105  30.370  35.092  1.00  0.00     0.074 A 
ATOM     59  C   UNL A   1      42.433  30.837  36.423  1.00  0.00     0.031 C 
ATOM     60  C   UNL A   1      42.740  29.354  34.459  1.00  0.00     0.037 A 
BRANCH  47  61
ATOM     61  C   UNL A   1      40.471  28.044  28.859  1.00  0.00     0.064 A 
ATOM     62  C   UNL A   1      41.233  28.360  27.724  1.00  0.00     0.173 A 
ATOM     63  C   UNL A   1      39.728  26.853  28.840  1.00  0.00     0.173 A 
ATOM     64  F   UNL A   1      41.951  29.492  27.687  1.00  0.00    -0.203 F 
ATOM     65  C   UNL A   1      41.216  27.538  26.599  1.00  0.00     0.198 A 
ATOM     66  C   UNL A   1      39.740  26.018  27.726  1.00  0.00     0.198 A 
ATOM     67  F   UNL A   1      38.988  26.500  29.901  1.00  0.00    -0.203 F 
ATOM     68  F   UNL A   1      41.902  27.893  25.504  1.00  0.00    -0.200 F 
ATOM     69  C   UNL A   1      40.475  26.367  26.603  1.00  0.00     0.200 A 
ATOM     70  F   UNL A   1      39.032  24.881  27.736  1.00  0.00    -0.200 F 
ATOM     71  F   UNL A   1      40.459  25.579  25.519  1.00  0.00    -0.200 F 
ENDBRANCH  47  61
BRANCH  48  72
ATOM     72  C   UNL A   1      39.601  33.944  36.864  1.00  0.00     0.064 A 
ATOM     73  C   UNL A   1      40.213  35.202  36.956  1.00  0.00     0.173 A 
ATOM     74  C   UNL A   1      38.806  33.524  37.939  1.00  0.00     0.173 A 
ATOM     75  F   UNL A   1      40.999  35.637  35.960  1.00  0.00    -0.203 F 
ATOM     76  C   UNL A   1      40.040  36.005  38.081  1.00  0.00     0.198 A 
ATOM     77  C   UNL A   1      38.615  34.338  39.054  1.00  0.00     0.198 A 
ATOM     78  F   UNL A   1      38.195  32.331  37.897  1.00  0.00    -0.203 F 
ATOM     79  F   UNL A   1      40.660  37.191  38.155  1.00  0.00    -0.200 F 
ATOM     80  C   UNL A   1      39.235  35.577  39.125  1.00  0.00     0.200 A 
ATOM     81  F   UNL A   1      37.825  33.927  40.055  1.00  0.00    -0.200 F 
ATOM     82  F   UNL A   1      39.060  36.354  40.202  1.00  0.00    -0.200 F 
ENDBRANCH  48  72
BRANCH  60  83
ATOM     83  C   UNL A   1      43.888  28.703  35.173  1.00  0.00     0.064 A 
ATOM     84  C   UNL A   1      45.200  29.176  35.041  1.00  0.00     0.173 A 
ATOM     85  C   UNL A   1      43.657  27.634  36.053  1.00  0.00     0.173 A 
ATOM     86  F   UNL A   1      45.474  30.186  34.201  1.00  0.00    -0.203 F 
ATOM     87  C   UNL A   1      46.244  28.592  35.756  1.00  0.00     0.198 A 
ATOM     88  C   UNL A   1      44.697  27.071  36.785  1.00  0.00     0.198 A 
ATOM     89  F   UNL A   1      42.416  27.150  36.217  1.00  0.00    -0.203 F 
ATOM     90  F   UNL A   1      47.497  29.039  35.593  1.00  0.00    -0.200 F 
ATOM     91  C   UNL A   1      45.990  27.549  36.633  1.00  0.00     0.200 A 
ATOM     92  F   UNL A   1      44.448  26.070  37.640  1.00  0.00    -0.200 F 
ATOM     93  F   UNL A   1      46.993  26.998  37.331  1.00  0.00    -0.200 F 
ENDBRANCH  60  83
ENDBRANCH  34  35
ENDBRANCH  26  29
ENDBRANCH  24  25
ENDBRANCH  23  24
ENDBRANCH   1  23
TORSDOF 13
ENDMDL
