MODEL 1
REMARK VINA RESULT:      -8.4      0.000      0.000
REMARK SMILES CCCCCCCNC(=O)Oc1cccc(-c2ccc([C@@H](C)C(=O)NCCCCNC(=O)c3ccc(-c4c5nc(c(-c6c(F)c(F)c(F)c(F)c6F)c6ccc([nH]6)c(-c6c(F)c(F)c(F)c(F)c6F)c6nc(c(-c7c(F)c(F)c(F)c(F)c7F)c7ccc4[nH]7)C=C6)C=C5)cc3)cc2F)c1
REMARK SMILES IDX 17 1 18 2 19 3 20 4 96 5 97 6 98 7 16 8 12 9 13 10 99 11
REMARK SMILES IDX 14 12 15 13 11 14 9 15 8 16 10 18 7 19 6 20 5 21 4 22 3 23
REMARK SMILES IDX 2 24 1 25 21 26 22 27 23 28 24 29 25 30 26 32 27 33 28 34
REMARK SMILES IDX 29 35 30 36 31 37 32 39 33 40 34 41 95 42 35 43 94 44 36 45
REMARK SMILES IDX 37 46 38 47 88 48 39 49 93 50 87 51 89 52 40 53 92 54 86 55
REMARK SMILES IDX 85 56 41 58 73 59 53 60 72 61 54 62 57 63 71 64 90 65 55 66
REMARK SMILES IDX 56 67 70 69 91 70 58 71 42 72 43 73 51 74 44 75 45 76 49 77
REMARK SMILES IDX 52 78 46 79 47 80 50 81 48 82 74 83 75 84 83 85 76 86 77 87
REMARK SMILES IDX 81 88 84 89 78 90 79 91 82 92 80 93 59 94 60 95 68 96 61 97
REMARK SMILES IDX 62 98 66 99 69 100 63 101 64 102 67 103 65 104
REMARK H PARENT 8 17 25 31 30 38 89 57 57 68
REMARK Flexibility Score: inf
ROOT
ATOM      1  C   UNL A   1      40.784  28.474  28.471  1.00  0.00     0.018 A 
ATOM      2  C   UNL A   1      40.592  29.756  29.015  1.00  0.00     0.012 A 
ATOM      3  C   UNL A   1      39.313  30.283  29.239  1.00  0.00     0.005 A 
ATOM      4  C   UNL A   1      38.167  29.583  28.855  1.00  0.00    -0.033 A 
ATOM      5  C   UNL A   1      38.342  28.291  28.340  1.00  0.00     0.044 A 
ATOM      6  C   UNL A   1      39.621  27.747  28.176  1.00  0.00     0.131 A 
ATOM      7  F   UNL A   1      39.698  26.487  27.719  1.00  0.00    -0.206 F 
ENDROOT
BRANCH   1   8
ATOM      8  C   UNL A   1      42.149  27.955  28.217  1.00  0.00    -0.012 A 
ATOM      9  C   UNL A   1      43.956  26.386  28.671  1.00  0.00     0.133 A 
ATOM     10  C   UNL A   1      44.745  26.944  27.670  1.00  0.00     0.047 A 
ATOM     11  C   UNL A   1      42.678  26.878  28.950  1.00  0.00     0.056 A 
ATOM     12  C   UNL A   1      44.242  28.006  26.929  1.00  0.00     0.004 A 
ATOM     13  C   UNL A   1      42.966  28.509  27.209  1.00  0.00     0.009 A 
BRANCH   9  14
ATOM     14  O   UNL A   1      44.552  25.403  29.472  1.00  0.00    -0.410 OA
BRANCH  14  15
ATOM     15  C   UNL A   1      45.166  24.332  28.843  1.00  0.00     0.412 C 
ATOM     16  N   UNL A   1      44.395  23.201  28.854  1.00  0.00    -0.321 N 
ATOM     17  H   UNL A   1      44.776  22.402  28.423  1.00  0.00     0.167 HD
ATOM     18  O   UNL A   1      46.278  24.333  28.332  1.00  0.00    -0.224 OA
BRANCH  16  19
ATOM     19  C   UNL A   1      43.073  23.062  29.436  1.00  0.00     0.119 C 
BRANCH  19  20
ATOM     20  C   UNL A   1      42.006  22.794  28.377  1.00  0.00     0.021 C 
BRANCH  20  21
ATOM     21  C   UNL A   1      42.437  21.835  27.260  1.00  0.00     0.002 C 
BRANCH  21  22
ATOM     22  C   UNL A   1      42.063  22.273  25.840  1.00  0.00     0.000 C 
BRANCH  22  23
ATOM     23  C   UNL A   1      43.187  22.953  25.048  1.00  0.00    -0.000 C 
BRANCH  23  24
ATOM     24  C   UNL A   1      43.487  24.398  25.450  1.00  0.00    -0.003 C 
ATOM     25  C   UNL A   1      42.270  25.309  25.383  1.00  0.00     0.004 C 
ENDBRANCH  23  24
ENDBRANCH  22  23
ENDBRANCH  21  22
ENDBRANCH  20  21
ENDBRANCH  19  20
ENDBRANCH  16  19
ENDBRANCH  14  15
ENDBRANCH   9  14
ENDBRANCH   1   8
BRANCH   4  26
ATOM     26  C   UNL A   1      36.769  30.174  28.929  1.00  0.00     0.105 C 
ATOM     27  C   UNL A   1      35.771  29.669  27.886  1.00  0.00     0.023 C 
BRANCH  26  28
ATOM     28  C   UNL A   1      36.204  30.231  30.359  1.00  0.00     0.227 C 
ATOM     29  O   UNL A   1      36.297  29.242  31.097  1.00  0.00    -0.274 OA
ATOM     30  N   UNL A   1      35.598  31.326  30.892  1.00  0.00    -0.356 N 
ATOM     31  H   UNL A   1      35.342  31.226  31.838  1.00  0.00     0.163 HD
BRANCH  30  32
ATOM     32  C   UNL A   1      35.262  32.613  30.320  1.00  0.00     0.116 C 
BRANCH  32  33
ATOM     33  C   UNL A   1      36.004  33.762  31.004  1.00  0.00     0.023 C 
BRANCH  33  34
ATOM     34  C   UNL A   1      37.506  33.544  31.179  1.00  0.00     0.023 C 
BRANCH  34  35
ATOM     35  C   UNL A   1      38.104  34.115  32.460  1.00  0.00     0.116 C 
BRANCH  35  36
ATOM     36  N   UNL A   1      37.439  33.670  33.679  1.00  0.00    -0.352 N 
ATOM     37  C   UNL A   1      37.754  32.589  34.472  1.00  0.00     0.251 C 
ATOM     38  H   UNL A   1      36.671  34.210  33.973  1.00  0.00     0.163 HD
ATOM     39  O   UNL A   1      37.066  32.295  35.442  1.00  0.00    -0.269 OA
BRANCH  37  40
ATOM     40  C   UNL A   1      38.910  31.752  34.096  1.00  0.00     0.039 A 
ATOM     41  C   UNL A   1      38.711  30.683  33.219  1.00  0.00     0.014 A 
ATOM     42  C   UNL A   1      40.195  32.102  34.516  1.00  0.00     0.014 A 
ATOM     43  C   UNL A   1      39.818  30.031  32.674  1.00  0.00     0.010 A 
ATOM     44  C   UNL A   1      41.295  31.498  33.918  1.00  0.00     0.010 A 
ATOM     45  C   UNL A   1      41.116  30.477  32.971  1.00  0.00    -0.014 A 
BRANCH  45  46
ATOM     46  C   UNL A   1      42.305  29.936  32.265  1.00  0.00     0.031 A 
ATOM     47  C   UNL A   1      42.983  28.699  32.776  1.00  0.00     0.074 A 
ATOM     48  C   UNL A   1      42.829  30.621  31.229  1.00  0.00     0.049 A 
ATOM     49  N   UNL A   1      44.109  28.154  32.392  1.00  0.00    -0.248 NA
ATOM     50  C   UNL A   1      42.321  27.996  33.886  1.00  0.00     0.031 C 
ATOM     51  C   UNL A   1      42.286  31.859  30.668  1.00  0.00     0.029 A 
ATOM     52  N   UNL A   1      43.953  30.385  30.477  1.00  0.00    -0.354 N 
ATOM     53  C   UNL A   1      44.295  27.055  33.217  1.00  0.00     0.074 A 
ATOM     54  C   UNL A   1      43.194  27.036  34.155  1.00  0.00     0.031 C 
ATOM     55  C   UNL A   1      43.067  32.266  29.655  1.00  0.00     0.029 A 
ATOM     56  C   UNL A   1      44.191  31.347  29.524  1.00  0.00     0.049 A 
ATOM     57  H   UNL A   1      44.535  29.600  30.607  1.00  0.00     0.167 HD
ATOM     58  C   UNL A   1      45.284  26.132  33.179  1.00  0.00     0.037 A 
ATOM     59  C   UNL A   1      45.214  31.482  28.659  1.00  0.00     0.037 A 
ATOM     60  C   UNL A   1      46.366  26.142  32.229  1.00  0.00     0.049 A 
ATOM     61  C   UNL A   1      46.321  30.462  28.666  1.00  0.00     0.074 A 
ATOM     62  C   UNL A   1      47.381  25.216  32.070  1.00  0.00     0.029 A 
ATOM     63  N   UNL A   1      46.571  27.130  31.278  1.00  0.00    -0.354 N 
ATOM     64  N   UNL A   1      46.455  29.392  29.410  1.00  0.00    -0.248 NA
ATOM     65  C   UNL A   1      47.425  30.675  27.719  1.00  0.00     0.031 C 
ATOM     66  C   UNL A   1      48.227  25.666  31.050  1.00  0.00     0.029 A 
ATOM     67  C   UNL A   1      47.714  26.850  30.547  1.00  0.00     0.049 A 
ATOM     68  H   UNL A   1      45.992  27.914  31.144  1.00  0.00     0.167 HD
ATOM     69  C   UNL A   1      47.641  28.795  29.010  1.00  0.00     0.074 A 
ATOM     70  C   UNL A   1      48.182  29.610  27.942  1.00  0.00     0.031 C 
ATOM     71  C   UNL A   1      48.235  27.674  29.487  1.00  0.00     0.037 A 
BRANCH  58  72
ATOM     72  C   UNL A   1      45.239  25.023  34.187  1.00  0.00     0.064 A 
ATOM     73  C   UNL A   1      44.710  23.765  33.864  1.00  0.00     0.173 A 
ATOM     74  C   UNL A   1      45.779  25.201  35.469  1.00  0.00     0.173 A 
ATOM     75  F   UNL A   1      44.171  23.548  32.655  1.00  0.00    -0.203 F 
ATOM     76  C   UNL A   1      44.704  22.731  34.797  1.00  0.00     0.198 A 
ATOM     77  C   UNL A   1      45.795  24.156  36.390  1.00  0.00     0.198 A 
ATOM     78  F   UNL A   1      46.302  26.383  35.825  1.00  0.00    -0.203 F 
ATOM     79  F   UNL A   1      44.157  21.548  34.479  1.00  0.00    -0.200 F 
ATOM     80  C   UNL A   1      45.254  22.924  36.054  1.00  0.00     0.200 A 
ATOM     81  F   UNL A   1      46.338  24.341  37.601  1.00  0.00    -0.200 F 
ATOM     82  F   UNL A   1      45.257  21.924  36.947  1.00  0.00    -0.200 F 
ENDBRANCH  58  72
BRANCH  59  83
ATOM     83  C   UNL A   1      45.251  32.629  27.713  1.00  0.00     0.064 A 
ATOM     84  C   UNL A   1      44.572  32.570  26.489  1.00  0.00     0.173 A 
ATOM     85  C   UNL A   1      45.981  33.792  27.999  1.00  0.00     0.173 A 
ATOM     86  F   UNL A   1      43.880  31.469  26.160  1.00  0.00    -0.203 F 
ATOM     87  C   UNL A   1      44.641  33.620  25.574  1.00  0.00     0.198 A 
ATOM     88  C   UNL A   1      46.027  34.852  27.096  1.00  0.00     0.198 A 
ATOM     89  F   UNL A   1      46.648  33.899  29.157  1.00  0.00    -0.203 F 
ATOM     90  F   UNL A   1      44.025  33.515  24.389  1.00  0.00    -0.200 F 
ATOM     91  C   UNL A   1      45.365  34.762  25.881  1.00  0.00     0.200 A 
ATOM     92  F   UNL A   1      46.720  35.959  27.400  1.00  0.00    -0.200 F 
ATOM     93  F   UNL A   1      45.435  35.770  25.001  1.00  0.00    -0.200 F 
ENDBRANCH  59  83
BRANCH  71  94
ATOM     94  C   UNL A   1      49.525  27.255  28.849  1.00  0.00     0.064 A 
ATOM     95  C   UNL A   1      50.763  27.573  29.428  1.00  0.00     0.173 A 
ATOM     96  C   UNL A   1      49.524  26.486  27.675  1.00  0.00     0.173 A 
ATOM     97  F   UNL A   1      50.814  28.320  30.540  1.00  0.00    -0.203 F 
ATOM     98  C   UNL A   1      51.953  27.150  28.845  1.00  0.00     0.198 A 
ATOM     99  C   UNL A   1      50.716  26.041  27.110  1.00  0.00     0.198 A 
ATOM    100  F   UNL A   1      48.366  26.152  27.086  1.00  0.00    -0.203 F 
ATOM    101  F   UNL A   1      53.125  27.497  29.394  1.00  0.00    -0.200 F 
ATOM    102  C   UNL A   1      51.930  26.377  27.692  1.00  0.00     0.200 A 
ATOM    103  F   UNL A   1      50.691  25.286  26.004  1.00  0.00    -0.200 F 
ATOM    104  F   UNL A   1      53.077  25.962  27.140  1.00  0.00    -0.200 F 
ENDBRANCH  71  94
ENDBRANCH  45  46
ENDBRANCH  37  40
ENDBRANCH  35  36
ENDBRANCH  34  35
ENDBRANCH  33  34
ENDBRANCH  32  33
ENDBRANCH  30  32
ENDBRANCH  26  28
ENDBRANCH   4  26
TORSDOF 21
ENDMDL
MODEL 2
REMARK VINA RESULT:      -8.2      2.955      7.660
REMARK SMILES CCCCCCCNC(=O)Oc1cccc(-c2ccc([C@@H](C)C(=O)NCCCCNC(=O)c3ccc(-c4c5nc(c(-c6c(F)c(F)c(F)c(F)c6F)c6ccc([nH]6)c(-c6c(F)c(F)c(F)c(F)c6F)c6nc(c(-c7c(F)c(F)c(F)c(F)c7F)c7ccc4[nH]7)C=C6)C=C5)cc3)cc2F)c1
REMARK SMILES IDX 17 1 18 2 19 3 20 4 96 5 97 6 98 7 16 8 12 9 13 10 99 11
REMARK SMILES IDX 14 12 15 13 11 14 9 15 8 16 10 18 7 19 6 20 5 21 4 22 3 23
REMARK SMILES IDX 2 24 1 25 21 26 22 27 23 28 24 29 25 30 26 32 27 33 28 34
REMARK SMILES IDX 29 35 30 36 31 37 32 39 33 40 34 41 95 42 35 43 94 44 36 45
REMARK SMILES IDX 37 46 38 47 88 48 39 49 93 50 87 51 89 52 40 53 92 54 86 55
REMARK SMILES IDX 85 56 41 58 73 59 53 60 72 61 54 62 57 63 71 64 90 65 55 66
REMARK SMILES IDX 56 67 70 69 91 70 58 71 42 72 43 73 51 74 44 75 45 76 49 77
REMARK SMILES IDX 52 78 46 79 47 80 50 81 48 82 74 83 75 84 83 85 76 86 77 87
REMARK SMILES IDX 81 88 84 89 78 90 79 91 82 92 80 93 59 94 60 95 68 96 61 97
REMARK SMILES IDX 62 98 66 99 69 100 63 101 64 102 67 103 65 104
REMARK H PARENT 8 17 25 31 30 38 89 57 57 68
REMARK Flexibility Score: inf
ROOT
ATOM      1  C   UNL A   1      40.428  30.100  34.507  1.00  0.00     0.018 A 
ATOM      2  C   UNL A   1      40.614  31.326  35.169  1.00  0.00     0.012 A 
ATOM      3  C   UNL A   1      39.716  32.392  35.022  1.00  0.00     0.005 A 
ATOM      4  C   UNL A   1      38.634  32.307  34.143  1.00  0.00    -0.033 A 
ATOM      5  C   UNL A   1      38.419  31.081  33.500  1.00  0.00     0.044 A 
ATOM      6  C   UNL A   1      39.285  30.000  33.699  1.00  0.00     0.131 A 
ATOM      7  F   UNL A   1      38.982  28.848  33.080  1.00  0.00    -0.206 F 
ENDROOT
BRANCH   1   8
ATOM      8  C   UNL A   1      41.411  29.000  34.657  1.00  0.00    -0.012 A 
ATOM      9  C   UNL A   1      42.612  27.382  36.024  1.00  0.00     0.133 A 
ATOM     10  C   UNL A   1      43.256  26.858  34.909  1.00  0.00     0.047 A 
ATOM     11  C   UNL A   1      41.704  28.439  35.912  1.00  0.00     0.056 A 
ATOM     12  C   UNL A   1      42.979  27.393  33.658  1.00  0.00     0.004 A 
ATOM     13  C   UNL A   1      42.077  28.457  33.539  1.00  0.00     0.009 A 
BRANCH   9  14
ATOM     14  O   UNL A   1      43.016  26.895  37.275  1.00  0.00    -0.410 OA
BRANCH  14  15
ATOM     15  C   UNL A   1      44.191  27.387  37.818  1.00  0.00     0.412 C 
ATOM     16  N   UNL A   1      44.955  26.409  38.395  1.00  0.00    -0.321 N 
ATOM     17  H   UNL A   1      45.805  26.694  38.802  1.00  0.00     0.167 HD
ATOM     18  O   UNL A   1      44.551  28.557  37.828  1.00  0.00    -0.224 OA
BRANCH  16  19
ATOM     19  C   UNL A   1      44.640  24.995  38.466  1.00  0.00     0.119 C 
BRANCH  19  20
ATOM     20  C   UNL A   1      45.598  24.151  37.627  1.00  0.00     0.021 C 
BRANCH  20  21
ATOM     21  C   UNL A   1      45.251  24.077  36.135  1.00  0.00     0.002 C 
BRANCH  21  22
ATOM     22  C   UNL A   1      44.681  22.736  35.660  1.00  0.00     0.000 C 
BRANCH  22  23
ATOM     23  C   UNL A   1      44.316  22.671  34.173  1.00  0.00    -0.000 C 
BRANCH  23  24
ATOM     24  C   UNL A   1      44.747  23.881  33.341  1.00  0.00    -0.003 C 
ATOM     25  C   UNL A   1      44.239  23.839  31.907  1.00  0.00     0.004 C 
ENDBRANCH  23  24
ENDBRANCH  22  23
ENDBRANCH  21  22
ENDBRANCH  20  21
ENDBRANCH  19  20
ENDBRANCH  16  19
ENDBRANCH  14  15
ENDBRANCH   9  14
ENDBRANCH   1   8
BRANCH   4  26
ATOM     26  C   UNL A   1      37.725  33.485  33.828  1.00  0.00     0.105 C 
ATOM     27  C   UNL A   1      37.943  34.155  32.472  1.00  0.00     0.023 C 
BRANCH  26  28
ATOM     28  C   UNL A   1      36.248  33.226  34.169  1.00  0.00     0.227 C 
ATOM     29  O   UNL A   1      35.838  33.420  35.320  1.00  0.00    -0.274 OA
ATOM     30  N   UNL A   1      35.326  32.792  33.266  1.00  0.00    -0.356 N 
ATOM     31  H   UNL A   1      34.411  32.729  33.623  1.00  0.00     0.163 HD
BRANCH  30  32
ATOM     32  C   UNL A   1      35.449  32.408  31.876  1.00  0.00     0.116 C 
BRANCH  32  33
ATOM     33  C   UNL A   1      34.646  33.322  30.950  1.00  0.00     0.023 C 
BRANCH  33  34
ATOM     34  C   UNL A   1      35.457  33.989  29.842  1.00  0.00     0.023 C 
BRANCH  34  35
ATOM     35  C   UNL A   1      35.782  33.101  28.645  1.00  0.00     0.116 C 
BRANCH  35  36
ATOM     36  N   UNL A   1      34.675  32.258  28.210  1.00  0.00    -0.352 N 
ATOM     37  C   UNL A   1      34.678  30.898  27.991  1.00  0.00     0.251 C 
ATOM     38  H   UNL A   1      33.818  32.717  28.054  1.00  0.00     0.163 HD
ATOM     39  O   UNL A   1      33.683  30.325  27.564  1.00  0.00    -0.269 OA
BRANCH  37  40
ATOM     40  C   UNL A   1      35.927  30.149  28.228  1.00  0.00     0.039 A 
ATOM     41  C   UNL A   1      36.881  30.089  27.209  1.00  0.00     0.014 A 
ATOM     42  C   UNL A   1      36.195  29.616  29.491  1.00  0.00     0.014 A 
ATOM     43  C   UNL A   1      38.153  29.591  27.492  1.00  0.00     0.010 A 
ATOM     44  C   UNL A   1      37.483  29.185  29.788  1.00  0.00     0.010 A 
ATOM     45  C   UNL A   1      38.480  29.196  28.800  1.00  0.00    -0.014 A 
BRANCH  45  46
ATOM     46  C   UNL A   1      39.872  28.842  29.180  1.00  0.00     0.031 A 
ATOM     47  C   UNL A   1      40.717  29.826  29.934  1.00  0.00     0.074 A 
ATOM     48  C   UNL A   1      40.400  27.678  28.753  1.00  0.00     0.049 A 
ATOM     49  N   UNL A   1      41.991  29.766  30.229  1.00  0.00    -0.248 NA
ATOM     50  C   UNL A   1      40.049  31.053  30.392  1.00  0.00     0.031 C 
ATOM     51  C   UNL A   1      39.692  26.659  27.976  1.00  0.00     0.029 A 
ATOM     52  N   UNL A   1      41.666  27.164  28.892  1.00  0.00    -0.354 N 
ATOM     53  C   UNL A   1      42.277  30.949  30.896  1.00  0.00     0.074 A 
ATOM     54  C   UNL A   1      41.059  31.729  30.920  1.00  0.00     0.031 C 
ATOM     55  C   UNL A   1      40.526  25.639  27.719  1.00  0.00     0.029 A 
ATOM     56  C   UNL A   1      41.840  25.951  28.270  1.00  0.00     0.049 A 
ATOM     57  H   UNL A   1      42.382  27.622  29.390  1.00  0.00     0.167 HD
ATOM     58  C   UNL A   1      43.445  31.336  31.458  1.00  0.00     0.037 A 
ATOM     59  C   UNL A   1      42.943  25.189  28.140  1.00  0.00     0.037 A 
ATOM     60  C   UNL A   1      44.649  30.547  31.453  1.00  0.00     0.049 A 
ATOM     61  C   UNL A   1      44.238  25.664  28.740  1.00  0.00     0.074 A 
ATOM     62  C   UNL A   1      45.865  30.825  32.050  1.00  0.00     0.029 A 
ATOM     63  N   UNL A   1      44.785  29.322  30.815  1.00  0.00    -0.354 N 
ATOM     64  N   UNL A   1      44.482  26.755  29.423  1.00  0.00    -0.248 NA
ATOM     65  C   UNL A   1      45.414  24.804  28.545  1.00  0.00     0.031 C 
ATOM     66  C   UNL A   1      46.752  29.790  31.738  1.00  0.00     0.029 A 
ATOM     67  C   UNL A   1      46.076  28.846  30.982  1.00  0.00     0.049 A 
ATOM     68  H   UNL A   1      44.072  28.861  30.318  1.00  0.00     0.167 HD
ATOM     69  C   UNL A   1      45.829  26.706  29.754  1.00  0.00     0.074 A 
ATOM     70  C   UNL A   1      46.347  25.466  29.215  1.00  0.00     0.031 C 
ATOM     71  C   UNL A   1      46.572  27.608  30.439  1.00  0.00     0.037 A 
BRANCH  58  72
ATOM     72  C   UNL A   1      43.480  32.671  32.140  1.00  0.00     0.064 A 
ATOM     73  C   UNL A   1      43.508  33.865  31.405  1.00  0.00     0.173 A 
ATOM     74  C   UNL A   1      43.429  32.761  33.538  1.00  0.00     0.173 A 
ATOM     75  F   UNL A   1      43.570  33.832  30.065  1.00  0.00    -0.203 F 
ATOM     76  C   UNL A   1      43.506  35.101  32.046  1.00  0.00     0.198 A 
ATOM     77  C   UNL A   1      43.400  33.999  34.176  1.00  0.00     0.198 A 
ATOM     78  F   UNL A   1      43.396  31.648  34.287  1.00  0.00    -0.203 F 
ATOM     79  F   UNL A   1      43.573  36.229  31.325  1.00  0.00    -0.200 F 
ATOM     80  C   UNL A   1      43.442  35.167  33.430  1.00  0.00     0.200 A 
ATOM     81  F   UNL A   1      43.326  34.061  35.513  1.00  0.00    -0.200 F 
ATOM     82  F   UNL A   1      43.429  36.358  34.045  1.00  0.00    -0.200 F 
ENDBRANCH  58  72
BRANCH  59  83
ATOM     83  C   UNL A   1      42.880  23.897  27.406  1.00  0.00     0.064 A 
ATOM     84  C   UNL A   1      42.459  22.726  28.051  1.00  0.00     0.173 A 
ATOM     85  C   UNL A   1      43.260  23.800  26.059  1.00  0.00     0.173 A 
ATOM     86  F   UNL A   1      42.109  22.764  29.345  1.00  0.00    -0.203 F 
ATOM     87  C   UNL A   1      42.445  21.501  27.385  1.00  0.00     0.198 A 
ATOM     88  C   UNL A   1      43.219  22.580  25.387  1.00  0.00     0.198 A 
ATOM     89  F   UNL A   1      43.670  24.890  25.396  1.00  0.00    -0.203 F 
ATOM     90  F   UNL A   1      42.089  20.389  28.042  1.00  0.00    -0.200 F 
ATOM     91  C   UNL A   1      42.821  21.430  26.053  1.00  0.00     0.200 A 
ATOM     92  F   UNL A   1      43.573  22.517  24.096  1.00  0.00    -0.200 F 
ATOM     93  F   UNL A   1      42.810  20.253  25.413  1.00  0.00    -0.200 F 
ENDBRANCH  59  83
BRANCH  71  94
ATOM     94  C   UNL A   1      48.019  27.282  30.657  1.00  0.00     0.064 A 
ATOM     95  C   UNL A   1      48.457  26.657  31.833  1.00  0.00     0.173 A 
ATOM     96  C   UNL A   1      48.969  27.552  29.660  1.00  0.00     0.173 A 
ATOM     97  F   UNL A   1      47.589  26.396  32.822  1.00  0.00    -0.203 F 
ATOM     98  C   UNL A   1      49.797  26.329  32.011  1.00  0.00     0.198 A 
ATOM     99  C   UNL A   1      50.304  27.196  29.830  1.00  0.00     0.198 A 
ATOM    100  F   UNL A   1      48.598  28.144  28.515  1.00  0.00    -0.203 F 
ATOM    101  F   UNL A   1      50.201  25.767  33.159  1.00  0.00    -0.200 F 
ATOM    102  C   UNL A   1      50.718  26.590  31.006  1.00  0.00     0.200 A 
ATOM    103  F   UNL A   1      51.190  27.439  28.853  1.00  0.00    -0.200 F 
ATOM    104  F   UNL A   1      52.006  26.262  31.175  1.00  0.00    -0.200 F 
ENDBRANCH  71  94
ENDBRANCH  45  46
ENDBRANCH  37  40
ENDBRANCH  35  36
ENDBRANCH  34  35
ENDBRANCH  33  34
ENDBRANCH  32  33
ENDBRANCH  30  32
ENDBRANCH  26  28
ENDBRANCH   4  26
TORSDOF 21
ENDMDL
MODEL 3
REMARK VINA RESULT:      -8.2      4.668     10.653
REMARK SMILES CCCCCCCNC(=O)Oc1cccc(-c2ccc([C@@H](C)C(=O)NCCCCNC(=O)c3ccc(-c4c5nc(c(-c6c(F)c(F)c(F)c(F)c6F)c6ccc([nH]6)c(-c6c(F)c(F)c(F)c(F)c6F)c6nc(c(-c7c(F)c(F)c(F)c(F)c7F)c7ccc4[nH]7)C=C6)C=C5)cc3)cc2F)c1
REMARK SMILES IDX 17 1 18 2 19 3 20 4 96 5 97 6 98 7 16 8 12 9 13 10 99 11
REMARK SMILES IDX 14 12 15 13 11 14 9 15 8 16 10 18 7 19 6 20 5 21 4 22 3 23
REMARK SMILES IDX 2 24 1 25 21 26 22 27 23 28 24 29 25 30 26 32 27 33 28 34
REMARK SMILES IDX 29 35 30 36 31 37 32 39 33 40 34 41 95 42 35 43 94 44 36 45
REMARK SMILES IDX 37 46 38 47 88 48 39 49 93 50 87 51 89 52 40 53 92 54 86 55
REMARK SMILES IDX 85 56 41 58 73 59 53 60 72 61 54 62 57 63 71 64 90 65 55 66
REMARK SMILES IDX 56 67 70 69 91 70 58 71 42 72 43 73 51 74 44 75 45 76 49 77
REMARK SMILES IDX 52 78 46 79 47 80 50 81 48 82 74 83 75 84 83 85 76 86 77 87
REMARK SMILES IDX 81 88 84 89 78 90 79 91 82 92 80 93 59 94 60 95 68 96 61 97
REMARK SMILES IDX 62 98 66 99 69 100 63 101 64 102 67 103 65 104
REMARK H PARENT 8 17 25 31 30 38 89 57 57 68
REMARK Flexibility Score: inf
ROOT
ATOM      1  C   UNL A   1      44.666  31.985  27.587  1.00  0.00     0.018 A 
ATOM      2  C   UNL A   1      44.043  30.726  27.542  1.00  0.00     0.012 A 
ATOM      3  C   UNL A   1      44.737  29.567  27.170  1.00  0.00     0.005 A 
ATOM      4  C   UNL A   1      46.068  29.628  26.750  1.00  0.00    -0.033 A 
ATOM      5  C   UNL A   1      46.711  30.871  26.819  1.00  0.00     0.044 A 
ATOM      6  C   UNL A   1      46.028  32.014  27.250  1.00  0.00     0.131 A 
ATOM      7  F   UNL A   1      46.730  33.155  27.329  1.00  0.00    -0.206 F 
ENDROOT
BRANCH   1   8
ATOM      8  C   UNL A   1      43.898  33.199  27.954  1.00  0.00    -0.012 A 
ATOM      9  C   UNL A   1      43.046  35.422  27.444  1.00  0.00     0.133 A 
ATOM     10  C   UNL A   1      42.373  35.487  28.659  1.00  0.00     0.047 A 
ATOM     11  C   UNL A   1      43.801  34.302  27.088  1.00  0.00     0.056 A 
ATOM     12  C   UNL A   1      42.449  34.408  29.530  1.00  0.00     0.004 A 
ATOM     13  C   UNL A   1      43.211  33.286  29.183  1.00  0.00     0.009 A 
BRANCH   9  14
ATOM     14  O   UNL A   1      43.043  36.582  26.656  1.00  0.00    -0.410 OA
BRANCH  14  15
ATOM     15  C   UNL A   1      43.954  37.580  26.959  1.00  0.00     0.412 C 
ATOM     16  N   UNL A   1      43.352  38.737  27.371  1.00  0.00    -0.321 N 
ATOM     17  H   UNL A   1      43.946  39.488  27.600  1.00  0.00     0.167 HD
ATOM     18  O   UNL A   1      45.173  37.499  26.870  1.00  0.00    -0.224 OA
BRANCH  16  19
ATOM     19  C   UNL A   1      41.926  38.969  27.504  1.00  0.00     0.119 C 
BRANCH  19  20
ATOM     20  C   UNL A   1      41.354  39.728  26.308  1.00  0.00     0.021 C 
BRANCH  20  21
ATOM     21  C   UNL A   1      42.253  40.845  25.767  1.00  0.00     0.002 C 
BRANCH  21  22
ATOM     22  C   UNL A   1      41.680  41.634  24.584  1.00  0.00     0.000 C 
BRANCH  22  23
ATOM     23  C   UNL A   1      42.687  42.517  23.839  1.00  0.00    -0.000 C 
BRANCH  23  24
ATOM     24  C   UNL A   1      42.075  43.529  22.867  1.00  0.00    -0.003 C 
ATOM     25  C   UNL A   1      41.794  42.948  21.489  1.00  0.00     0.004 C 
ENDBRANCH  23  24
ENDBRANCH  22  23
ENDBRANCH  21  22
ENDBRANCH  20  21
ENDBRANCH  19  20
ENDBRANCH  16  19
ENDBRANCH  14  15
ENDBRANCH   9  14
ENDBRANCH   1   8
BRANCH   4  26
ATOM     26  C   UNL A   1      46.817  28.430  26.188  1.00  0.00     0.105 C 
ATOM     27  C   UNL A   1      47.107  27.298  27.174  1.00  0.00     0.023 C 
BRANCH  26  28
ATOM     28  C   UNL A   1      46.276  27.953  24.830  1.00  0.00     0.227 C 
ATOM     29  O   UNL A   1      46.596  28.552  23.795  1.00  0.00    -0.274 OA
ATOM     30  N   UNL A   1      45.452  26.881  24.675  1.00  0.00    -0.356 N 
ATOM     31  H   UNL A   1      45.239  26.667  23.738  1.00  0.00     0.163 HD
BRANCH  30  32
ATOM     32  C   UNL A   1      44.832  25.998  25.640  1.00  0.00     0.116 C 
BRANCH  32  33
ATOM     33  C   UNL A   1      43.471  25.488  25.166  1.00  0.00     0.023 C 
BRANCH  33  34
ATOM     34  C   UNL A   1      43.304  23.970  25.204  1.00  0.00     0.023 C 
BRANCH  34  35
ATOM     35  C   UNL A   1      42.521  23.429  26.395  1.00  0.00     0.116 C 
BRANCH  35  36
ATOM     36  N   UNL A   1      41.203  22.906  26.055  1.00  0.00    -0.352 N 
ATOM     37  C   UNL A   1      39.974  23.476  26.300  1.00  0.00     0.251 C 
ATOM     38  H   UNL A   1      41.190  22.039  25.590  1.00  0.00     0.163 HD
ATOM     39  O   UNL A   1      38.936  22.891  26.011  1.00  0.00    -0.269 OA
BRANCH  37  40
ATOM     40  C   UNL A   1      39.927  24.788  26.974  1.00  0.00     0.039 A 
ATOM     41  C   UNL A   1      39.575  24.840  28.325  1.00  0.00     0.014 A 
ATOM     42  C   UNL A   1      40.346  25.937  26.301  1.00  0.00     0.014 A 
ATOM     43  C   UNL A   1      39.750  26.030  29.033  1.00  0.00     0.010 A 
ATOM     44  C   UNL A   1      40.587  27.101  27.023  1.00  0.00     0.010 A 
ATOM     45  C   UNL A   1      40.317  27.148  28.400  1.00  0.00    -0.014 A 
BRANCH  45  46
ATOM     46  C   UNL A   1      40.695  28.365  29.164  1.00  0.00     0.031 A 
ATOM     47  C   UNL A   1      42.058  28.470  29.782  1.00  0.00     0.074 A 
ATOM     48  C   UNL A   1      39.772  29.322  29.384  1.00  0.00     0.049 A 
ATOM     49  N   UNL A   1      42.527  29.377  30.601  1.00  0.00    -0.248 NA
ATOM     50  C   UNL A   1      43.013  27.399  29.458  1.00  0.00     0.031 C 
ATOM     51  C   UNL A   1      38.401  29.313  28.873  1.00  0.00     0.029 A 
ATOM     52  N   UNL A   1      39.841  30.481  30.118  1.00  0.00    -0.354 N 
ATOM     53  C   UNL A   1      43.823  28.980  30.898  1.00  0.00     0.074 A 
ATOM     54  C   UNL A   1      44.052  27.727  30.212  1.00  0.00     0.031 C 
ATOM     55  C   UNL A   1      37.763  30.416  29.296  1.00  0.00     0.029 A 
ATOM     56  C   UNL A   1      38.662  31.187  30.146  1.00  0.00     0.049 A 
ATOM     57  H   UNL A   1      40.658  30.778  30.581  1.00  0.00     0.167 HD
ATOM     58  C   UNL A   1      44.745  29.618  31.656  1.00  0.00     0.037 A 
ATOM     59  C   UNL A   1      38.339  32.317  30.803  1.00  0.00     0.037 A 
ATOM     60  C   UNL A   1      44.521  30.876  32.318  1.00  0.00     0.049 A 
ATOM     61  C   UNL A   1      39.372  32.983  31.671  1.00  0.00     0.074 A 
ATOM     62  C   UNL A   1      45.413  31.632  33.057  1.00  0.00     0.029 A 
ATOM     63  N   UNL A   1      43.315  31.561  32.320  1.00  0.00    -0.354 N 
ATOM     64  N   UNL A   1      40.614  32.631  31.895  1.00  0.00    -0.248 NA
ATOM     65  C   UNL A   1      38.956  34.198  32.385  1.00  0.00     0.031 C 
ATOM     66  C   UNL A   1      44.736  32.755  33.543  1.00  0.00     0.029 A 
ATOM     67  C   UNL A   1      43.434  32.719  33.073  1.00  0.00     0.049 A 
ATOM     68  H   UNL A   1      42.497  31.269  31.858  1.00  0.00     0.167 HD
ATOM     69  C   UNL A   1      41.132  33.588  32.756  1.00  0.00     0.074 A 
ATOM     70  C   UNL A   1      40.076  34.548  33.000  1.00  0.00     0.031 C 
ATOM     71  C   UNL A   1      42.371  33.663  33.302  1.00  0.00     0.037 A 
BRANCH  58  72
ATOM     72  C   UNL A   1      46.090  28.972  31.803  1.00  0.00     0.064 A 
ATOM     73  C   UNL A   1      46.356  28.068  32.843  1.00  0.00     0.173 A 
ATOM     74  C   UNL A   1      47.106  29.215  30.867  1.00  0.00     0.173 A 
ATOM     75  F   UNL A   1      45.421  27.811  33.770  1.00  0.00    -0.203 F 
ATOM     76  C   UNL A   1      47.598  27.448  32.951  1.00  0.00     0.198 A 
ATOM     77  C   UNL A   1      48.338  28.573  30.964  1.00  0.00     0.198 A 
ATOM     78  F   UNL A   1      46.900  30.068  29.852  1.00  0.00    -0.203 F 
ATOM     79  F   UNL A   1      47.842  26.617  33.975  1.00  0.00    -0.200 F 
ATOM     80  C   UNL A   1      48.583  27.693  32.008  1.00  0.00     0.200 A 
ATOM     81  F   UNL A   1      49.285  28.801  30.045  1.00  0.00    -0.200 F 
ATOM     82  F   UNL A   1      49.775  27.086  32.108  1.00  0.00    -0.200 F 
ENDBRANCH  58  72
BRANCH  59  83
ATOM     83  C   UNL A   1      36.974  32.894  30.676  1.00  0.00     0.064 A 
ATOM     84  C   UNL A   1      36.634  33.692  29.575  1.00  0.00     0.173 A 
ATOM     85  C   UNL A   1      35.995  32.684  31.658  1.00  0.00     0.173 A 
ATOM     86  F   UNL A   1      37.544  33.942  28.623  1.00  0.00    -0.203 F 
ATOM     87  C   UNL A   1      35.373  34.279  29.473  1.00  0.00     0.198 A 
ATOM     88  C   UNL A   1      34.726  33.249  31.541  1.00  0.00     0.198 A 
ATOM     89  F   UNL A   1      36.270  31.929  32.731  1.00  0.00    -0.203 F 
ATOM     90  F   UNL A   1      35.092  35.080  28.436  1.00  0.00    -0.200 F 
ATOM     91  C   UNL A   1      34.420  34.054  30.453  1.00  0.00     0.200 A 
ATOM     92  F   UNL A   1      33.804  33.020  32.485  1.00  0.00    -0.200 F 
ATOM     93  F   UNL A   1      33.209  34.620  30.357  1.00  0.00    -0.200 F 
ENDBRANCH  59  83
BRANCH  71  94
ATOM     94  C   UNL A   1      42.655  34.827  34.202  1.00  0.00     0.064 A 
ATOM     95  C   UNL A   1      43.022  36.078  33.684  1.00  0.00     0.173 A 
ATOM     96  C   UNL A   1      42.512  34.706  35.593  1.00  0.00     0.173 A 
ATOM     97  F   UNL A   1      43.189  36.238  32.363  1.00  0.00    -0.203 F 
ATOM     98  C   UNL A   1      43.251  37.161  34.527  1.00  0.00     0.198 A 
ATOM     99  C   UNL A   1      42.714  35.798  36.431  1.00  0.00     0.198 A 
ATOM    100  F   UNL A   1      42.158  33.531  36.136  1.00  0.00    -0.203 F 
ATOM    101  F   UNL A   1      43.638  38.337  34.014  1.00  0.00    -0.200 F 
ATOM    102  C   UNL A   1      43.088  37.024  35.899  1.00  0.00     0.200 A 
ATOM    103  F   UNL A   1      42.545  35.667  37.754  1.00  0.00    -0.200 F 
ATOM    104  F   UNL A   1      43.298  38.071  36.707  1.00  0.00    -0.200 F 
ENDBRANCH  71  94
ENDBRANCH  45  46
ENDBRANCH  37  40
ENDBRANCH  35  36
ENDBRANCH  34  35
ENDBRANCH  33  34
ENDBRANCH  32  33
ENDBRANCH  30  32
ENDBRANCH  26  28
ENDBRANCH   4  26
TORSDOF 21
ENDMDL
