MODEL 1
REMARK VINA RESULT:     -12.7      0.000      0.000
REMARK SMILES CSc1ccccc1[C@H](C(=O)NCCCCNC(=O)c1ccc(-c2c3nc(c(-c4c(F)c(F)c(F)c(F)c4F)c4ccc([nH]4)c(-c4c(F)c(F)c(F)c(F)c4F)c4nc(c(-c5c(F)c(F)c(F)c(F)c5F)c5ccc2[nH]5)C=C4)C=C3)cc1)[NH+](C)CCc1cnn(C)c1
REMARK SMILES IDX 13 1 12 2 10 3 11 4 9 6 8 7 3 8 4 9 5 10 7 11 6 12 2 13 1 14
REMARK SMILES IDX 83 15 84 16 85 18 86 19 87 20 88 21 92 22 89 23 90 24 91 25
REMARK SMILES IDX 14 26 15 27 16 28 17 29 18 30 19 32 20 33 21 34 82 35 22 36
REMARK SMILES IDX 81 37 23 38 24 39 25 40 75 41 26 42 80 43 74 44 76 45 27 46
REMARK SMILES IDX 79 47 73 48 72 49 28 51 60 52 40 53 59 54 41 55 44 56 58 57
REMARK SMILES IDX 77 58 42 59 43 60 57 62 78 63 45 64 29 65 30 66 38 67 31 68
REMARK SMILES IDX 32 69 36 70 39 71 33 72 34 73 37 74 35 75 61 76 62 77 70 78
REMARK SMILES IDX 63 79 64 80 68 81 71 82 65 83 66 84 69 85 67 86 46 87 47 88
REMARK SMILES IDX 55 89 48 90 49 91 53 92 56 93 50 94 51 95 54 96 52 97
REMARK H PARENT 12 5 83 17 17 31 76 50 44 61
REMARK Flexibility Score: inf
ROOT
ATOM      1  C   UNL A   1      37.339  22.472  24.855  1.00  0.00     0.116 C 
ENDROOT
BRANCH   1   2
ATOM      2  N   UNL A   1      36.475  23.140  23.910  1.00  0.00    -0.351 N 
ATOM      3  C   UNL A   1      35.299  23.803  23.951  1.00  0.00     0.283 C 
ATOM      4  O   UNL A   1      34.905  24.049  22.791  1.00  0.00    -0.268 OA
ATOM      5  H   UNL A   1      36.839  23.103  22.996  1.00  0.00     0.163 HD
BRANCH   3   6
ATOM      6  C   UNL A   1      34.382  24.179  25.174  1.00  0.00     0.306 C 
BRANCH   6   7
ATOM      7  C   UNL A   1      33.460  25.411  25.182  1.00  0.00     0.033 A 
ATOM      8  C   UNL A   1      32.394  25.678  24.291  1.00  0.00     0.017 A 
ATOM      9  C   UNL A   1      31.536  26.780  24.560  1.00  0.00     0.015 A 
ATOM     10  C   UNL A   1      31.774  27.686  25.591  1.00  0.00     0.001 A 
ATOM     11  C   UNL A   1      33.733  26.434  26.126  1.00  0.00     0.011 A 
ATOM     12  C   UNL A   1      32.915  27.542  26.344  1.00  0.00     0.001 A 
BRANCH   8  13
ATOM     13  S   UNL A   1      31.832  24.787  22.822  1.00  0.00    -0.129 SA
ATOM     14  C   UNL A   1      32.161  25.869  21.419  1.00  0.00     0.091 C 
ENDBRANCH   8  13
ENDBRANCH   6   7
BRANCH   6  15
ATOM     15  N   UNL A   1      33.745  22.943  25.733  1.00  0.00    -0.323 N 
ATOM     16  C   UNL A   1      34.038  22.612  27.113  1.00  0.00     0.333 C 
ATOM     17  H   UNL A   1      33.828  22.918  24.717  1.00  0.00     0.348 HD
BRANCH  15  18
ATOM     18  C   UNL A   1      32.814  22.072  25.012  1.00  0.00     0.267 C 
BRANCH  18  19
ATOM     19  C   UNL A   1      33.315  20.998  24.022  1.00  0.00     0.100 C 
BRANCH  19  20
ATOM     20  C   UNL A   1      33.253  19.580  24.478  1.00  0.00    -0.004 A 
ATOM     21  C   UNL A   1      32.157  18.909  25.077  1.00  0.00     0.139 A 
ATOM     22  C   UNL A   1      34.253  18.631  24.482  1.00  0.00     0.112 A 
ATOM     23  N   UNL A   1      32.426  17.637  25.369  1.00  0.00    -0.182 NA
ATOM     24  N   UNL A   1      33.703  17.491  24.983  1.00  0.00    -0.276 N 
ATOM     25  C   UNL A   1      34.328  16.200  25.103  1.00  0.00     0.173 C 
ENDBRANCH  19  20
ENDBRANCH  18  19
ENDBRANCH  15  18
ENDBRANCH   6  15
ENDBRANCH   3   6
ENDBRANCH   1   2
BRANCH   1  26
ATOM     26  C   UNL A   1      36.920  21.008  25.040  1.00  0.00     0.023 C 
BRANCH  26  27
ATOM     27  C   UNL A   1      38.057  19.981  24.946  1.00  0.00     0.023 C 
BRANCH  27  28
ATOM     28  C   UNL A   1      39.295  20.255  25.798  1.00  0.00     0.116 C 
BRANCH  28  29
ATOM     29  N   UNL A   1      40.249  19.161  25.851  1.00  0.00    -0.352 N 
ATOM     30  C   UNL A   1      41.596  19.205  26.123  1.00  0.00     0.251 C 
ATOM     31  H   UNL A   1      39.881  18.267  25.668  1.00  0.00     0.163 HD
ATOM     32  O   UNL A   1      42.276  18.184  26.075  1.00  0.00    -0.269 OA
BRANCH  30  33
ATOM     33  C   UNL A   1      42.238  20.499  26.428  1.00  0.00     0.039 A 
ATOM     34  C   UNL A   1      42.793  21.233  25.377  1.00  0.00     0.014 A 
ATOM     35  C   UNL A   1      42.267  21.000  27.732  1.00  0.00     0.014 A 
ATOM     36  C   UNL A   1      43.306  22.508  25.620  1.00  0.00     0.010 A 
ATOM     37  C   UNL A   1      42.729  22.294  27.964  1.00  0.00     0.010 A 
ATOM     38  C   UNL A   1      43.239  23.065  26.908  1.00  0.00    -0.014 A 
BRANCH  38  39
ATOM     39  C   UNL A   1      43.660  24.468  27.154  1.00  0.00     0.031 A 
ATOM     40  C   UNL A   1      42.679  25.483  27.664  1.00  0.00     0.074 A 
ATOM     41  C   UNL A   1      44.918  24.844  26.854  1.00  0.00     0.049 A 
ATOM     42  N   UNL A   1      42.853  26.759  27.897  1.00  0.00    -0.248 NA
ATOM     43  C   UNL A   1      41.312  25.005  27.922  1.00  0.00     0.031 C 
ATOM     44  C   UNL A   1      45.953  23.965  26.309  1.00  0.00     0.029 A 
ATOM     45  N   UNL A   1      45.537  26.064  26.957  1.00  0.00    -0.354 N 
ATOM     46  C   UNL A   1      41.621  27.239  28.320  1.00  0.00     0.074 A 
ATOM     47  C   UNL A   1      40.694  26.128  28.260  1.00  0.00     0.031 C 
ATOM     48  C   UNL A   1      47.086  24.668  26.149  1.00  0.00     0.029 A 
ATOM     49  C   UNL A   1      46.848  26.052  26.547  1.00  0.00     0.049 A 
ATOM     50  H   UNL A   1      45.085  26.872  27.291  1.00  0.00     0.167 HD
ATOM     51  C   UNL A   1      41.298  28.486  28.740  1.00  0.00     0.037 A 
ATOM     52  C   UNL A   1      47.756  27.045  26.499  1.00  0.00     0.037 A 
ATOM     53  C   UNL A   1      42.224  29.586  28.813  1.00  0.00     0.049 A 
ATOM     54  C   UNL A   1      47.369  28.424  26.955  1.00  0.00     0.074 A 
ATOM     55  C   UNL A   1      42.007  30.868  29.287  1.00  0.00     0.029 A 
ATOM     56  N   UNL A   1      43.544  29.536  28.391  1.00  0.00    -0.354 N 
ATOM     57  N   UNL A   1      46.223  28.848  27.426  1.00  0.00    -0.248 NA
ATOM     58  C   UNL A   1      48.407  29.462  26.878  1.00  0.00     0.031 C 
ATOM     59  C   UNL A   1      43.182  31.608  29.109  1.00  0.00     0.029 A 
ATOM     60  C   UNL A   1      44.147  30.773  28.568  1.00  0.00     0.049 A 
ATOM     61  H   UNL A   1      43.989  28.740  28.020  1.00  0.00     0.167 HD
ATOM     62  C   UNL A   1      46.406  30.191  27.727  1.00  0.00     0.074 A 
ATOM     63  C   UNL A   1      47.779  30.509  27.394  1.00  0.00     0.031 C 
ATOM     64  C   UNL A   1      45.515  31.078  28.235  1.00  0.00     0.037 A 
BRANCH  51  65
ATOM     65  C   UNL A   1      39.872  28.724  29.149  1.00  0.00     0.064 A 
ATOM     66  C   UNL A   1      39.447  28.542  30.474  1.00  0.00     0.173 A 
ATOM     67  C   UNL A   1      38.923  29.153  28.209  1.00  0.00     0.173 A 
ATOM     68  F   UNL A   1      40.313  28.123  31.410  1.00  0.00    -0.203 F 
ATOM     69  C   UNL A   1      38.117  28.742  30.834  1.00  0.00     0.198 A 
ATOM     70  C   UNL A   1      37.601  29.382  28.578  1.00  0.00     0.198 A 
ATOM     71  F   UNL A   1      39.278  29.351  26.930  1.00  0.00    -0.203 F 
ATOM     72  F   UNL A   1      37.722  28.504  32.092  1.00  0.00    -0.200 F 
ATOM     73  C   UNL A   1      37.197  29.166  29.888  1.00  0.00     0.200 A 
ATOM     74  F   UNL A   1      36.715  29.805  27.667  1.00  0.00    -0.200 F 
ATOM     75  F   UNL A   1      35.917  29.357  30.235  1.00  0.00    -0.200 F 
ENDBRANCH  51  65
BRANCH  52  76
ATOM     76  C   UNL A   1      49.138  26.755  26.035  1.00  0.00     0.064 A 
ATOM     77  C   UNL A   1      49.504  26.978  24.700  1.00  0.00     0.173 A 
ATOM     78  C   UNL A   1      50.117  26.267  26.910  1.00  0.00     0.173 A 
ATOM     79  F   UNL A   1      48.593  27.424  23.822  1.00  0.00    -0.203 F 
ATOM     80  C   UNL A   1      50.796  26.714  24.256  1.00  0.00     0.198 A 
ATOM     81  C   UNL A   1      51.417  26.026  26.469  1.00  0.00     0.198 A 
ATOM     82  F   UNL A   1      49.817  26.041  28.197  1.00  0.00    -0.203 F 
ATOM     83  F   UNL A   1      51.112  26.904  22.967  1.00  0.00    -0.200 F 
ATOM     84  C   UNL A   1      51.754  26.245  25.142  1.00  0.00     0.200 A 
ATOM     85  F   UNL A   1      52.344  25.586  27.332  1.00  0.00    -0.200 F 
ATOM     86  F   UNL A   1      53.001  26.000  24.717  1.00  0.00    -0.200 F 
ENDBRANCH  52  76
BRANCH  64  87
ATOM     87  C   UNL A   1      46.005  32.474  28.492  1.00  0.00     0.064 A 
ATOM     88  C   UNL A   1      46.598  32.834  29.711  1.00  0.00     0.173 A 
ATOM     89  C   UNL A   1      45.914  33.453  27.491  1.00  0.00     0.173 A 
ATOM     90  F   UNL A   1      46.693  31.939  30.706  1.00  0.00    -0.203 F 
ATOM     91  C   UNL A   1      47.061  34.129  29.927  1.00  0.00     0.198 A 
ATOM     92  C   UNL A   1      46.404  34.740  27.700  1.00  0.00     0.198 A 
ATOM     93  F   UNL A   1      45.360  33.159  26.305  1.00  0.00    -0.203 F 
ATOM     94  F   UNL A   1      47.582  34.463  31.115  1.00  0.00    -0.200 F 
ATOM     95  C   UNL A   1      46.970  35.079  28.919  1.00  0.00     0.200 A 
ATOM     96  F   UNL A   1      46.327  35.652  26.722  1.00  0.00    -0.200 F 
ATOM     97  F   UNL A   1      47.424  36.322  29.126  1.00  0.00    -0.200 F 
ENDBRANCH  64  87
ENDBRANCH  38  39
ENDBRANCH  30  33
ENDBRANCH  28  29
ENDBRANCH  27  28
ENDBRANCH  26  27
ENDBRANCH   1  26
TORSDOF 17
ENDMDL
MODEL 2
REMARK VINA RESULT:     -12.7      5.603     10.813
REMARK SMILES CSc1ccccc1[C@H](C(=O)NCCCCNC(=O)c1ccc(-c2c3nc(c(-c4c(F)c(F)c(F)c(F)c4F)c4ccc([nH]4)c(-c4c(F)c(F)c(F)c(F)c4F)c4nc(c(-c5c(F)c(F)c(F)c(F)c5F)c5ccc2[nH]5)C=C4)C=C3)cc1)[NH+](C)CCc1cnn(C)c1
REMARK SMILES IDX 13 1 12 2 10 3 11 4 9 6 8 7 3 8 4 9 5 10 7 11 6 12 2 13 1 14
REMARK SMILES IDX 83 15 84 16 85 18 86 19 87 20 88 21 92 22 89 23 90 24 91 25
REMARK SMILES IDX 14 26 15 27 16 28 17 29 18 30 19 32 20 33 21 34 82 35 22 36
REMARK SMILES IDX 81 37 23 38 24 39 25 40 75 41 26 42 80 43 74 44 76 45 27 46
REMARK SMILES IDX 79 47 73 48 72 49 28 51 60 52 40 53 59 54 41 55 44 56 58 57
REMARK SMILES IDX 77 58 42 59 43 60 57 62 78 63 45 64 29 65 30 66 38 67 31 68
REMARK SMILES IDX 32 69 36 70 39 71 33 72 34 73 37 74 35 75 61 76 62 77 70 78
REMARK SMILES IDX 63 79 64 80 68 81 71 82 65 83 66 84 69 85 67 86 46 87 47 88
REMARK SMILES IDX 55 89 48 90 49 91 53 92 56 93 50 94 51 95 54 96 52 97
REMARK H PARENT 12 5 83 17 17 31 76 50 44 61
REMARK Flexibility Score: inf
ROOT
ATOM      1  C   UNL A   1      33.197  29.847  26.005  1.00  0.00     0.116 C 
ENDROOT
BRANCH   1   2
ATOM      2  N   UNL A   1      33.699  29.561  24.681  1.00  0.00    -0.351 N 
ATOM      3  C   UNL A   1      33.531  28.593  23.753  1.00  0.00     0.283 C 
ATOM      4  O   UNL A   1      34.347  28.749  22.820  1.00  0.00    -0.268 OA
ATOM      5  H   UNL A   1      34.329  30.253  24.374  1.00  0.00     0.163 HD
BRANCH   3   6
ATOM      6  C   UNL A   1      32.587  27.334  23.752  1.00  0.00     0.306 C 
BRANCH   6   7
ATOM      7  C   UNL A   1      31.063  27.430  23.557  1.00  0.00     0.033 A 
ATOM      8  C   UNL A   1      30.091  26.499  23.990  1.00  0.00     0.017 A 
ATOM      9  C   UNL A   1      28.716  26.842  23.878  1.00  0.00     0.015 A 
ATOM     10  C   UNL A   1      28.277  28.001  23.242  1.00  0.00     0.001 A 
ATOM     11  C   UNL A   1      30.563  28.523  22.801  1.00  0.00     0.011 A 
ATOM     12  C   UNL A   1      29.210  28.820  22.649  1.00  0.00     0.001 A 
BRANCH   8  13
ATOM     13  S   UNL A   1      30.274  24.883  24.779  1.00  0.00    -0.129 SA
ATOM     14  C   UNL A   1      30.666  23.720  23.460  1.00  0.00     0.091 C 
ENDBRANCH   8  13
ENDBRANCH   6   7
BRANCH   6  15
ATOM     15  N   UNL A   1      33.226  26.217  22.983  1.00  0.00    -0.323 N 
ATOM     16  C   UNL A   1      32.904  26.116  21.573  1.00  0.00     0.333 C 
ATOM     17  H   UNL A   1      33.166  26.023  23.982  1.00  0.00     0.348 HD
BRANCH  15  18
ATOM     18  C   UNL A   1      34.182  25.253  23.530  1.00  0.00     0.267 C 
BRANCH  18  19
ATOM     19  C   UNL A   1      34.071  24.741  24.982  1.00  0.00     0.100 C 
BRANCH  19  20
ATOM     20  C   UNL A   1      34.362  23.297  25.212  1.00  0.00    -0.004 A 
ATOM     21  C   UNL A   1      35.225  22.731  26.183  1.00  0.00     0.139 A 
ATOM     22  C   UNL A   1      33.916  22.204  24.500  1.00  0.00     0.112 A 
ATOM     23  N   UNL A   1      35.266  21.399  26.126  1.00  0.00    -0.182 NA
ATOM     24  N   UNL A   1      34.448  21.105  25.104  1.00  0.00    -0.276 N 
ATOM     25  C   UNL A   1      34.202  19.725  24.778  1.00  0.00     0.173 C 
ENDBRANCH  19  20
ENDBRANCH  18  19
ENDBRANCH  15  18
ENDBRANCH   6  15
ENDBRANCH   3   6
ENDBRANCH   1   2
BRANCH   1  26
ATOM     26  C   UNL A   1      31.778  30.426  25.938  1.00  0.00     0.023 C 
BRANCH  26  27
ATOM     27  C   UNL A   1      31.506  31.609  26.878  1.00  0.00     0.023 C 
BRANCH  27  28
ATOM     28  C   UNL A   1      32.703  32.489  27.231  1.00  0.00     0.116 C 
BRANCH  28  29
ATOM     29  N   UNL A   1      32.372  33.872  27.527  1.00  0.00    -0.352 N 
ATOM     30  C   UNL A   1      32.972  34.730  28.418  1.00  0.00     0.251 C 
ATOM     31  H   UNL A   1      31.615  34.247  27.021  1.00  0.00     0.163 HD
ATOM     32  O   UNL A   1      32.532  35.862  28.588  1.00  0.00    -0.269 OA
BRANCH  30  33
ATOM     33  C   UNL A   1      34.129  34.267  29.211  1.00  0.00     0.039 A 
ATOM     34  C   UNL A   1      33.889  33.512  30.363  1.00  0.00     0.014 A 
ATOM     35  C   UNL A   1      35.437  34.547  28.810  1.00  0.00     0.014 A 
ATOM     36  C   UNL A   1      34.963  32.968  31.068  1.00  0.00     0.010 A 
ATOM     37  C   UNL A   1      36.506  33.959  29.483  1.00  0.00     0.010 A 
ATOM     38  C   UNL A   1      36.279  33.152  30.609  1.00  0.00    -0.014 A 
BRANCH  38  39
ATOM     39  C   UNL A   1      37.420  32.472  31.273  1.00  0.00     0.031 A 
ATOM     40  C   UNL A   1      38.123  31.328  30.603  1.00  0.00     0.074 A 
ATOM     41  C   UNL A   1      37.781  32.845  32.515  1.00  0.00     0.049 A 
ATOM     42  N   UNL A   1      39.109  30.589  31.046  1.00  0.00    -0.248 NA
ATOM     43  C   UNL A   1      37.638  30.949  29.267  1.00  0.00     0.031 C 
ATOM     44  C   UNL A   1      37.147  33.910  33.294  1.00  0.00     0.029 A 
ATOM     45  N   UNL A   1      38.763  32.366  33.346  1.00  0.00    -0.354 N 
ATOM     46  C   UNL A   1      39.356  29.653  30.050  1.00  0.00     0.074 A 
ATOM     47  C   UNL A   1      38.383  29.885  29.003  1.00  0.00     0.031 C 
ATOM     48  C   UNL A   1      37.771  34.021  34.477  1.00  0.00     0.029 A 
ATOM     49  C   UNL A   1      38.825  33.014  34.555  1.00  0.00     0.049 A 
ATOM     50  H   UNL A   1      39.364  31.626  33.099  1.00  0.00     0.167 HD
ATOM     51  C   UNL A   1      40.321  28.702  30.004  1.00  0.00     0.037 A 
ATOM     52  C   UNL A   1      39.642  32.820  35.608  1.00  0.00     0.037 A 
ATOM     53  C   UNL A   1      41.297  28.482  31.039  1.00  0.00     0.049 A 
ATOM     54  C   UNL A   1      40.694  31.747  35.540  1.00  0.00     0.074 A 
ATOM     55  C   UNL A   1      42.354  27.588  31.055  1.00  0.00     0.029 A 
ATOM     56  N   UNL A   1      41.331  29.160  32.250  1.00  0.00    -0.354 N 
ATOM     57  N   UNL A   1      40.969  30.920  34.562  1.00  0.00    -0.248 NA
ATOM     58  C   UNL A   1      41.553  31.587  36.721  1.00  0.00     0.031 C 
ATOM     59  C   UNL A   1      42.998  27.691  32.293  1.00  0.00     0.029 A 
ATOM     60  C   UNL A   1      42.374  28.684  33.031  1.00  0.00     0.049 A 
ATOM     61  H   UNL A   1      40.707  29.873  32.516  1.00  0.00     0.167 HD
ATOM     62  C   UNL A   1      42.047  30.160  34.996  1.00  0.00     0.074 A 
ATOM     63  C   UNL A   1      42.383  30.633  36.323  1.00  0.00     0.031 C 
ATOM     64  C   UNL A   1      42.700  29.162  34.351  1.00  0.00     0.037 A 
BRANCH  51  65
ATOM     65  C   UNL A   1      40.359  27.822  28.788  1.00  0.00     0.064 A 
ATOM     66  C   UNL A   1      39.650  26.612  28.733  1.00  0.00     0.173 A 
ATOM     67  C   UNL A   1      41.100  28.200  27.658  1.00  0.00     0.173 A 
ATOM     68  F   UNL A   1      38.934  26.200  29.790  1.00  0.00    -0.203 F 
ATOM     69  C   UNL A   1      39.715  25.794  27.608  1.00  0.00     0.198 A 
ATOM     70  C   UNL A   1      41.137  27.395  26.523  1.00  0.00     0.198 A 
ATOM     71  F   UNL A   1      41.788  29.351  27.654  1.00  0.00    -0.203 F 
ATOM     72  F   UNL A   1      39.079  24.615  27.602  1.00  0.00    -0.200 F 
ATOM     73  C   UNL A   1      40.454  26.188  26.503  1.00  0.00     0.200 A 
ATOM     74  F   UNL A   1      41.840  27.782  25.451  1.00  0.00    -0.200 F 
ATOM     75  F   UNL A   1      40.517  25.399  25.422  1.00  0.00    -0.200 F 
ENDBRANCH  51  65
BRANCH  52  76
ATOM     76  C   UNL A   1      39.520  33.692  36.804  1.00  0.00     0.064 A 
ATOM     77  C   UNL A   1      40.207  34.912  36.871  1.00  0.00     0.173 A 
ATOM     78  C   UNL A   1      38.710  33.337  37.891  1.00  0.00     0.173 A 
ATOM     79  F   UNL A   1      41.011  35.283  35.863  1.00  0.00    -0.203 F 
ATOM     80  C   UNL A   1      40.097  35.739  37.985  1.00  0.00     0.198 A 
ATOM     81  C   UNL A   1      38.580  34.177  38.995  1.00  0.00     0.198 A 
ATOM     82  F   UNL A   1      38.029  32.182  37.872  1.00  0.00    -0.203 F 
ATOM     83  F   UNL A   1      40.790  36.884  38.039  1.00  0.00    -0.200 F 
ATOM     84  C   UNL A   1      39.277  35.375  39.043  1.00  0.00     0.200 A 
ATOM     85  F   UNL A   1      37.778  33.828  40.009  1.00  0.00    -0.200 F 
ATOM     86  F   UNL A   1      39.163  36.175  40.112  1.00  0.00    -0.200 F 
ENDBRANCH  52  76
BRANCH  64  87
ATOM     87  C   UNL A   1      43.865  28.533  35.058  1.00  0.00     0.064 A 
ATOM     88  C   UNL A   1      45.162  29.056  34.952  1.00  0.00     0.173 A 
ATOM     89  C   UNL A   1      43.673  27.413  35.882  1.00  0.00     0.173 A 
ATOM     90  F   UNL A   1      45.400  30.115  34.164  1.00  0.00    -0.203 F 
ATOM     91  C   UNL A   1      46.228  28.468  35.627  1.00  0.00     0.198 A 
ATOM     92  C   UNL A   1      44.737  26.844  36.578  1.00  0.00     0.198 A 
ATOM     93  F   UNL A   1      42.452  26.876  36.020  1.00  0.00    -0.203 F 
ATOM     94  F   UNL A   1      47.466  28.957  35.476  1.00  0.00    -0.200 F 
ATOM     95  C   UNL A   1      46.013  27.367  36.445  1.00  0.00     0.200 A 
ATOM     96  F   UNL A   1      44.526  25.789  37.376  1.00  0.00    -0.200 F 
ATOM     97  F   UNL A   1      47.040  26.808  37.100  1.00  0.00    -0.200 F 
ENDBRANCH  64  87
ENDBRANCH  38  39
ENDBRANCH  30  33
ENDBRANCH  28  29
ENDBRANCH  27  28
ENDBRANCH  26  27
ENDBRANCH   1  26
TORSDOF 17
ENDMDL
MODEL 3
REMARK VINA RESULT:     -12.6      5.694     10.129
REMARK SMILES CSc1ccccc1[C@H](C(=O)NCCCCNC(=O)c1ccc(-c2c3nc(c(-c4c(F)c(F)c(F)c(F)c4F)c4ccc([nH]4)c(-c4c(F)c(F)c(F)c(F)c4F)c4nc(c(-c5c(F)c(F)c(F)c(F)c5F)c5ccc2[nH]5)C=C4)C=C3)cc1)[NH+](C)CCc1cnn(C)c1
REMARK SMILES IDX 13 1 12 2 10 3 11 4 9 6 8 7 3 8 4 9 5 10 7 11 6 12 2 13 1 14
REMARK SMILES IDX 83 15 84 16 85 18 86 19 87 20 88 21 92 22 89 23 90 24 91 25
REMARK SMILES IDX 14 26 15 27 16 28 17 29 18 30 19 32 20 33 21 34 82 35 22 36
REMARK SMILES IDX 81 37 23 38 24 39 25 40 75 41 26 42 80 43 74 44 76 45 27 46
REMARK SMILES IDX 79 47 73 48 72 49 28 51 60 52 40 53 59 54 41 55 44 56 58 57
REMARK SMILES IDX 77 58 42 59 43 60 57 62 78 63 45 64 29 65 30 66 38 67 31 68
REMARK SMILES IDX 32 69 36 70 39 71 33 72 34 73 37 74 35 75 61 76 62 77 70 78
REMARK SMILES IDX 63 79 64 80 68 81 71 82 65 83 66 84 69 85 67 86 46 87 47 88
REMARK SMILES IDX 55 89 48 90 49 91 53 92 56 93 50 94 51 95 54 96 52 97
REMARK H PARENT 12 5 83 17 17 31 76 50 44 61
REMARK Flexibility Score: inf
ROOT
ATOM      1  C   UNL A   1      32.768  29.697  26.770  1.00  0.00     0.116 C 
ENDROOT
BRANCH   1   2
ATOM      2  N   UNL A   1      32.276  28.367  27.046  1.00  0.00    -0.351 N 
ATOM      3  C   UNL A   1      32.439  27.131  26.526  1.00  0.00     0.283 C 
ATOM      4  O   UNL A   1      31.637  26.334  27.058  1.00  0.00    -0.268 OA
ATOM      5  H   UNL A   1      31.662  28.359  27.816  1.00  0.00     0.163 HD
BRANCH   3   6
ATOM      6  C   UNL A   1      33.361  26.631  25.353  1.00  0.00     0.306 C 
BRANCH   6   7
ATOM      7  C   UNL A   1      33.773  25.158  25.181  1.00  0.00     0.033 A 
ATOM      8  C   UNL A   1      32.913  24.055  24.973  1.00  0.00     0.017 A 
ATOM      9  C   UNL A   1      33.484  22.791  24.658  1.00  0.00     0.015 A 
ATOM     10  C   UNL A   1      34.858  22.560  24.670  1.00  0.00     0.001 A 
ATOM     11  C   UNL A   1      35.150  24.839  25.315  1.00  0.00     0.011 A 
ATOM     12  C   UNL A   1      35.694  23.581  25.058  1.00  0.00     0.001 A 
BRANCH   8  13
ATOM     13  S   UNL A   1      31.108  23.951  24.958  1.00  0.00    -0.129 SA
ATOM     14  C   UNL A   1      30.635  23.656  23.245  1.00  0.00     0.091 C 
ENDBRANCH   8  13
ENDBRANCH   6   7
BRANCH   6  15
ATOM     15  N   UNL A   1      32.965  27.301  24.071  1.00  0.00    -0.323 N 
ATOM     16  C   UNL A   1      33.913  28.230  23.489  1.00  0.00     0.333 C 
ATOM     17  H   UNL A   1      32.162  26.988  24.616  1.00  0.00     0.348 HD
BRANCH  15  18
ATOM     18  C   UNL A   1      31.720  27.056  23.339  1.00  0.00     0.267 C 
BRANCH  18  19
ATOM     19  C   UNL A   1      30.345  27.406  23.946  1.00  0.00     0.100 C 
BRANCH  19  20
ATOM     20  C   UNL A   1      29.511  28.393  23.201  1.00  0.00    -0.004 A 
ATOM     21  C   UNL A   1      28.097  28.454  23.130  1.00  0.00     0.139 A 
ATOM     22  C   UNL A   1      29.920  29.415  22.371  1.00  0.00     0.112 A 
ATOM     23  N   UNL A   1      27.660  29.463  22.376  1.00  0.00    -0.182 NA
ATOM     24  N   UNL A   1      28.790  30.039  21.940  1.00  0.00    -0.276 N 
ATOM     25  C   UNL A   1      28.704  31.221  21.121  1.00  0.00     0.173 C 
ENDBRANCH  19  20
ENDBRANCH  18  19
ENDBRANCH  15  18
ENDBRANCH   6  15
ENDBRANCH   3   6
ENDBRANCH   1   2
BRANCH   1  26
ATOM     26  C   UNL A   1      31.739  30.505  25.968  1.00  0.00     0.023 C 
BRANCH  26  27
ATOM     27  C   UNL A   1      31.433  31.906  26.515  1.00  0.00     0.023 C 
BRANCH  27  28
ATOM     28  C   UNL A   1      32.533  32.572  27.339  1.00  0.00     0.116 C 
BRANCH  28  29
ATOM     29  N   UNL A   1      32.310  33.979  27.624  1.00  0.00    -0.352 N 
ATOM     30  C   UNL A   1      33.011  34.809  28.467  1.00  0.00     0.251 C 
ATOM     31  H   UNL A   1      31.555  34.395  27.149  1.00  0.00     0.163 HD
ATOM     32  O   UNL A   1      32.656  35.971  28.636  1.00  0.00    -0.269 OA
BRANCH  30  33
ATOM     33  C   UNL A   1      34.173  34.283  29.210  1.00  0.00     0.039 A 
ATOM     34  C   UNL A   1      33.942  33.456  30.313  1.00  0.00     0.014 A 
ATOM     35  C   UNL A   1      35.478  34.575  28.809  1.00  0.00     0.014 A 
ATOM     36  C   UNL A   1      35.019  32.855  30.964  1.00  0.00     0.010 A 
ATOM     37  C   UNL A   1      36.551  33.933  29.426  1.00  0.00     0.010 A 
ATOM     38  C   UNL A   1      36.330  33.056  30.499  1.00  0.00    -0.014 A 
BRANCH  38  39
ATOM     39  C   UNL A   1      37.473  32.321  31.099  1.00  0.00     0.031 A 
ATOM     40  C   UNL A   1      37.990  32.689  32.459  1.00  0.00     0.074 A 
ATOM     41  C   UNL A   1      38.089  31.360  30.386  1.00  0.00     0.049 A 
ATOM     42  N   UNL A   1      39.001  32.188  33.124  1.00  0.00    -0.248 NA
ATOM     43  C   UNL A   1      37.293  33.782  33.155  1.00  0.00     0.031 C 
ATOM     44  C   UNL A   1      37.712  30.940  29.034  1.00  0.00     0.029 A 
ATOM     45  N   UNL A   1      39.166  30.567  30.692  1.00  0.00    -0.354 N 
ATOM     46  C   UNL A   1      39.068  32.908  34.308  1.00  0.00     0.074 A 
ATOM     47  C   UNL A   1      38.029  33.915  34.249  1.00  0.00     0.031 C 
ATOM     48  C   UNL A   1      38.529  29.951  28.639  1.00  0.00     0.029 A 
ATOM     49  C   UNL A   1      39.506  29.689  29.692  1.00  0.00     0.049 A 
ATOM     50  H   UNL A   1      39.651  30.623  31.547  1.00  0.00     0.167 HD
ATOM     51  C   UNL A   1      39.906  32.731  35.359  1.00  0.00     0.037 A 
ATOM     52  C   UNL A   1      40.493  28.775  29.630  1.00  0.00     0.037 A 
ATOM     53  C   UNL A   1      40.929  31.720  35.423  1.00  0.00     0.049 A 
ATOM     54  C   UNL A   1      41.420  28.609  30.802  1.00  0.00     0.074 A 
ATOM     55  C   UNL A   1      41.783  31.420  36.471  1.00  0.00     0.029 A 
ATOM     56  N   UNL A   1      41.243  30.848  34.392  1.00  0.00    -0.354 N 
ATOM     57  N   UNL A   1      41.426  29.242  31.949  1.00  0.00    -0.248 NA
ATOM     58  C   UNL A   1      42.475  27.594  30.672  1.00  0.00     0.031 C 
ATOM     59  C   UNL A   1      42.644  30.398  36.056  1.00  0.00     0.029 A 
ATOM     60  C   UNL A   1      42.296  30.028  34.767  1.00  0.00     0.049 A 
ATOM     61  H   UNL A   1      40.785  30.816  33.520  1.00  0.00     0.167 HD
ATOM     62  C   UNL A   1      42.463  28.688  32.687  1.00  0.00     0.074 A 
ATOM     63  C   UNL A   1      43.057  27.657  31.862  1.00  0.00     0.031 C 
ATOM     64  C   UNL A   1      42.880  29.004  33.938  1.00  0.00     0.037 A 
BRANCH  51  65
ATOM     65  C   UNL A   1      39.749  33.664  36.526  1.00  0.00     0.064 A 
ATOM     66  C   UNL A   1      40.422  34.893  36.581  1.00  0.00     0.173 A 
ATOM     67  C   UNL A   1      38.902  33.331  37.595  1.00  0.00     0.173 A 
ATOM     68  F   UNL A   1      41.250  35.255  35.590  1.00  0.00    -0.203 F 
ATOM     69  C   UNL A   1      40.286  35.736  37.682  1.00  0.00     0.198 A 
ATOM     70  C   UNL A   1      38.744  34.190  38.679  1.00  0.00     0.198 A 
ATOM     71  F   UNL A   1      38.228  32.171  37.588  1.00  0.00    -0.203 F 
ATOM     72  F   UNL A   1      40.986  36.877  37.739  1.00  0.00    -0.200 F 
ATOM     73  C   UNL A   1      39.445  35.386  38.726  1.00  0.00     0.200 A 
ATOM     74  F   UNL A   1      37.921  33.858  39.682  1.00  0.00    -0.200 F 
ATOM     75  F   UNL A   1      39.316  36.198  39.785  1.00  0.00    -0.200 F 
ENDBRANCH  51  65
BRANCH  52  76
ATOM     76  C   UNL A   1      40.627  27.918  28.425  1.00  0.00     0.064 A 
ATOM     77  C   UNL A   1      41.390  28.343  27.328  1.00  0.00     0.173 A 
ATOM     78  C   UNL A   1      40.013  26.660  28.348  1.00  0.00     0.173 A 
ATOM     79  F   UNL A   1      41.977  29.548  27.348  1.00  0.00    -0.203 F 
ATOM     80  C   UNL A   1      41.525  27.546  26.195  1.00  0.00     0.198 A 
ATOM     81  C   UNL A   1      40.170  25.853  27.223  1.00  0.00     0.198 A 
ATOM     82  F   UNL A   1      39.277  26.208  29.373  1.00  0.00    -0.203 F 
ATOM     83  F   UNL A   1      42.232  27.989  25.146  1.00  0.00    -0.200 F 
ATOM     84  C   UNL A   1      40.921  26.298  26.146  1.00  0.00     0.200 A 
ATOM     85  F   UNL A   1      39.596  24.642  27.185  1.00  0.00    -0.200 F 
ATOM     86  F   UNL A   1      41.059  25.526  25.059  1.00  0.00    -0.200 F 
ENDBRANCH  52  76
BRANCH  64  87
ATOM     87  C   UNL A   1      44.019  28.206  34.504  1.00  0.00     0.064 A 
ATOM     88  C   UNL A   1      45.347  28.645  34.406  1.00  0.00     0.173 A 
ATOM     89  C   UNL A   1      43.773  27.005  35.188  1.00  0.00     0.173 A 
ATOM     90  F   UNL A   1      45.637  29.778  33.748  1.00  0.00    -0.203 F 
ATOM     91  C   UNL A   1      46.389  27.900  34.950  1.00  0.00     0.198 A 
ATOM     92  C   UNL A   1      44.815  26.277  35.756  1.00  0.00     0.198 A 
ATOM     93  F   UNL A   1      42.520  26.543  35.314  1.00  0.00    -0.203 F 
ATOM     94  F   UNL A   1      47.655  28.316  34.805  1.00  0.00    -0.200 F 
ATOM     95  C   UNL A   1      46.122  26.721  35.632  1.00  0.00     0.200 A 
ATOM     96  F   UNL A   1      44.553  25.145  36.423  1.00  0.00    -0.200 F 
ATOM     97  F   UNL A   1      47.126  26.010  36.162  1.00  0.00    -0.200 F 
ENDBRANCH  64  87
ENDBRANCH  38  39
ENDBRANCH  30  33
ENDBRANCH  28  29
ENDBRANCH  27  28
ENDBRANCH  26  27
ENDBRANCH   1  26
TORSDOF 17
ENDMDL
