MODEL 1
REMARK VINA RESULT:     -12.6      0.000      0.000
REMARK SMILES O=C(NCCCCNC(=O)[C@H]1C=C[C@H](NS(=O)(=O)c2ccc(F)c(F)c2F)C1)c1ccc(-c2c3nc(c(-c4c(F)c(F)c(F)c(F)c4F)c4ccc([nH]4)c(-c4c(F)c(F)c(F)c(F)c4F)c4nc(c(-c5c(F)c(F)c(F)c(F)c5F)c5ccc2[nH]5)C=C4)C=C3)cc1
REMARK SMILES IDX 6 1 5 2 4 3 3 4 1 5 2 6 29 8 30 9 91 10 31 11 90 12 32 13
REMARK SMILES IDX 33 14 34 15 84 16 35 17 89 18 83 19 85 20 36 21 88 22 82 23
REMARK SMILES IDX 81 24 37 26 69 27 49 28 68 29 50 30 53 31 67 32 86 33 51 34
REMARK SMILES IDX 52 35 66 37 87 38 54 39 38 40 39 41 47 42 40 43 41 44 45 45
REMARK SMILES IDX 48 46 42 47 43 48 46 49 44 50 70 51 71 52 79 53 72 54 73 55
REMARK SMILES IDX 77 56 80 57 74 58 75 59 78 60 76 61 55 62 56 63 64 64 57 65
REMARK SMILES IDX 58 66 62 67 65 68 59 69 60 70 63 71 61 72 7 73 8 74 9 75
REMARK SMILES IDX 10 77 11 78 12 79 28 80 13 81 14 82 15 83 16 85 17 86 18 87
REMARK SMILES IDX 19 88 20 89 26 90 21 91 24 92 27 93 22 94 25 95 23 96
REMARK H PARENT 3 7 85 25 53 36 8 76 15 84
REMARK Flexibility Score: inf
ROOT
ATOM      1  C   UNL A   1      31.554  30.497  26.120  1.00  0.00     0.023 C 
ENDROOT
BRANCH   1   2
ATOM      2  C   UNL A   1      31.381  31.937  26.619  1.00  0.00     0.023 C 
BRANCH   2   3
ATOM      3  C   UNL A   1      32.660  32.638  27.069  1.00  0.00     0.116 C 
BRANCH   3   4
ATOM      4  N   UNL A   1      32.419  33.972  27.592  1.00  0.00    -0.352 N 
ATOM      5  O   UNL A   1      32.655  35.733  28.976  1.00  0.00    -0.269 OA
ATOM      6  C   UNL A   1      33.080  34.652  28.582  1.00  0.00     0.251 C 
ATOM      7  H   UNL A   1      31.672  34.459  27.173  1.00  0.00     0.163 HD
BRANCH   6   8
ATOM      8  C   UNL A   1      34.289  34.070  29.200  1.00  0.00     0.039 A 
ATOM      9  C   UNL A   1      35.569  34.489  28.823  1.00  0.00     0.014 A 
ATOM     10  C   UNL A   1      34.128  33.102  30.195  1.00  0.00     0.014 A 
ATOM     11  C   UNL A   1      36.690  33.869  29.371  1.00  0.00     0.010 A 
ATOM     12  C   UNL A   1      35.252  32.520  30.782  1.00  0.00     0.010 A 
ATOM     13  C   UNL A   1      36.540  32.883  30.358  1.00  0.00    -0.014 A 
BRANCH  13  14
ATOM     14  C   UNL A   1      37.730  32.262  30.986  1.00  0.00     0.031 A 
ATOM     15  C   UNL A   1      38.495  31.186  30.274  1.00  0.00     0.074 A 
ATOM     16  C   UNL A   1      38.097  32.652  32.220  1.00  0.00     0.049 A 
ATOM     17  N   UNL A   1      39.502  30.469  30.703  1.00  0.00    -0.248 NA
ATOM     18  C   UNL A   1      38.071  30.869  28.903  1.00  0.00     0.031 C 
ATOM     19  C   UNL A   1      37.430  33.691  33.004  1.00  0.00     0.029 A 
ATOM     20  N   UNL A   1      39.111  32.216  33.034  1.00  0.00    -0.354 N 
ATOM     21  C   UNL A   1      39.817  29.600  29.667  1.00  0.00     0.074 A 
ATOM     22  C   UNL A   1      38.885  29.869  28.592  1.00  0.00     0.031 C 
ATOM     23  C   UNL A   1      38.060  33.824  34.181  1.00  0.00     0.029 A 
ATOM     24  C   UNL A   1      39.138  32.841  34.254  1.00  0.00     0.049 A 
ATOM     25  H   UNL A   1      39.756  31.521  32.768  1.00  0.00     0.167 HD
ATOM     26  C   UNL A   1      40.798  28.668  29.623  1.00  0.00     0.037 A 
ATOM     27  C   UNL A   1      39.923  32.629  35.327  1.00  0.00     0.037 A 
ATOM     28  C   UNL A   1      41.735  28.428  30.687  1.00  0.00     0.049 A 
ATOM     29  C   UNL A   1      40.973  31.559  35.272  1.00  0.00     0.074 A 
ATOM     30  C   UNL A   1      42.808  27.553  30.709  1.00  0.00     0.029 A 
ATOM     31  N   UNL A   1      41.708  29.057  31.924  1.00  0.00    -0.354 N 
ATOM     32  N   UNL A   1      41.282  30.763  34.279  1.00  0.00    -0.248 NA
ATOM     33  C   UNL A   1      41.775  31.347  36.485  1.00  0.00     0.031 C 
ATOM     34  C   UNL A   1      43.400  27.620  31.972  1.00  0.00     0.029 A 
ATOM     35  C   UNL A   1      42.724  28.566  32.726  1.00  0.00     0.049 A 
ATOM     36  H   UNL A   1      41.061  29.751  32.190  1.00  0.00     0.167 HD
ATOM     37  C   UNL A   1      42.317  29.963  34.737  1.00  0.00     0.074 A 
ATOM     38  C   UNL A   1      42.591  30.373  36.100  1.00  0.00     0.031 C 
ATOM     39  C   UNL A   1      42.981  28.980  34.082  1.00  0.00     0.037 A 
BRANCH  26  40
ATOM     40  C   UNL A   1      40.904  27.821  28.390  1.00  0.00     0.064 A 
ATOM     41  C   UNL A   1      40.294  26.558  28.346  1.00  0.00     0.173 A 
ATOM     42  C   UNL A   1      41.657  28.227  27.279  1.00  0.00     0.173 A 
ATOM     43  F   UNL A   1      39.567  26.122  29.386  1.00  0.00    -0.203 F 
ATOM     44  C   UNL A   1      40.439  25.730  27.237  1.00  0.00     0.198 A 
ATOM     45  C   UNL A   1      41.781  27.405  26.161  1.00  0.00     0.198 A 
ATOM     46  F   UNL A   1      42.252  29.428  27.269  1.00  0.00    -0.203 F 
ATOM     47  F   UNL A   1      39.865  24.519  27.226  1.00  0.00    -0.200 F 
ATOM     48  C   UNL A   1      41.179  26.155  26.144  1.00  0.00     0.200 A 
ATOM     49  F   UNL A   1      42.479  27.826  25.098  1.00  0.00    -0.200 F 
ATOM     50  F   UNL A   1      41.308  25.363  25.071  1.00  0.00    -0.200 F 
ENDBRANCH  26  40
BRANCH  27  51
ATOM     51  C   UNL A   1      39.721  33.466  36.535  1.00  0.00     0.064 A 
ATOM     52  C   UNL A   1      38.821  33.084  37.541  1.00  0.00     0.173 A 
ATOM     53  C   UNL A   1      40.353  34.709  36.657  1.00  0.00     0.173 A 
ATOM     54  F   UNL A   1      38.186  31.905  37.461  1.00  0.00    -0.203 F 
ATOM     55  C   UNL A   1      38.532  33.934  38.606  1.00  0.00     0.198 A 
ATOM     56  C   UNL A   1      40.080  35.550  37.734  1.00  0.00     0.198 A 
ATOM     57  F   UNL A   1      41.232  35.108  35.726  1.00  0.00    -0.203 F 
ATOM     58  F   UNL A   1      37.631  33.568  39.526  1.00  0.00    -0.200 F 
ATOM     59  C   UNL A   1      39.160  35.167  38.700  1.00  0.00     0.200 A 
ATOM     60  F   UNL A   1      40.696  36.736  37.830  1.00  0.00    -0.200 F 
ATOM     61  F   UNL A   1      38.875  35.989  39.719  1.00  0.00    -0.200 F 
ENDBRANCH  27  51
BRANCH  39  62
ATOM     62  C   UNL A   1      44.080  28.272  34.814  1.00  0.00     0.064 A 
ATOM     63  C   UNL A   1      43.804  27.119  35.564  1.00  0.00     0.173 A 
ATOM     64  C   UNL A   1      45.377  28.801  34.867  1.00  0.00     0.173 A 
ATOM     65  F   UNL A   1      42.575  26.582  35.549  1.00  0.00    -0.203 F 
ATOM     66  C   UNL A   1      44.783  26.535  36.361  1.00  0.00     0.198 A 
ATOM     67  C   UNL A   1      46.359  28.202  35.650  1.00  0.00     0.198 A 
ATOM     68  F   UNL A   1      45.689  29.895  34.156  1.00  0.00    -0.203 F 
ATOM     69  F   UNL A   1      44.488  25.457  37.101  1.00  0.00    -0.200 F 
ATOM     70  C   UNL A   1      46.059  27.077  36.405  1.00  0.00     0.200 A 
ATOM     71  F   UNL A   1      47.596  28.716  35.680  1.00  0.00    -0.200 F 
ATOM     72  F   UNL A   1      46.999  26.518  37.180  1.00  0.00    -0.200 F 
ENDBRANCH  39  62
ENDBRANCH  13  14
ENDBRANCH   6   8
ENDBRANCH   3   4
ENDBRANCH   2   3
ENDBRANCH   1   2
BRANCH   1  73
ATOM     73  C   UNL A   1      33.004  30.030  25.998  1.00  0.00     0.116 C 
BRANCH  73  74
ATOM     74  N   UNL A   1      33.342  29.669  24.636  1.00  0.00    -0.356 N 
ATOM     75  C   UNL A   1      33.523  28.433  24.085  1.00  0.00     0.226 C 
ATOM     76  H   UNL A   1      33.459  30.426  24.016  1.00  0.00     0.163 HD
ATOM     77  O   UNL A   1      33.792  28.371  22.884  1.00  0.00    -0.274 OA
BRANCH  75  78
ATOM     78  C   UNL A   1      33.342  27.192  24.959  1.00  0.00     0.103 C 
ATOM     79  C   UNL A   1      31.889  26.837  25.067  1.00  0.00    -0.016 C 
ATOM     80  C   UNL A   1      33.961  25.942  24.318  1.00  0.00     0.042 C 
ATOM     81  C   UNL A   1      31.663  25.557  24.757  1.00  0.00    -0.011 C 
ATOM     82  C   UNL A   1      32.905  24.830  24.375  1.00  0.00     0.093 C 
BRANCH  82  83
ATOM     83  N   UNL A   1      33.235  23.895  25.433  1.00  0.00    -0.204 NA
ATOM     84  H   UNL A   1      32.446  23.903  26.079  1.00  0.00     0.142 HD
BRANCH  83  85
ATOM     85  S   UNL A   1      33.566  22.299  25.122  1.00  0.00     0.244 S 
ATOM     86  O   UNL A   1      33.029  21.548  26.234  1.00  0.00    -0.207 OA
ATOM     87  O   UNL A   1      33.161  22.029  23.760  1.00  0.00    -0.207 OA
BRANCH  85  88
ATOM     88  C   UNL A   1      35.317  22.090  25.186  1.00  0.00     0.121 A 
ATOM     89  C   UNL A   1      36.098  23.216  25.495  1.00  0.00     0.028 A 
ATOM     90  C   UNL A   1      35.925  20.860  24.980  1.00  0.00     0.181 A 
ATOM     91  C   UNL A   1      37.484  23.092  25.612  1.00  0.00     0.044 A 
ATOM     92  C   UNL A   1      37.302  20.735  25.130  1.00  0.00     0.195 A 
ATOM     93  F   UNL A   1      35.230  19.778  24.618  1.00  0.00    -0.202 F 
ATOM     94  C   UNL A   1      38.076  21.844  25.444  1.00  0.00     0.161 A 
ATOM     95  F   UNL A   1      37.881  19.536  24.972  1.00  0.00    -0.200 F 
ATOM     96  F   UNL A   1      39.402  21.723  25.584  1.00  0.00    -0.204 F 
ENDBRANCH  85  88
ENDBRANCH  83  85
ENDBRANCH  82  83
ENDBRANCH  75  78
ENDBRANCH  73  74
ENDBRANCH   1  73
TORSDOF 14
ENDMDL
MODEL 2
REMARK VINA RESULT:     -12.5      3.814      8.077
REMARK SMILES O=C(NCCCCNC(=O)[C@H]1C=C[C@H](NS(=O)(=O)c2ccc(F)c(F)c2F)C1)c1ccc(-c2c3nc(c(-c4c(F)c(F)c(F)c(F)c4F)c4ccc([nH]4)c(-c4c(F)c(F)c(F)c(F)c4F)c4nc(c(-c5c(F)c(F)c(F)c(F)c5F)c5ccc2[nH]5)C=C4)C=C3)cc1
REMARK SMILES IDX 6 1 5 2 4 3 3 4 1 5 2 6 29 8 30 9 91 10 31 11 90 12 32 13
REMARK SMILES IDX 33 14 34 15 84 16 35 17 89 18 83 19 85 20 36 21 88 22 82 23
REMARK SMILES IDX 81 24 37 26 69 27 49 28 68 29 50 30 53 31 67 32 86 33 51 34
REMARK SMILES IDX 52 35 66 37 87 38 54 39 38 40 39 41 47 42 40 43 41 44 45 45
REMARK SMILES IDX 48 46 42 47 43 48 46 49 44 50 70 51 71 52 79 53 72 54 73 55
REMARK SMILES IDX 77 56 80 57 74 58 75 59 78 60 76 61 55 62 56 63 64 64 57 65
REMARK SMILES IDX 58 66 62 67 65 68 59 69 60 70 63 71 61 72 7 73 8 74 9 75
REMARK SMILES IDX 10 77 11 78 12 79 28 80 13 81 14 82 15 83 16 85 17 86 18 87
REMARK SMILES IDX 19 88 20 89 26 90 21 91 24 92 27 93 22 94 25 95 23 96
REMARK H PARENT 3 7 85 25 53 36 8 76 15 84
REMARK Flexibility Score: inf
ROOT
ATOM      1  C   UNL A   1      34.529  22.557  26.695  1.00  0.00     0.023 C 
ENDROOT
BRANCH   1   2
ATOM      2  C   UNL A   1      35.322  23.179  25.539  1.00  0.00     0.023 C 
BRANCH   2   3
ATOM      3  C   UNL A   1      36.651  23.824  25.921  1.00  0.00     0.116 C 
BRANCH   3   4
ATOM      4  N   UNL A   1      37.749  22.872  25.963  1.00  0.00    -0.352 N 
ATOM      5  O   UNL A   1      39.870  22.160  26.219  1.00  0.00    -0.269 OA
ATOM      6  C   UNL A   1      39.046  23.056  26.370  1.00  0.00     0.251 C 
ATOM      7  H   UNL A   1      37.529  21.963  25.655  1.00  0.00     0.163 HD
BRANCH   6   8
ATOM      8  C   UNL A   1      39.460  24.343  26.963  1.00  0.00     0.039 A 
ATOM      9  C   UNL A   1      40.085  25.328  26.193  1.00  0.00     0.014 A 
ATOM     10  C   UNL A   1      39.190  24.571  28.316  1.00  0.00     0.014 A 
ATOM     11  C   UNL A   1      40.529  26.502  26.798  1.00  0.00     0.010 A 
ATOM     12  C   UNL A   1      39.588  25.769  28.908  1.00  0.00     0.010 A 
ATOM     13  C   UNL A   1      40.280  26.734  28.159  1.00  0.00    -0.014 A 
BRANCH  13  14
ATOM     14  C   UNL A   1      40.699  28.006  28.794  1.00  0.00     0.031 A 
ATOM     15  C   UNL A   1      42.116  28.203  29.244  1.00  0.00     0.074 A 
ATOM     16  C   UNL A   1      39.782  28.970  28.994  1.00  0.00     0.049 A 
ATOM     17  N   UNL A   1      42.641  29.210  29.896  1.00  0.00    -0.248 NA
ATOM     18  C   UNL A   1      43.068  27.130  28.925  1.00  0.00     0.031 C 
ATOM     19  C   UNL A   1      38.378  28.888  28.594  1.00  0.00     0.029 A 
ATOM     20  N   UNL A   1      39.891  30.200  29.590  1.00  0.00    -0.354 N 
ATOM     21  C   UNL A   1      43.975  28.881  30.088  1.00  0.00     0.074 A 
ATOM     22  C   UNL A   1      44.180  27.576  29.495  1.00  0.00     0.031 C 
ATOM     23  C   UNL A   1      37.757  30.025  28.942  1.00  0.00     0.029 A 
ATOM     24  C   UNL A   1      38.706  30.889  29.638  1.00  0.00     0.049 A 
ATOM     25  H   UNL A   1      40.737  30.554  29.948  1.00  0.00     0.167 HD
ATOM     26  C   UNL A   1      44.938  29.609  30.700  1.00  0.00     0.037 A 
ATOM     27  C   UNL A   1      38.405  32.073  30.205  1.00  0.00     0.037 A 
ATOM     28  C   UNL A   1      44.731  30.918  31.262  1.00  0.00     0.049 A 
ATOM     29  C   UNL A   1      39.478  32.840  30.919  1.00  0.00     0.074 A 
ATOM     30  C   UNL A   1      45.662  31.764  31.841  1.00  0.00     0.029 A 
ATOM     31  N   UNL A   1      43.507  31.567  31.324  1.00  0.00    -0.354 N 
ATOM     32  N   UNL A   1      40.743  32.536  31.070  1.00  0.00    -0.248 NA
ATOM     33  C   UNL A   1      39.085  34.106  31.551  1.00  0.00     0.031 C 
ATOM     34  C   UNL A   1      44.992  32.903  32.295  1.00  0.00     0.029 A 
ATOM     35  C   UNL A   1      43.652  32.788  31.962  1.00  0.00     0.049 A 
ATOM     36  H   UNL A   1      42.660  31.212  30.967  1.00  0.00     0.167 HD
ATOM     37  C   UNL A   1      41.302  33.571  31.804  1.00  0.00     0.074 A 
ATOM     38  C   UNL A   1      40.238  34.520  32.064  1.00  0.00     0.031 C 
ATOM     39  C   UNL A   1      42.583  33.720  32.218  1.00  0.00     0.037 A 
BRANCH  26  40
ATOM     40  C   UNL A   1      46.307  29.007  30.814  1.00  0.00     0.064 A 
ATOM     41  C   UNL A   1      46.670  28.289  31.964  1.00  0.00     0.173 A 
ATOM     42  C   UNL A   1      47.278  29.188  29.818  1.00  0.00     0.173 A 
ATOM     43  F   UNL A   1      45.779  28.094  32.947  1.00  0.00    -0.203 F 
ATOM     44  C   UNL A   1      47.957  27.781  32.116  1.00  0.00     0.198 A 
ATOM     45  C   UNL A   1      48.558  28.659  29.964  1.00  0.00     0.198 A 
ATOM     46  F   UNL A   1      46.977  29.858  28.696  1.00  0.00    -0.203 F 
ATOM     47  F   UNL A   1      48.287  27.119  33.233  1.00  0.00    -0.200 F 
ATOM     48  C   UNL A   1      48.899  27.963  31.115  1.00  0.00     0.200 A 
ATOM     49  F   UNL A   1      49.460  28.816  28.986  1.00  0.00    -0.200 F 
ATOM     50  F   UNL A   1      50.134  27.463  31.256  1.00  0.00    -0.200 F 
ENDBRANCH  26  40
BRANCH  27  51
ATOM     51  C   UNL A   1      37.016  32.579  30.105  1.00  0.00     0.064 A 
ATOM     52  C   UNL A   1      36.611  33.383  29.029  1.00  0.00     0.173 A 
ATOM     53  C   UNL A   1      36.095  32.349  31.134  1.00  0.00     0.173 A 
ATOM     54  F   UNL A   1      37.463  33.637  28.024  1.00  0.00    -0.203 F 
ATOM     55  C   UNL A   1      35.347  33.968  29.005  1.00  0.00     0.198 A 
ATOM     56  C   UNL A   1      34.823  32.917  31.099  1.00  0.00     0.198 A 
ATOM     57  F   UNL A   1      36.434  31.574  32.175  1.00  0.00    -0.203 F 
ATOM     58  F   UNL A   1      35.003  34.772  27.991  1.00  0.00    -0.200 F 
ATOM     59  C   UNL A   1      34.456  33.736  30.041  1.00  0.00     0.200 A 
ATOM     60  F   UNL A   1      33.958  32.682  32.095  1.00  0.00    -0.200 F 
ATOM     61  F   UNL A   1      33.243  34.307  30.023  1.00  0.00    -0.200 F 
ENDBRANCH  27  51
BRANCH  39  62
ATOM     62  C   UNL A   1      42.927  34.955  32.993  1.00  0.00     0.064 A 
ATOM     63  C   UNL A   1      42.676  35.020  34.372  1.00  0.00     0.173 A 
ATOM     64  C   UNL A   1      43.395  36.110  32.351  1.00  0.00     0.173 A 
ATOM     65  F   UNL A   1      42.220  33.941  35.027  1.00  0.00    -0.203 F 
ATOM     66  C   UNL A   1      42.857  36.206  35.076  1.00  0.00     0.198 A 
ATOM     67  C   UNL A   1      43.595  37.289  33.063  1.00  0.00     0.198 A 
ATOM     68  F   UNL A   1      43.661  36.090  31.037  1.00  0.00    -0.203 F 
ATOM     69  F   UNL A   1      42.572  36.256  36.384  1.00  0.00    -0.200 F 
ATOM     70  C   UNL A   1      43.314  37.340  34.421  1.00  0.00     0.200 A 
ATOM     71  F   UNL A   1      44.052  38.380  32.434  1.00  0.00    -0.200 F 
ATOM     72  F   UNL A   1      43.481  38.483  35.099  1.00  0.00    -0.200 F 
ENDBRANCH  39  62
ENDBRANCH  13  14
ENDBRANCH   6   8
ENDBRANCH   3   4
ENDBRANCH   2   3
ENDBRANCH   1   2
BRANCH   1  73
ATOM     73  C   UNL A   1      33.288  21.772  26.273  1.00  0.00     0.116 C 
BRANCH  73  74
ATOM     74  N   UNL A   1      32.089  22.268  26.918  1.00  0.00    -0.356 N 
ATOM     75  C   UNL A   1      31.337  23.368  26.624  1.00  0.00     0.226 C 
ATOM     76  H   UNL A   1      31.771  21.733  27.681  1.00  0.00     0.163 HD
ATOM     77  O   UNL A   1      30.337  23.582  27.311  1.00  0.00    -0.274 OA
BRANCH  75  78
ATOM     78  C   UNL A   1      31.736  24.252  25.443  1.00  0.00     0.103 C 
ATOM     79  C   UNL A   1      30.883  23.943  24.248  1.00  0.00    -0.016 C 
ATOM     80  C   UNL A   1      31.443  25.735  25.708  1.00  0.00     0.042 C 
ATOM     81  C   UNL A   1      30.327  25.044  23.733  1.00  0.00    -0.011 C 
ATOM     82  C   UNL A   1      30.688  26.276  24.486  1.00  0.00     0.093 C 
BRANCH  82  83
ATOM     83  N   UNL A   1      31.586  27.069  23.669  1.00  0.00    -0.204 NA
ATOM     84  H   UNL A   1      31.485  26.723  22.715  1.00  0.00     0.142 HD
BRANCH  83  85
ATOM     85  S   UNL A   1      31.462  28.722  23.579  1.00  0.00     0.244 S 
ATOM     86  O   UNL A   1      32.229  29.125  22.422  1.00  0.00    -0.207 OA
ATOM     87  O   UNL A   1      30.063  29.060  23.716  1.00  0.00    -0.207 OA
BRANCH  85  88
ATOM     88  C   UNL A   1      32.292  29.399  24.981  1.00  0.00     0.121 A 
ATOM     89  C   UNL A   1      31.644  30.423  25.691  1.00  0.00     0.028 A 
ATOM     90  C   UNL A   1      33.526  28.931  25.411  1.00  0.00     0.181 A 
ATOM     91  C   UNL A   1      32.234  30.955  26.840  1.00  0.00     0.044 A 
ATOM     92  C   UNL A   1      34.093  29.441  26.573  1.00  0.00     0.195 A 
ATOM     93  F   UNL A   1      34.209  28.007  24.729  1.00  0.00    -0.202 F 
ATOM     94  C   UNL A   1      33.451  30.447  27.283  1.00  0.00     0.161 A 
ATOM     95  F   UNL A   1      35.264  28.955  27.009  1.00  0.00    -0.200 F 
ATOM     96  F   UNL A   1      34.001  30.941  28.400  1.00  0.00    -0.204 F 
ENDBRANCH  85  88
ENDBRANCH  83  85
ENDBRANCH  82  83
ENDBRANCH  75  78
ENDBRANCH  73  74
ENDBRANCH   1  73
TORSDOF 14
ENDMDL
MODEL 3
REMARK VINA RESULT:     -12.3      2.895      7.991
REMARK SMILES O=C(NCCCCNC(=O)[C@H]1C=C[C@H](NS(=O)(=O)c2ccc(F)c(F)c2F)C1)c1ccc(-c2c3nc(c(-c4c(F)c(F)c(F)c(F)c4F)c4ccc([nH]4)c(-c4c(F)c(F)c(F)c(F)c4F)c4nc(c(-c5c(F)c(F)c(F)c(F)c5F)c5ccc2[nH]5)C=C4)C=C3)cc1
REMARK SMILES IDX 6 1 5 2 4 3 3 4 1 5 2 6 29 8 30 9 91 10 31 11 90 12 32 13
REMARK SMILES IDX 33 14 34 15 84 16 35 17 89 18 83 19 85 20 36 21 88 22 82 23
REMARK SMILES IDX 81 24 37 26 69 27 49 28 68 29 50 30 53 31 67 32 86 33 51 34
REMARK SMILES IDX 52 35 66 37 87 38 54 39 38 40 39 41 47 42 40 43 41 44 45 45
REMARK SMILES IDX 48 46 42 47 43 48 46 49 44 50 70 51 71 52 79 53 72 54 73 55
REMARK SMILES IDX 77 56 80 57 74 58 75 59 78 60 76 61 55 62 56 63 64 64 57 65
REMARK SMILES IDX 58 66 62 67 65 68 59 69 60 70 63 71 61 72 7 73 8 74 9 75
REMARK SMILES IDX 10 77 11 78 12 79 28 80 13 81 14 82 15 83 16 85 17 86 18 87
REMARK SMILES IDX 19 88 20 89 26 90 21 91 24 92 27 93 22 94 25 95 23 96
REMARK H PARENT 3 7 85 25 53 36 8 76 15 84
REMARK Flexibility Score: inf
ROOT
ATOM      1  C   UNL A   1      33.451  28.953  24.087  1.00  0.00     0.023 C 
ENDROOT
BRANCH   1   2
ATOM      2  C   UNL A   1      34.097  28.004  25.104  1.00  0.00     0.023 C 
BRANCH   2   3
ATOM      3  C   UNL A   1      33.702  28.230  26.561  1.00  0.00     0.116 C 
BRANCH   3   4
ATOM      4  N   UNL A   1      33.449  29.628  26.867  1.00  0.00    -0.352 N 
ATOM      5  O   UNL A   1      33.783  31.634  27.836  1.00  0.00    -0.269 OA
ATOM      6  C   UNL A   1      34.219  30.518  27.573  1.00  0.00     0.251 C 
ATOM      7  H   UNL A   1      32.603  29.989  26.516  1.00  0.00     0.163 HD
BRANCH   6   8
ATOM      8  C   UNL A   1      35.562  30.124  28.045  1.00  0.00     0.039 A 
ATOM      9  C   UNL A   1      36.676  30.199  27.205  1.00  0.00     0.014 A 
ATOM     10  C   UNL A   1      35.703  29.694  29.367  1.00  0.00     0.014 A 
ATOM     11  C   UNL A   1      37.916  29.752  27.656  1.00  0.00     0.010 A 
ATOM     12  C   UNL A   1      36.956  29.297  29.836  1.00  0.00     0.010 A 
ATOM     13  C   UNL A   1      38.066  29.301  28.977  1.00  0.00    -0.014 A 
BRANCH  13  14
ATOM     14  C   UNL A   1      39.395  28.880  29.480  1.00  0.00     0.031 A 
ATOM     15  C   UNL A   1      40.150  29.737  30.451  1.00  0.00     0.074 A 
ATOM     16  C   UNL A   1      39.931  27.732  29.027  1.00  0.00     0.049 A 
ATOM     17  N   UNL A   1      41.358  29.574  30.929  1.00  0.00    -0.248 NA
ATOM     18  C   UNL A   1      39.463  30.938  30.949  1.00  0.00     0.031 C 
ATOM     19  C   UNL A   1      39.285  26.818  28.085  1.00  0.00     0.029 A 
ATOM     20  N   UNL A   1      41.142  27.144  29.289  1.00  0.00    -0.354 N 
ATOM     21  C   UNL A   1      41.586  30.661  31.761  1.00  0.00     0.074 A 
ATOM     22  C   UNL A   1      40.398  31.486  31.715  1.00  0.00     0.031 C 
ATOM     23  C   UNL A   1      40.099  25.777  27.859  1.00  0.00     0.029 A 
ATOM     24  C   UNL A   1      41.344  25.979  28.594  1.00  0.00     0.049 A 
ATOM     25  H   UNL A   1      41.802  27.522  29.915  1.00  0.00     0.167 HD
ATOM     26  C   UNL A   1      42.688  30.936  32.497  1.00  0.00     0.037 A 
ATOM     27  C   UNL A   1      42.423  25.175  28.531  1.00  0.00     0.037 A 
ATOM     28  C   UNL A   1      43.855  30.096  32.556  1.00  0.00     0.049 A 
ATOM     29  C   UNL A   1      43.650  25.526  29.319  1.00  0.00     0.074 A 
ATOM     30  C   UNL A   1      44.993  30.255  33.328  1.00  0.00     0.029 A 
ATOM     31  N   UNL A   1      44.036  28.941  31.809  1.00  0.00    -0.354 N 
ATOM     32  N   UNL A   1      43.846  26.539  30.125  1.00  0.00    -0.248 NA
ATOM     33  C   UNL A   1      44.809  24.633  29.182  1.00  0.00     0.031 C 
ATOM     34  C   UNL A   1      45.881  29.224  33.013  1.00  0.00     0.029 A 
ATOM     35  C   UNL A   1      45.282  28.397  32.076  1.00  0.00     0.049 A 
ATOM     36  H   UNL A   1      43.377  28.564  31.182  1.00  0.00     0.167 HD
ATOM     37  C   UNL A   1      45.141  26.405  30.601  1.00  0.00     0.074 A 
ATOM     38  C   UNL A   1      45.686  25.206  29.997  1.00  0.00     0.031 C 
ATOM     39  C   UNL A   1      45.813  27.205  31.464  1.00  0.00     0.037 A 
BRANCH  26  40
ATOM     40  C   UNL A   1      42.701  32.209  33.290  1.00  0.00     0.064 A 
ATOM     41  C   UNL A   1      42.181  32.235  34.593  1.00  0.00     0.173 A 
ATOM     42  C   UNL A   1      43.167  33.414  32.745  1.00  0.00     0.173 A 
ATOM     43  F   UNL A   1      41.716  31.109  35.157  1.00  0.00    -0.203 F 
ATOM     44  C   UNL A   1      42.121  33.421  35.319  1.00  0.00     0.198 A 
ATOM     45  C   UNL A   1      43.127  34.595  33.482  1.00  0.00     0.198 A 
ATOM     46  F   UNL A   1      43.682  33.440  31.507  1.00  0.00    -0.203 F 
ATOM     47  F   UNL A   1      41.599  33.425  36.553  1.00  0.00    -0.200 F 
ATOM     48  C   UNL A   1      42.598  34.599  34.764  1.00  0.00     0.200 A 
ATOM     49  F   UNL A   1      43.608  35.728  32.953  1.00  0.00    -0.200 F 
ATOM     50  F   UNL A   1      42.552  35.739  35.468  1.00  0.00    -0.200 F 
ENDBRANCH  26  40
BRANCH  27  51
ATOM     51  C   UNL A   1      42.360  23.964  27.678  1.00  0.00     0.064 A 
ATOM     52  C   UNL A   1      42.046  22.709  28.221  1.00  0.00     0.173 A 
ATOM     53  C   UNL A   1      42.707  24.025  26.323  1.00  0.00     0.173 A 
ATOM     54  F   UNL A   1      41.716  22.602  29.517  1.00  0.00    -0.203 F 
ATOM     55  C   UNL A   1      42.120  21.553  27.446  1.00  0.00     0.198 A 
ATOM     56  C   UNL A   1      42.760  22.871  25.544  1.00  0.00     0.198 A 
ATOM     57  F   UNL A   1      43.000  25.206  25.760  1.00  0.00    -0.203 F 
ATOM     58  F   UNL A   1      41.866  20.361  28.001  1.00  0.00    -0.200 F 
ATOM     59  C   UNL A   1      42.479  21.636  26.109  1.00  0.00     0.200 A 
ATOM     60  F   UNL A   1      43.095  22.954  24.249  1.00  0.00    -0.200 F 
ATOM     61  F   UNL A   1      42.560  20.523  25.367  1.00  0.00    -0.200 F 
ENDBRANCH  27  51
BRANCH  39  62
ATOM     62  C   UNL A   1      47.215  26.820  31.825  1.00  0.00     0.064 A 
ATOM     63  C   UNL A   1      47.458  25.959  32.906  1.00  0.00     0.173 A 
ATOM     64  C   UNL A   1      48.316  27.394  31.176  1.00  0.00     0.173 A 
ATOM     65  F   UNL A   1      46.434  25.393  33.562  1.00  0.00    -0.203 F 
ATOM     66  C   UNL A   1      48.755  25.707  33.340  1.00  0.00     0.198 A 
ATOM     67  C   UNL A   1      49.614  27.124  31.601  1.00  0.00     0.198 A 
ATOM     68  F   UNL A   1      48.131  28.214  30.130  1.00  0.00    -0.203 F 
ATOM     69  F   UNL A   1      48.963  24.914  34.399  1.00  0.00    -0.200 F 
ATOM     70  C   UNL A   1      49.832  26.291  32.688  1.00  0.00     0.200 A 
ATOM     71  F   UNL A   1      50.655  27.675  30.961  1.00  0.00    -0.200 F 
ATOM     72  F   UNL A   1      51.081  26.053  33.112  1.00  0.00    -0.200 F 
ENDBRANCH  39  62
ENDBRANCH  13  14
ENDBRANCH   6   8
ENDBRANCH   3   4
ENDBRANCH   2   3
ENDBRANCH   1   2
BRANCH   1  73
ATOM     73  C   UNL A   1      32.272  28.363  23.316  1.00  0.00     0.116 C 
BRANCH  73  74
ATOM     74  N   UNL A   1      32.707  27.606  22.159  1.00  0.00    -0.356 N 
ATOM     75  C   UNL A   1      32.937  26.266  22.034  1.00  0.00     0.226 C 
ATOM     76  H   UNL A   1      32.859  28.136  21.343  1.00  0.00     0.163 HD
ATOM     77  O   UNL A   1      33.290  25.843  20.932  1.00  0.00    -0.274 OA
BRANCH  75  78
ATOM     78  C   UNL A   1      32.708  25.354  23.239  1.00  0.00     0.103 C 
ATOM     79  C   UNL A   1      31.415  24.609  23.091  1.00  0.00    -0.016 C 
ATOM     80  C   UNL A   1      33.752  24.230  23.316  1.00  0.00     0.042 C 
ATOM     81  C   UNL A   1      31.575  23.292  23.251  1.00  0.00    -0.011 C 
ATOM     82  C   UNL A   1      32.990  22.914  23.519  1.00  0.00     0.093 C 
BRANCH  82  83
ATOM     83  N   UNL A   1      33.101  22.493  24.903  1.00  0.00    -0.204 NA
ATOM     84  H   UNL A   1      32.153  22.278  25.213  1.00  0.00     0.142 HD
BRANCH  83  85
ATOM     85  S   UNL A   1      34.042  21.204  25.355  1.00  0.00     0.244 S 
ATOM     86  O   UNL A   1      33.614  20.834  26.685  1.00  0.00    -0.207 OA
ATOM     87  O   UNL A   1      34.030  20.254  24.264  1.00  0.00    -0.207 OA
BRANCH  85  88
ATOM     88  C   UNL A   1      35.702  21.779  25.513  1.00  0.00     0.121 A 
ATOM     89  C   UNL A   1      35.896  23.131  25.842  1.00  0.00     0.028 A 
ATOM     90  C   UNL A   1      36.796  20.939  25.360  1.00  0.00     0.181 A 
ATOM     91  C   UNL A   1      37.189  23.623  26.033  1.00  0.00     0.044 A 
ATOM     92  C   UNL A   1      38.080  21.426  25.583  1.00  0.00     0.195 A 
ATOM     93  F   UNL A   1      36.664  19.664  24.982  1.00  0.00    -0.202 F 
ATOM     94  C   UNL A   1      38.274  22.759  25.918  1.00  0.00     0.161 A 
ATOM     95  F   UNL A   1      39.131  20.601  25.477  1.00  0.00    -0.200 F 
ATOM     96  F   UNL A   1      39.511  23.228  26.128  1.00  0.00    -0.204 F 
ENDBRANCH  85  88
ENDBRANCH  83  85
ENDBRANCH  82  83
ENDBRANCH  75  78
ENDBRANCH  73  74
ENDBRANCH   1  73
TORSDOF 14
ENDMDL
