MODEL 1
REMARK VINA RESULT:     -10.6      0.000      0.000
REMARK SMILES C[C@H](C[NH3+])CS/C=C/C(=O)NCCCCNC(=O)c1ccc(-c2c3nc(c(-c4c(F)c(F)c(F)c(F)c4F)c4ccc([nH]4)c(-c4c(F)c(F)c(F)c(F)c4F)c4nc(c(-c5c(F)c(F)c(F)c(F)c5F)c5ccc2[nH]5)C=C4)C=C3)cc1
REMARK SMILES IDX 12 1 11 2 9 3 10 4 8 6 7 7 6 8 5 9 2 10 1 11 3 12 4 13 13 17
REMARK SMILES IDX 14 18 15 19 16 20 17 21 18 23 19 24 20 25 81 26 21 27 80 28
REMARK SMILES IDX 22 29 23 30 24 31 74 32 25 33 79 34 73 35 75 36 26 37 78 38
REMARK SMILES IDX 72 39 71 40 27 42 59 43 39 44 58 45 40 46 43 47 57 48 76 49
REMARK SMILES IDX 41 50 42 51 56 53 77 54 44 55 28 56 29 57 37 58 30 59 31 60
REMARK SMILES IDX 35 61 38 62 32 63 33 64 36 65 34 66 60 67 61 68 69 69 62 70
REMARK SMILES IDX 63 71 67 72 70 73 64 74 65 75 68 76 66 77 45 78 46 79 54 80
REMARK SMILES IDX 47 81 48 82 52 83 55 84 49 85 50 86 53 87 51 88
REMARK H PARENT 11 5 4 14 4 15 4 16 16 22 75 41 43 52
REMARK Flexibility Score: inf
ROOT
ATOM      1  C   UNL A   1      32.173  25.935  26.016  1.00  0.00     0.116 C 
ENDROOT
BRANCH   1   2
ATOM      2  N   UNL A   1      31.150  25.187  26.719  1.00  0.00    -0.353 N 
ATOM      3  C   UNL A   1      30.957  23.845  26.787  1.00  0.00     0.244 C 
ATOM      4  O   UNL A   1      29.921  23.397  27.273  1.00  0.00    -0.270 OA
ATOM      5  H   UNL A   1      30.500  25.731  27.219  1.00  0.00     0.163 HD
BRANCH   3   6
ATOM      6  C   UNL A   1      31.968  22.900  26.268  1.00  0.00     0.078 C 
ATOM      7  C   UNL A   1      31.809  22.292  25.085  1.00  0.00     0.046 C 
BRANCH   7   8
ATOM      8  S   UNL A   1      33.083  21.466  24.270  1.00  0.00    -0.133 SA
BRANCH   8   9
ATOM      9  C   UNL A   1      32.272  19.895  23.788  1.00  0.00     0.083 C 
BRANCH   9  10
ATOM     10  C   UNL A   1      33.067  18.596  24.059  1.00  0.00     0.051 C 
ATOM     11  C   UNL A   1      32.970  17.682  22.828  1.00  0.00     0.014 C 
BRANCH  10  12
ATOM     12  C   UNL A   1      32.647  17.799  25.314  1.00  0.00     0.262 C 
BRANCH  12  13
ATOM     13  N   UNL A   1      32.918  18.470  26.582  1.00  0.00    -0.357 N 
ATOM     14  H   UNL A   1      33.429  19.336  26.407  1.00  0.00     0.344 HD
ATOM     15  H   UNL A   1      33.479  17.859  27.177  1.00  0.00     0.344 HD
ATOM     16  H   UNL A   1      32.037  18.684  27.049  1.00  0.00     0.344 HD
ENDBRANCH  12  13
ENDBRANCH  10  12
ENDBRANCH   9  10
ENDBRANCH   8   9
ENDBRANCH   7   8
ENDBRANCH   3   6
ENDBRANCH   1   2
BRANCH   1  17
ATOM     17  C   UNL A   1      31.655  27.292  25.548  1.00  0.00     0.023 C 
BRANCH  17  18
ATOM     18  C   UNL A   1      31.950  28.444  26.511  1.00  0.00     0.023 C 
BRANCH  18  19
ATOM     19  C   UNL A   1      33.022  29.422  26.040  1.00  0.00     0.116 C 
BRANCH  19  20
ATOM     20  N   UNL A   1      32.713  30.811  26.346  1.00  0.00    -0.352 N 
ATOM     21  C   UNL A   1      33.378  31.672  27.180  1.00  0.00     0.251 C 
ATOM     22  H   UNL A   1      31.921  31.181  25.894  1.00  0.00     0.163 HD
ATOM     23  O   UNL A   1      32.931  32.792  27.405  1.00  0.00    -0.269 OA
BRANCH  21  24
ATOM     24  C   UNL A   1      34.624  31.227  27.833  1.00  0.00     0.039 A 
ATOM     25  C   UNL A   1      35.676  32.136  27.956  1.00  0.00     0.014 A 
ATOM     26  C   UNL A   1      34.743  29.928  28.333  1.00  0.00     0.014 A 
ATOM     27  C   UNL A   1      36.839  31.751  28.620  1.00  0.00     0.010 A 
ATOM     28  C   UNL A   1      35.871  29.571  29.062  1.00  0.00     0.010 A 
ATOM     29  C   UNL A   1      36.937  30.473  29.197  1.00  0.00    -0.014 A 
BRANCH  29  30
ATOM     30  C   UNL A   1      38.166  30.060  29.915  1.00  0.00     0.031 A 
ATOM     31  C   UNL A   1      38.424  30.559  31.309  1.00  0.00     0.074 A 
ATOM     32  C   UNL A   1      39.062  29.267  29.297  1.00  0.00     0.049 A 
ATOM     33  N   UNL A   1      39.439  30.321  32.099  1.00  0.00    -0.248 NA
ATOM     34  C   UNL A   1      37.422  31.473  31.883  1.00  0.00     0.031 C 
ATOM     35  C   UNL A   1      38.951  28.774  27.923  1.00  0.00     0.029 A 
ATOM     36  N   UNL A   1      40.246  28.739  29.744  1.00  0.00    -0.354 N 
ATOM     37  C   UNL A   1      39.204  31.063  33.250  1.00  0.00     0.074 A 
ATOM     38  C   UNL A   1      37.985  31.808  33.033  1.00  0.00     0.031 C 
ATOM     39  C   UNL A   1      40.007  27.993  27.649  1.00  0.00     0.029 A 
ATOM     40  C   UNL A   1      40.883  27.951  28.815  1.00  0.00     0.049 A 
ATOM     41  H   UNL A   1      40.607  28.909  30.644  1.00  0.00     0.167 HD
ATOM     42  C   UNL A   1      39.926  31.097  34.395  1.00  0.00     0.037 A 
ATOM     43  C   UNL A   1      42.039  27.268  28.905  1.00  0.00     0.037 A 
ATOM     44  C   UNL A   1      41.122  30.327  34.614  1.00  0.00     0.049 A 
ATOM     45  C   UNL A   1      42.801  27.294  30.202  1.00  0.00     0.074 A 
ATOM     46  C   UNL A   1      41.898  30.242  35.757  1.00  0.00     0.029 A 
ATOM     47  N   UNL A   1      41.714  29.503  33.667  1.00  0.00    -0.354 N 
ATOM     48  N   UNL A   1      42.528  27.936  31.312  1.00  0.00    -0.248 NA
ATOM     49  C   UNL A   1      44.024  26.482  30.266  1.00  0.00     0.031 C 
ATOM     50  C   UNL A   1      42.982  29.400  35.487  1.00  0.00     0.029 A 
ATOM     51  C   UNL A   1      42.852  28.917  34.195  1.00  0.00     0.049 A 
ATOM     52  H   UNL A   1      41.375  29.359  32.754  1.00  0.00     0.167 HD
ATOM     53  C   UNL A   1      43.521  27.578  32.215  1.00  0.00     0.074 A 
ATOM     54  C   UNL A   1      44.392  26.648  31.527  1.00  0.00     0.031 C 
ATOM     55  C   UNL A   1      43.696  27.982  33.498  1.00  0.00     0.037 A 
BRANCH  42  56
ATOM     56  C   UNL A   1      39.438  31.988  35.499  1.00  0.00     0.064 A 
ATOM     57  C   UNL A   1      38.551  31.524  36.482  1.00  0.00     0.173 A 
ATOM     58  C   UNL A   1      39.891  33.313  35.599  1.00  0.00     0.173 A 
ATOM     59  F   UNL A   1      38.075  30.272  36.427  1.00  0.00    -0.203 F 
ATOM     60  C   UNL A   1      38.113  32.360  37.507  1.00  0.00     0.198 A 
ATOM     61  C   UNL A   1      39.477  34.136  36.643  1.00  0.00     0.198 A 
ATOM     62  F   UNL A   1      40.742  33.807  34.687  1.00  0.00    -0.203 F 
ATOM     63  F   UNL A   1      37.226  31.910  38.404  1.00  0.00    -0.200 F 
ATOM     64  C   UNL A   1      38.583  33.662  37.592  1.00  0.00     0.200 A 
ATOM     65  F   UNL A   1      39.942  35.390  36.730  1.00  0.00    -0.200 F 
ATOM     66  F   UNL A   1      38.169  34.463  38.583  1.00  0.00    -0.200 F 
ENDBRANCH  42  56
BRANCH  43  67
ATOM     67  C   UNL A   1      42.526  26.469  27.750  1.00  0.00     0.064 A 
ATOM     68  C   UNL A   1      43.458  26.999  26.846  1.00  0.00     0.173 A 
ATOM     69  C   UNL A   1      42.057  25.169  27.513  1.00  0.00     0.173 A 
ATOM     70  F   UNL A   1      43.926  28.244  27.020  1.00  0.00    -0.203 F 
ATOM     71  C   UNL A   1      43.877  26.274  25.732  1.00  0.00     0.198 A 
ATOM     72  C   UNL A   1      42.500  24.432  26.416  1.00  0.00     0.198 A 
ATOM     73  F   UNL A   1      41.172  24.611  28.352  1.00  0.00    -0.203 F 
ATOM     74  F   UNL A   1      44.725  26.828  24.855  1.00  0.00    -0.200 F 
ATOM     75  C   UNL A   1      43.400  24.989  25.521  1.00  0.00     0.200 A 
ATOM     76  F   UNL A   1      42.049  23.185  26.224  1.00  0.00    -0.200 F 
ATOM     77  F   UNL A   1      43.801  24.292  24.449  1.00  0.00    -0.200 F 
ENDBRANCH  43  67
BRANCH  55  78
ATOM     78  C   UNL A   1      44.845  27.377  34.253  1.00  0.00     0.064 A 
ATOM     79  C   UNL A   1      46.112  27.979  34.284  1.00  0.00     0.173 A 
ATOM     80  C   UNL A   1      44.667  26.183  34.970  1.00  0.00     0.173 A 
ATOM     81  F   UNL A   1      46.336  29.114  33.605  1.00  0.00    -0.203 F 
ATOM     82  C   UNL A   1      47.168  27.386  34.969  1.00  0.00     0.198 A 
ATOM     83  C   UNL A   1      45.717  25.612  35.683  1.00  0.00     0.198 A 
ATOM     84  F   UNL A   1      43.473  25.573  34.982  1.00  0.00    -0.203 F 
ATOM     85  F   UNL A   1      48.387  27.944  34.930  1.00  0.00    -0.200 F 
ATOM     86  C   UNL A   1      46.969  26.208  35.672  1.00  0.00     0.200 A 
ATOM     87  F   UNL A   1      45.518  24.482  36.375  1.00  0.00    -0.200 F 
ATOM     88  F   UNL A   1      47.988  25.638  36.330  1.00  0.00    -0.200 F 
ENDBRANCH  55  78
ENDBRANCH  29  30
ENDBRANCH  21  24
ENDBRANCH  19  20
ENDBRANCH  18  19
ENDBRANCH  17  18
ENDBRANCH   1  17
TORSDOF 16
ENDMDL
MODEL 2
REMARK VINA RESULT:     -10.5      4.313      6.829
REMARK SMILES C[C@H](C[NH3+])CS/C=C/C(=O)NCCCCNC(=O)c1ccc(-c2c3nc(c(-c4c(F)c(F)c(F)c(F)c4F)c4ccc([nH]4)c(-c4c(F)c(F)c(F)c(F)c4F)c4nc(c(-c5c(F)c(F)c(F)c(F)c5F)c5ccc2[nH]5)C=C4)C=C3)cc1
REMARK SMILES IDX 12 1 11 2 9 3 10 4 8 6 7 7 6 8 5 9 2 10 1 11 3 12 4 13 13 17
REMARK SMILES IDX 14 18 15 19 16 20 17 21 18 23 19 24 20 25 81 26 21 27 80 28
REMARK SMILES IDX 22 29 23 30 24 31 74 32 25 33 79 34 73 35 75 36 26 37 78 38
REMARK SMILES IDX 72 39 71 40 27 42 59 43 39 44 58 45 40 46 43 47 57 48 76 49
REMARK SMILES IDX 41 50 42 51 56 53 77 54 44 55 28 56 29 57 37 58 30 59 31 60
REMARK SMILES IDX 35 61 38 62 32 63 33 64 36 65 34 66 60 67 61 68 69 69 62 70
REMARK SMILES IDX 63 71 67 72 70 73 64 74 65 75 68 76 66 77 45 78 46 79 54 80
REMARK SMILES IDX 47 81 48 82 52 83 55 84 49 85 50 86 53 87 51 88
REMARK H PARENT 11 5 4 14 4 15 4 16 16 22 75 41 43 52
REMARK Flexibility Score: inf
ROOT
ATOM      1  C   UNL A   1      33.011  35.314  29.297  1.00  0.00     0.116 C 
ENDROOT
BRANCH   1   2
ATOM      2  N   UNL A   1      32.799  36.463  30.155  1.00  0.00    -0.353 N 
ATOM      3  C   UNL A   1      33.175  36.656  31.445  1.00  0.00     0.244 C 
ATOM      4  O   UNL A   1      32.740  37.618  32.075  1.00  0.00    -0.270 OA
ATOM      5  H   UNL A   1      32.313  37.212  29.743  1.00  0.00     0.163 HD
BRANCH   3   6
ATOM      6  C   UNL A   1      34.092  35.716  32.124  1.00  0.00     0.078 C 
ATOM      7  C   UNL A   1      33.626  34.732  32.905  1.00  0.00     0.046 C 
BRANCH   7   8
ATOM      8  S   UNL A   1      34.594  33.409  33.435  1.00  0.00    -0.133 SA
BRANCH   8   9
ATOM      9  C   UNL A   1      36.086  34.261  34.074  1.00  0.00     0.083 C 
BRANCH   9  10
ATOM     10  C   UNL A   1      37.425  33.927  33.375  1.00  0.00     0.051 C 
ATOM     11  C   UNL A   1      38.586  34.320  34.301  1.00  0.00     0.014 C 
BRANCH  10  12
ATOM     12  C   UNL A   1      37.641  34.576  31.990  1.00  0.00     0.262 C 
BRANCH  12  13
ATOM     13  N   UNL A   1      37.425  33.681  30.857  1.00  0.00    -0.357 N 
ATOM     14  H   UNL A   1      37.487  32.713  31.171  1.00  0.00     0.344 HD
ATOM     15  H   UNL A   1      38.139  33.854  30.147  1.00  0.00     0.344 HD
ATOM     16  H   UNL A   1      36.502  33.852  30.460  1.00  0.00     0.344 HD
ENDBRANCH  12  13
ENDBRANCH  10  12
ENDBRANCH   9  10
ENDBRANCH   8   9
ENDBRANCH   7   8
ENDBRANCH   3   6
ENDBRANCH   1   2
BRANCH   1  17
ATOM     17  C   UNL A   1      34.286  35.458  28.472  1.00  0.00     0.023 C 
BRANCH  17  18
ATOM     18  C   UNL A   1      34.899  34.128  28.026  1.00  0.00     0.023 C 
BRANCH  18  19
ATOM     19  C   UNL A   1      34.409  32.902  28.790  1.00  0.00     0.116 C 
BRANCH  19  20
ATOM     20  N   UNL A   1      33.889  31.851  27.927  1.00  0.00    -0.352 N 
ATOM     21  C   UNL A   1      34.475  30.661  27.580  1.00  0.00     0.251 C 
ATOM     22  H   UNL A   1      32.999  32.017  27.542  1.00  0.00     0.163 HD
ATOM     23  O   UNL A   1      33.943  29.920  26.759  1.00  0.00    -0.269 OA
BRANCH  21  24
ATOM     24  C   UNL A   1      35.772  30.293  28.179  1.00  0.00     0.039 A 
ATOM     25  C   UNL A   1      35.781  29.710  29.447  1.00  0.00     0.014 A 
ATOM     26  C   UNL A   1      36.965  30.509  27.485  1.00  0.00     0.014 A 
ATOM     27  C   UNL A   1      36.992  29.303  30.005  1.00  0.00     0.010 A 
ATOM     28  C   UNL A   1      38.162  30.032  28.009  1.00  0.00     0.010 A 
ATOM     29  C   UNL A   1      38.188  29.441  29.281  1.00  0.00    -0.014 A 
BRANCH  29  30
ATOM     30  C   UNL A   1      39.479  29.002  29.863  1.00  0.00     0.031 A 
ATOM     31  C   UNL A   1      40.039  29.712  31.064  1.00  0.00     0.074 A 
ATOM     32  C   UNL A   1      40.158  27.992  29.288  1.00  0.00     0.049 A 
ATOM     33  N   UNL A   1      41.152  29.486  31.714  1.00  0.00    -0.248 NA
ATOM     34  C   UNL A   1      39.261  30.846  31.587  1.00  0.00     0.031 C 
ATOM     35  C   UNL A   1      39.745  27.272  28.082  1.00  0.00     0.029 A 
ATOM     36  N   UNL A   1      41.343  27.397  29.640  1.00  0.00    -0.354 N 
ATOM     37  C   UNL A   1      41.212  30.455  32.708  1.00  0.00     0.074 A 
ATOM     38  C   UNL A   1      40.057  31.308  32.539  1.00  0.00     0.031 C 
ATOM     39  C   UNL A   1      40.646  26.314  27.812  1.00  0.00     0.029 A 
ATOM     40  C   UNL A   1      41.712  26.369  28.807  1.00  0.00     0.049 A 
ATOM     41  H   UNL A   1      41.878  27.680  30.416  1.00  0.00     0.167 HD
ATOM     42  C   UNL A   1      42.131  30.601  33.690  1.00  0.00     0.037 A 
ATOM     43  C   UNL A   1      42.787  25.561  28.850  1.00  0.00     0.037 A 
ATOM     44  C   UNL A   1      43.260  29.727  33.871  1.00  0.00     0.049 A 
ATOM     45  C   UNL A   1      43.774  25.722  29.976  1.00  0.00     0.074 A 
ATOM     46  C   UNL A   1      44.219  29.750  34.868  1.00  0.00     0.029 A 
ATOM     47  N   UNL A   1      43.578  28.667  33.034  1.00  0.00    -0.354 N 
ATOM     48  N   UNL A   1      43.778  26.591  30.957  1.00  0.00    -0.248 NA
ATOM     49  C   UNL A   1      44.895  24.774  30.010  1.00  0.00     0.031 C 
ATOM     50  C   UNL A   1      45.142  28.730  34.610  1.00  0.00     0.029 A 
ATOM     51  C   UNL A   1      44.726  28.038  33.484  1.00  0.00     0.049 A 
ATOM     52  H   UNL A   1      43.064  28.404  32.237  1.00  0.00     0.167 HD
ATOM     53  C   UNL A   1      44.876  26.273  31.744  1.00  0.00     0.074 A 
ATOM     54  C   UNL A   1      45.504  25.120  31.135  1.00  0.00     0.031 C 
ATOM     55  C   UNL A   1      45.326  26.881  32.871  1.00  0.00     0.037 A 
BRANCH  42  56
ATOM     56  C   UNL A   1      41.950  31.742  34.649  1.00  0.00     0.064 A 
ATOM     57  C   UNL A   1      41.127  31.630  35.780  1.00  0.00     0.173 A 
ATOM     58  C   UNL A   1      42.636  32.950  34.456  1.00  0.00     0.173 A 
ATOM     59  F   UNL A   1      40.436  30.502  36.005  1.00  0.00    -0.203 F 
ATOM     60  C   UNL A   1      40.976  32.694  36.666  1.00  0.00     0.198 A 
ATOM     61  C   UNL A   1      42.508  34.000  35.362  1.00  0.00     0.198 A 
ATOM     62  F   UNL A   1      43.439  33.111  33.393  1.00  0.00    -0.203 F 
ATOM     63  F   UNL A   1      40.145  32.580  37.711  1.00  0.00    -0.200 F 
ATOM     64  C   UNL A   1      41.673  33.875  36.462  1.00  0.00     0.200 A 
ATOM     65  F   UNL A   1      43.193  35.137  35.169  1.00  0.00    -0.200 F 
ATOM     66  F   UNL A   1      41.534  34.894  37.320  1.00  0.00    -0.200 F 
ENDBRANCH  42  56
BRANCH  43  67
ATOM     67  C   UNL A   1      42.967  24.501  27.824  1.00  0.00     0.064 A 
ATOM     68  C   UNL A   1      42.570  23.179  28.072  1.00  0.00     0.173 A 
ATOM     69  C   UNL A   1      43.558  24.781  26.583  1.00  0.00     0.173 A 
ATOM     70  F   UNL A   1      42.015  22.857  29.250  1.00  0.00    -0.203 F 
ATOM     71  C   UNL A   1      42.786  22.172  27.134  1.00  0.00     0.198 A 
ATOM     72  C   UNL A   1      43.745  23.779  25.633  1.00  0.00     0.198 A 
ATOM     73  F   UNL A   1      43.948  26.030  26.291  1.00  0.00    -0.203 F 
ATOM     74  F   UNL A   1      42.448  20.908  27.421  1.00  0.00    -0.200 F 
ATOM     75  C   UNL A   1      43.369  22.474  25.913  1.00  0.00     0.200 A 
ATOM     76  F   UNL A   1      44.295  24.077  24.447  1.00  0.00    -0.200 F 
ATOM     77  F   UNL A   1      43.579  21.506  25.011  1.00  0.00    -0.200 F 
ENDBRANCH  43  67
BRANCH  55  78
ATOM     78  C   UNL A   1      46.525  26.274  33.542  1.00  0.00     0.064 A 
ATOM     79  C   UNL A   1      46.401  25.278  34.524  1.00  0.00     0.173 A 
ATOM     80  C   UNL A   1      47.818  26.686  33.184  1.00  0.00     0.173 A 
ATOM     81  F   UNL A   1      45.186  24.859  34.909  1.00  0.00    -0.203 F 
ATOM     82  C   UNL A   1      47.525  24.749  35.150  1.00  0.00     0.198 A 
ATOM     83  C   UNL A   1      48.941  26.129  33.788  1.00  0.00     0.198 A 
ATOM     84  F   UNL A   1      47.992  27.627  32.244  1.00  0.00    -0.203 F 
ATOM     85  F   UNL A   1      47.380  23.847  36.132  1.00  0.00    -0.200 F 
ATOM     86  C   UNL A   1      48.793  25.170  34.779  1.00  0.00     0.200 A 
ATOM     87  F   UNL A   1      50.166  26.525  33.417  1.00  0.00    -0.200 F 
ATOM     88  F   UNL A   1      49.874  24.660  35.385  1.00  0.00    -0.200 F 
ENDBRANCH  55  78
ENDBRANCH  29  30
ENDBRANCH  21  24
ENDBRANCH  19  20
ENDBRANCH  18  19
ENDBRANCH  17  18
ENDBRANCH   1  17
TORSDOF 16
ENDMDL
MODEL 3
REMARK VINA RESULT:     -10.4      2.281      3.171
REMARK SMILES C[C@H](C[NH3+])CS/C=C/C(=O)NCCCCNC(=O)c1ccc(-c2c3nc(c(-c4c(F)c(F)c(F)c(F)c4F)c4ccc([nH]4)c(-c4c(F)c(F)c(F)c(F)c4F)c4nc(c(-c5c(F)c(F)c(F)c(F)c5F)c5ccc2[nH]5)C=C4)C=C3)cc1
REMARK SMILES IDX 12 1 11 2 9 3 10 4 8 6 7 7 6 8 5 9 2 10 1 11 3 12 4 13 13 17
REMARK SMILES IDX 14 18 15 19 16 20 17 21 18 23 19 24 20 25 81 26 21 27 80 28
REMARK SMILES IDX 22 29 23 30 24 31 74 32 25 33 79 34 73 35 75 36 26 37 78 38
REMARK SMILES IDX 72 39 71 40 27 42 59 43 39 44 58 45 40 46 43 47 57 48 76 49
REMARK SMILES IDX 41 50 42 51 56 53 77 54 44 55 28 56 29 57 37 58 30 59 31 60
REMARK SMILES IDX 35 61 38 62 32 63 33 64 36 65 34 66 60 67 61 68 69 69 62 70
REMARK SMILES IDX 63 71 67 72 70 73 64 74 65 75 68 76 66 77 45 78 46 79 54 80
REMARK SMILES IDX 47 81 48 82 52 83 55 84 49 85 50 86 53 87 51 88
REMARK H PARENT 11 5 4 14 4 15 4 16 16 22 75 41 43 52
REMARK Flexibility Score: inf
ROOT
ATOM      1  C   UNL A   1      32.753  29.993  25.900  1.00  0.00     0.116 C 
ENDROOT
BRANCH   1   2
ATOM      2  N   UNL A   1      33.317  29.678  24.602  1.00  0.00    -0.353 N 
ATOM      3  C   UNL A   1      33.270  28.518  23.900  1.00  0.00     0.244 C 
ATOM      4  O   UNL A   1      33.971  28.375  22.900  1.00  0.00    -0.270 OA
ATOM      5  H   UNL A   1      33.804  30.414  24.166  1.00  0.00     0.163 HD
BRANCH   3   6
ATOM      6  C   UNL A   1      32.399  27.402  24.324  1.00  0.00     0.078 C 
ATOM      7  C   UNL A   1      31.308  27.065  23.623  1.00  0.00     0.046 C 
BRANCH   7   8
ATOM      8  S   UNL A   1      30.458  25.585  23.853  1.00  0.00    -0.133 SA
BRANCH   8   9
ATOM      9  C   UNL A   1      30.577  25.355  25.668  1.00  0.00     0.083 C 
BRANCH   9  10
ATOM     10  C   UNL A   1      31.403  24.142  26.158  1.00  0.00     0.051 C 
ATOM     11  C   UNL A   1      32.251  23.608  24.994  1.00  0.00     0.014 C 
BRANCH  10  12
ATOM     12  C   UNL A   1      30.592  22.977  26.768  1.00  0.00     0.262 C 
BRANCH  12  13
ATOM     13  N   UNL A   1      29.240  23.330  27.191  1.00  0.00    -0.357 N 
ATOM     14  H   UNL A   1      28.964  22.741  27.976  1.00  0.00     0.344 HD
ATOM     15  H   UNL A   1      28.592  23.186  26.414  1.00  0.00     0.344 HD
ATOM     16  H   UNL A   1      29.217  24.309  27.474  1.00  0.00     0.344 HD
ENDBRANCH  12  13
ENDBRANCH  10  12
ENDBRANCH   9  10
ENDBRANCH   8   9
ENDBRANCH   7   8
ENDBRANCH   3   6
ENDBRANCH   1   2
BRANCH   1  17
ATOM     17  C   UNL A   1      31.429  30.740  25.770  1.00  0.00     0.023 C 
BRANCH  17  18
ATOM     18  C   UNL A   1      31.304  31.959  26.687  1.00  0.00     0.023 C 
BRANCH  18  19
ATOM     19  C   UNL A   1      32.615  32.676  26.993  1.00  0.00     0.116 C 
BRANCH  19  20
ATOM     20  N   UNL A   1      32.431  33.992  27.586  1.00  0.00    -0.352 N 
ATOM     21  C   UNL A   1      33.143  34.581  28.600  1.00  0.00     0.251 C 
ATOM     22  H   UNL A   1      31.700  34.531  27.210  1.00  0.00     0.163 HD
ATOM     23  O   UNL A   1      32.798  35.668  29.054  1.00  0.00    -0.269 OA
BRANCH  21  24
ATOM     24  C   UNL A   1      34.310  33.879  29.165  1.00  0.00     0.039 A 
ATOM     25  C   UNL A   1      35.588  34.320  28.818  1.00  0.00     0.014 A 
ATOM     26  C   UNL A   1      34.141  32.805  30.043  1.00  0.00     0.014 A 
ATOM     27  C   UNL A   1      36.703  33.706  29.386  1.00  0.00     0.010 A 
ATOM     28  C   UNL A   1      35.250  32.246  30.668  1.00  0.00     0.010 A 
ATOM     29  C   UNL A   1      36.541  32.679  30.332  1.00  0.00    -0.014 A 
BRANCH  29  30
ATOM     30  C   UNL A   1      37.721  32.028  30.949  1.00  0.00     0.031 A 
ATOM     31  C   UNL A   1      38.164  32.431  32.328  1.00  0.00     0.074 A 
ATOM     32  C   UNL A   1      38.410  31.103  30.254  1.00  0.00     0.049 A 
ATOM     33  N   UNL A   1      39.171  31.989  33.036  1.00  0.00    -0.248 NA
ATOM     34  C   UNL A   1      37.391  33.495  32.989  1.00  0.00     0.031 C 
ATOM     35  C   UNL A   1      38.113  30.679  28.885  1.00  0.00     0.029 A 
ATOM     36  N   UNL A   1      39.505  30.355  30.603  1.00  0.00    -0.354 N 
ATOM     37  C   UNL A   1      39.160  32.729  34.212  1.00  0.00     0.074 A 
ATOM     38  C   UNL A   1      38.086  33.689  34.099  1.00  0.00     0.031 C 
ATOM     39  C   UNL A   1      38.985  29.725  28.521  1.00  0.00     0.029 A 
ATOM     40  C   UNL A   1      39.918  29.491  29.618  1.00  0.00     0.049 A 
ATOM     41  H   UNL A   1      39.953  30.431  31.476  1.00  0.00     0.167 HD
ATOM     42  C   UNL A   1      39.955  32.597  35.300  1.00  0.00     0.037 A 
ATOM     43  C   UNL A   1      40.933  28.606  29.610  1.00  0.00     0.037 A 
ATOM     44  C   UNL A   1      41.001  31.616  35.418  1.00  0.00     0.049 A 
ATOM     45  C   UNL A   1      41.777  28.456  30.847  1.00  0.00     0.074 A 
ATOM     46  C   UNL A   1      41.826  31.358  36.498  1.00  0.00     0.029 A 
ATOM     47  N   UNL A   1      41.362  30.726  34.417  1.00  0.00    -0.354 N 
ATOM     48  N   UNL A   1      41.705  29.104  31.984  1.00  0.00    -0.248 NA
ATOM     49  C   UNL A   1      42.830  27.432  30.806  1.00  0.00     0.031 C 
ATOM     50  C   UNL A   1      42.715  30.341  36.135  1.00  0.00     0.029 A 
ATOM     51  C   UNL A   1      42.407  29.927  34.850  1.00  0.00     0.049 A 
ATOM     52  H   UNL A   1      40.938  30.672  33.529  1.00  0.00     0.167 HD
ATOM     53  C   UNL A   1      42.676  28.546  32.804  1.00  0.00     0.074 A 
ATOM     54  C   UNL A   1      43.311  27.493  32.039  1.00  0.00     0.031 C 
ATOM     55  C   UNL A   1      43.014  28.874  34.077  1.00  0.00     0.037 A 
BRANCH  42  56
ATOM     56  C   UNL A   1      39.718  33.530  36.452  1.00  0.00     0.064 A 
ATOM     57  C   UNL A   1      40.338  34.787  36.521  1.00  0.00     0.173 A 
ATOM     58  C   UNL A   1      38.833  33.180  37.483  1.00  0.00     0.173 A 
ATOM     59  F   UNL A   1      41.205  35.167  35.570  1.00  0.00    -0.203 F 
ATOM     60  C   UNL A   1      40.102  35.647  37.591  1.00  0.00     0.198 A 
ATOM     61  C   UNL A   1      38.575  34.055  38.534  1.00  0.00     0.198 A 
ATOM     62  F   UNL A   1      38.211  31.991  37.466  1.00  0.00    -0.203 F 
ATOM     63  F   UNL A   1      40.745  36.820  37.660  1.00  0.00    -0.200 F 
ATOM     64  C   UNL A   1      39.214  35.284  38.592  1.00  0.00     0.200 A 
ATOM     65  F   UNL A   1      37.707  33.708  39.495  1.00  0.00    -0.200 F 
ATOM     66  F   UNL A   1      38.981  36.116  39.617  1.00  0.00    -0.200 F 
ENDBRANCH  42  56
BRANCH  43  67
ATOM     67  C   UNL A   1      41.181  27.765  28.410  1.00  0.00     0.064 A 
ATOM     68  C   UNL A   1      42.084  28.172  27.417  1.00  0.00     0.173 A 
ATOM     69  C   UNL A   1      40.509  26.550  28.220  1.00  0.00     0.173 A 
ATOM     70  F   UNL A   1      42.740  29.335  27.545  1.00  0.00    -0.203 F 
ATOM     71  C   UNL A   1      42.280  27.413  26.265  1.00  0.00     0.198 A 
ATOM     72  C   UNL A   1      40.729  25.776  27.082  1.00  0.00     0.198 A 
ATOM     73  F   UNL A   1      39.642  26.109  29.143  1.00  0.00    -0.203 F 
ATOM     74  F   UNL A   1      43.106  27.855  25.307  1.00  0.00    -0.200 F 
ATOM     75  C   UNL A   1      41.605  26.213  26.101  1.00  0.00     0.200 A 
ATOM     76  F   UNL A   1      40.087  24.608  26.934  1.00  0.00    -0.200 F 
ATOM     77  F   UNL A   1      41.793  25.484  24.992  1.00  0.00    -0.200 F 
ENDBRANCH  43  67
BRANCH  55  78
ATOM     78  C   UNL A   1      44.082  28.048  34.735  1.00  0.00     0.064 A 
ATOM     79  C   UNL A   1      45.436  28.413  34.689  1.00  0.00     0.173 A 
ATOM     80  C   UNL A   1      43.739  26.881  35.436  1.00  0.00     0.173 A 
ATOM     81  F   UNL A   1      45.816  29.513  34.021  1.00  0.00    -0.203 F 
ATOM     82  C   UNL A   1      46.411  27.618  35.284  1.00  0.00     0.198 A 
ATOM     83  C   UNL A   1      44.713  26.107  36.059  1.00  0.00     0.198 A 
ATOM     84  F   UNL A   1      42.458  26.493  35.519  1.00  0.00    -0.203 F 
ATOM     85  F   UNL A   1      47.704  27.951  35.170  1.00  0.00    -0.200 F 
ATOM     86  C   UNL A   1      46.049  26.470  35.973  1.00  0.00     0.200 A 
ATOM     87  F   UNL A   1      44.361  25.007  36.738  1.00  0.00    -0.200 F 
ATOM     88  F   UNL A   1      46.990  25.705  36.543  1.00  0.00    -0.200 F 
ENDBRANCH  55  78
ENDBRANCH  29  30
ENDBRANCH  21  24
ENDBRANCH  19  20
ENDBRANCH  18  19
ENDBRANCH  17  18
ENDBRANCH   1  17
TORSDOF 16
ENDMDL
