MODEL 1
REMARK VINA RESULT:     -13.0      0.000      0.000
REMARK SMILES O=C(NCCCCNC(=O)[C@@H]1C=C[C@@H](Nc2ccc3ccccc3n2)C1)c1ccc(-c2c3nc(c(-c4c(F)c(F)c(F)c(F)c4F)c4ccc([nH]4)c(-c4c(F)c(F)c(F)c(F)c4F)c4nc(c(-c5c(F)c(F)c(F)c(F)c5F)c5ccc2[nH]5)C=C4)C=C3)cc1
REMARK SMILES IDX 5 1 4 2 3 3 1 4 2 5 27 7 28 8 89 9 29 10 88 11 30 12 31 13
REMARK SMILES IDX 32 14 82 15 33 16 87 17 81 18 83 19 34 20 86 21 80 22 79 23
REMARK SMILES IDX 35 25 67 26 47 27 66 28 48 29 51 30 65 31 84 32 49 33 50 34
REMARK SMILES IDX 64 36 85 37 52 38 36 39 37 40 45 41 38 42 39 43 43 44 46 45
REMARK SMILES IDX 40 46 41 47 44 48 42 49 68 50 69 51 77 52 70 53 71 54 75 55
REMARK SMILES IDX 78 56 72 57 73 58 76 59 74 60 53 61 54 62 62 63 55 64 56 65
REMARK SMILES IDX 60 66 63 67 57 68 58 69 61 70 59 71 6 72 7 73 8 74 9 75
REMARK SMILES IDX 10 77 11 78 12 79 26 80 13 81 14 82 15 83 16 85 17 86 25 87
REMARK SMILES IDX 18 88 24 89 19 90 23 91 20 92 22 93 21 94
REMARK H PARENT 3 6 83 24 51 35 8 76 15 84
REMARK Flexibility Score: inf
ROOT
ATOM      1  C   UNL A   1      31.444  32.133  26.786  1.00  0.00     0.023 C 
ENDROOT
BRANCH   1   2
ATOM      2  C   UNL A   1      32.672  32.881  27.288  1.00  0.00     0.116 C 
BRANCH   2   3
ATOM      3  N   UNL A   1      32.387  34.242  27.718  1.00  0.00    -0.352 N 
ATOM      4  O   UNL A   1      32.583  36.088  29.008  1.00  0.00    -0.269 OA
ATOM      5  C   UNL A   1      33.020  34.986  28.688  1.00  0.00     0.251 C 
ATOM      6  H   UNL A   1      31.644  34.690  27.254  1.00  0.00     0.163 HD
BRANCH   5   7
ATOM      7  C   UNL A   1      34.212  34.435  29.370  1.00  0.00     0.039 A 
ATOM      8  C   UNL A   1      35.485  34.626  28.834  1.00  0.00     0.014 A 
ATOM      9  C   UNL A   1      34.050  33.703  30.551  1.00  0.00     0.014 A 
ATOM     10  C   UNL A   1      36.572  33.961  29.386  1.00  0.00     0.010 A 
ATOM     11  C   UNL A   1      35.161  33.107  31.159  1.00  0.00     0.010 A 
ATOM     12  C   UNL A   1      36.425  33.202  30.562  1.00  0.00    -0.014 A 
BRANCH  12  13
ATOM     13  C   UNL A   1      37.635  32.579  31.157  1.00  0.00     0.031 A 
ATOM     14  C   UNL A   1      38.100  32.928  32.543  1.00  0.00     0.074 A 
ATOM     15  C   UNL A   1      38.273  31.625  30.451  1.00  0.00     0.049 A 
ATOM     16  N   UNL A   1      39.078  32.403  33.239  1.00  0.00    -0.248 NA
ATOM     17  C   UNL A   1      37.386  34.009  33.239  1.00  0.00     0.031 C 
ATOM     18  C   UNL A   1      37.929  31.224  29.084  1.00  0.00     0.029 A 
ATOM     19  N   UNL A   1      39.312  30.797  30.788  1.00  0.00    -0.354 N 
ATOM     20  C   UNL A   1      39.103  33.089  34.446  1.00  0.00     0.074 A 
ATOM     21  C   UNL A   1      38.061  34.092  34.379  1.00  0.00     0.031 C 
ATOM     22  C   UNL A   1      38.696  30.187  28.724  1.00  0.00     0.029 A 
ATOM     23  C   UNL A   1      39.622  29.885  29.809  1.00  0.00     0.049 A 
ATOM     24  H   UNL A   1      39.789  30.851  31.647  1.00  0.00     0.167 HD
ATOM     25  C   UNL A   1      39.913  32.892  35.514  1.00  0.00     0.037 A 
ATOM     26  C   UNL A   1      40.551  28.911  29.785  1.00  0.00     0.037 A 
ATOM     27  C   UNL A   1      40.943  31.885  35.580  1.00  0.00     0.049 A 
ATOM     28  C   UNL A   1      41.420  28.705  30.991  1.00  0.00     0.074 A 
ATOM     29  C   UNL A   1      41.812  31.603  36.620  1.00  0.00     0.029 A 
ATOM     30  N   UNL A   1      41.240  30.990  34.563  1.00  0.00    -0.354 N 
ATOM     31  N   UNL A   1      41.417  29.351  32.131  1.00  0.00    -0.248 NA
ATOM     32  C   UNL A   1      42.423  27.635  30.906  1.00  0.00     0.031 C 
ATOM     33  C   UNL A   1      42.655  30.561  36.221  1.00  0.00     0.029 A 
ATOM     34  C   UNL A   1      42.285  30.164  34.947  1.00  0.00     0.049 A 
ATOM     35  H   UNL A   1      40.777  30.949  33.694  1.00  0.00     0.167 HD
ATOM     36  C   UNL A   1      42.415  28.769  32.899  1.00  0.00     0.074 A 
ATOM     37  C   UNL A   1      42.974  27.692  32.110  1.00  0.00     0.031 C 
ATOM     38  C   UNL A   1      42.839  29.107  34.141  1.00  0.00     0.037 A 
BRANCH  25  39
ATOM     39  C   UNL A   1      39.728  33.783  36.708  1.00  0.00     0.064 A 
ATOM     40  C   UNL A   1      40.321  35.052  36.773  1.00  0.00     0.173 A 
ATOM     41  C   UNL A   1      38.893  33.394  37.766  1.00  0.00     0.173 A 
ATOM     42  F   UNL A   1      41.137  35.467  35.792  1.00  0.00    -0.203 F 
ATOM     43  C   UNL A   1      40.097  35.893  37.860  1.00  0.00     0.198 A 
ATOM     44  C   UNL A   1      38.652  34.247  38.841  1.00  0.00     0.198 A 
ATOM     45  F   UNL A   1      38.296  32.192  37.750  1.00  0.00    -0.203 F 
ATOM     46  F   UNL A   1      40.698  37.089  37.916  1.00  0.00    -0.200 F 
ATOM     47  C   UNL A   1      39.256  35.494  38.889  1.00  0.00     0.200 A 
ATOM     48  F   UNL A   1      37.830  33.863  39.828  1.00  0.00    -0.200 F 
ATOM     49  F   UNL A   1      39.031  36.310  39.928  1.00  0.00    -0.200 F 
ENDBRANCH  25  39
BRANCH  26  50
ATOM     50  C   UNL A   1      40.696  28.065  28.575  1.00  0.00     0.064 A 
ATOM     51  C   UNL A   1      40.031  26.837  28.462  1.00  0.00     0.173 A 
ATOM     52  C   UNL A   1      41.496  28.476  27.498  1.00  0.00     0.173 A 
ATOM     53  F   UNL A   1      39.269  26.393  29.473  1.00  0.00    -0.203 F 
ATOM     54  C   UNL A   1      40.171  26.046  27.325  1.00  0.00     0.198 A 
ATOM     55  C   UNL A   1      41.611  27.699  26.348  1.00  0.00     0.198 A 
ATOM     56  F   UNL A   1      42.149  29.647  27.555  1.00  0.00    -0.203 F 
ATOM     57  F   UNL A   1      39.556  24.858  27.258  1.00  0.00    -0.200 F 
ATOM     58  C   UNL A   1      40.955  26.481  26.266  1.00  0.00     0.200 A 
ATOM     59  F   UNL A   1      42.353  28.133  25.321  1.00  0.00    -0.200 F 
ATOM     60  F   UNL A   1      41.081  25.724  25.168  1.00  0.00    -0.200 F 
ENDBRANCH  26  50
BRANCH  38  61
ATOM     61  C   UNL A   1      43.965  28.298  34.709  1.00  0.00     0.064 A 
ATOM     62  C   UNL A   1      45.303  28.686  34.533  1.00  0.00     0.173 A 
ATOM     63  C   UNL A   1      43.709  27.126  35.436  1.00  0.00     0.173 A 
ATOM     64  F   UNL A   1      45.598  29.790  33.830  1.00  0.00    -0.203 F 
ATOM     65  C   UNL A   1      46.344  27.910  35.036  1.00  0.00     0.198 A 
ATOM     66  C   UNL A   1      44.752  26.367  35.960  1.00  0.00     0.198 A 
ATOM     67  F   UNL A   1      42.448  26.716  35.635  1.00  0.00    -0.203 F 
ATOM     68  F   UNL A   1      47.614  28.271  34.807  1.00  0.00    -0.200 F 
ATOM     69  C   UNL A   1      46.068  26.755  35.752  1.00  0.00     0.200 A 
ATOM     70  F   UNL A   1      44.485  25.255  36.659  1.00  0.00    -0.200 F 
ATOM     71  F   UNL A   1      47.071  26.006  36.230  1.00  0.00    -0.200 F 
ENDBRANCH  38  61
ENDBRANCH  12  13
ENDBRANCH   5   7
ENDBRANCH   2   3
ENDBRANCH   1   2
BRANCH   1  72
ATOM     72  C   UNL A   1      31.719  30.750  26.189  1.00  0.00     0.023 C 
BRANCH  72  73
ATOM     73  C   UNL A   1      32.447  29.786  27.128  1.00  0.00     0.116 C 
BRANCH  73  74
ATOM     74  N   UNL A   1      31.727  28.534  27.265  1.00  0.00    -0.356 N 
ATOM     75  C   UNL A   1      32.015  27.298  26.758  1.00  0.00     0.227 C 
ATOM     76  H   UNL A   1      30.905  28.582  27.806  1.00  0.00     0.163 HD
ATOM     77  O   UNL A   1      31.205  26.392  26.956  1.00  0.00    -0.274 OA
BRANCH  75  78
ATOM     78  C   UNL A   1      33.352  27.077  26.053  1.00  0.00     0.103 C 
ATOM     79  C   UNL A   1      33.359  27.502  24.618  1.00  0.00    -0.016 C 
ATOM     80  C   UNL A   1      33.644  25.571  25.985  1.00  0.00     0.046 C 
ATOM     81  C   UNL A   1      33.477  26.461  23.788  1.00  0.00    -0.006 C 
ATOM     82  C   UNL A   1      33.488  25.158  24.511  1.00  0.00     0.104 C 
BRANCH  82  83
ATOM     83  N   UNL A   1      34.637  24.385  24.123  1.00  0.00    -0.364 N 
ATOM     84  H   UNL A   1      35.439  24.836  23.771  1.00  0.00     0.162 HD
BRANCH  83  85
ATOM     85  C   UNL A   1      34.616  23.014  24.246  1.00  0.00     0.127 A 
ATOM     86  C   UNL A   1      35.700  22.381  24.840  1.00  0.00     0.047 A 
ATOM     87  N   UNL A   1      33.529  22.331  23.841  1.00  0.00    -0.231 NA
ATOM     88  C   UNL A   1      35.659  21.007  25.045  1.00  0.00     0.014 A 
ATOM     89  C   UNL A   1      33.504  20.994  23.987  1.00  0.00     0.073 A 
ATOM     90  C   UNL A   1      34.548  20.282  24.609  1.00  0.00     0.000 A 
ATOM     91  C   UNL A   1      32.419  20.270  23.509  1.00  0.00     0.029 A 
ATOM     92  C   UNL A   1      34.466  18.888  24.773  1.00  0.00     0.010 A 
ATOM     93  C   UNL A   1      32.339  18.880  23.650  1.00  0.00     0.002 A 
ATOM     94  C   UNL A   1      33.361  18.190  24.291  1.00  0.00     0.001 A 
ENDBRANCH  83  85
ENDBRANCH  82  83
ENDBRANCH  75  78
ENDBRANCH  73  74
ENDBRANCH  72  73
ENDBRANCH   1  72
TORSDOF 13
ENDMDL
MODEL 2
REMARK VINA RESULT:     -13.0      1.205      2.285
REMARK SMILES O=C(NCCCCNC(=O)[C@@H]1C=C[C@@H](Nc2ccc3ccccc3n2)C1)c1ccc(-c2c3nc(c(-c4c(F)c(F)c(F)c(F)c4F)c4ccc([nH]4)c(-c4c(F)c(F)c(F)c(F)c4F)c4nc(c(-c5c(F)c(F)c(F)c(F)c5F)c5ccc2[nH]5)C=C4)C=C3)cc1
REMARK SMILES IDX 5 1 4 2 3 3 1 4 2 5 27 7 28 8 89 9 29 10 88 11 30 12 31 13
REMARK SMILES IDX 32 14 82 15 33 16 87 17 81 18 83 19 34 20 86 21 80 22 79 23
REMARK SMILES IDX 35 25 67 26 47 27 66 28 48 29 51 30 65 31 84 32 49 33 50 34
REMARK SMILES IDX 64 36 85 37 52 38 36 39 37 40 45 41 38 42 39 43 43 44 46 45
REMARK SMILES IDX 40 46 41 47 44 48 42 49 68 50 69 51 77 52 70 53 71 54 75 55
REMARK SMILES IDX 78 56 72 57 73 58 76 59 74 60 53 61 54 62 62 63 55 64 56 65
REMARK SMILES IDX 60 66 63 67 57 68 58 69 61 70 59 71 6 72 7 73 8 74 9 75
REMARK SMILES IDX 10 77 11 78 12 79 26 80 13 81 14 82 15 83 16 85 17 86 25 87
REMARK SMILES IDX 18 88 24 89 19 90 23 91 20 92 22 93 21 94
REMARK H PARENT 3 6 83 24 51 35 8 76 15 84
REMARK Flexibility Score: inf
ROOT
ATOM      1  C   UNL A   1      31.516  31.726  26.876  1.00  0.00     0.023 C 
ENDROOT
BRANCH   1   2
ATOM      2  C   UNL A   1      32.744  32.599  27.100  1.00  0.00     0.116 C 
BRANCH   2   3
ATOM      3  N   UNL A   1      32.427  33.938  27.573  1.00  0.00    -0.352 N 
ATOM      4  O   UNL A   1      32.561  35.737  28.935  1.00  0.00    -0.269 OA
ATOM      5  C   UNL A   1      33.023  34.655  28.585  1.00  0.00     0.251 C 
ATOM      6  H   UNL A   1      31.688  34.391  27.108  1.00  0.00     0.163 HD
BRANCH   5   7
ATOM      7  C   UNL A   1      34.208  34.098  29.275  1.00  0.00     0.039 A 
ATOM      8  C   UNL A   1      35.493  34.486  28.899  1.00  0.00     0.014 A 
ATOM      9  C   UNL A   1      34.028  33.162  30.300  1.00  0.00     0.014 A 
ATOM     10  C   UNL A   1      36.595  33.829  29.433  1.00  0.00     0.010 A 
ATOM     11  C   UNL A   1      35.142  32.566  30.902  1.00  0.00     0.010 A 
ATOM     12  C   UNL A   1      36.434  32.869  30.449  1.00  0.00    -0.014 A 
BRANCH  12  13
ATOM     13  C   UNL A   1      37.650  32.258  31.044  1.00  0.00     0.031 A 
ATOM     14  C   UNL A   1      38.095  32.590  32.440  1.00  0.00     0.074 A 
ATOM     15  C   UNL A   1      38.311  31.329  30.326  1.00  0.00     0.049 A 
ATOM     16  N   UNL A   1      39.078  32.070  33.136  1.00  0.00    -0.248 NA
ATOM     17  C   UNL A   1      37.355  33.644  33.149  1.00  0.00     0.031 C 
ATOM     18  C   UNL A   1      37.987  30.947  28.949  1.00  0.00     0.029 A 
ATOM     19  N   UNL A   1      39.363  30.514  30.657  1.00  0.00    -0.354 N 
ATOM     20  C   UNL A   1      39.079  32.734  34.355  1.00  0.00     0.074 A 
ATOM     21  C   UNL A   1      38.019  33.718  34.297  1.00  0.00     0.031 C 
ATOM     22  C   UNL A   1      38.776  29.932  28.577  1.00  0.00     0.029 A 
ATOM     23  C   UNL A   1      39.698  29.626  29.665  1.00  0.00     0.049 A 
ATOM     24  H   UNL A   1      39.831  30.562  31.521  1.00  0.00     0.167 HD
ATOM     25  C   UNL A   1      39.883  32.532  35.427  1.00  0.00     0.037 A 
ATOM     26  C   UNL A   1      40.645  28.670  29.631  1.00  0.00     0.037 A 
ATOM     27  C   UNL A   1      40.931  31.543  35.483  1.00  0.00     0.049 A 
ATOM     28  C   UNL A   1      41.507  28.458  30.841  1.00  0.00     0.074 A 
ATOM     29  C   UNL A   1      41.796  31.258  36.526  1.00  0.00     0.029 A 
ATOM     30  N   UNL A   1      41.254  30.673  34.452  1.00  0.00    -0.354 N 
ATOM     31  N   UNL A   1      41.482  29.082  31.993  1.00  0.00    -0.248 NA
ATOM     32  C   UNL A   1      42.530  27.409  30.746  1.00  0.00     0.031 C 
ATOM     33  C   UNL A   1      42.662  30.239  36.115  1.00  0.00     0.029 A 
ATOM     34  C   UNL A   1      42.310  29.859  34.831  1.00  0.00     0.049 A 
ATOM     35  H   UNL A   1      40.799  30.639  33.579  1.00  0.00     0.167 HD
ATOM     36  C   UNL A   1      42.484  28.505  32.759  1.00  0.00     0.074 A 
ATOM     37  C   UNL A   1      43.071  27.453  31.955  1.00  0.00     0.031 C 
ATOM     38  C   UNL A   1      42.891  28.827  34.011  1.00  0.00     0.037 A 
BRANCH  25  39
ATOM     39  C   UNL A   1      39.671  33.397  36.635  1.00  0.00     0.064 A 
ATOM     40  C   UNL A   1      40.294  34.647  36.759  1.00  0.00     0.173 A 
ATOM     41  C   UNL A   1      38.781  33.004  37.646  1.00  0.00     0.173 A 
ATOM     42  F   UNL A   1      41.162  35.064  35.824  1.00  0.00    -0.203 F 
ATOM     43  C   UNL A   1      40.046  35.466  37.858  1.00  0.00     0.198 A 
ATOM     44  C   UNL A   1      38.517  33.836  38.732  1.00  0.00     0.198 A 
ATOM     45  F   UNL A   1      38.153  31.820  37.573  1.00  0.00    -0.203 F 
ATOM     46  F   UNL A   1      40.676  36.643  37.970  1.00  0.00    -0.200 F 
ATOM     47  C   UNL A   1      39.152  35.064  38.839  1.00  0.00     0.200 A 
ATOM     48  F   UNL A   1      37.644  33.450  39.673  1.00  0.00    -0.200 F 
ATOM     49  F   UNL A   1      38.904  35.859  39.889  1.00  0.00    -0.200 F 
ENDBRANCH  25  39
BRANCH  26  50
ATOM     50  C   UNL A   1      40.817  27.850  28.407  1.00  0.00     0.064 A 
ATOM     51  C   UNL A   1      41.644  28.275  27.358  1.00  0.00     0.173 A 
ATOM     52  C   UNL A   1      40.167  26.615  28.266  1.00  0.00     0.173 A 
ATOM     53  F   UNL A   1      42.273  29.458  27.438  1.00  0.00    -0.203 F 
ATOM     54  C   UNL A   1      41.802  27.503  26.210  1.00  0.00     0.198 A 
ATOM     55  C   UNL A   1      40.350  25.829  27.132  1.00  0.00     0.198 A 
ATOM     56  F   UNL A   1      39.370  26.161  29.246  1.00  0.00    -0.203 F 
ATOM     57  F   UNL A   1      42.565  27.950  25.205  1.00  0.00    -0.200 F 
ATOM     58  C   UNL A   1      41.161  26.277  26.101  1.00  0.00     0.200 A 
ATOM     59  F   UNL A   1      39.745  24.638  27.041  1.00  0.00    -0.200 F 
ATOM     60  F   UNL A   1      41.321  25.530  25.001  1.00  0.00    -0.200 F 
ENDBRANCH  26  50
BRANCH  38  61
ATOM     61  C   UNL A   1      44.027  28.029  34.574  1.00  0.00     0.064 A 
ATOM     62  C   UNL A   1      43.801  26.831  35.271  1.00  0.00     0.173 A 
ATOM     63  C   UNL A   1      45.352  28.461  34.418  1.00  0.00     0.173 A 
ATOM     64  F   UNL A   1      42.550  26.387  35.461  1.00  0.00    -0.203 F 
ATOM     65  C   UNL A   1      44.861  26.114  35.820  1.00  0.00     0.198 A 
ATOM     66  C   UNL A   1      46.410  27.726  34.946  1.00  0.00     0.198 A 
ATOM     67  F   UNL A   1      45.619  29.597  33.757  1.00  0.00    -0.203 F 
ATOM     68  F   UNL A   1      44.617  25.002  36.529  1.00  0.00    -0.200 F 
ATOM     69  C   UNL A   1      46.163  26.559  35.653  1.00  0.00     0.200 A 
ATOM     70  F   UNL A   1      47.670  28.153  34.778  1.00  0.00    -0.200 F 
ATOM     71  F   UNL A   1      47.181  25.871  36.187  1.00  0.00    -0.200 F 
ENDBRANCH  38  61
ENDBRANCH  12  13
ENDBRANCH   5   7
ENDBRANCH   2   3
ENDBRANCH   1   2
BRANCH   1  72
ATOM     72  C   UNL A   1      31.778  30.217  26.869  1.00  0.00     0.023 C 
BRANCH  72  73
ATOM     73  C   UNL A   1      32.473  29.699  25.609  1.00  0.00     0.116 C 
BRANCH  73  74
ATOM     74  N   UNL A   1      31.587  29.736  24.461  1.00  0.00    -0.356 N 
ATOM     75  C   UNL A   1      31.343  28.785  23.511  1.00  0.00     0.227 C 
ATOM     76  H   UNL A   1      31.084  30.575  24.348  1.00  0.00     0.163 HD
ATOM     77  O   UNL A   1      30.592  29.079  22.581  1.00  0.00    -0.274 OA
BRANCH  75  78
ATOM     78  C   UNL A   1      31.937  27.388  23.688  1.00  0.00     0.103 C 
ATOM     79  C   UNL A   1      33.402  27.310  23.391  1.00  0.00    -0.016 C 
ATOM     80  C   UNL A   1      31.308  26.438  22.659  1.00  0.00     0.046 C 
ATOM     81  C   UNL A   1      33.654  26.581  22.300  1.00  0.00    -0.006 C 
ATOM     82  C   UNL A   1      32.406  26.114  21.631  1.00  0.00     0.104 C 
BRANCH  82  83
ATOM     83  N   UNL A   1      32.451  24.689  21.436  1.00  0.00    -0.364 N 
ATOM     84  H   UNL A   1      32.048  24.289  20.631  1.00  0.00     0.162 HD
BRANCH  83  85
ATOM     85  C   UNL A   1      33.059  23.886  22.375  1.00  0.00     0.127 A 
ATOM     86  C   UNL A   1      32.260  23.172  23.258  1.00  0.00     0.047 A 
ATOM     87  N   UNL A   1      34.400  23.770  22.376  1.00  0.00    -0.231 NA
ATOM     88  C   UNL A   1      32.854  22.295  24.158  1.00  0.00     0.014 A 
ATOM     89  C   UNL A   1      34.986  22.964  23.280  1.00  0.00     0.073 A 
ATOM     90  C   UNL A   1      34.245  22.181  24.188  1.00  0.00     0.000 A 
ATOM     91  C   UNL A   1      36.372  22.890  23.338  1.00  0.00     0.029 A 
ATOM     92  C   UNL A   1      34.897  21.325  25.092  1.00  0.00     0.010 A 
ATOM     93  C   UNL A   1      37.028  22.056  24.250  1.00  0.00     0.002 A 
ATOM     94  C   UNL A   1      36.288  21.265  25.122  1.00  0.00     0.001 A 
ENDBRANCH  83  85
ENDBRANCH  82  83
ENDBRANCH  75  78
ENDBRANCH  73  74
ENDBRANCH  72  73
ENDBRANCH   1  72
TORSDOF 13
ENDMDL
MODEL 3
REMARK VINA RESULT:     -13.0      0.186      1.959
REMARK SMILES O=C(NCCCCNC(=O)[C@@H]1C=C[C@@H](Nc2ccc3ccccc3n2)C1)c1ccc(-c2c3nc(c(-c4c(F)c(F)c(F)c(F)c4F)c4ccc([nH]4)c(-c4c(F)c(F)c(F)c(F)c4F)c4nc(c(-c5c(F)c(F)c(F)c(F)c5F)c5ccc2[nH]5)C=C4)C=C3)cc1
REMARK SMILES IDX 5 1 4 2 3 3 1 4 2 5 27 7 28 8 89 9 29 10 88 11 30 12 31 13
REMARK SMILES IDX 32 14 82 15 33 16 87 17 81 18 83 19 34 20 86 21 80 22 79 23
REMARK SMILES IDX 35 25 67 26 47 27 66 28 48 29 51 30 65 31 84 32 49 33 50 34
REMARK SMILES IDX 64 36 85 37 52 38 36 39 37 40 45 41 38 42 39 43 43 44 46 45
REMARK SMILES IDX 40 46 41 47 44 48 42 49 68 50 69 51 77 52 70 53 71 54 75 55
REMARK SMILES IDX 78 56 72 57 73 58 76 59 74 60 53 61 54 62 62 63 55 64 56 65
REMARK SMILES IDX 60 66 63 67 57 68 58 69 61 70 59 71 6 72 7 73 8 74 9 75
REMARK SMILES IDX 10 77 11 78 12 79 26 80 13 81 14 82 15 83 16 85 17 86 25 87
REMARK SMILES IDX 18 88 24 89 19 90 23 91 20 92 22 93 21 94
REMARK H PARENT 3 6 83 24 51 35 8 76 15 84
REMARK Flexibility Score: inf
ROOT
ATOM      1  C   UNL A   1      31.404  32.084  26.716  1.00  0.00     0.023 C 
ENDROOT
BRANCH   1   2
ATOM      2  C   UNL A   1      32.631  32.839  27.211  1.00  0.00     0.116 C 
BRANCH   2   3
ATOM      3  N   UNL A   1      32.345  34.204  27.627  1.00  0.00    -0.352 N 
ATOM      4  O   UNL A   1      32.528  36.058  28.907  1.00  0.00    -0.269 OA
ATOM      5  C   UNL A   1      32.965  34.952  28.601  1.00  0.00     0.251 C 
ATOM      6  H   UNL A   1      31.611  34.651  27.148  1.00  0.00     0.163 HD
BRANCH   5   7
ATOM      7  C   UNL A   1      34.144  34.402  29.305  1.00  0.00     0.039 A 
ATOM      8  C   UNL A   1      35.422  34.548  28.767  1.00  0.00     0.014 A 
ATOM      9  C   UNL A   1      33.965  33.716  30.511  1.00  0.00     0.014 A 
ATOM     10  C   UNL A   1      36.494  33.880  29.345  1.00  0.00     0.010 A 
ATOM     11  C   UNL A   1      35.062  33.119  31.142  1.00  0.00     0.010 A 
ATOM     12  C   UNL A   1      36.330  33.167  30.546  1.00  0.00    -0.014 A 
BRANCH  12  13
ATOM     13  C   UNL A   1      37.526  32.541  31.167  1.00  0.00     0.031 A 
ATOM     14  C   UNL A   1      37.968  32.897  32.558  1.00  0.00     0.074 A 
ATOM     15  C   UNL A   1      38.169  31.579  30.478  1.00  0.00     0.049 A 
ATOM     16  N   UNL A   1      38.931  32.371  33.275  1.00  0.00    -0.248 NA
ATOM     17  C   UNL A   1      37.248  33.986  33.234  1.00  0.00     0.031 C 
ATOM     18  C   UNL A   1      37.847  31.171  29.108  1.00  0.00     0.029 A 
ATOM     19  N   UNL A   1      39.198  30.747  30.838  1.00  0.00    -0.354 N 
ATOM     20  C   UNL A   1      38.939  33.065  34.477  1.00  0.00     0.074 A 
ATOM     21  C   UNL A   1      37.904  34.073  34.385  1.00  0.00     0.031 C 
ATOM     22  C   UNL A   1      38.614  30.127  28.768  1.00  0.00     0.029 A 
ATOM     23  C   UNL A   1      39.519  29.827  29.871  1.00  0.00     0.049 A 
ATOM     24  H   UNL A   1      39.661  30.804  31.705  1.00  0.00     0.167 HD
ATOM     25  C   UNL A   1      39.729  32.870  35.560  1.00  0.00     0.037 A 
ATOM     26  C   UNL A   1      40.443  28.847  29.870  1.00  0.00     0.037 A 
ATOM     27  C   UNL A   1      40.752  31.857  35.650  1.00  0.00     0.049 A 
ATOM     28  C   UNL A   1      41.290  28.645  31.092  1.00  0.00     0.074 A 
ATOM     29  C   UNL A   1      41.601  31.578  36.708  1.00  0.00     0.029 A 
ATOM     30  N   UNL A   1      41.062  30.955  34.644  1.00  0.00    -0.354 N 
ATOM     31  N   UNL A   1      41.271  29.298  32.227  1.00  0.00    -0.248 NA
ATOM     32  C   UNL A   1      42.288  27.568  31.031  1.00  0.00     0.031 C 
ATOM     33  C   UNL A   1      42.445  30.528  36.330  1.00  0.00     0.029 A 
ATOM     34  C   UNL A   1      42.095  30.125  35.052  1.00  0.00     0.049 A 
ATOM     35  H   UNL A   1      40.613  30.910  33.769  1.00  0.00     0.167 HD
ATOM     36  C   UNL A   1      42.252  28.716  33.016  1.00  0.00     0.074 A 
ATOM     37  C   UNL A   1      42.819  27.630  32.244  1.00  0.00     0.031 C 
ATOM     38  C   UNL A   1      42.656  29.059  34.263  1.00  0.00     0.037 A 
BRANCH  25  39
ATOM     39  C   UNL A   1      39.529  33.770  36.745  1.00  0.00     0.064 A 
ATOM     40  C   UNL A   1      38.723  33.387  37.827  1.00  0.00     0.173 A 
ATOM     41  C   UNL A   1      40.203  34.998  36.831  1.00  0.00     0.173 A 
ATOM     42  F   UNL A   1      38.048  32.228  37.789  1.00  0.00    -0.203 F 
ATOM     43  C   UNL A   1      38.589  34.205  38.946  1.00  0.00     0.198 A 
ATOM     44  C   UNL A   1      40.085  35.803  37.961  1.00  0.00     0.198 A 
ATOM     45  F   UNL A   1      40.991  35.408  35.825  1.00  0.00    -0.203 F 
ATOM     46  F   UNL A   1      37.791  33.833  39.955  1.00  0.00    -0.200 F 
ATOM     47  C   UNL A   1      39.276  35.408  39.016  1.00  0.00     0.200 A 
ATOM     48  F   UNL A   1      40.759  36.959  38.031  1.00  0.00    -0.200 F 
ATOM     49  F   UNL A   1      39.156  36.188  40.099  1.00  0.00    -0.200 F 
ENDBRANCH  25  39
BRANCH  26  50
ATOM     50  C   UNL A   1      40.605  27.993  28.667  1.00  0.00     0.064 A 
ATOM     51  C   UNL A   1      41.435  28.380  27.607  1.00  0.00     0.173 A 
ATOM     52  C   UNL A   1      39.940  26.761  28.560  1.00  0.00     0.173 A 
ATOM     53  F   UNL A   1      42.077  29.557  27.655  1.00  0.00    -0.203 F 
ATOM     54  C   UNL A   1      41.583  27.576  26.480  1.00  0.00     0.198 A 
ATOM     55  C   UNL A   1      40.114  25.944  27.448  1.00  0.00     0.198 A 
ATOM     56  F   UNL A   1      39.139  26.343  29.552  1.00  0.00    -0.203 F 
ATOM     57  F   UNL A   1      42.351  27.987  25.463  1.00  0.00    -0.200 F 
ATOM     58  C   UNL A   1      40.928  26.355  26.405  1.00  0.00     0.200 A 
ATOM     59  F   UNL A   1      39.494  24.758  27.388  1.00  0.00    -0.200 F 
ATOM     60  F   UNL A   1      41.080  25.577  25.325  1.00  0.00    -0.200 F 
ENDBRANCH  26  50
BRANCH  38  61
ATOM     61  C   UNL A   1      43.768  28.247  34.856  1.00  0.00     0.064 A 
ATOM     62  C   UNL A   1      43.507  27.076  35.585  1.00  0.00     0.173 A 
ATOM     63  C   UNL A   1      45.105  28.641  34.696  1.00  0.00     0.173 A 
ATOM     64  F   UNL A   1      42.243  26.670  35.779  1.00  0.00    -0.203 F 
ATOM     65  C   UNL A   1      44.544  26.347  36.160  1.00  0.00     0.198 A 
ATOM     66  C   UNL A   1      46.141  27.893  35.251  1.00  0.00     0.198 A 
ATOM     67  F   UNL A   1      45.405  29.749  34.005  1.00  0.00    -0.203 F 
ATOM     68  F   UNL A   1      44.267  25.263  36.899  1.00  0.00    -0.200 F 
ATOM     69  C   UNL A   1      45.859  26.753  35.990  1.00  0.00     0.200 A 
ATOM     70  F   UNL A   1      47.412  28.282  35.079  1.00  0.00    -0.200 F 
ATOM     71  F   UNL A   1      46.855  26.054  36.549  1.00  0.00    -0.200 F 
ENDBRANCH  38  61
ENDBRANCH  12  13
ENDBRANCH   5   7
ENDBRANCH   2   3
ENDBRANCH   1   2
BRANCH   1  72
ATOM     72  C   UNL A   1      31.670  30.665  26.206  1.00  0.00     0.023 C 
BRANCH  72  73
ATOM     73  C   UNL A   1      32.297  29.726  27.238  1.00  0.00     0.116 C 
BRANCH  73  74
ATOM     74  N   UNL A   1      31.586  28.464  27.308  1.00  0.00    -0.356 N 
ATOM     75  C   UNL A   1      31.872  27.263  26.722  1.00  0.00     0.227 C 
ATOM     76  H   UNL A   1      30.772  28.473  27.863  1.00  0.00     0.163 HD
ATOM     77  O   UNL A   1      31.069  26.342  26.875  1.00  0.00    -0.274 OA
BRANCH  75  78
ATOM     78  C   UNL A   1      33.200  27.093  25.985  1.00  0.00     0.103 C 
ATOM     79  C   UNL A   1      33.152  27.507  24.547  1.00  0.00    -0.016 C 
ATOM     80  C   UNL A   1      33.554  25.601  25.920  1.00  0.00     0.046 C 
ATOM     81  C   UNL A   1      33.294  26.465  23.721  1.00  0.00    -0.006 C 
ATOM     82  C   UNL A   1      33.380  25.170  24.453  1.00  0.00     0.104 C 
BRANCH  82  83
ATOM     83  N   UNL A   1      34.551  24.444  24.043  1.00  0.00    -0.364 N 
ATOM     84  H   UNL A   1      35.317  24.924  23.651  1.00  0.00     0.162 HD
BRANCH  83  85
ATOM     85  C   UNL A   1      34.602  23.077  24.197  1.00  0.00     0.127 A 
ATOM     86  C   UNL A   1      35.731  22.513  24.777  1.00  0.00     0.047 A 
ATOM     87  N   UNL A   1      33.540  22.332  23.838  1.00  0.00    -0.231 NA
ATOM     88  C   UNL A   1      35.764  21.144  25.015  1.00  0.00     0.014 A 
ATOM     89  C   UNL A   1      33.586  20.998  24.015  1.00  0.00     0.073 A 
ATOM     90  C   UNL A   1      34.680  20.354  24.626  1.00  0.00     0.000 A 
ATOM     91  C   UNL A   1      32.527  20.211  23.583  1.00  0.00     0.029 A 
ATOM     92  C   UNL A   1      34.671  18.963  24.824  1.00  0.00     0.010 A 
ATOM     93  C   UNL A   1      32.521  18.823  23.757  1.00  0.00     0.002 A 
ATOM     94  C   UNL A   1      33.591  18.199  24.388  1.00  0.00     0.001 A 
ENDBRANCH  83  85
ENDBRANCH  82  83
ENDBRANCH  75  78
ENDBRANCH  73  74
ENDBRANCH  72  73
ENDBRANCH   1  72
TORSDOF 13
ENDMDL
