MODEL 1
REMARK VINA RESULT:     -13.6      0.000      0.000
REMARK SMILES Cc1ccccc1CN1C(=O)[C@H](CC(=O)NCCCCNC(=O)c2ccc(-c3c4nc(c(-c5c(F)c(F)c(F)c(F)c5F)c5ccc([nH]5)c(-c5c(F)c(F)c(F)c(F)c5F)c5nc(c(-c6c(F)c(F)c(F)c(F)c6F)c6ccc3[nH]6)C=C5)C=C4)cc2)n2c(nc3ccccc32)[C@H]1C
REMARK SMILES IDX 18 1 17 2 16 3 14 4 15 5 13 7 12 8 9 9 10 10 96 11 11 12
REMARK SMILES IDX 88 13 97 14 87 15 89 16 95 17 90 18 94 19 91 20 93 21 92 22
REMARK SMILES IDX 8 23 7 24 1 25 2 26 3 27 4 28 6 29 5 30 19 31 20 32 21 33
REMARK SMILES IDX 22 34 23 36 24 37 25 38 86 39 26 40 85 41 27 42 28 43 29 44
REMARK SMILES IDX 79 45 30 46 84 47 78 48 80 49 31 50 83 51 77 52 76 53 32 55
REMARK SMILES IDX 64 56 44 57 63 58 45 59 48 60 62 61 81 62 46 63 47 64 61 66
REMARK SMILES IDX 82 67 49 68 33 69 34 70 42 71 35 72 36 73 40 74 43 75 37 76
REMARK SMILES IDX 38 77 41 78 39 79 65 80 66 81 74 82 67 83 68 84 72 85 75 86
REMARK SMILES IDX 69 87 70 88 73 89 71 90 50 91 51 92 59 93 52 94 53 95 57 96
REMARK SMILES IDX 60 97 54 98 55 99 58 100 56 101
REMARK H PARENT 16 6 21 35 80 54 48 65
REMARK Flexibility Score: inf
ROOT
ATOM      1  C   UNL A   1      34.930  30.689  27.923  1.00  0.00     0.023 C 
ENDROOT
BRANCH   1   2
ATOM      2  C   UNL A   1      33.677  30.514  27.054  1.00  0.00     0.116 C 
BRANCH   2   3
ATOM      3  N   UNL A   1      32.681  29.653  27.687  1.00  0.00    -0.356 N 
ATOM      4  C   UNL A   1      32.367  28.343  27.485  1.00  0.00     0.222 C 
ATOM      5  O   UNL A   1      31.402  27.879  28.098  1.00  0.00    -0.275 OA
ATOM      6  H   UNL A   1      32.143  30.097  28.381  1.00  0.00     0.163 HD
BRANCH   4   7
ATOM      7  C   UNL A   1      33.161  27.451  26.547  1.00  0.00     0.135 C 
BRANCH   7   8
ATOM      8  C   UNL A   1      32.237  26.924  25.435  1.00  0.00     0.187 C 
ATOM      9  N   UNL A   1      31.781  27.501  23.076  1.00  0.00    -0.327 N 
ATOM     10  C   UNL A   1      32.173  27.955  24.315  1.00  0.00     0.247 C 
ATOM     11  C   UNL A   1      32.695  26.494  22.528  1.00  0.00     0.149 C 
ATOM     12  O   UNL A   1      32.420  29.156  24.485  1.00  0.00    -0.272 OA
ATOM     13  C   UNL A   1      32.841  25.399  23.549  1.00  0.00     0.133 A 
ATOM     14  C   UNL A   1      32.357  25.921  21.158  1.00  0.00     0.040 C 
ATOM     15  N   UNL A   1      32.621  25.625  24.892  1.00  0.00    -0.313 N 
ATOM     16  N   UNL A   1      33.183  24.146  23.332  1.00  0.00    -0.231 NA
ATOM     17  C   UNL A   1      32.652  24.411  25.535  1.00  0.00     0.069 A 
ATOM     18  C   UNL A   1      33.039  23.515  24.539  1.00  0.00     0.089 A 
ATOM     19  C   UNL A   1      32.381  23.998  26.846  1.00  0.00     0.028 A 
ATOM     20  C   UNL A   1      33.205  22.157  24.846  1.00  0.00     0.030 A 
ATOM     21  C   UNL A   1      32.543  22.634  27.132  1.00  0.00     0.002 A 
ATOM     22  C   UNL A   1      32.953  21.728  26.153  1.00  0.00     0.002 A 
BRANCH   9  23
ATOM     23  C   UNL A   1      31.020  28.425  22.227  1.00  0.00     0.156 C 
BRANCH  23  24
ATOM     24  C   UNL A   1      29.544  28.398  22.585  1.00  0.00    -0.026 A 
ATOM     25  C   UNL A   1      28.973  30.682  21.516  1.00  0.00     0.044 C 
ATOM     26  C   UNL A   1      28.655  29.472  22.355  1.00  0.00    -0.046 A 
ATOM     27  C   UNL A   1      27.352  29.406  22.889  1.00  0.00     0.004 A 
ATOM     28  C   UNL A   1      26.923  28.301  23.620  1.00  0.00     0.000 A 
ATOM     29  C   UNL A   1      29.059  27.260  23.256  1.00  0.00     0.006 A 
ATOM     30  C   UNL A   1      27.772  27.217  23.784  1.00  0.00     0.000 A 
ENDBRANCH  23  24
ENDBRANCH   9  23
ENDBRANCH   7   8
ENDBRANCH   4   7
ENDBRANCH   2   3
ENDBRANCH   1   2
BRANCH   1  31
ATOM     31  C   UNL A   1      36.057  29.687  27.670  1.00  0.00     0.023 C 
BRANCH  31  32
ATOM     32  C   UNL A   1      37.165  29.692  28.731  1.00  0.00     0.116 C 
BRANCH  32  33
ATOM     33  N   UNL A   1      37.640  31.042  28.997  1.00  0.00    -0.352 N 
ATOM     34  C   UNL A   1      38.659  31.501  29.794  1.00  0.00     0.251 C 
ATOM     35  H   UNL A   1      37.145  31.748  28.523  1.00  0.00     0.163 HD
ATOM     36  O   UNL A   1      38.493  32.604  30.319  1.00  0.00    -0.269 OA
BRANCH  34  37
ATOM     37  C   UNL A   1      39.943  30.778  30.047  1.00  0.00     0.039 A 
ATOM     38  C   UNL A   1      40.693  30.400  28.922  1.00  0.00     0.014 A 
ATOM     39  C   UNL A   1      40.389  30.346  31.298  1.00  0.00     0.014 A 
ATOM     40  C   UNL A   1      41.895  29.682  29.049  1.00  0.00     0.010 A 
ATOM     41  C   UNL A   1      41.602  29.624  31.421  1.00  0.00     0.010 A 
ATOM     42  C   UNL A   1      42.394  29.318  30.308  1.00  0.00    -0.014 A 
BRANCH  42  43
ATOM     43  C   UNL A   1      43.855  29.012  30.376  1.00  0.00     0.031 A 
ATOM     44  C   UNL A   1      44.099  28.063  31.529  1.00  0.00     0.074 A 
ATOM     45  C   UNL A   1      44.821  28.792  29.436  1.00  0.00     0.049 A 
ATOM     46  N   UNL A   1      43.790  26.807  31.424  1.00  0.00    -0.248 NA
ATOM     47  C   UNL A   1      44.544  28.433  32.870  1.00  0.00     0.031 C 
ATOM     48  C   UNL A   1      46.245  29.001  29.747  1.00  0.00     0.029 A 
ATOM     49  N   UNL A   1      44.854  28.389  28.098  1.00  0.00    -0.354 N 
ATOM     50  C   UNL A   1      44.250  26.164  32.560  1.00  0.00     0.074 A 
ATOM     51  C   UNL A   1      44.577  27.233  33.485  1.00  0.00     0.031 C 
ATOM     52  C   UNL A   1      47.011  28.653  28.694  1.00  0.00     0.029 A 
ATOM     53  C   UNL A   1      46.164  28.075  27.655  1.00  0.00     0.049 A 
ATOM     54  H   UNL A   1      44.054  28.328  27.527  1.00  0.00     0.167 HD
ATOM     55  C   UNL A   1      44.561  24.826  32.503  1.00  0.00     0.037 A 
ATOM     56  C   UNL A   1      46.640  27.240  26.676  1.00  0.00     0.037 A 
ATOM     57  C   UNL A   1      44.742  24.472  31.116  1.00  0.00     0.049 A 
ATOM     58  C   UNL A   1      45.572  26.357  26.110  1.00  0.00     0.074 A 
ATOM     59  C   UNL A   1      45.879  24.825  30.439  1.00  0.00     0.029 A 
ATOM     60  N   UNL A   1      43.767  24.095  30.198  1.00  0.00    -0.354 N 
ATOM     61  N   UNL A   1      45.432  25.130  26.520  1.00  0.00    -0.248 NA
ATOM     62  C   UNL A   1      44.451  26.802  25.282  1.00  0.00     0.031 C 
ATOM     63  C   UNL A   1      45.427  25.017  29.156  1.00  0.00     0.029 A 
ATOM     64  C   UNL A   1      44.186  24.461  28.913  1.00  0.00     0.049 A 
ATOM     65  H   UNL A   1      42.920  23.643  30.415  1.00  0.00     0.167 HD
ATOM     66  C   UNL A   1      44.065  24.940  26.558  1.00  0.00     0.074 A 
ATOM     67  C   UNL A   1      43.559  25.824  25.516  1.00  0.00     0.031 C 
ATOM     68  C   UNL A   1      43.386  24.494  27.676  1.00  0.00     0.037 A 
BRANCH  55  69
ATOM     69  C   UNL A   1      45.279  23.978  33.526  1.00  0.00     0.064 A 
ATOM     70  C   UNL A   1      46.607  24.310  33.929  1.00  0.00     0.173 A 
ATOM     71  C   UNL A   1      44.748  22.823  34.106  1.00  0.00     0.173 A 
ATOM     72  F   UNL A   1      47.276  25.347  33.408  1.00  0.00    -0.203 F 
ATOM     73  C   UNL A   1      47.317  23.578  34.873  1.00  0.00     0.198 A 
ATOM     74  C   UNL A   1      45.472  22.081  35.050  1.00  0.00     0.198 A 
ATOM     75  F   UNL A   1      43.535  22.375  33.752  1.00  0.00    -0.203 F 
ATOM     76  F   UNL A   1      48.555  23.962  35.215  1.00  0.00    -0.200 F 
ATOM     77  C   UNL A   1      46.749  22.462  35.437  1.00  0.00     0.200 A 
ATOM     78  F   UNL A   1      44.929  20.978  35.583  1.00  0.00    -0.200 F 
ATOM     79  F   UNL A   1      47.437  21.742  36.333  1.00  0.00    -0.200 F 
ENDBRANCH  55  69
BRANCH  56  80
ATOM     80  C   UNL A   1      48.063  26.719  26.600  1.00  0.00     0.064 A 
ATOM     81  C   UNL A   1      48.821  26.873  25.437  1.00  0.00     0.173 A 
ATOM     82  C   UNL A   1      48.687  25.965  27.623  1.00  0.00     0.173 A 
ATOM     83  F   UNL A   1      48.334  27.594  24.416  1.00  0.00    -0.203 F 
ATOM     84  C   UNL A   1      50.091  26.283  25.297  1.00  0.00     0.198 A 
ATOM     85  C   UNL A   1      49.931  25.351  27.478  1.00  0.00     0.198 A 
ATOM     86  F   UNL A   1      48.144  25.814  28.826  1.00  0.00    -0.203 F 
ATOM     87  F   UNL A   1      50.790  26.462  24.169  1.00  0.00    -0.200 F 
ATOM     88  C   UNL A   1      50.634  25.506  26.310  1.00  0.00     0.200 A 
ATOM     89  F   UNL A   1      50.435  24.622  28.485  1.00  0.00    -0.200 F 
ATOM     90  F   UNL A   1      51.833  24.924  26.169  1.00  0.00    -0.200 F 
ENDBRANCH  56  80
BRANCH  68  91
ATOM     91  C   UNL A   1      41.893  24.378  27.605  1.00  0.00     0.064 A 
ATOM     92  C   UNL A   1      41.274  23.232  27.068  1.00  0.00     0.173 A 
ATOM     93  C   UNL A   1      41.033  25.398  28.029  1.00  0.00     0.173 A 
ATOM     94  F   UNL A   1      42.010  22.171  26.704  1.00  0.00    -0.203 F 
ATOM     95  C   UNL A   1      39.894  23.170  26.861  1.00  0.00     0.198 A 
ATOM     96  C   UNL A   1      39.656  25.333  27.830  1.00  0.00     0.198 A 
ATOM     97  F   UNL A   1      41.499  26.489  28.645  1.00  0.00    -0.203 F 
ATOM     98  F   UNL A   1      39.356  22.089  26.280  1.00  0.00    -0.200 F 
ATOM     99  C   UNL A   1      39.087  24.230  27.225  1.00  0.00     0.200 A 
ATOM    100  F   UNL A   1      38.889  26.363  28.213  1.00  0.00    -0.200 F 
ATOM    101  F   UNL A   1      37.767  24.195  26.998  1.00  0.00    -0.200 F 
ENDBRANCH  68  91
ENDBRANCH  42  43
ENDBRANCH  34  37
ENDBRANCH  32  33
ENDBRANCH  31  32
ENDBRANCH   1  31
TORSDOF 14
ENDMDL
MODEL 2
REMARK VINA RESULT:     -13.5      5.780     10.675
REMARK SMILES Cc1ccccc1CN1C(=O)[C@H](CC(=O)NCCCCNC(=O)c2ccc(-c3c4nc(c(-c5c(F)c(F)c(F)c(F)c5F)c5ccc([nH]5)c(-c5c(F)c(F)c(F)c(F)c5F)c5nc(c(-c6c(F)c(F)c(F)c(F)c6F)c6ccc3[nH]6)C=C5)C=C4)cc2)n2c(nc3ccccc32)[C@H]1C
REMARK SMILES IDX 18 1 17 2 16 3 14 4 15 5 13 7 12 8 9 9 10 10 96 11 11 12
REMARK SMILES IDX 88 13 97 14 87 15 89 16 95 17 90 18 94 19 91 20 93 21 92 22
REMARK SMILES IDX 8 23 7 24 1 25 2 26 3 27 4 28 6 29 5 30 19 31 20 32 21 33
REMARK SMILES IDX 22 34 23 36 24 37 25 38 86 39 26 40 85 41 27 42 28 43 29 44
REMARK SMILES IDX 79 45 30 46 84 47 78 48 80 49 31 50 83 51 77 52 76 53 32 55
REMARK SMILES IDX 64 56 44 57 63 58 45 59 48 60 62 61 81 62 46 63 47 64 61 66
REMARK SMILES IDX 82 67 49 68 33 69 34 70 42 71 35 72 36 73 40 74 43 75 37 76
REMARK SMILES IDX 38 77 41 78 39 79 65 80 66 81 74 82 67 83 68 84 72 85 75 86
REMARK SMILES IDX 69 87 70 88 73 89 71 90 50 91 51 92 59 93 52 94 53 95 57 96
REMARK SMILES IDX 60 97 54 98 55 99 58 100 56 101
REMARK H PARENT 16 6 21 35 80 54 48 65
REMARK Flexibility Score: inf
ROOT
ATOM      1  C   UNL A   1      39.166  23.030  26.433  1.00  0.00     0.023 C 
ENDROOT
BRANCH   1   2
ATOM      2  C   UNL A   1      38.114  22.080  25.843  1.00  0.00     0.116 C 
BRANCH   2   3
ATOM      3  N   UNL A   1      37.805  22.394  24.451  1.00  0.00    -0.356 N 
ATOM      4  C   UNL A   1      36.778  23.092  23.893  1.00  0.00     0.222 C 
ATOM      5  O   UNL A   1      36.703  23.126  22.662  1.00  0.00    -0.275 OA
ATOM      6  H   UNL A   1      38.453  22.037  23.802  1.00  0.00     0.163 HD
BRANCH   4   7
ATOM      7  C   UNL A   1      35.743  23.825  24.729  1.00  0.00     0.135 C 
BRANCH   7   8
ATOM      8  C   UNL A   1      34.349  23.237  24.450  1.00  0.00     0.187 C 
ATOM      9  N   UNL A   1      32.778  21.739  25.631  1.00  0.00    -0.327 N 
ATOM     10  C   UNL A   1      34.093  22.090  25.419  1.00  0.00     0.247 C 
ATOM     11  C   UNL A   1      31.990  22.828  26.216  1.00  0.00     0.149 C 
ATOM     12  O   UNL A   1      35.000  21.459  25.977  1.00  0.00    -0.272 OA
ATOM     13  C   UNL A   1      32.154  24.038  25.337  1.00  0.00     0.133 A 
ATOM     14  C   UNL A   1      30.519  22.550  26.493  1.00  0.00     0.040 C 
ATOM     15  N   UNL A   1      33.257  24.202  24.525  1.00  0.00    -0.313 N 
ATOM     16  N   UNL A   1      31.327  25.056  25.220  1.00  0.00    -0.231 NA
ATOM     17  C   UNL A   1      33.032  25.295  23.722  1.00  0.00     0.069 A 
ATOM     18  C   UNL A   1      31.836  25.824  24.205  1.00  0.00     0.089 A 
ATOM     19  C   UNL A   1      33.717  25.865  22.642  1.00  0.00     0.028 A 
ATOM     20  C   UNL A   1      31.302  26.986  23.630  1.00  0.00     0.030 A 
ATOM     21  C   UNL A   1      33.163  27.021  22.073  1.00  0.00     0.002 A 
ATOM     22  C   UNL A   1      31.980  27.578  22.560  1.00  0.00     0.002 A 
BRANCH   9  23
ATOM     23  C   UNL A   1      32.491  20.323  25.894  1.00  0.00     0.156 C 
BRANCH  23  24
ATOM     24  C   UNL A   1      32.402  19.540  24.597  1.00  0.00    -0.026 A 
ATOM     25  C   UNL A   1      32.783  17.217  25.667  1.00  0.00     0.044 C 
ATOM     26  C   UNL A   1      32.645  18.151  24.494  1.00  0.00    -0.046 A 
ATOM     27  C   UNL A   1      32.710  17.562  23.215  1.00  0.00     0.004 A 
ATOM     28  C   UNL A   1      32.524  18.316  22.059  1.00  0.00     0.000 A 
ATOM     29  C   UNL A   1      32.136  20.261  23.418  1.00  0.00     0.006 A 
ATOM     30  C   UNL A   1      32.215  19.664  22.163  1.00  0.00     0.000 A 
ENDBRANCH  23  24
ENDBRANCH   9  23
ENDBRANCH   7   8
ENDBRANCH   4   7
ENDBRANCH   2   3
ENDBRANCH   1   2
BRANCH   1  31
ATOM     31  C   UNL A   1      38.626  24.334  27.021  1.00  0.00     0.023 C 
BRANCH  31  32
ATOM     32  C   UNL A   1      39.667  25.172  27.776  1.00  0.00     0.116 C 
BRANCH  32  33
ATOM     33  N   UNL A   1      40.513  25.920  26.859  1.00  0.00    -0.352 N 
ATOM     34  C   UNL A   1      41.000  27.202  26.920  1.00  0.00     0.251 C 
ATOM     35  H   UNL A   1      40.783  25.420  26.055  1.00  0.00     0.163 HD
ATOM     36  O   UNL A   1      41.149  27.787  25.845  1.00  0.00    -0.269 OA
BRANCH  34  37
ATOM     37  C   UNL A   1      41.378  27.918  28.177  1.00  0.00     0.039 A 
ATOM     38  C   UNL A   1      42.594  28.618  28.171  1.00  0.00     0.014 A 
ATOM     39  C   UNL A   1      40.681  27.842  29.385  1.00  0.00     0.014 A 
ATOM     40  C   UNL A   1      43.060  29.292  29.313  1.00  0.00     0.010 A 
ATOM     41  C   UNL A   1      41.153  28.524  30.535  1.00  0.00     0.010 A 
ATOM     42  C   UNL A   1      42.323  29.292  30.506  1.00  0.00    -0.014 A 
BRANCH  42  43
ATOM     43  C   UNL A   1      42.628  30.392  31.471  1.00  0.00     0.031 A 
ATOM     44  C   UNL A   1      43.071  31.611  30.692  1.00  0.00     0.074 A 
ATOM     45  C   UNL A   1      42.051  30.819  32.633  1.00  0.00     0.049 A 
ATOM     46  N   UNL A   1      42.202  32.339  30.059  1.00  0.00    -0.248 NA
ATOM     47  C   UNL A   1      44.450  32.020  30.442  1.00  0.00     0.031 C 
ATOM     48  C   UNL A   1      42.819  31.589  33.624  1.00  0.00     0.029 A 
ATOM     49  N   UNL A   1      40.792  30.714  33.232  1.00  0.00    -0.354 N 
ATOM     50  C   UNL A   1      42.864  33.450  29.565  1.00  0.00     0.074 A 
ATOM     51  C   UNL A   1      44.273  33.134  29.703  1.00  0.00     0.031 C 
ATOM     52  C   UNL A   1      42.025  31.960  34.648  1.00  0.00     0.029 A 
ATOM     53  C   UNL A   1      40.650  31.570  34.354  1.00  0.00     0.049 A 
ATOM     54  H   UNL A   1      40.082  30.114  32.909  1.00  0.00     0.167 HD
ATOM     55  C   UNL A   1      42.166  34.614  29.348  1.00  0.00     0.037 A 
ATOM     56  C   UNL A   1      39.559  32.160  34.941  1.00  0.00     0.037 A 
ATOM     57  C   UNL A   1      40.939  34.543  30.104  1.00  0.00     0.049 A 
ATOM     58  C   UNL A   1      38.319  32.021  34.113  1.00  0.00     0.074 A 
ATOM     59  C   UNL A   1      40.934  34.724  31.462  1.00  0.00     0.029 A 
ATOM     60  N   UNL A   1      39.733  33.966  29.721  1.00  0.00    -0.354 N 
ATOM     61  N   UNL A   1      37.918  32.989  33.342  1.00  0.00    -0.248 NA
ATOM     62  C   UNL A   1      37.598  30.772  33.867  1.00  0.00     0.031 C 
ATOM     63  C   UNL A   1      39.910  33.909  31.877  1.00  0.00     0.029 A 
ATOM     64  C   UNL A   1      39.055  33.527  30.863  1.00  0.00     0.049 A 
ATOM     65  H   UNL A   1      39.408  33.881  28.795  1.00  0.00     0.167 HD
ATOM     66  C   UNL A   1      37.448  32.349  32.213  1.00  0.00     0.074 A 
ATOM     67  C   UNL A   1      36.980  31.061  32.709  1.00  0.00     0.031 C 
ATOM     68  C   UNL A   1      37.877  32.643  30.932  1.00  0.00     0.037 A 
BRANCH  55  69
ATOM     69  C   UNL A   1      42.700  35.992  29.036  1.00  0.00     0.064 A 
ATOM     70  C   UNL A   1      43.550  36.660  29.967  1.00  0.00     0.173 A 
ATOM     71  C   UNL A   1      42.386  36.718  27.885  1.00  0.00     0.173 A 
ATOM     72  F   UNL A   1      43.883  36.122  31.149  1.00  0.00    -0.203 F 
ATOM     73  C   UNL A   1      44.084  37.922  29.736  1.00  0.00     0.198 A 
ATOM     74  C   UNL A   1      42.917  37.996  27.660  1.00  0.00     0.198 A 
ATOM     75  F   UNL A   1      41.541  36.220  26.971  1.00  0.00    -0.203 F 
ATOM     76  F   UNL A   1      44.891  38.479  30.650  1.00  0.00    -0.200 F 
ATOM     77  C   UNL A   1      43.768  38.592  28.579  1.00  0.00     0.200 A 
ATOM     78  F   UNL A   1      42.592  38.662  26.543  1.00  0.00    -0.200 F 
ATOM     79  F   UNL A   1      44.264  39.817  28.361  1.00  0.00    -0.200 F 
ENDBRANCH  55  69
BRANCH  56  80
ATOM     80  C   UNL A   1      39.620  33.353  35.876  1.00  0.00     0.064 A 
ATOM     81  C   UNL A   1      39.007  33.312  37.131  1.00  0.00     0.173 A 
ATOM     82  C   UNL A   1      40.188  34.603  35.531  1.00  0.00     0.173 A 
ATOM     83  F   UNL A   1      38.462  32.168  37.567  1.00  0.00    -0.203 F 
ATOM     84  C   UNL A   1      38.937  34.449  37.958  1.00  0.00     0.198 A 
ATOM     85  C   UNL A   1      40.093  35.741  36.332  1.00  0.00     0.198 A 
ATOM     86  F   UNL A   1      40.895  34.780  34.421  1.00  0.00    -0.203 F 
ATOM     87  F   UNL A   1      38.349  34.366  39.158  1.00  0.00    -0.200 F 
ATOM     88  C   UNL A   1      39.462  35.666  37.548  1.00  0.00     0.200 A 
ATOM     89  F   UNL A   1      40.628  36.897  35.913  1.00  0.00    -0.200 F 
ATOM     90  F   UNL A   1      39.374  36.754  38.325  1.00  0.00    -0.200 F 
ENDBRANCH  56  80
BRANCH  68  91
ATOM     91  C   UNL A   1      37.327  31.840  29.793  1.00  0.00     0.064 A 
ATOM     92  C   UNL A   1      35.972  31.933  29.419  1.00  0.00     0.173 A 
ATOM     93  C   UNL A   1      38.104  30.934  29.060  1.00  0.00     0.173 A 
ATOM     94  F   UNL A   1      35.166  32.827  30.012  1.00  0.00    -0.203 F 
ATOM     95  C   UNL A   1      35.413  31.087  28.460  1.00  0.00     0.198 A 
ATOM     96  C   UNL A   1      37.549  30.095  28.097  1.00  0.00     0.198 A 
ATOM     97  F   UNL A   1      39.422  30.831  29.257  1.00  0.00    -0.203 F 
ATOM     98  F   UNL A   1      34.103  31.162  28.188  1.00  0.00    -0.200 F 
ATOM     99  C   UNL A   1      36.199  30.154  27.812  1.00  0.00     0.200 A 
ATOM    100  F   UNL A   1      38.334  29.214  27.464  1.00  0.00    -0.200 F 
ATOM    101  F   UNL A   1      35.665  29.313  26.915  1.00  0.00    -0.200 F 
ENDBRANCH  68  91
ENDBRANCH  42  43
ENDBRANCH  34  37
ENDBRANCH  32  33
ENDBRANCH  31  32
ENDBRANCH   1  31
TORSDOF 14
ENDMDL
MODEL 3
REMARK VINA RESULT:     -12.9      1.288      3.554
REMARK SMILES Cc1ccccc1CN1C(=O)[C@H](CC(=O)NCCCCNC(=O)c2ccc(-c3c4nc(c(-c5c(F)c(F)c(F)c(F)c5F)c5ccc([nH]5)c(-c5c(F)c(F)c(F)c(F)c5F)c5nc(c(-c6c(F)c(F)c(F)c(F)c6F)c6ccc3[nH]6)C=C5)C=C4)cc2)n2c(nc3ccccc32)[C@H]1C
REMARK SMILES IDX 18 1 17 2 16 3 14 4 15 5 13 7 12 8 9 9 10 10 96 11 11 12
REMARK SMILES IDX 88 13 97 14 87 15 89 16 95 17 90 18 94 19 91 20 93 21 92 22
REMARK SMILES IDX 8 23 7 24 1 25 2 26 3 27 4 28 6 29 5 30 19 31 20 32 21 33
REMARK SMILES IDX 22 34 23 36 24 37 25 38 86 39 26 40 85 41 27 42 28 43 29 44
REMARK SMILES IDX 79 45 30 46 84 47 78 48 80 49 31 50 83 51 77 52 76 53 32 55
REMARK SMILES IDX 64 56 44 57 63 58 45 59 48 60 62 61 81 62 46 63 47 64 61 66
REMARK SMILES IDX 82 67 49 68 33 69 34 70 42 71 35 72 36 73 40 74 43 75 37 76
REMARK SMILES IDX 38 77 41 78 39 79 65 80 66 81 74 82 67 83 68 84 72 85 75 86
REMARK SMILES IDX 69 87 70 88 73 89 71 90 50 91 51 92 59 93 52 94 53 95 57 96
REMARK SMILES IDX 60 97 54 98 55 99 58 100 56 101
REMARK H PARENT 16 6 21 35 80 54 48 65
REMARK Flexibility Score: inf
ROOT
ATOM      1  C   UNL A   1      34.758  31.181  28.015  1.00  0.00     0.023 C 
ENDROOT
BRANCH   1   2
ATOM      2  C   UNL A   1      33.930  30.040  27.408  1.00  0.00     0.116 C 
BRANCH   2   3
ATOM      3  N   UNL A   1      33.939  30.068  25.948  1.00  0.00    -0.356 N 
ATOM      4  C   UNL A   1      33.651  29.105  25.029  1.00  0.00     0.222 C 
ATOM      5  O   UNL A   1      33.834  29.370  23.838  1.00  0.00    -0.275 OA
ATOM      6  H   UNL A   1      34.199  30.935  25.560  1.00  0.00     0.163 HD
BRANCH   4   7
ATOM      7  C   UNL A   1      33.114  27.740  25.421  1.00  0.00     0.135 C 
BRANCH   7   8
ATOM      8  C   UNL A   1      32.717  26.962  24.154  1.00  0.00     0.187 C 
ATOM      9  N   UNL A   1      32.826  24.611  23.400  1.00  0.00    -0.327 N 
ATOM     10  C   UNL A   1      33.388  25.594  24.183  1.00  0.00     0.247 C 
ATOM     11  C   UNL A   1      31.448  24.296  23.792  1.00  0.00     0.149 C 
ATOM     12  O   UNL A   1      34.410  25.355  24.838  1.00  0.00    -0.272 OA
ATOM     13  C   UNL A   1      30.665  25.581  23.797  1.00  0.00     0.133 A 
ATOM     14  C   UNL A   1      30.727  23.220  22.993  1.00  0.00     0.040 C 
ATOM     15  N   UNL A   1      31.279  26.805  23.964  1.00  0.00    -0.313 N 
ATOM     16  N   UNL A   1      29.364  25.722  23.655  1.00  0.00    -0.231 NA
ATOM     17  C   UNL A   1      30.339  27.782  23.740  1.00  0.00     0.069 A 
ATOM     18  C   UNL A   1      29.149  27.073  23.585  1.00  0.00     0.089 A 
ATOM     19  C   UNL A   1      30.393  29.179  23.647  1.00  0.00     0.028 A 
ATOM     20  C   UNL A   1      27.948  27.762  23.363  1.00  0.00     0.030 A 
ATOM     21  C   UNL A   1      29.184  29.850  23.415  1.00  0.00     0.002 A 
ATOM     22  C   UNL A   1      27.979  29.158  23.281  1.00  0.00     0.002 A 
BRANCH   9  23
ATOM     23  C   UNL A   1      33.730  23.615  22.813  1.00  0.00     0.156 C 
BRANCH  23  24
ATOM     24  C   UNL A   1      34.267  22.678  23.880  1.00  0.00    -0.026 A 
ATOM     25  C   UNL A   1      36.765  23.119  23.382  1.00  0.00     0.044 C 
ATOM     26  C   UNL A   1      35.637  22.380  24.053  1.00  0.00    -0.046 A 
ATOM     27  C   UNL A   1      36.007  21.362  24.956  1.00  0.00     0.004 A 
ATOM     28  C   UNL A   1      35.052  20.660  25.688  1.00  0.00     0.000 A 
ATOM     29  C   UNL A   1      33.331  22.011  24.692  1.00  0.00     0.006 A 
ATOM     30  C   UNL A   1      33.713  21.002  25.571  1.00  0.00     0.000 A 
ENDBRANCH  23  24
ENDBRANCH   9  23
ENDBRANCH   7   8
ENDBRANCH   4   7
ENDBRANCH   2   3
ENDBRANCH   1   2
BRANCH   1  31
ATOM     31  C   UNL A   1      36.276  31.012  27.939  1.00  0.00     0.023 C 
BRANCH  31  32
ATOM     32  C   UNL A   1      36.777  29.602  28.280  1.00  0.00     0.116 C 
BRANCH  32  33
ATOM     33  N   UNL A   1      36.828  29.390  29.718  1.00  0.00    -0.352 N 
ATOM     34  C   UNL A   1      37.808  28.858  30.520  1.00  0.00     0.251 C 
ATOM     35  H   UNL A   1      36.019  29.676  30.200  1.00  0.00     0.163 HD
ATOM     36  O   UNL A   1      37.429  28.243  31.519  1.00  0.00    -0.269 OA
BRANCH  34  37
ATOM     37  C   UNL A   1      39.277  28.990  30.280  1.00  0.00     0.039 A 
ATOM     38  C   UNL A   1      40.073  29.346  31.381  1.00  0.00     0.014 A 
ATOM     39  C   UNL A   1      39.899  28.907  29.032  1.00  0.00     0.014 A 
ATOM     40  C   UNL A   1      41.460  29.534  31.255  1.00  0.00     0.010 A 
ATOM     41  C   UNL A   1      41.298  29.096  28.909  1.00  0.00     0.010 A 
ATOM     42  C   UNL A   1      42.105  29.369  30.021  1.00  0.00    -0.014 A 
BRANCH  42  43
ATOM     43  C   UNL A   1      43.576  29.109  30.074  1.00  0.00     0.031 A 
ATOM     44  C   UNL A   1      43.866  28.203  31.250  1.00  0.00     0.074 A 
ATOM     45  C   UNL A   1      44.533  28.890  29.125  1.00  0.00     0.049 A 
ATOM     46  N   UNL A   1      43.594  26.935  31.188  1.00  0.00    -0.248 NA
ATOM     47  C   UNL A   1      44.321  28.626  32.571  1.00  0.00     0.031 C 
ATOM     48  C   UNL A   1      45.954  29.150  29.405  1.00  0.00     0.029 A 
ATOM     49  N   UNL A   1      44.556  28.447  27.799  1.00  0.00    -0.354 N 
ATOM     50  C   UNL A   1      44.091  26.341  32.334  1.00  0.00     0.074 A 
ATOM     51  C   UNL A   1      44.401  27.446  33.221  1.00  0.00     0.031 C 
ATOM     52  C   UNL A   1      46.714  28.793  28.350  1.00  0.00     0.029 A 
ATOM     53  C   UNL A   1      45.869  28.159  27.343  1.00  0.00     0.049 A 
ATOM     54  H   UNL A   1      43.750  28.345  27.242  1.00  0.00     0.167 HD
ATOM     55  C   UNL A   1      44.441  25.012  32.311  1.00  0.00     0.037 A 
ATOM     56  C   UNL A   1      46.354  27.309  26.381  1.00  0.00     0.037 A 
ATOM     57  C   UNL A   1      44.610  24.621  30.933  1.00  0.00     0.049 A 
ATOM     58  C   UNL A   1      45.304  26.378  25.860  1.00  0.00     0.074 A 
ATOM     59  C   UNL A   1      45.725  24.987  30.226  1.00  0.00     0.029 A 
ATOM     60  N   UNL A   1      43.633  24.188  30.043  1.00  0.00    -0.354 N 
ATOM     61  N   UNL A   1      45.207  25.160  26.309  1.00  0.00    -0.248 NA
ATOM     62  C   UNL A   1      44.157  26.765  25.038  1.00  0.00     0.031 C 
ATOM     63  C   UNL A   1      45.247  25.127  28.947  1.00  0.00     0.029 A 
ATOM     64  C   UNL A   1      44.020  24.527  28.741  1.00  0.00     0.049 A 
ATOM     65  H   UNL A   1      42.804  23.718  30.288  1.00  0.00     0.167 HD
ATOM     66  C   UNL A   1      43.848  24.931  26.375  1.00  0.00     0.074 A 
ATOM     67  C   UNL A   1      43.299  25.768  25.316  1.00  0.00     0.031 C 
ATOM     68  C   UNL A   1      43.200  24.499  27.517  1.00  0.00     0.037 A 
BRANCH  55  69
ATOM     69  C   UNL A   1      45.201  24.217  33.347  1.00  0.00     0.064 A 
ATOM     70  C   UNL A   1      46.531  24.588  33.703  1.00  0.00     0.173 A 
ATOM     71  C   UNL A   1      44.707  23.075  33.983  1.00  0.00     0.173 A 
ATOM     72  F   UNL A   1      47.167  25.617  33.127  1.00  0.00    -0.203 F 
ATOM     73  C   UNL A   1      47.278  23.906  34.656  1.00  0.00     0.198 A 
ATOM     74  C   UNL A   1      45.468  22.383  34.935  1.00  0.00     0.198 A 
ATOM     75  F   UNL A   1      43.494  22.591  33.677  1.00  0.00    -0.203 F 
ATOM     76  F   UNL A   1      48.517  24.325  34.953  1.00  0.00    -0.200 F 
ATOM     77  C   UNL A   1      46.746  22.801  35.275  1.00  0.00     0.200 A 
ATOM     78  F   UNL A   1      44.960  21.290  35.523  1.00  0.00    -0.200 F 
ATOM     79  F   UNL A   1      47.471  22.129  36.180  1.00  0.00    -0.200 F 
ENDBRANCH  55  69
BRANCH  56  80
ATOM     80  C   UNL A   1      47.790  26.828  26.297  1.00  0.00     0.064 A 
ATOM     81  C   UNL A   1      48.541  27.014  25.133  1.00  0.00     0.173 A 
ATOM     82  C   UNL A   1      48.437  26.082  27.311  1.00  0.00     0.173 A 
ATOM     83  F   UNL A   1      48.031  27.731  24.121  1.00  0.00    -0.203 F 
ATOM     84  C   UNL A   1      49.826  26.460  24.985  1.00  0.00     0.198 A 
ATOM     85  C   UNL A   1      49.697  25.504  27.158  1.00  0.00     0.198 A 
ATOM     86  F   UNL A   1      47.903  25.905  28.514  1.00  0.00    -0.203 F 
ATOM     87  F   UNL A   1      50.517  26.669  23.857  1.00  0.00    -0.200 F 
ATOM     88  C   UNL A   1      50.393  25.690  25.989  1.00  0.00     0.200 A 
ATOM     89  F   UNL A   1      50.224  24.780  28.156  1.00  0.00    -0.200 F 
ATOM     90  F   UNL A   1      51.608  25.143  25.839  1.00  0.00    -0.200 F 
ENDBRANCH  56  80
BRANCH  68  91
ATOM     91  C   UNL A   1      41.711  24.337  27.474  1.00  0.00     0.064 A 
ATOM     92  C   UNL A   1      41.109  23.295  26.742  1.00  0.00     0.173 A 
ATOM     93  C   UNL A   1      40.833  25.216  28.122  1.00  0.00     0.173 A 
ATOM     94  F   UNL A   1      41.867  22.358  26.150  1.00  0.00    -0.203 F 
ATOM     95  C   UNL A   1      39.726  23.216  26.573  1.00  0.00     0.198 A 
ATOM     96  C   UNL A   1      39.453  25.134  27.960  1.00  0.00     0.198 A 
ATOM     97  F   UNL A   1      41.287  26.183  28.926  1.00  0.00    -0.203 F 
ATOM     98  F   UNL A   1      39.202  22.249  25.807  1.00  0.00    -0.200 F 
ATOM     99  C   UNL A   1      38.898  24.149  27.167  1.00  0.00     0.200 A 
ATOM    100  F   UNL A   1      38.668  26.036  28.564  1.00  0.00    -0.200 F 
ATOM    101  F   UNL A   1      37.572  24.104  26.982  1.00  0.00    -0.200 F 
ENDBRANCH  68  91
ENDBRANCH  42  43
ENDBRANCH  34  37
ENDBRANCH  32  33
ENDBRANCH  31  32
ENDBRANCH   1  31
TORSDOF 14
ENDMDL
