MODEL 1
REMARK VINA RESULT:     -12.9      0.000      0.000
REMARK SMILES N#C/C(=C\c1ccc(Oc2ccccc2)cc1Cl)C(=O)NCCCCNC(=O)c1ccc(-c2c3nc(c(-c4c(F)c(F)c(F)c(F)c4F)c4ccc([nH]4)c(-c4c(F)c(F)c(F)c(F)c4F)c4nc(c(-c5c(F)c(F)c(F)c(F)c5F)c5ccc2[nH]5)C=C4)C=C3)cc1
REMARK SMILES IDX 23 1 22 2 21 3 19 4 20 5 3 7 4 8 2 9 1 10 5 11 6 12 17 13
REMARK SMILES IDX 7 14 16 15 18 16 8 17 9 18 10 19 11 20 15 21 12 22 14 23
REMARK SMILES IDX 13 24 24 25 25 26 26 27 27 28 28 30 29 31 30 32 91 33 31 34
REMARK SMILES IDX 90 35 32 36 33 37 34 38 84 39 35 40 89 41 83 42 85 43 36 44
REMARK SMILES IDX 88 45 82 46 81 47 37 49 69 50 49 51 68 52 50 53 53 54 67 55
REMARK SMILES IDX 86 56 51 57 52 58 66 60 87 61 54 62 38 63 39 64 47 65 40 66
REMARK SMILES IDX 41 67 45 68 48 69 42 70 43 71 46 72 44 73 70 74 71 75 79 76
REMARK SMILES IDX 72 77 73 78 77 79 80 80 74 81 75 82 78 83 76 84 55 85 56 86
REMARK SMILES IDX 64 87 57 88 58 89 62 90 65 91 59 92 60 93 63 94 61 95
REMARK H PARENT 21 6 26 29 85 48 53 59
REMARK Flexibility Score: inf
ROOT
ATOM      1  C   UNL A   1      32.223  30.228  26.709  1.00  0.00     0.023 C 
ENDROOT
BRANCH   1   2
ATOM      2  C   UNL A   1      31.863  29.542  25.387  1.00  0.00     0.116 C 
BRANCH   2   3
ATOM      3  N   UNL A   1      32.966  29.589  24.446  1.00  0.00    -0.351 N 
ATOM      4  C   UNL A   1      33.712  28.616  23.851  1.00  0.00     0.261 C 
ATOM      5  O   UNL A   1      34.560  28.985  23.037  1.00  0.00    -0.268 OA
ATOM      6  H   UNL A   1      33.225  30.502  24.185  1.00  0.00     0.163 HD
BRANCH   4   7
ATOM      7  C   UNL A   1      33.530  27.162  24.124  1.00  0.00     0.117 C 
ATOM      8  C   UNL A   1      33.604  26.544  25.326  1.00  0.00     0.035 C 
BRANCH   7   9
ATOM      9  C   UNL A   1      33.502  26.224  22.929  1.00  0.00     0.105 C 
ATOM     10  N   UNL A   1      33.479  25.445  21.937  1.00  0.00    -0.192 NA
ENDBRANCH   7   9
BRANCH   8  11
ATOM     11  C   UNL A   1      33.441  25.085  25.535  1.00  0.00    -0.005 A 
ATOM     12  C   UNL A   1      34.607  24.305  25.544  1.00  0.00     0.013 A 
ATOM     13  C   UNL A   1      32.208  24.450  25.767  1.00  0.00     0.052 A 
ATOM     14  C   UNL A   1      34.541  22.935  25.818  1.00  0.00     0.048 A 
ATOM     15  C   UNL A   1      32.155  23.094  26.104  1.00  0.00     0.068 A 
ATOM     16  Cl  UNL A   1      30.703  25.294  25.613  1.00  0.00    -0.084 Cl
ATOM     17  C   UNL A   1      33.320  22.326  26.120  1.00  0.00     0.128 A 
BRANCH  17  18
ATOM     18  O   UNL A   1      33.401  20.976  26.397  1.00  0.00    -0.457 OA
BRANCH  18  19
ATOM     19  C   UNL A   1      33.027  20.076  25.430  1.00  0.00     0.127 A 
ATOM     20  C   UNL A   1      32.910  18.734  25.793  1.00  0.00     0.047 A 
ATOM     21  C   UNL A   1      32.843  20.466  24.103  1.00  0.00     0.047 A 
ATOM     22  C   UNL A   1      32.534  17.790  24.837  1.00  0.00     0.004 A 
ATOM     23  C   UNL A   1      32.441  19.526  23.155  1.00  0.00     0.004 A 
ATOM     24  C   UNL A   1      32.282  18.189  23.524  1.00  0.00     0.000 A 
ENDBRANCH  18  19
ENDBRANCH  17  18
ENDBRANCH   8  11
ENDBRANCH   4   7
ENDBRANCH   2   3
ENDBRANCH   1   2
BRANCH   1  25
ATOM     25  C   UNL A   1      31.888  31.720  26.766  1.00  0.00     0.023 C 
BRANCH  25  26
ATOM     26  C   UNL A   1      32.949  32.594  27.425  1.00  0.00     0.116 C 
BRANCH  26  27
ATOM     27  N   UNL A   1      32.505  33.956  27.682  1.00  0.00    -0.352 N 
ATOM     28  C   UNL A   1      33.026  34.869  28.573  1.00  0.00     0.251 C 
ATOM     29  H   UNL A   1      31.736  34.265  27.151  1.00  0.00     0.163 HD
ATOM     30  O   UNL A   1      32.494  35.952  28.739  1.00  0.00    -0.269 OA
BRANCH  28  31
ATOM     31  C   UNL A   1      34.213  34.487  29.366  1.00  0.00     0.039 A 
ATOM     32  C   UNL A   1      34.021  33.965  30.647  1.00  0.00     0.014 A 
ATOM     33  C   UNL A   1      35.497  34.585  28.823  1.00  0.00     0.014 A 
ATOM     34  C   UNL A   1      35.112  33.458  31.353  1.00  0.00     0.010 A 
ATOM     35  C   UNL A   1      36.574  34.024  29.502  1.00  0.00     0.010 A 
ATOM     36  C   UNL A   1      36.388  33.441  30.765  1.00  0.00    -0.014 A 
BRANCH  36  37
ATOM     37  C   UNL A   1      37.530  32.776  31.437  1.00  0.00     0.031 A 
ATOM     38  C   UNL A   1      38.216  31.607  30.790  1.00  0.00     0.074 A 
ATOM     39  C   UNL A   1      37.892  33.177  32.671  1.00  0.00     0.049 A 
ATOM     40  N   UNL A   1      39.177  30.851  31.258  1.00  0.00    -0.248 NA
ATOM     41  C   UNL A   1      37.743  31.219  29.453  1.00  0.00     0.031 C 
ATOM     42  C   UNL A   1      37.260  34.262  33.427  1.00  0.00     0.029 A 
ATOM     43  N   UNL A   1      38.866  32.709  33.517  1.00  0.00    -0.354 N 
ATOM     44  C   UNL A   1      39.412  29.893  30.283  1.00  0.00     0.074 A 
ATOM     45  C   UNL A   1      38.467  30.134  29.214  1.00  0.00     0.031 C 
ATOM     46  C   UNL A   1      37.870  34.383  34.617  1.00  0.00     0.029 A 
ATOM     47  C   UNL A   1      38.912  33.366  34.723  1.00  0.00     0.049 A 
ATOM     48  H   UNL A   1      39.476  31.973  33.282  1.00  0.00     0.167 HD
ATOM     49  C   UNL A   1      40.345  28.912  30.275  1.00  0.00     0.037 A 
ATOM     50  C   UNL A   1      39.698  33.163  35.797  1.00  0.00     0.037 A 
ATOM     51  C   UNL A   1      41.307  28.699  31.323  1.00  0.00     0.049 A 
ATOM     52  C   UNL A   1      40.734  32.073  35.751  1.00  0.00     0.074 A 
ATOM     53  C   UNL A   1      42.350  27.790  31.363  1.00  0.00     0.029 A 
ATOM     54  N   UNL A   1      41.343  29.403  32.517  1.00  0.00    -0.354 N 
ATOM     55  N   UNL A   1      41.006  31.230  34.785  1.00  0.00    -0.248 NA
ATOM     56  C   UNL A   1      41.577  31.909  36.945  1.00  0.00     0.031 C 
ATOM     57  C   UNL A   1      42.991  27.914  32.600  1.00  0.00     0.029 A 
ATOM     58  C   UNL A   1      42.374  28.930  33.312  1.00  0.00     0.049 A 
ATOM     59  H   UNL A   1      40.727  30.130  32.763  1.00  0.00     0.167 HD
ATOM     60  C   UNL A   1      42.062  30.454  35.242  1.00  0.00     0.074 A 
ATOM     61  C   UNL A   1      42.395  30.938  36.565  1.00  0.00     0.031 C 
ATOM     62  C   UNL A   1      42.696  29.429  34.624  1.00  0.00     0.037 A 
BRANCH  49  63
ATOM     63  C   UNL A   1      40.387  27.994  29.090  1.00  0.00     0.064 A 
ATOM     64  C   UNL A   1      39.631  26.813  29.052  1.00  0.00     0.173 A 
ATOM     65  C   UNL A   1      41.131  28.337  27.952  1.00  0.00     0.173 A 
ATOM     66  F   UNL A   1      38.912  26.437  30.120  1.00  0.00    -0.203 F 
ATOM     67  C   UNL A   1      39.630  26.000  27.921  1.00  0.00     0.198 A 
ATOM     68  C   UNL A   1      41.108  27.535  26.813  1.00  0.00     0.198 A 
ATOM     69  F   UNL A   1      41.867  29.458  27.937  1.00  0.00    -0.203 F 
ATOM     70  F   UNL A   1      38.924  24.862  27.917  1.00  0.00    -0.200 F 
ATOM     71  C   UNL A   1      40.360  26.367  26.800  1.00  0.00     0.200 A 
ATOM     72  F   UNL A   1      41.805  27.896  25.728  1.00  0.00    -0.200 F 
ATOM     73  F   UNL A   1      40.345  25.593  25.706  1.00  0.00    -0.200 F 
ENDBRANCH  49  63
BRANCH  50  74
ATOM     74  C   UNL A   1      39.548  34.012  37.006  1.00  0.00     0.064 A 
ATOM     75  C   UNL A   1      38.793  33.577  38.104  1.00  0.00     0.173 A 
ATOM     76  C   UNL A   1      40.129  35.286  37.080  1.00  0.00     0.173 A 
ATOM     77  F   UNL A   1      38.200  32.374  38.072  1.00  0.00    -0.203 F 
ATOM     78  C   UNL A   1      38.601  34.393  39.217  1.00  0.00     0.198 A 
ATOM     79  C   UNL A   1      39.960  36.091  38.205  1.00  0.00     0.198 A 
ATOM     80  F   UNL A   1      40.866  35.748  36.059  1.00  0.00    -0.203 F 
ATOM     81  F   UNL A   1      37.829  33.972  40.228  1.00  0.00    -0.200 F 
ATOM     82  C   UNL A   1      39.188  35.648  39.267  1.00  0.00     0.200 A 
ATOM     83  F   UNL A   1      40.540  37.298  38.255  1.00  0.00    -0.200 F 
ATOM     84  F   UNL A   1      38.999  36.435  40.335  1.00  0.00    -0.200 F 
ENDBRANCH  50  74
BRANCH  62  85
ATOM     85  C   UNL A   1      43.829  28.779  35.361  1.00  0.00     0.064 A 
ATOM     86  C   UNL A   1      45.152  29.215  35.198  1.00  0.00     0.173 A 
ATOM     87  C   UNL A   1      43.585  27.737  36.266  1.00  0.00     0.173 A 
ATOM     88  F   UNL A   1      45.437  30.198  34.331  1.00  0.00    -0.203 F 
ATOM     89  C   UNL A   1      46.193  28.614  35.899  1.00  0.00     0.198 A 
ATOM     90  C   UNL A   1      44.624  27.156  36.986  1.00  0.00     0.198 A 
ATOM     91  F   UNL A   1      42.335  27.288  36.462  1.00  0.00    -0.203 F 
ATOM     92  F   UNL A   1      47.455  29.016  35.695  1.00  0.00    -0.200 F 
ATOM     93  C   UNL A   1      45.928  27.590  36.797  1.00  0.00     0.200 A 
ATOM     94  F   UNL A   1      44.366  26.175  37.862  1.00  0.00    -0.200 F 
ATOM     95  F   UNL A   1      46.931  27.017  37.476  1.00  0.00    -0.200 F 
ENDBRANCH  62  85
ENDBRANCH  36  37
ENDBRANCH  28  31
ENDBRANCH  26  27
ENDBRANCH  25  26
ENDBRANCH   1  25
TORSDOF 15
ENDMDL
MODEL 2
REMARK VINA RESULT:     -12.9      0.411      1.190
REMARK SMILES N#C/C(=C\c1ccc(Oc2ccccc2)cc1Cl)C(=O)NCCCCNC(=O)c1ccc(-c2c3nc(c(-c4c(F)c(F)c(F)c(F)c4F)c4ccc([nH]4)c(-c4c(F)c(F)c(F)c(F)c4F)c4nc(c(-c5c(F)c(F)c(F)c(F)c5F)c5ccc2[nH]5)C=C4)C=C3)cc1
REMARK SMILES IDX 23 1 22 2 21 3 19 4 20 5 3 7 4 8 2 9 1 10 5 11 6 12 17 13
REMARK SMILES IDX 7 14 16 15 18 16 8 17 9 18 10 19 11 20 15 21 12 22 14 23
REMARK SMILES IDX 13 24 24 25 25 26 26 27 27 28 28 30 29 31 30 32 91 33 31 34
REMARK SMILES IDX 90 35 32 36 33 37 34 38 84 39 35 40 89 41 83 42 85 43 36 44
REMARK SMILES IDX 88 45 82 46 81 47 37 49 69 50 49 51 68 52 50 53 53 54 67 55
REMARK SMILES IDX 86 56 51 57 52 58 66 60 87 61 54 62 38 63 39 64 47 65 40 66
REMARK SMILES IDX 41 67 45 68 48 69 42 70 43 71 46 72 44 73 70 74 71 75 79 76
REMARK SMILES IDX 72 77 73 78 77 79 80 80 74 81 75 82 78 83 76 84 55 85 56 86
REMARK SMILES IDX 64 87 57 88 58 89 62 90 65 91 59 92 60 93 63 94 61 95
REMARK H PARENT 21 6 26 29 85 48 53 59
REMARK Flexibility Score: inf
ROOT
ATOM      1  C   UNL A   1      32.175  30.062  26.825  1.00  0.00     0.023 C 
ENDROOT
BRANCH   1   2
ATOM      2  C   UNL A   1      31.822  29.286  25.551  1.00  0.00     0.116 C 
BRANCH   2   3
ATOM      3  N   UNL A   1      32.798  29.513  24.502  1.00  0.00    -0.351 N 
ATOM      4  C   UNL A   1      33.562  28.666  23.756  1.00  0.00     0.261 C 
ATOM      5  O   UNL A   1      34.270  29.176  22.887  1.00  0.00    -0.268 OA
ATOM      6  H   UNL A   1      32.935  30.463  24.287  1.00  0.00     0.163 HD
BRANCH   4   7
ATOM      7  C   UNL A   1      33.556  27.186  23.932  1.00  0.00     0.117 C 
ATOM      8  C   UNL A   1      33.824  26.500  25.068  1.00  0.00     0.035 C 
BRANCH   7   9
ATOM      9  C   UNL A   1      33.487  26.332  22.677  1.00  0.00     0.105 C 
ATOM     10  N   UNL A   1      33.429  25.623  21.635  1.00  0.00    -0.192 NA
ENDBRANCH   7   9
BRANCH   8  11
ATOM     11  C   UNL A   1      33.830  25.022  25.178  1.00  0.00    -0.005 A 
ATOM     12  C   UNL A   1      35.013  24.357  24.824  1.00  0.00     0.013 A 
ATOM     13  C   UNL A   1      32.749  24.258  25.653  1.00  0.00     0.052 A 
ATOM     14  C   UNL A   1      35.123  22.972  24.980  1.00  0.00     0.048 A 
ATOM     15  C   UNL A   1      32.887  22.883  25.869  1.00  0.00     0.068 A 
ATOM     16  Cl  UNL A   1      31.197  24.963  25.959  1.00  0.00    -0.084 Cl
ATOM     17  C   UNL A   1      34.071  22.230  25.522  1.00  0.00     0.128 A 
BRANCH  17  18
ATOM     18  O   UNL A   1      34.321  20.878  25.647  1.00  0.00    -0.457 OA
BRANCH  18  19
ATOM     19  C   UNL A   1      33.751  20.012  24.747  1.00  0.00     0.127 A 
ATOM     20  C   UNL A   1      34.272  18.720  24.659  1.00  0.00     0.047 A 
ATOM     21  C   UNL A   1      32.734  20.422  23.884  1.00  0.00     0.047 A 
ATOM     22  C   UNL A   1      33.721  17.812  23.755  1.00  0.00     0.004 A 
ATOM     23  C   UNL A   1      32.166  19.504  23.000  1.00  0.00     0.004 A 
ATOM     24  C   UNL A   1      32.657  18.199  22.940  1.00  0.00     0.000 A 
ENDBRANCH  18  19
ENDBRANCH  17  18
ENDBRANCH   8  11
ENDBRANCH   4   7
ENDBRANCH   2   3
ENDBRANCH   1   2
BRANCH   1  25
ATOM     25  C   UNL A   1      31.892  31.564  26.756  1.00  0.00     0.023 C 
BRANCH  25  26
ATOM     26  C   UNL A   1      32.964  32.452  27.377  1.00  0.00     0.116 C 
BRANCH  26  27
ATOM     27  N   UNL A   1      32.522  33.816  27.624  1.00  0.00    -0.352 N 
ATOM     28  C   UNL A   1      33.045  34.735  28.507  1.00  0.00     0.251 C 
ATOM     29  H   UNL A   1      31.752  34.120  27.092  1.00  0.00     0.163 HD
ATOM     30  O   UNL A   1      32.514  35.820  28.666  1.00  0.00    -0.269 OA
BRANCH  28  31
ATOM     31  C   UNL A   1      34.233  34.358  29.302  1.00  0.00     0.039 A 
ATOM     32  C   UNL A   1      34.040  33.797  30.566  1.00  0.00     0.014 A 
ATOM     33  C   UNL A   1      35.520  34.501  28.775  1.00  0.00     0.014 A 
ATOM     34  C   UNL A   1      35.136  33.296  31.269  1.00  0.00     0.010 A 
ATOM     35  C   UNL A   1      36.602  33.945  29.449  1.00  0.00     0.010 A 
ATOM     36  C   UNL A   1      36.418  33.323  30.694  1.00  0.00    -0.014 A 
BRANCH  36  37
ATOM     37  C   UNL A   1      37.569  32.666  31.358  1.00  0.00     0.031 A 
ATOM     38  C   UNL A   1      38.256  31.499  30.710  1.00  0.00     0.074 A 
ATOM     39  C   UNL A   1      37.938  33.073  32.589  1.00  0.00     0.049 A 
ATOM     40  N   UNL A   1      39.224  30.749  31.173  1.00  0.00    -0.248 NA
ATOM     41  C   UNL A   1      37.774  31.104  29.378  1.00  0.00     0.031 C 
ATOM     42  C   UNL A   1      37.306  34.156  33.347  1.00  0.00     0.029 A 
ATOM     43  N   UNL A   1      38.921  32.613  33.429  1.00  0.00    -0.354 N 
ATOM     44  C   UNL A   1      39.456  29.789  30.198  1.00  0.00     0.074 A 
ATOM     45  C   UNL A   1      38.502  30.023  29.136  1.00  0.00     0.031 C 
ATOM     46  C   UNL A   1      37.925  34.284  34.531  1.00  0.00     0.029 A 
ATOM     47  C   UNL A   1      38.973  33.273  34.632  1.00  0.00     0.049 A 
ATOM     48  H   UNL A   1      39.532  31.879  33.191  1.00  0.00     0.167 HD
ATOM     49  C   UNL A   1      40.394  28.813  30.186  1.00  0.00     0.037 A 
ATOM     50  C   UNL A   1      39.769  33.077  35.701  1.00  0.00     0.037 A 
ATOM     51  C   UNL A   1      41.366  28.608  31.228  1.00  0.00     0.049 A 
ATOM     52  C   UNL A   1      40.810  31.992  35.649  1.00  0.00     0.074 A 
ATOM     53  C   UNL A   1      42.413  27.704  31.262  1.00  0.00     0.029 A 
ATOM     54  N   UNL A   1      41.407  29.316  32.419  1.00  0.00    -0.354 N 
ATOM     55  N   UNL A   1      41.078  31.148  34.684  1.00  0.00    -0.248 NA
ATOM     56  C   UNL A   1      41.662  31.836  36.837  1.00  0.00     0.031 C 
ATOM     57  C   UNL A   1      43.063  27.836  32.493  1.00  0.00     0.029 A 
ATOM     58  C   UNL A   1      42.447  28.850  33.208  1.00  0.00     0.049 A 
ATOM     59  H   UNL A   1      40.790  30.041  32.668  1.00  0.00     0.167 HD
ATOM     60  C   UNL A   1      42.142  30.379  35.135  1.00  0.00     0.074 A 
ATOM     61  C   UNL A   1      42.483  30.869  36.454  1.00  0.00     0.031 C 
ATOM     62  C   UNL A   1      42.776  29.355  34.515  1.00  0.00     0.037 A 
BRANCH  49  63
ATOM     63  C   UNL A   1      40.432  27.892  29.004  1.00  0.00     0.064 A 
ATOM     64  C   UNL A   1      39.668  26.715  28.967  1.00  0.00     0.173 A 
ATOM     65  C   UNL A   1      41.179  28.227  27.866  1.00  0.00     0.173 A 
ATOM     66  F   UNL A   1      38.946  26.347  30.036  1.00  0.00    -0.203 F 
ATOM     67  C   UNL A   1      39.663  25.900  27.839  1.00  0.00     0.198 A 
ATOM     68  C   UNL A   1      41.152  27.422  26.729  1.00  0.00     0.198 A 
ATOM     69  F   UNL A   1      41.922  29.344  27.849  1.00  0.00    -0.203 F 
ATOM     70  F   UNL A   1      38.950  24.766  27.837  1.00  0.00    -0.200 F 
ATOM     71  C   UNL A   1      40.397  26.259  26.718  1.00  0.00     0.200 A 
ATOM     72  F   UNL A   1      41.852  27.776  25.643  1.00  0.00    -0.200 F 
ATOM     73  F   UNL A   1      40.378  25.482  25.626  1.00  0.00    -0.200 F 
ENDBRANCH  49  63
BRANCH  50  74
ATOM     74  C   UNL A   1      39.623  33.929  36.909  1.00  0.00     0.064 A 
ATOM     75  C   UNL A   1      38.836  33.516  37.992  1.00  0.00     0.173 A 
ATOM     76  C   UNL A   1      40.242  35.185  36.995  1.00  0.00     0.173 A 
ATOM     77  F   UNL A   1      38.206  32.332  37.948  1.00  0.00    -0.203 F 
ATOM     78  C   UNL A   1      38.650  34.337  39.103  1.00  0.00     0.198 A 
ATOM     79  C   UNL A   1      40.078  35.993  38.117  1.00  0.00     0.198 A 
ATOM     80  F   UNL A   1      41.011  35.625  35.987  1.00  0.00    -0.203 F 
ATOM     81  F   UNL A   1      37.847  33.939  40.099  1.00  0.00    -0.200 F 
ATOM     82  C   UNL A   1      39.274  35.573  39.166  1.00  0.00     0.200 A 
ATOM     83  F   UNL A   1      40.694  37.181  38.180  1.00  0.00    -0.200 F 
ATOM     84  F   UNL A   1      39.091  36.364  40.231  1.00  0.00    -0.200 F 
ENDBRANCH  50  74
BRANCH  62  85
ATOM     85  C   UNL A   1      43.918  28.714  35.245  1.00  0.00     0.064 A 
ATOM     86  C   UNL A   1      43.716  27.630  36.111  1.00  0.00     0.173 A 
ATOM     87  C   UNL A   1      45.232  29.163  35.047  1.00  0.00     0.173 A 
ATOM     88  F   UNL A   1      42.476  27.175  36.346  1.00  0.00    -0.203 F 
ATOM     89  C   UNL A   1      44.787  27.034  36.772  1.00  0.00     0.198 A 
ATOM     90  C   UNL A   1      46.303  28.548  35.686  1.00  0.00     0.198 A 
ATOM     91  F   UNL A   1      45.477  30.193  34.222  1.00  0.00    -0.203 F 
ATOM     92  F   UNL A   1      44.566  26.028  37.630  1.00  0.00    -0.200 F 
ATOM     93  C   UNL A   1      46.079  27.488  36.553  1.00  0.00     0.200 A 
ATOM     94  F   UNL A   1      47.552  28.980  35.466  1.00  0.00    -0.200 F 
ATOM     95  F   UNL A   1      47.110  26.909  37.184  1.00  0.00    -0.200 F 
ENDBRANCH  62  85
ENDBRANCH  36  37
ENDBRANCH  28  31
ENDBRANCH  26  27
ENDBRANCH  25  26
ENDBRANCH   1  25
TORSDOF 15
ENDMDL
MODEL 3
REMARK VINA RESULT:     -12.8      5.655     11.279
REMARK SMILES N#C/C(=C\c1ccc(Oc2ccccc2)cc1Cl)C(=O)NCCCCNC(=O)c1ccc(-c2c3nc(c(-c4c(F)c(F)c(F)c(F)c4F)c4ccc([nH]4)c(-c4c(F)c(F)c(F)c(F)c4F)c4nc(c(-c5c(F)c(F)c(F)c(F)c5F)c5ccc2[nH]5)C=C4)C=C3)cc1
REMARK SMILES IDX 23 1 22 2 21 3 19 4 20 5 3 7 4 8 2 9 1 10 5 11 6 12 17 13
REMARK SMILES IDX 7 14 16 15 18 16 8 17 9 18 10 19 11 20 15 21 12 22 14 23
REMARK SMILES IDX 13 24 24 25 25 26 26 27 27 28 28 30 29 31 30 32 91 33 31 34
REMARK SMILES IDX 90 35 32 36 33 37 34 38 84 39 35 40 89 41 83 42 85 43 36 44
REMARK SMILES IDX 88 45 82 46 81 47 37 49 69 50 49 51 68 52 50 53 53 54 67 55
REMARK SMILES IDX 86 56 51 57 52 58 66 60 87 61 54 62 38 63 39 64 47 65 40 66
REMARK SMILES IDX 41 67 45 68 48 69 42 70 43 71 46 72 44 73 70 74 71 75 79 76
REMARK SMILES IDX 72 77 73 78 77 79 80 80 74 81 75 82 78 83 76 84 55 85 56 86
REMARK SMILES IDX 64 87 57 88 58 89 62 90 65 91 59 92 60 93 63 94 61 95
REMARK H PARENT 21 6 26 29 85 48 53 59
REMARK Flexibility Score: inf
ROOT
ATOM      1  C   UNL A   1      37.185  21.497  24.637  1.00  0.00     0.023 C 
ENDROOT
BRANCH   1   2
ATOM      2  C   UNL A   1      35.678  21.443  24.910  1.00  0.00     0.116 C 
BRANCH   2   3
ATOM      3  N   UNL A   1      35.376  21.753  26.294  1.00  0.00    -0.351 N 
ATOM      4  C   UNL A   1      34.607  22.716  26.877  1.00  0.00     0.261 C 
ATOM      5  O   UNL A   1      34.507  22.681  28.104  1.00  0.00    -0.268 OA
ATOM      6  H   UNL A   1      35.811  21.150  26.939  1.00  0.00     0.163 HD
BRANCH   4   7
ATOM      7  C   UNL A   1      33.887  23.768  26.104  1.00  0.00     0.117 C 
ATOM      8  C   UNL A   1      34.425  24.646  25.225  1.00  0.00     0.035 C 
BRANCH   7   9
ATOM      9  C   UNL A   1      32.451  24.069  26.503  1.00  0.00     0.105 C 
ATOM     10  N   UNL A   1      31.260  24.319  26.834  1.00  0.00    -0.192 NA
ENDBRANCH   7   9
BRANCH   8  11
ATOM     11  C   UNL A   1      33.660  25.691  24.504  1.00  0.00    -0.005 A 
ATOM     12  C   UNL A   1      33.618  26.968  25.084  1.00  0.00     0.013 A 
ATOM     13  C   UNL A   1      33.022  25.496  23.267  1.00  0.00     0.052 A 
ATOM     14  C   UNL A   1      32.988  28.027  24.422  1.00  0.00     0.048 A 
ATOM     15  C   UNL A   1      32.451  26.572  22.580  1.00  0.00     0.068 A 
ATOM     16  Cl  UNL A   1      32.877  23.924  22.553  1.00  0.00    -0.084 Cl
ATOM     17  C   UNL A   1      32.419  27.841  23.159  1.00  0.00     0.128 A 
BRANCH  17  18
ATOM     18  O   UNL A   1      31.855  28.974  22.607  1.00  0.00    -0.457 OA
BRANCH  18  19
ATOM     19  C   UNL A   1      30.487  29.076  22.556  1.00  0.00     0.127 A 
ATOM     20  C   UNL A   1      29.933  30.063  21.740  1.00  0.00     0.047 A 
ATOM     21  C   UNL A   1      29.666  28.275  23.351  1.00  0.00     0.047 A 
ATOM     22  C   UNL A   1      28.546  30.199  21.664  1.00  0.00     0.004 A 
ATOM     23  C   UNL A   1      28.279  28.395  23.253  1.00  0.00     0.004 A 
ATOM     24  C   UNL A   1      27.721  29.353  22.405  1.00  0.00     0.000 A 
ENDBRANCH  18  19
ENDBRANCH  17  18
ENDBRANCH   8  11
ENDBRANCH   4   7
ENDBRANCH   2   3
ENDBRANCH   1   2
BRANCH   1  25
ATOM     25  C   UNL A   1      37.945  20.221  25.005  1.00  0.00     0.023 C 
BRANCH  25  26
ATOM     26  C   UNL A   1      39.232  20.441  25.793  1.00  0.00     0.116 C 
BRANCH  26  27
ATOM     27  N   UNL A   1      40.106  19.278  25.820  1.00  0.00    -0.352 N 
ATOM     28  C   UNL A   1      41.458  19.233  26.083  1.00  0.00     0.251 C 
ATOM     29  H   UNL A   1      39.677  18.414  25.627  1.00  0.00     0.163 HD
ATOM     30  O   UNL A   1      42.077  18.188  25.988  1.00  0.00    -0.269 OA
BRANCH  28  31
ATOM     31  C   UNL A   1      42.154  20.489  26.430  1.00  0.00     0.039 A 
ATOM     32  C   UNL A   1      42.682  21.267  25.397  1.00  0.00     0.014 A 
ATOM     33  C   UNL A   1      42.228  20.923  27.756  1.00  0.00     0.014 A 
ATOM     34  C   UNL A   1      43.208  22.526  25.685  1.00  0.00     0.010 A 
ATOM     35  C   UNL A   1      42.696  22.204  28.034  1.00  0.00     0.010 A 
ATOM     36  C   UNL A   1      43.175  23.022  26.999  1.00  0.00    -0.014 A 
BRANCH  36  37
ATOM     37  C   UNL A   1      43.593  24.412  27.303  1.00  0.00     0.031 A 
ATOM     38  C   UNL A   1      42.593  25.416  27.798  1.00  0.00     0.074 A 
ATOM     39  C   UNL A   1      44.863  24.787  27.049  1.00  0.00     0.049 A 
ATOM     40  N   UNL A   1      42.754  26.692  28.042  1.00  0.00    -0.248 NA
ATOM     41  C   UNL A   1      41.223  24.929  28.025  1.00  0.00     0.031 C 
ATOM     42  C   UNL A   1      45.910  23.917  26.509  1.00  0.00     0.029 A 
ATOM     43  N   UNL A   1      45.485  26.002  27.194  1.00  0.00    -0.354 N 
ATOM     44  C   UNL A   1      41.509  27.161  28.434  1.00  0.00     0.074 A 
ATOM     45  C   UNL A   1      40.590  26.045  28.358  1.00  0.00     0.031 C 
ATOM     46  C   UNL A   1      47.045  24.621  26.380  1.00  0.00     0.029 A 
ATOM     47  C   UNL A   1      46.800  25.999  26.795  1.00  0.00     0.049 A 
ATOM     48  H   UNL A   1      45.032  26.800  27.551  1.00  0.00     0.167 HD
ATOM     49  C   UNL A   1      41.170  28.408  28.838  1.00  0.00     0.037 A 
ATOM     50  C   UNL A   1      47.701  26.999  26.758  1.00  0.00     0.037 A 
ATOM     51  C   UNL A   1      42.093  29.506  28.948  1.00  0.00     0.049 A 
ATOM     52  C   UNL A   1      47.295  28.369  27.227  1.00  0.00     0.074 A 
ATOM     53  C   UNL A   1      41.862  30.780  29.435  1.00  0.00     0.029 A 
ATOM     54  N   UNL A   1      43.425  29.457  28.564  1.00  0.00    -0.354 N 
ATOM     55  N   UNL A   1      46.136  28.778  27.681  1.00  0.00    -0.248 NA
ATOM     56  C   UNL A   1      48.326  29.417  27.182  1.00  0.00     0.031 C 
ATOM     57  C   UNL A   1      43.043  31.518  29.306  1.00  0.00     0.029 A 
ATOM     58  C   UNL A   1      44.021  30.690  28.778  1.00  0.00     0.049 A 
ATOM     59  H   UNL A   1      43.878  28.667  28.194  1.00  0.00     0.167 HD
ATOM     60  C   UNL A   1      46.304  30.119  27.997  1.00  0.00     0.074 A 
ATOM     61  C   UNL A   1      47.681  30.452  27.702  1.00  0.00     0.031 C 
ATOM     62  C   UNL A   1      45.396  31.000  28.484  1.00  0.00     0.037 A 
BRANCH  49  63
ATOM     63  C   UNL A   1      39.738  28.659  29.208  1.00  0.00     0.064 A 
ATOM     64  C   UNL A   1      39.271  28.451  30.514  1.00  0.00     0.173 A 
ATOM     65  C   UNL A   1      38.843  29.185  28.265  1.00  0.00     0.173 A 
ATOM     66  F   UNL A   1      40.087  27.939  31.448  1.00  0.00    -0.203 F 
ATOM     67  C   UNL A   1      37.956  28.747  30.860  1.00  0.00     0.198 A 
ATOM     68  C   UNL A   1      37.534  29.504  28.621  1.00  0.00     0.198 A 
ATOM     69  F   UNL A   1      39.241  29.407  27.004  1.00  0.00    -0.203 F 
ATOM     70  F   UNL A   1      37.524  28.513  32.107  1.00  0.00    -0.200 F 
ATOM     71  C   UNL A   1      37.092  29.282  29.916  1.00  0.00     0.200 A 
ATOM     72  F   UNL A   1      36.704  30.031  27.711  1.00  0.00    -0.200 F 
ATOM     73  F   UNL A   1      35.830  29.583  30.255  1.00  0.00    -0.200 F 
ENDBRANCH  49  63
BRANCH  50  74
ATOM     74  C   UNL A   1      49.081  26.744  26.269  1.00  0.00     0.064 A 
ATOM     75  C   UNL A   1      49.438  27.022  24.943  1.00  0.00     0.173 A 
ATOM     76  C   UNL A   1      50.062  26.193  27.106  1.00  0.00     0.173 A 
ATOM     77  F   UNL A   1      48.528  27.530  24.098  1.00  0.00    -0.203 F 
ATOM     78  C   UNL A   1      50.714  26.731  24.463  1.00  0.00     0.198 A 
ATOM     79  C   UNL A   1      51.345  25.929  26.634  1.00  0.00     0.198 A 
ATOM     80  F   UNL A   1      49.773  25.914  28.386  1.00  0.00    -0.203 F 
ATOM     81  F   UNL A   1      51.010  26.957  23.176  1.00  0.00    -0.200 F 
ATOM     82  C   UNL A   1      51.667  26.188  25.311  1.00  0.00     0.200 A 
ATOM     83  F   UNL A   1      52.268  25.416  27.459  1.00  0.00    -0.200 F 
ATOM     84  F   UNL A   1      52.892  25.905  24.848  1.00  0.00    -0.200 F 
ENDBRANCH  50  74
BRANCH  62  85
ATOM     85  C   UNL A   1      45.870  32.397  28.751  1.00  0.00     0.064 A 
ATOM     86  C   UNL A   1      45.770  33.401  27.778  1.00  0.00     0.173 A 
ATOM     87  C   UNL A   1      46.395  32.743  30.004  1.00  0.00     0.173 A 
ATOM     88  F   UNL A   1      45.290  33.115  26.558  1.00  0.00    -0.203 F 
ATOM     89  C   UNL A   1      46.201  34.698  28.043  1.00  0.00     0.198 A 
ATOM     90  C   UNL A   1      46.799  34.047  30.276  1.00  0.00     0.198 A 
ATOM     91  F   UNL A   1      46.506  31.819  30.971  1.00  0.00    -0.203 F 
ATOM     92  F   UNL A   1      46.138  35.632  27.084  1.00  0.00    -0.200 F 
ATOM     93  C   UNL A   1      46.708  35.021  29.294  1.00  0.00     0.200 A 
ATOM     94  F   UNL A   1      47.278  34.360  31.488  1.00  0.00    -0.200 F 
ATOM     95  F   UNL A   1      47.116  36.272  29.549  1.00  0.00    -0.200 F 
ENDBRANCH  62  85
ENDBRANCH  36  37
ENDBRANCH  28  31
ENDBRANCH  26  27
ENDBRANCH  25  26
ENDBRANCH   1  25
TORSDOF 15
ENDMDL
