MODEL 1
REMARK VINA RESULT:     -11.3      0.000      0.000
REMARK SMILES O=C(C[C@H]1C[N@@H+](CCSc2ccccc2F)CCO1)NCCCCNC(=O)c1ccc(-c2c3nc(c(-c4c(F)c(F)c(F)c(F)c4F)c4ccc([nH]4)c(-c4c(F)c(F)c(F)c(F)c4F)c4nc(c(-c5c(F)c(F)c(F)c(F)c5F)c5ccc2[nH]5)C=C4)C=C3)cc1
REMARK SMILES IDX 21 1 20 2 1 3 2 4 3 6 4 7 5 8 19 9 6 10 18 11 17 12 7 14
REMARK SMILES IDX 8 15 9 16 10 17 11 18 15 19 12 20 14 21 16 22 13 23 22 24
REMARK SMILES IDX 23 25 24 26 25 27 26 28 27 30 28 31 29 32 90 33 30 34 89 35
REMARK SMILES IDX 31 36 32 37 33 38 83 39 34 40 88 41 82 42 84 43 35 44 87 45
REMARK SMILES IDX 81 46 80 47 36 49 68 50 48 51 67 52 49 53 52 54 66 55 85 56
REMARK SMILES IDX 50 57 51 58 65 60 86 61 53 62 37 63 38 64 46 65 39 66 40 67
REMARK SMILES IDX 44 68 47 69 41 70 42 71 45 72 43 73 69 74 70 75 78 76 71 77
REMARK SMILES IDX 72 78 76 79 79 80 73 81 74 82 77 83 75 84 54 85 55 86 63 87
REMARK SMILES IDX 56 88 57 89 61 90 64 91 58 92 59 93 62 94 60 95
REMARK H PARENT 20 5 6 13 25 29 84 48 52 59
REMARK Flexibility Score: inf
ROOT
ATOM      1  C   UNL A   1      36.833  21.797  24.267  1.00  0.00     0.116 C 
ENDROOT
BRANCH   1   2
ATOM      2  N   UNL A   1      35.670  22.608  24.539  1.00  0.00    -0.356 N 
ATOM      3  O   UNL A   1      36.551  23.862  26.237  1.00  0.00    -0.275 OA
ATOM      4  C   UNL A   1      35.618  23.603  25.485  1.00  0.00     0.222 C 
ATOM      5  H   UNL A   1      34.858  22.437  24.009  1.00  0.00     0.163 HD
BRANCH   4   6
ATOM      6  C   UNL A   1      34.270  24.298  25.612  1.00  0.00     0.138 C 
BRANCH   6   7
ATOM      7  C   UNL A   1      33.351  23.611  26.626  1.00  0.00     0.182 C 
ATOM      8  C   UNL A   1      31.922  24.234  26.652  1.00  0.00     0.295 C 
ATOM      9  O   UNL A   1      33.353  22.186  26.473  1.00  0.00    -0.366 OA
ATOM     10  N   UNL A   1      30.966  23.706  25.676  1.00  0.00    -0.330 N 
ATOM     11  C   UNL A   1      32.478  21.745  25.439  1.00  0.00     0.222 C 
ATOM     12  C   UNL A   1      31.059  22.256  25.693  1.00  0.00     0.291 C 
ATOM     13  H   UNL A   1      30.028  23.967  25.981  1.00  0.00     0.348 HD
BRANCH  10  14
ATOM     14  C   UNL A   1      30.838  24.387  24.378  1.00  0.00     0.273 C 
BRANCH  14  15
ATOM     15  C   UNL A   1      30.185  25.786  24.162  1.00  0.00     0.136 C 
BRANCH  15  16
ATOM     16  S   UNL A   1      31.234  27.225  23.639  1.00  0.00    -0.117 SA
BRANCH  16  17
ATOM     17  C   UNL A   1      32.177  27.663  25.091  1.00  0.00     0.043 A 
ATOM     18  C   UNL A   1      31.476  27.779  26.301  1.00  0.00     0.018 A 
ATOM     19  C   UNL A   1      33.543  27.967  25.086  1.00  0.00     0.136 A 
ATOM     20  C   UNL A   1      32.089  28.337  27.430  1.00  0.00     0.001 A 
ATOM     21  C   UNL A   1      34.168  28.489  26.224  1.00  0.00     0.040 A 
ATOM     22  F   UNL A   1      34.266  27.856  23.961  1.00  0.00    -0.206 F 
ATOM     23  C   UNL A   1      33.428  28.716  27.384  1.00  0.00     0.003 A 
ENDBRANCH  16  17
ENDBRANCH  15  16
ENDBRANCH  14  15
ENDBRANCH  10  14
ENDBRANCH   6   7
ENDBRANCH   4   6
ENDBRANCH   1   2
BRANCH   1  24
ATOM     24  C   UNL A   1      36.736  20.472  25.020  1.00  0.00     0.023 C 
BRANCH  24  25
ATOM     25  C   UNL A   1      37.999  19.596  24.980  1.00  0.00     0.023 C 
BRANCH  25  26
ATOM     26  C   UNL A   1      39.191  20.105  25.786  1.00  0.00     0.116 C 
BRANCH  26  27
ATOM     27  N   UNL A   1      40.246  19.114  25.902  1.00  0.00    -0.352 N 
ATOM     28  C   UNL A   1      41.589  19.281  26.097  1.00  0.00     0.251 C 
ATOM     29  H   UNL A   1      39.949  18.179  25.829  1.00  0.00     0.163 HD
ATOM     30  O   UNL A   1      42.346  18.312  25.992  1.00  0.00    -0.269 OA
BRANCH  28  31
ATOM     31  C   UNL A   1      42.150  20.611  26.406  1.00  0.00     0.039 A 
ATOM     32  C   UNL A   1      42.559  21.427  25.349  1.00  0.00     0.014 A 
ATOM     33  C   UNL A   1      42.299  21.049  27.726  1.00  0.00     0.014 A 
ATOM     34  C   UNL A   1      43.063  22.702  25.609  1.00  0.00     0.010 A 
ATOM     35  C   UNL A   1      42.738  22.347  27.981  1.00  0.00     0.010 A 
ATOM     36  C   UNL A   1      43.125  23.187  26.926  1.00  0.00    -0.014 A 
BRANCH  36  37
ATOM     37  C   UNL A   1      43.578  24.573  27.210  1.00  0.00     0.031 A 
ATOM     38  C   UNL A   1      42.612  25.597  27.737  1.00  0.00     0.074 A 
ATOM     39  C   UNL A   1      44.853  24.921  26.948  1.00  0.00     0.049 A 
ATOM     40  N   UNL A   1      42.810  26.866  27.987  1.00  0.00    -0.248 NA
ATOM     41  C   UNL A   1      41.238  25.142  27.999  1.00  0.00     0.031 C 
ATOM     42  C   UNL A   1      45.877  24.025  26.408  1.00  0.00     0.029 A 
ATOM     43  N   UNL A   1      45.507  26.120  27.097  1.00  0.00    -0.354 N 
ATOM     44  C   UNL A   1      41.589  27.362  28.425  1.00  0.00     0.074 A 
ATOM     45  C   UNL A   1      40.642  26.271  28.360  1.00  0.00     0.031 C 
ATOM     46  C   UNL A   1      47.034  24.695  26.299  1.00  0.00     0.029 A 
ATOM     47  C   UNL A   1      46.827  26.078  26.719  1.00  0.00     0.049 A 
ATOM     48  H   UNL A   1      45.070  26.932  27.443  1.00  0.00     0.167 HD
ATOM     49  C   UNL A   1      41.293  28.608  28.863  1.00  0.00     0.037 A 
ATOM     50  C   UNL A   1      47.764  27.047  26.704  1.00  0.00     0.037 A 
ATOM     51  C   UNL A   1      42.246  29.683  28.954  1.00  0.00     0.049 A 
ATOM     52  C   UNL A   1      47.400  28.429  27.174  1.00  0.00     0.074 A 
ATOM     53  C   UNL A   1      42.051  30.964  29.438  1.00  0.00     0.029 A 
ATOM     54  N   UNL A   1      43.571  29.604  28.553  1.00  0.00    -0.354 N 
ATOM     55  N   UNL A   1      46.255  28.870  27.633  1.00  0.00    -0.248 NA
ATOM     56  C   UNL A   1      48.459  29.448  27.125  1.00  0.00     0.031 C 
ATOM     57  C   UNL A   1      43.242  31.677  29.281  1.00  0.00     0.029 A 
ATOM     58  C   UNL A   1      44.197  30.823  28.754  1.00  0.00     0.049 A 
ATOM     59  H   UNL A   1      44.003  28.801  28.180  1.00  0.00     0.167 HD
ATOM     60  C   UNL A   1      46.460  30.205  27.952  1.00  0.00     0.074 A 
ATOM     61  C   UNL A   1      47.844  30.502  27.646  1.00  0.00     0.031 C 
ATOM     62  C   UNL A   1      45.579  31.104  28.455  1.00  0.00     0.037 A 
BRANCH  49  63
ATOM     63  C   UNL A   1      39.884  28.887  29.298  1.00  0.00     0.064 A 
ATOM     64  C   UNL A   1      39.474  28.603  30.610  1.00  0.00     0.173 A 
ATOM     65  C   UNL A   1      38.915  29.349  28.395  1.00  0.00     0.173 A 
ATOM     66  F   UNL A   1      40.360  28.153  31.513  1.00  0.00    -0.203 F 
ATOM     67  C   UNL A   1      38.145  28.752  30.994  1.00  0.00     0.198 A 
ATOM     68  C   UNL A   1      37.592  29.526  28.791  1.00  0.00     0.198 A 
ATOM     69  F   UNL A   1      39.257  29.644  27.131  1.00  0.00    -0.203 F 
ATOM     70  F   UNL A   1      37.770  28.437  32.242  1.00  0.00    -0.200 F 
ATOM     71  C   UNL A   1      37.205  29.216  30.086  1.00  0.00     0.200 A 
ATOM     72  F   UNL A   1      36.690  29.995  27.918  1.00  0.00    -0.200 F 
ATOM     73  F   UNL A   1      35.926  29.364  30.459  1.00  0.00    -0.200 F 
ENDBRANCH  49  63
BRANCH  50  74
ATOM     74  C   UNL A   1      49.145  26.727  26.257  1.00  0.00     0.064 A 
ATOM     75  C   UNL A   1      50.102  26.212  27.145  1.00  0.00     0.173 A 
ATOM     76  C   UNL A   1      49.541  26.955  24.932  1.00  0.00     0.173 A 
ATOM     77  F   UNL A   1      49.775  25.979  28.424  1.00  0.00    -0.203 F 
ATOM     78  C   UNL A   1      51.407  25.957  26.728  1.00  0.00     0.198 A 
ATOM     79  C   UNL A   1      50.839  26.672  24.510  1.00  0.00     0.198 A 
ATOM     80  F   UNL A   1      48.658  27.427  24.041  1.00  0.00    -0.203 F 
ATOM     81  F   UNL A   1      52.311  25.500  27.605  1.00  0.00    -0.200 F 
ATOM     82  C   UNL A   1      51.773  26.182  25.410  1.00  0.00     0.200 A 
ATOM     83  F   UNL A   1      51.182  26.867  23.229  1.00  0.00    -0.200 F 
ATOM     84  F   UNL A   1      53.025  25.923  25.007  1.00  0.00    -0.200 F 
ENDBRANCH  50  74
BRANCH  62  85
ATOM     85  C   UNL A   1      46.076  32.492  28.735  1.00  0.00     0.064 A 
ATOM     86  C   UNL A   1      46.036  33.474  27.733  1.00  0.00     0.173 A 
ATOM     87  C   UNL A   1      46.671  32.827  29.959  1.00  0.00     0.173 A 
ATOM     88  F   UNL A   1      45.485  33.203  26.540  1.00  0.00    -0.203 F 
ATOM     89  C   UNL A   1      46.596  34.733  27.940  1.00  0.00     0.198 A 
ATOM     90  C   UNL A   1      47.201  34.096  30.173  1.00  0.00     0.198 A 
ATOM     91  F   UNL A   1      46.722  31.926  30.953  1.00  0.00    -0.203 F 
ATOM     92  F   UNL A   1      46.585  35.639  26.953  1.00  0.00    -0.200 F 
ATOM     93  C   UNL A   1      47.175  35.043  29.161  1.00  0.00     0.200 A 
ATOM     94  F   UNL A   1      47.740  34.403  31.362  1.00  0.00    -0.200 F 
ATOM     95  F   UNL A   1      47.707  36.256  29.361  1.00  0.00    -0.200 F 
ENDBRANCH  62  85
ENDBRANCH  36  37
ENDBRANCH  28  31
ENDBRANCH  26  27
ENDBRANCH  25  26
ENDBRANCH  24  25
ENDBRANCH   1  24
TORSDOF 16
ENDMDL
MODEL 2
REMARK VINA RESULT:     -11.3      0.302      1.612
REMARK SMILES O=C(C[C@H]1C[N@@H+](CCSc2ccccc2F)CCO1)NCCCCNC(=O)c1ccc(-c2c3nc(c(-c4c(F)c(F)c(F)c(F)c4F)c4ccc([nH]4)c(-c4c(F)c(F)c(F)c(F)c4F)c4nc(c(-c5c(F)c(F)c(F)c(F)c5F)c5ccc2[nH]5)C=C4)C=C3)cc1
REMARK SMILES IDX 21 1 20 2 1 3 2 4 3 6 4 7 5 8 19 9 6 10 18 11 17 12 7 14
REMARK SMILES IDX 8 15 9 16 10 17 11 18 15 19 12 20 14 21 16 22 13 23 22 24
REMARK SMILES IDX 23 25 24 26 25 27 26 28 27 30 28 31 29 32 90 33 30 34 89 35
REMARK SMILES IDX 31 36 32 37 33 38 83 39 34 40 88 41 82 42 84 43 35 44 87 45
REMARK SMILES IDX 81 46 80 47 36 49 68 50 48 51 67 52 49 53 52 54 66 55 85 56
REMARK SMILES IDX 50 57 51 58 65 60 86 61 53 62 37 63 38 64 46 65 39 66 40 67
REMARK SMILES IDX 44 68 47 69 41 70 42 71 45 72 43 73 69 74 70 75 78 76 71 77
REMARK SMILES IDX 72 78 76 79 79 80 73 81 74 82 77 83 75 84 54 85 55 86 63 87
REMARK SMILES IDX 56 88 57 89 61 90 64 91 58 92 59 93 62 94 60 95
REMARK H PARENT 20 5 6 13 25 29 84 48 52 59
REMARK Flexibility Score: inf
ROOT
ATOM      1  C   UNL A   1      37.032  21.585  24.519  1.00  0.00     0.116 C 
ENDROOT
BRANCH   1   2
ATOM      2  N   UNL A   1      35.803  22.333  24.637  1.00  0.00    -0.356 N 
ATOM      3  O   UNL A   1      36.636  24.124  25.793  1.00  0.00    -0.275 OA
ATOM      4  C   UNL A   1      35.696  23.563  25.241  1.00  0.00     0.222 C 
ATOM      5  H   UNL A   1      34.987  21.936  24.259  1.00  0.00     0.163 HD
BRANCH   4   6
ATOM      6  C   UNL A   1      34.288  24.141  25.274  1.00  0.00     0.138 C 
BRANCH   6   7
ATOM      7  C   UNL A   1      33.428  23.525  26.381  1.00  0.00     0.182 C 
ATOM      8  C   UNL A   1      32.081  24.283  26.579  1.00  0.00     0.295 C 
ATOM      9  O   UNL A   1      33.271  22.110  26.213  1.00  0.00    -0.366 OA
ATOM     10  N   UNL A   1      30.971  23.873  25.717  1.00  0.00    -0.330 N 
ATOM     11  C   UNL A   1      32.243  21.779  25.283  1.00  0.00     0.222 C 
ATOM     12  C   UNL A   1      30.921  22.421  25.707  1.00  0.00     0.291 C 
ATOM     13  H   UNL A   1      30.105  24.217  26.132  1.00  0.00     0.348 HD
BRANCH  10  14
ATOM     14  C   UNL A   1      30.763  24.592  24.450  1.00  0.00     0.273 C 
BRANCH  14  15
ATOM     15  C   UNL A   1      29.895  25.876  24.282  1.00  0.00     0.136 C 
BRANCH  15  16
ATOM     16  S   UNL A   1      30.706  27.492  23.865  1.00  0.00    -0.117 SA
BRANCH  16  17
ATOM     17  C   UNL A   1      31.899  27.760  25.166  1.00  0.00     0.043 A 
ATOM     18  C   UNL A   1      31.403  27.949  26.465  1.00  0.00     0.018 A 
ATOM     19  C   UNL A   1      33.281  27.867  24.964  1.00  0.00     0.136 A 
ATOM     20  C   UNL A   1      32.244  28.390  27.494  1.00  0.00     0.001 A 
ATOM     21  C   UNL A   1      34.130  28.271  26.000  1.00  0.00     0.040 A 
ATOM     22  F   UNL A   1      33.812  27.679  23.746  1.00  0.00    -0.206 F 
ATOM     23  C   UNL A   1      33.604  28.575  27.255  1.00  0.00     0.003 A 
ENDBRANCH  16  17
ENDBRANCH  15  16
ENDBRANCH  14  15
ENDBRANCH  10  14
ENDBRANCH   6   7
ENDBRANCH   4   6
ENDBRANCH   1   2
BRANCH   1  24
ATOM     24  C   UNL A   1      36.822  20.152  25.001  1.00  0.00     0.023 C 
BRANCH  24  25
ATOM     25  C   UNL A   1      38.077  19.264  25.002  1.00  0.00     0.023 C 
BRANCH  25  26
ATOM     26  C   UNL A   1      39.287  19.820  25.749  1.00  0.00     0.116 C 
BRANCH  26  27
ATOM     27  N   UNL A   1      40.376  18.863  25.831  1.00  0.00    -0.352 N 
ATOM     28  C   UNL A   1      41.717  19.071  26.000  1.00  0.00     0.251 C 
ATOM     29  H   UNL A   1      40.107  17.919  25.755  1.00  0.00     0.163 HD
ATOM     30  O   UNL A   1      42.503  18.128  25.868  1.00  0.00    -0.269 OA
BRANCH  28  31
ATOM     31  C   UNL A   1      42.241  20.415  26.312  1.00  0.00     0.039 A 
ATOM     32  C   UNL A   1      42.730  21.203  25.266  1.00  0.00     0.014 A 
ATOM     33  C   UNL A   1      42.278  20.895  27.625  1.00  0.00     0.014 A 
ATOM     34  C   UNL A   1      43.202  22.489  25.527  1.00  0.00     0.010 A 
ATOM     35  C   UNL A   1      42.685  22.205  27.874  1.00  0.00     0.010 A 
ATOM     36  C   UNL A   1      43.151  23.015  26.828  1.00  0.00    -0.014 A 
BRANCH  36  37
ATOM     37  C   UNL A   1      43.570  24.413  27.104  1.00  0.00     0.031 A 
ATOM     38  C   UNL A   1      42.574  25.421  27.606  1.00  0.00     0.074 A 
ATOM     39  C   UNL A   1      44.841  24.787  26.858  1.00  0.00     0.049 A 
ATOM     40  N   UNL A   1      42.741  26.698  27.845  1.00  0.00    -0.248 NA
ATOM     41  C   UNL A   1      41.206  24.939  27.851  1.00  0.00     0.031 C 
ATOM     42  C   UNL A   1      45.892  23.908  26.343  1.00  0.00     0.029 A 
ATOM     43  N   UNL A   1      45.467  26.001  27.004  1.00  0.00    -0.354 N 
ATOM     44  C   UNL A   1      41.503  27.171  28.260  1.00  0.00     0.074 A 
ATOM     45  C   UNL A   1      40.580  26.058  28.192  1.00  0.00     0.031 C 
ATOM     46  C   UNL A   1      47.037  24.603  26.245  1.00  0.00     0.029 A 
ATOM     47  C   UNL A   1      46.793  25.985  26.647  1.00  0.00     0.049 A 
ATOM     48  H   UNL A   1      45.007  26.807  27.335  1.00  0.00     0.167 HD
ATOM     49  C   UNL A   1      41.173  28.414  28.681  1.00  0.00     0.037 A 
ATOM     50  C   UNL A   1      47.708  26.973  26.636  1.00  0.00     0.037 A 
ATOM     51  C   UNL A   1      42.101  29.511  28.774  1.00  0.00     0.049 A 
ATOM     52  C   UNL A   1      47.308  28.352  27.086  1.00  0.00     0.074 A 
ATOM     53  C   UNL A   1      41.870  30.793  29.242  1.00  0.00     0.029 A 
ATOM     54  N   UNL A   1      43.433  29.457  28.394  1.00  0.00    -0.354 N 
ATOM     55  N   UNL A   1      46.146  28.773  27.523  1.00  0.00    -0.248 NA
ATOM     56  C   UNL A   1      48.345  29.393  27.042  1.00  0.00     0.031 C 
ATOM     57  C   UNL A   1      43.048  31.530  29.095  1.00  0.00     0.029 A 
ATOM     58  C   UNL A   1      44.029  30.692  28.592  1.00  0.00     0.049 A 
ATOM     59  H   UNL A   1      43.888  28.660  28.036  1.00  0.00     0.167 HD
ATOM     60  C   UNL A   1      46.317  30.115  27.831  1.00  0.00     0.074 A 
ATOM     61  C   UNL A   1      47.699  30.439  27.542  1.00  0.00     0.031 C 
ATOM     62  C   UNL A   1      45.409  30.999  28.311  1.00  0.00     0.037 A 
BRANCH  49  63
ATOM     63  C   UNL A   1      39.752  28.667  29.091  1.00  0.00     0.064 A 
ATOM     64  C   UNL A   1      38.823  29.170  28.167  1.00  0.00     0.173 A 
ATOM     65  C   UNL A   1      39.330  28.500  30.419  1.00  0.00     0.173 A 
ATOM     66  F   UNL A   1      39.176  29.355  26.885  1.00  0.00    -0.203 F 
ATOM     67  C   UNL A   1      37.533  29.514  28.562  1.00  0.00     0.198 A 
ATOM     68  C   UNL A   1      38.030  28.816  30.803  1.00  0.00     0.198 A 
ATOM     69  F   UNL A   1      40.177  28.013  31.339  1.00  0.00    -0.203 F 
ATOM     70  F   UNL A   1      36.676  30.030  27.669  1.00  0.00    -0.200 F 
ATOM     71  C   UNL A   1      37.136  29.334  29.878  1.00  0.00     0.200 A 
ATOM     72  F   UNL A   1      37.642  28.621  32.071  1.00  0.00    -0.200 F 
ATOM     73  F   UNL A   1      35.892  29.661  30.256  1.00  0.00    -0.200 F 
ENDBRANCH  49  63
BRANCH  50  74
ATOM     74  C   UNL A   1      49.103  26.680  26.213  1.00  0.00     0.064 A 
ATOM     75  C   UNL A   1      50.064  26.217  27.126  1.00  0.00     0.173 A 
ATOM     76  C   UNL A   1      49.508  26.881  24.887  1.00  0.00     0.173 A 
ATOM     77  F   UNL A   1      49.728  26.011  28.408  1.00  0.00    -0.203 F 
ATOM     78  C   UNL A   1      51.379  25.986  26.731  1.00  0.00     0.198 A 
ATOM     79  C   UNL A   1      50.818  26.622  24.487  1.00  0.00     0.198 A 
ATOM     80  F   UNL A   1      48.623  27.303  23.973  1.00  0.00    -0.203 F 
ATOM     81  F   UNL A   1      52.285  25.579  27.630  1.00  0.00    -0.200 F 
ATOM     82  C   UNL A   1      51.755  26.184  25.411  1.00  0.00     0.200 A 
ATOM     83  F   UNL A   1      51.170  26.790  23.204  1.00  0.00    -0.200 F 
ATOM     84  F   UNL A   1      53.017  25.948  25.028  1.00  0.00    -0.200 F 
ENDBRANCH  50  74
BRANCH  62  85
ATOM     85  C   UNL A   1      45.871  32.401  28.584  1.00  0.00     0.064 A 
ATOM     86  C   UNL A   1      46.348  32.754  29.857  1.00  0.00     0.173 A 
ATOM     87  C   UNL A   1      45.759  33.413  27.622  1.00  0.00     0.173 A 
ATOM     88  F   UNL A   1      46.466  31.825  30.817  1.00  0.00    -0.203 F 
ATOM     89  C   UNL A   1      46.673  34.073  30.160  1.00  0.00     0.198 A 
ATOM     90  C   UNL A   1      46.115  34.726  27.919  1.00  0.00     0.198 A 
ATOM     91  F   UNL A   1      45.320  33.124  26.386  1.00  0.00    -0.203 F 
ATOM     92  F   UNL A   1      47.084  34.394  31.395  1.00  0.00    -0.200 F 
ATOM     93  C   UNL A   1      46.559  35.057  29.190  1.00  0.00     0.200 A 
ATOM     94  F   UNL A   1      46.027  35.672  26.973  1.00  0.00    -0.200 F 
ATOM     95  F   UNL A   1      46.879  36.325  29.481  1.00  0.00    -0.200 F 
ENDBRANCH  62  85
ENDBRANCH  36  37
ENDBRANCH  28  31
ENDBRANCH  26  27
ENDBRANCH  25  26
ENDBRANCH  24  25
ENDBRANCH   1  24
TORSDOF 16
ENDMDL
MODEL 3
REMARK VINA RESULT:     -11.3      0.615      7.460
REMARK SMILES O=C(C[C@H]1C[N@@H+](CCSc2ccccc2F)CCO1)NCCCCNC(=O)c1ccc(-c2c3nc(c(-c4c(F)c(F)c(F)c(F)c4F)c4ccc([nH]4)c(-c4c(F)c(F)c(F)c(F)c4F)c4nc(c(-c5c(F)c(F)c(F)c(F)c5F)c5ccc2[nH]5)C=C4)C=C3)cc1
REMARK SMILES IDX 21 1 20 2 1 3 2 4 3 6 4 7 5 8 19 9 6 10 18 11 17 12 7 14
REMARK SMILES IDX 8 15 9 16 10 17 11 18 15 19 12 20 14 21 16 22 13 23 22 24
REMARK SMILES IDX 23 25 24 26 25 27 26 28 27 30 28 31 29 32 90 33 30 34 89 35
REMARK SMILES IDX 31 36 32 37 33 38 83 39 34 40 88 41 82 42 84 43 35 44 87 45
REMARK SMILES IDX 81 46 80 47 36 49 68 50 48 51 67 52 49 53 52 54 66 55 85 56
REMARK SMILES IDX 50 57 51 58 65 60 86 61 53 62 37 63 38 64 46 65 39 66 40 67
REMARK SMILES IDX 44 68 47 69 41 70 42 71 45 72 43 73 69 74 70 75 78 76 71 77
REMARK SMILES IDX 72 78 76 79 79 80 73 81 74 82 77 83 75 84 54 85 55 86 63 87
REMARK SMILES IDX 56 88 57 89 61 90 64 91 58 92 59 93 62 94 60 95
REMARK H PARENT 20 5 6 13 25 29 84 48 52 59
REMARK Flexibility Score: inf
ROOT
ATOM      1  C   UNL A   1      36.807  21.787  24.346  1.00  0.00     0.116 C 
ENDROOT
BRANCH   1   2
ATOM      2  N   UNL A   1      35.588  22.539  24.521  1.00  0.00    -0.356 N 
ATOM      3  O   UNL A   1      36.443  24.230  25.803  1.00  0.00    -0.275 OA
ATOM      4  C   UNL A   1      35.495  23.722  25.214  1.00  0.00     0.222 C 
ATOM      5  H   UNL A   1      34.766  22.180  24.117  1.00  0.00     0.163 HD
BRANCH   4   6
ATOM      6  C   UNL A   1      34.095  24.312  25.292  1.00  0.00     0.138 C 
BRANCH   6   7
ATOM      7  C   UNL A   1      33.261  23.694  26.418  1.00  0.00     0.182 C 
ATOM      8  C   UNL A   1      31.894  24.417  26.613  1.00  0.00     0.295 C 
ATOM      9  O   UNL A   1      33.144  22.272  26.279  1.00  0.00    -0.366 OA
ATOM     10  N   UNL A   1      30.790  23.957  25.767  1.00  0.00    -0.330 N 
ATOM     11  C   UNL A   1      32.119  21.893  25.365  1.00  0.00     0.222 C 
ATOM     12  C   UNL A   1      30.781  22.505  25.787  1.00  0.00     0.291 C 
ATOM     13  H   UNL A   1      29.917  24.285  26.183  1.00  0.00     0.348 HD
BRANCH  10  14
ATOM     14  C   UNL A   1      30.552  24.644  24.488  1.00  0.00     0.273 C 
BRANCH  14  15
ATOM     15  C   UNL A   1      29.947  26.074  24.339  1.00  0.00     0.136 C 
BRANCH  15  16
ATOM     16  S   UNL A   1      31.023  27.478  23.778  1.00  0.00    -0.117 SA
BRANCH  16  17
ATOM     17  C   UNL A   1      32.094  27.824  25.164  1.00  0.00     0.043 A 
ATOM     18  C   UNL A   1      31.489  27.981  26.420  1.00  0.00     0.018 A 
ATOM     19  C   UNL A   1      33.477  28.020  25.067  1.00  0.00     0.136 A 
ATOM     20  C   UNL A   1      32.219  28.476  27.508  1.00  0.00     0.001 A 
ATOM     21  C   UNL A   1      34.217  28.479  26.162  1.00  0.00     0.040 A 
ATOM     22  F   UNL A   1      34.110  27.866  23.894  1.00  0.00    -0.206 F 
ATOM     23  C   UNL A   1      33.578  28.749  27.372  1.00  0.00     0.003 A 
ENDBRANCH  16  17
ENDBRANCH  15  16
ENDBRANCH  14  15
ENDBRANCH  10  14
ENDBRANCH   6   7
ENDBRANCH   4   6
ENDBRANCH   1   2
BRANCH   1  24
ATOM     24  C   UNL A   1      36.655  20.391  24.946  1.00  0.00     0.023 C 
BRANCH  24  25
ATOM     25  C   UNL A   1      37.935  19.541  24.974  1.00  0.00     0.023 C 
BRANCH  25  26
ATOM     26  C   UNL A   1      39.086  20.095  25.809  1.00  0.00     0.116 C 
BRANCH  26  27
ATOM     27  N   UNL A   1      40.196  19.164  25.910  1.00  0.00    -0.352 N 
ATOM     28  C   UNL A   1      41.528  19.405  26.104  1.00  0.00     0.251 C 
ATOM     29  H   UNL A   1      39.952  18.214  25.828  1.00  0.00     0.163 HD
ATOM     30  O   UNL A   1      42.339  18.482  25.985  1.00  0.00    -0.269 OA
BRANCH  28  31
ATOM     31  C   UNL A   1      42.014  20.761  26.427  1.00  0.00     0.039 A 
ATOM     32  C   UNL A   1      42.241  21.658  25.380  1.00  0.00     0.014 A 
ATOM     33  C   UNL A   1      42.270  21.147  27.747  1.00  0.00     0.014 A 
ATOM     34  C   UNL A   1      42.670  22.956  25.657  1.00  0.00     0.010 A 
ATOM     35  C   UNL A   1      42.631  22.464  28.027  1.00  0.00     0.010 A 
ATOM     36  C   UNL A   1      42.835  23.382  26.986  1.00  0.00    -0.014 A 
BRANCH  36  37
ATOM     37  C   UNL A   1      43.207  24.786  27.297  1.00  0.00     0.031 A 
ATOM     38  C   UNL A   1      44.611  25.271  27.069  1.00  0.00     0.074 A 
ATOM     39  C   UNL A   1      42.286  25.613  27.831  1.00  0.00     0.049 A 
ATOM     40  N   UNL A   1      45.134  26.440  27.337  1.00  0.00    -0.248 NA
ATOM     41  C   UNL A   1      45.559  24.310  26.484  1.00  0.00     0.031 C 
ATOM     42  C   UNL A   1      40.899  25.251  28.126  1.00  0.00     0.029 A 
ATOM     43  N   UNL A   1      42.377  26.927  28.223  1.00  0.00    -0.354 N 
ATOM     44  C   UNL A   1      46.468  26.354  26.962  1.00  0.00     0.074 A 
ATOM     45  C   UNL A   1      46.690  25.003  26.495  1.00  0.00     0.031 C 
ATOM     46  C   UNL A   1      40.262  26.323  28.623  1.00  0.00     0.029 A 
ATOM     47  C   UNL A   1      41.203  27.435  28.724  1.00  0.00     0.049 A 
ATOM     48  H   UNL A   1      43.205  27.454  28.150  1.00  0.00     0.167 HD
ATOM     49  C   UNL A   1      47.414  27.322  26.983  1.00  0.00     0.037 A 
ATOM     50  C   UNL A   1      40.918  28.656  29.217  1.00  0.00     0.037 A 
ATOM     51  C   UNL A   1      47.182  28.673  27.421  1.00  0.00     0.049 A 
ATOM     52  C   UNL A   1      41.996  29.705  29.251  1.00  0.00     0.074 A 
ATOM     53  C   UNL A   1      48.065  29.738  27.427  1.00  0.00     0.029 A 
ATOM     54  N   UNL A   1      45.982  29.147  27.930  1.00  0.00    -0.354 N 
ATOM     55  N   UNL A   1      43.240  29.625  28.847  1.00  0.00    -0.248 NA
ATOM     56  C   UNL A   1      41.631  31.015  29.811  1.00  0.00     0.031 C 
ATOM     57  C   UNL A   1      47.418  30.841  27.989  1.00  0.00     0.029 A 
ATOM     58  C   UNL A   1      46.112  30.481  28.278  1.00  0.00     0.049 A 
ATOM     59  H   UNL A   1      45.160  28.613  28.030  1.00  0.00     0.167 HD
ATOM     60  C   UNL A   1      43.797  30.875  29.076  1.00  0.00     0.074 A 
ATOM     61  C   UNL A   1      42.754  31.702  29.644  1.00  0.00     0.031 C 
ATOM     62  C   UNL A   1      45.062  31.298  28.834  1.00  0.00     0.037 A 
BRANCH  49  63
ATOM     63  C   UNL A   1      48.794  26.972  26.507  1.00  0.00     0.064 A 
ATOM     64  C   UNL A   1      49.130  27.093  25.149  1.00  0.00     0.173 A 
ATOM     65  C   UNL A   1      49.754  26.430  27.374  1.00  0.00     0.173 A 
ATOM     66  F   UNL A   1      48.246  27.600  24.276  1.00  0.00    -0.203 F 
ATOM     67  C   UNL A   1      50.369  26.667  24.677  1.00  0.00     0.198 A 
ATOM     68  C   UNL A   1      51.002  26.033  26.903  1.00  0.00     0.198 A 
ATOM     69  F   UNL A   1      49.485  26.301  28.682  1.00  0.00    -0.203 F 
ATOM     70  F   UNL A   1      50.652  26.756  23.370  1.00  0.00    -0.200 F 
ATOM     71  C   UNL A   1      51.305  26.140  25.554  1.00  0.00     0.200 A 
ATOM     72  F   UNL A   1      51.914  25.544  27.755  1.00  0.00    -0.200 F 
ATOM     73  F   UNL A   1      52.498  25.735  25.098  1.00  0.00    -0.200 F 
ENDBRANCH  49  63
BRANCH  50  74
ATOM     74  C   UNL A   1      39.540  28.957  29.686  1.00  0.00     0.064 A 
ATOM     75  C   UNL A   1      38.566  29.473  28.817  1.00  0.00     0.173 A 
ATOM     76  C   UNL A   1      39.177  28.754  31.025  1.00  0.00     0.173 A 
ATOM     77  F   UNL A   1      38.863  29.688  27.527  1.00  0.00    -0.203 F 
ATOM     78  C   UNL A   1      37.290  29.793  29.275  1.00  0.00     0.198 A 
ATOM     79  C   UNL A   1      37.892  29.048  31.475  1.00  0.00     0.198 A 
ATOM     80  F   UNL A   1      40.066  28.244  31.889  1.00  0.00    -0.203 F 
ATOM     81  F   UNL A   1      36.391  30.318  28.433  1.00  0.00    -0.200 F 
ATOM     82  C   UNL A   1      36.952  29.575  30.602  1.00  0.00     0.200 A 
ATOM     83  F   UNL A   1      37.561  28.812  32.752  1.00  0.00    -0.200 F 
ATOM     84  F   UNL A   1      35.720  29.871  31.039  1.00  0.00    -0.200 F 
ENDBRANCH  50  74
BRANCH  62  85
ATOM     85  C   UNL A   1      45.398  32.725  29.155  1.00  0.00     0.064 A 
ATOM     86  C   UNL A   1      45.866  33.072  30.432  1.00  0.00     0.173 A 
ATOM     87  C   UNL A   1      45.172  33.758  28.236  1.00  0.00     0.173 A 
ATOM     88  F   UNL A   1      46.091  32.122  31.352  1.00  0.00    -0.203 F 
ATOM     89  C   UNL A   1      46.074  34.404  30.782  1.00  0.00     0.198 A 
ATOM     90  C   UNL A   1      45.410  35.087  28.579  1.00  0.00     0.198 A 
ATOM     91  F   UNL A   1      44.735  33.477  26.998  1.00  0.00    -0.203 F 
ATOM     92  F   UNL A   1      46.480  34.714  32.021  1.00  0.00    -0.200 F 
ATOM     93  C   UNL A   1      45.849  35.409  29.854  1.00  0.00     0.200 A 
ATOM     94  F   UNL A   1      45.215  36.056  27.674  1.00  0.00    -0.200 F 
ATOM     95  F   UNL A   1      46.056  36.689  30.190  1.00  0.00    -0.200 F 
ENDBRANCH  62  85
ENDBRANCH  36  37
ENDBRANCH  28  31
ENDBRANCH  26  27
ENDBRANCH  25  26
ENDBRANCH  24  25
ENDBRANCH   1  24
TORSDOF 16
ENDMDL
