MODEL 1
REMARK VINA RESULT:     -12.6      0.000      0.000
REMARK SMILES C[C@](NC(=O)Nc1ccccc1Cl)(C(=O)NCCCCNC(=O)c1ccc(-c2c3nc(c(-c4c(F)c(F)c(F)c(F)c4F)c4ccc([nH]4)c(-c4c(F)c(F)c(F)c(F)c4F)c4nc(c(-c5c(F)c(F)c(F)c(F)c5F)c5ccc2[nH]5)C=C4)C=C3)cc1)C(F)(F)F
REMARK SMILES IDX 18 1 17 2 16 3 14 4 15 5 2 7 1 8 87 9 88 10 89 11 90 12 3 13
REMARK SMILES IDX 4 14 5 16 6 17 7 19 8 20 12 21 9 22 11 23 13 24 10 25 19 26
REMARK SMILES IDX 20 27 21 28 22 29 23 31 24 32 25 33 86 34 26 35 85 36 27 37
REMARK SMILES IDX 28 38 29 39 79 40 30 41 84 42 78 43 80 44 31 45 83 46 77 47
REMARK SMILES IDX 76 48 32 50 64 51 44 52 63 53 45 54 48 55 62 56 81 57 46 58
REMARK SMILES IDX 47 59 61 61 82 62 49 63 33 64 34 65 42 66 35 67 36 68 40 69
REMARK SMILES IDX 43 70 37 71 38 72 41 73 39 74 65 75 66 76 74 77 67 78 68 79
REMARK SMILES IDX 72 80 75 81 69 82 70 83 73 84 71 85 50 86 51 87 59 88 52 89
REMARK SMILES IDX 53 90 57 91 60 92 54 93 55 94 58 95 56 96
REMARK H PARENT 16 6 3 15 6 18 21 30 80 49 48 60
REMARK Flexibility Score: inf
ROOT
ATOM      1  C   UNL A   1      32.076  30.399  26.692  1.00  0.00     0.023 C 
ENDROOT
BRANCH   1   2
ATOM      2  C   UNL A   1      31.559  29.809  25.385  1.00  0.00     0.116 C 
BRANCH   2   3
ATOM      3  N   UNL A   1      32.620  29.621  24.431  1.00  0.00    -0.354 N 
ATOM      4  C   UNL A   1      33.276  28.490  24.039  1.00  0.00     0.255 C 
ATOM      5  O   UNL A   1      34.115  28.677  23.152  1.00  0.00    -0.272 OA
ATOM      6  H   UNL A   1      32.925  30.446  23.989  1.00  0.00     0.163 HD
BRANCH   4   7
ATOM      7  C   UNL A   1      32.861  27.065  24.500  1.00  0.00     0.213 C 
ATOM      8  C   UNL A   1      33.628  26.076  23.628  1.00  0.00     0.056 C 
BRANCH   7   9
ATOM      9  C   UNL A   1      33.447  26.925  25.935  1.00  0.00     0.420 C 
ATOM     10  F   UNL A   1      32.468  26.964  26.873  1.00  0.00    -0.168 F 
ATOM     11  F   UNL A   1      34.052  25.714  26.075  1.00  0.00    -0.168 F 
ATOM     12  F   UNL A   1      34.378  27.851  26.244  1.00  0.00    -0.168 F 
ENDBRANCH   7   9
BRANCH   7  13
ATOM     13  N   UNL A   1      31.353  26.876  24.616  1.00  0.00    -0.316 N 
ATOM     14  C   UNL A   1      30.347  26.001  24.616  1.00  0.00     0.320 C 
ATOM     15  H   UNL A   1      30.958  27.769  24.743  1.00  0.00     0.166 HD
ATOM     16  O   UNL A   1      29.229  26.475  24.388  1.00  0.00    -0.248 OA
ATOM     17  N   UNL A   1      30.441  24.669  24.697  1.00  0.00    -0.307 N 
ATOM     18  H   UNL A   1      29.687  24.197  24.276  1.00  0.00     0.171 HD
BRANCH  17  19
ATOM     19  C   UNL A   1      31.389  23.809  25.259  1.00  0.00     0.061 A 
ATOM     20  C   UNL A   1      31.532  23.878  26.653  1.00  0.00     0.028 A 
ATOM     21  C   UNL A   1      32.189  22.924  24.528  1.00  0.00     0.064 A 
ATOM     22  C   UNL A   1      32.321  22.946  27.325  1.00  0.00     0.002 A 
ATOM     23  C   UNL A   1      33.008  22.014  25.204  1.00  0.00     0.023 A 
ATOM     24  Cl  UNL A   1      32.240  22.944  22.802  1.00  0.00    -0.082 Cl
ATOM     25  C   UNL A   1      33.041  21.999  26.601  1.00  0.00     0.002 A 
ENDBRANCH  17  19
ENDBRANCH   7  13
ENDBRANCH   4   7
ENDBRANCH   2   3
ENDBRANCH   1   2
BRANCH   1  26
ATOM     26  C   UNL A   1      31.703  31.871  26.871  1.00  0.00     0.023 C 
BRANCH  26  27
ATOM     27  C   UNL A   1      32.848  32.755  27.357  1.00  0.00     0.116 C 
BRANCH  27  28
ATOM     28  N   UNL A   1      32.440  34.122  27.643  1.00  0.00    -0.352 N 
ATOM     29  C   UNL A   1      32.970  34.989  28.572  1.00  0.00     0.251 C 
ATOM     30  H   UNL A   1      31.690  34.469  27.108  1.00  0.00     0.163 HD
ATOM     31  O   UNL A   1      32.467  36.084  28.771  1.00  0.00    -0.269 OA
BRANCH  29  32
ATOM     32  C   UNL A   1      34.140  34.550  29.359  1.00  0.00     0.039 A 
ATOM     33  C   UNL A   1      33.931  33.992  30.621  1.00  0.00     0.014 A 
ATOM     34  C   UNL A   1      35.426  34.623  28.815  1.00  0.00     0.014 A 
ATOM     35  C   UNL A   1      35.008  33.435  31.313  1.00  0.00     0.010 A 
ATOM     36  C   UNL A   1      36.484  34.007  29.475  1.00  0.00     0.010 A 
ATOM     37  C   UNL A   1      36.285  33.402  30.727  1.00  0.00    -0.014 A 
BRANCH  37  38
ATOM     38  C   UNL A   1      37.424  32.733  31.403  1.00  0.00     0.031 A 
ATOM     39  C   UNL A   1      38.120  31.579  30.740  1.00  0.00     0.074 A 
ATOM     40  C   UNL A   1      37.782  33.117  32.643  1.00  0.00     0.049 A 
ATOM     41  N   UNL A   1      39.084  30.819  31.195  1.00  0.00    -0.248 NA
ATOM     42  C   UNL A   1      37.648  31.209  29.395  1.00  0.00     0.031 C 
ATOM     43  C   UNL A   1      37.151  34.189  33.415  1.00  0.00     0.029 A 
ATOM     44  N   UNL A   1      38.762  32.641  33.479  1.00  0.00    -0.354 N 
ATOM     45  C   UNL A   1      39.319  29.876  30.205  1.00  0.00     0.074 A 
ATOM     46  C   UNL A   1      38.364  30.123  29.147  1.00  0.00     0.031 C 
ATOM     47  C   UNL A   1      37.774  34.305  34.599  1.00  0.00     0.029 A 
ATOM     48  C   UNL A   1      38.824  33.295  34.685  1.00  0.00     0.049 A 
ATOM     49  H   UNL A   1      39.364  31.901  33.237  1.00  0.00     0.167 HD
ATOM     50  C   UNL A   1      40.263  28.905  30.171  1.00  0.00     0.037 A 
ATOM     51  C   UNL A   1      39.635  33.099  35.742  1.00  0.00     0.037 A 
ATOM     52  C   UNL A   1      41.234  28.685  31.210  1.00  0.00     0.049 A 
ATOM     53  C   UNL A   1      40.679  32.017  35.676  1.00  0.00     0.074 A 
ATOM     54  C   UNL A   1      42.277  27.777  31.236  1.00  0.00     0.029 A 
ATOM     55  N   UNL A   1      41.279  29.382  32.408  1.00  0.00    -0.354 N 
ATOM     56  N   UNL A   1      40.943  31.179  34.703  1.00  0.00    -0.248 NA
ATOM     57  C   UNL A   1      41.542  31.857  36.856  1.00  0.00     0.031 C 
ATOM     58  C   UNL A   1      42.928  27.894  32.469  1.00  0.00     0.029 A 
ATOM     59  C   UNL A   1      42.320  28.908  33.192  1.00  0.00     0.049 A 
ATOM     60  H   UNL A   1      40.663  30.106  32.665  1.00  0.00     0.167 HD
ATOM     61  C   UNL A   1      42.018  30.417  35.137  1.00  0.00     0.074 A 
ATOM     62  C   UNL A   1      42.366  30.898  36.458  1.00  0.00     0.031 C 
ATOM     63  C   UNL A   1      42.660  29.406  34.499  1.00  0.00     0.037 A 
BRANCH  50  64
ATOM     64  C   UNL A   1      40.293  28.010  28.967  1.00  0.00     0.064 A 
ATOM     65  C   UNL A   1      41.034  28.341  27.822  1.00  0.00     0.173 A 
ATOM     66  C   UNL A   1      39.601  26.789  28.971  1.00  0.00     0.173 A 
ATOM     67  F   UNL A   1      41.701  29.503  27.763  1.00  0.00    -0.203 F 
ATOM     68  C   UNL A   1      41.054  27.499  26.713  1.00  0.00     0.198 A 
ATOM     69  C   UNL A   1      39.650  25.935  27.872  1.00  0.00     0.198 A 
ATOM     70  F   UNL A   1      38.882  26.423  30.041  1.00  0.00    -0.203 F 
ATOM     71  F   UNL A   1      41.725  27.861  25.612  1.00  0.00    -0.200 F 
ATOM     72  C   UNL A   1      40.368  26.294  26.742  1.00  0.00     0.200 A 
ATOM     73  F   UNL A   1      38.995  24.766  27.906  1.00  0.00    -0.200 F 
ATOM     74  F   UNL A   1      40.393  25.481  25.677  1.00  0.00    -0.200 F 
ENDBRANCH  50  64
BRANCH  51  75
ATOM     75  C   UNL A   1      39.517  33.967  36.943  1.00  0.00     0.064 A 
ATOM     76  C   UNL A   1      38.759  33.560  38.049  1.00  0.00     0.173 A 
ATOM     77  C   UNL A   1      40.148  35.217  37.009  1.00  0.00     0.173 A 
ATOM     78  F   UNL A   1      38.120  32.381  38.026  1.00  0.00    -0.203 F 
ATOM     79  C   UNL A   1      38.617  34.380  39.167  1.00  0.00     0.198 A 
ATOM     80  C   UNL A   1      40.029  36.025  38.138  1.00  0.00     0.198 A 
ATOM     81  F   UNL A   1      40.889  35.650  35.978  1.00  0.00    -0.203 F 
ATOM     82  F   UNL A   1      37.848  33.986  40.191  1.00  0.00    -0.200 F 
ATOM     83  C   UNL A   1      39.257  35.610  39.213  1.00  0.00     0.200 A 
ATOM     84  F   UNL A   1      40.659  37.207  38.183  1.00  0.00    -0.200 F 
ATOM     85  F   UNL A   1      39.123  36.397  40.288  1.00  0.00    -0.200 F 
ENDBRANCH  51  75
BRANCH  63  86
ATOM     86  C   UNL A   1      43.827  28.780  35.203  1.00  0.00     0.064 A 
ATOM     87  C   UNL A   1      43.664  27.698  36.081  1.00  0.00     0.173 A 
ATOM     88  C   UNL A   1      45.130  29.241  34.961  1.00  0.00     0.173 A 
ATOM     89  F   UNL A   1      42.437  27.231  36.356  1.00  0.00    -0.203 F 
ATOM     90  C   UNL A   1      44.762  27.116  36.709  1.00  0.00     0.198 A 
ATOM     91  C   UNL A   1      46.228  28.638  35.569  1.00  0.00     0.198 A 
ATOM     92  F   UNL A   1      45.340  30.268  34.125  1.00  0.00    -0.203 F 
ATOM     93  F   UNL A   1      44.579  26.113  37.579  1.00  0.00    -0.200 F 
ATOM     94  C   UNL A   1      46.042  27.581  36.447  1.00  0.00     0.200 A 
ATOM     95  F   UNL A   1      47.465  29.079  35.304  1.00  0.00    -0.200 F 
ATOM     96  F   UNL A   1      47.098  27.014  37.047  1.00  0.00    -0.200 F 
ENDBRANCH  63  86
ENDBRANCH  37  38
ENDBRANCH  29  32
ENDBRANCH  27  28
ENDBRANCH  26  27
ENDBRANCH   1  26
TORSDOF 14
ENDMDL
MODEL 2
REMARK VINA RESULT:     -12.6      0.097      1.942
REMARK SMILES C[C@](NC(=O)Nc1ccccc1Cl)(C(=O)NCCCCNC(=O)c1ccc(-c2c3nc(c(-c4c(F)c(F)c(F)c(F)c4F)c4ccc([nH]4)c(-c4c(F)c(F)c(F)c(F)c4F)c4nc(c(-c5c(F)c(F)c(F)c(F)c5F)c5ccc2[nH]5)C=C4)C=C3)cc1)C(F)(F)F
REMARK SMILES IDX 18 1 17 2 16 3 14 4 15 5 2 7 1 8 87 9 88 10 89 11 90 12 3 13
REMARK SMILES IDX 4 14 5 16 6 17 7 19 8 20 12 21 9 22 11 23 13 24 10 25 19 26
REMARK SMILES IDX 20 27 21 28 22 29 23 31 24 32 25 33 86 34 26 35 85 36 27 37
REMARK SMILES IDX 28 38 29 39 79 40 30 41 84 42 78 43 80 44 31 45 83 46 77 47
REMARK SMILES IDX 76 48 32 50 64 51 44 52 63 53 45 54 48 55 62 56 81 57 46 58
REMARK SMILES IDX 47 59 61 61 82 62 49 63 33 64 34 65 42 66 35 67 36 68 40 69
REMARK SMILES IDX 43 70 37 71 38 72 41 73 39 74 65 75 66 76 74 77 67 78 68 79
REMARK SMILES IDX 72 80 75 81 69 82 70 83 73 84 71 85 50 86 51 87 59 88 52 89
REMARK SMILES IDX 53 90 57 91 60 92 54 93 55 94 58 95 56 96
REMARK H PARENT 16 6 3 15 6 18 21 30 80 49 48 60
REMARK Flexibility Score: inf
ROOT
ATOM      1  C   UNL A   1      32.107  30.391  26.675  1.00  0.00     0.023 C 
ENDROOT
BRANCH   1   2
ATOM      2  C   UNL A   1      31.570  29.804  25.374  1.00  0.00     0.116 C 
BRANCH   2   3
ATOM      3  N   UNL A   1      32.620  29.606  24.410  1.00  0.00    -0.354 N 
ATOM      4  C   UNL A   1      33.268  28.471  24.019  1.00  0.00     0.255 C 
ATOM      5  O   UNL A   1      34.097  28.649  23.120  1.00  0.00    -0.272 OA
ATOM      6  H   UNL A   1      32.922  30.427  23.958  1.00  0.00     0.163 HD
BRANCH   4   7
ATOM      7  C   UNL A   1      32.856  27.050  24.496  1.00  0.00     0.213 C 
ATOM      8  C   UNL A   1      33.618  26.052  23.628  1.00  0.00     0.056 C 
BRANCH   7   9
ATOM      9  C   UNL A   1      33.451  26.924  25.928  1.00  0.00     0.420 C 
ATOM     10  F   UNL A   1      32.477  26.969  26.871  1.00  0.00    -0.168 F 
ATOM     11  F   UNL A   1      34.058  25.715  26.076  1.00  0.00    -0.168 F 
ATOM     12  F   UNL A   1      34.382  27.853  26.224  1.00  0.00    -0.168 F 
ENDBRANCH   7   9
BRANCH   7  13
ATOM     13  N   UNL A   1      31.349  26.862  24.622  1.00  0.00    -0.316 N 
ATOM     14  C   UNL A   1      30.342  25.989  24.630  1.00  0.00     0.320 C 
ATOM     15  H   UNL A   1      30.956  27.756  24.752  1.00  0.00     0.166 HD
ATOM     16  O   UNL A   1      29.222  26.464  24.410  1.00  0.00    -0.248 OA
ATOM     17  N   UNL A   1      30.435  24.656  24.711  1.00  0.00    -0.307 N 
ATOM     18  H   UNL A   1      29.677  24.185  24.296  1.00  0.00     0.171 HD
BRANCH  17  19
ATOM     19  C   UNL A   1      31.386  23.796  25.267  1.00  0.00     0.061 A 
ATOM     20  C   UNL A   1      31.542  23.869  26.659  1.00  0.00     0.028 A 
ATOM     21  C   UNL A   1      32.177  22.907  24.531  1.00  0.00     0.064 A 
ATOM     22  C   UNL A   1      32.336  22.937  27.326  1.00  0.00     0.002 A 
ATOM     23  C   UNL A   1      33.000  21.997  25.202  1.00  0.00     0.023 A 
ATOM     24  Cl  UNL A   1      32.212  22.922  22.805  1.00  0.00    -0.082 Cl
ATOM     25  C   UNL A   1      33.047  21.986  26.598  1.00  0.00     0.002 A 
ENDBRANCH  17  19
ENDBRANCH   7  13
ENDBRANCH   4   7
ENDBRANCH   2   3
ENDBRANCH   1   2
BRANCH   1  26
ATOM     26  C   UNL A   1      31.722  31.858  26.871  1.00  0.00     0.023 C 
BRANCH  26  27
ATOM     27  C   UNL A   1      32.861  32.746  27.362  1.00  0.00     0.116 C 
BRANCH  27  28
ATOM     28  N   UNL A   1      32.447  34.112  27.644  1.00  0.00    -0.352 N 
ATOM     29  C   UNL A   1      32.971  34.983  28.573  1.00  0.00     0.251 C 
ATOM     30  H   UNL A   1      31.697  34.455  27.106  1.00  0.00     0.163 HD
ATOM     31  O   UNL A   1      32.463  36.076  28.768  1.00  0.00    -0.269 OA
BRANCH  29  32
ATOM     32  C   UNL A   1      34.141  34.550  29.364  1.00  0.00     0.039 A 
ATOM     33  C   UNL A   1      33.932  34.024  30.640  1.00  0.00     0.014 A 
ATOM     34  C   UNL A   1      35.424  34.595  28.813  1.00  0.00     0.014 A 
ATOM     35  C   UNL A   1      35.007  33.472  31.340  1.00  0.00     0.010 A 
ATOM     36  C   UNL A   1      36.479  33.983  29.481  1.00  0.00     0.010 A 
ATOM     37  C   UNL A   1      36.280  33.411  30.748  1.00  0.00    -0.014 A 
BRANCH  37  38
ATOM     38  C   UNL A   1      37.416  32.746  31.435  1.00  0.00     0.031 A 
ATOM     39  C   UNL A   1      38.115  31.589  30.781  1.00  0.00     0.074 A 
ATOM     40  C   UNL A   1      37.767  33.136  32.674  1.00  0.00     0.049 A 
ATOM     41  N   UNL A   1      39.077  30.832  31.245  1.00  0.00    -0.248 NA
ATOM     42  C   UNL A   1      37.652  31.212  29.436  1.00  0.00     0.031 C 
ATOM     43  C   UNL A   1      37.131  34.213  33.437  1.00  0.00     0.029 A 
ATOM     44  N   UNL A   1      38.742  32.665  33.518  1.00  0.00    -0.354 N 
ATOM     45  C   UNL A   1      39.318  29.883  30.262  1.00  0.00     0.074 A 
ATOM     46  C   UNL A   1      38.369  30.125  29.197  1.00  0.00     0.031 C 
ATOM     47  C   UNL A   1      37.747  34.334  34.624  1.00  0.00     0.029 A 
ATOM     48  C   UNL A   1      38.797  33.325  34.722  1.00  0.00     0.049 A 
ATOM     49  H   UNL A   1      39.345  31.924  33.283  1.00  0.00     0.167 HD
ATOM     50  C   UNL A   1      40.262  28.913  30.238  1.00  0.00     0.037 A 
ATOM     51  C   UNL A   1      39.602  33.134  35.784  1.00  0.00     0.037 A 
ATOM     52  C   UNL A   1      41.227  28.698  31.284  1.00  0.00     0.049 A 
ATOM     53  C   UNL A   1      40.646  32.053  35.730  1.00  0.00     0.074 A 
ATOM     54  C   UNL A   1      42.271  27.790  31.320  1.00  0.00     0.029 A 
ATOM     55  N   UNL A   1      41.266  29.401  32.478  1.00  0.00    -0.354 N 
ATOM     56  N   UNL A   1      40.916  31.210  34.763  1.00  0.00    -0.248 NA
ATOM     57  C   UNL A   1      41.503  31.899  36.915  1.00  0.00     0.031 C 
ATOM     58  C   UNL A   1      42.915  27.914  32.556  1.00  0.00     0.029 A 
ATOM     59  C   UNL A   1      42.302  28.932  33.271  1.00  0.00     0.049 A 
ATOM     60  H   UNL A   1      40.648  30.127  32.728  1.00  0.00     0.167 HD
ATOM     61  C   UNL A   1      41.989  30.450  35.206  1.00  0.00     0.074 A 
ATOM     62  C   UNL A   1      42.329  30.938  36.527  1.00  0.00     0.031 C 
ATOM     63  C   UNL A   1      42.634  29.437  34.577  1.00  0.00     0.037 A 
BRANCH  50  64
ATOM     64  C   UNL A   1      40.300  28.011  29.039  1.00  0.00     0.064 A 
ATOM     65  C   UNL A   1      39.580  26.808  29.000  1.00  0.00     0.173 A 
ATOM     66  C   UNL A   1      41.038  28.371  27.901  1.00  0.00     0.173 A 
ATOM     67  F   UNL A   1      38.869  26.412  30.067  1.00  0.00    -0.203 F 
ATOM     68  C   UNL A   1      39.622  25.983  27.880  1.00  0.00     0.198 A 
ATOM     69  C   UNL A   1      41.054  27.559  26.771  1.00  0.00     0.198 A 
ATOM     70  F   UNL A   1      41.742  29.513  27.884  1.00  0.00    -0.203 F 
ATOM     71  F   UNL A   1      38.969  24.814  27.885  1.00  0.00    -0.200 F 
ATOM     72  C   UNL A   1      40.353  26.362  26.763  1.00  0.00     0.200 A 
ATOM     73  F   UNL A   1      41.752  27.932  25.689  1.00  0.00    -0.200 F 
ATOM     74  F   UNL A   1      40.389  25.570  25.683  1.00  0.00    -0.200 F 
ENDBRANCH  50  64
BRANCH  51  75
ATOM     75  C   UNL A   1      39.477  34.009  36.980  1.00  0.00     0.064 A 
ATOM     76  C   UNL A   1      40.114  35.256  37.025  1.00  0.00     0.173 A 
ATOM     77  C   UNL A   1      38.729  33.617  38.099  1.00  0.00     0.173 A 
ATOM     78  F   UNL A   1      40.858  35.666  35.987  1.00  0.00    -0.203 F 
ATOM     79  C   UNL A   1      40.028  36.069  38.154  1.00  0.00     0.198 A 
ATOM     80  C   UNL A   1      38.621  34.442  39.217  1.00  0.00     0.198 A 
ATOM     81  F   UNL A   1      38.096  32.435  38.104  1.00  0.00    -0.203 F 
ATOM     82  F   UNL A   1      40.686  37.236  38.188  1.00  0.00    -0.200 F 
ATOM     83  C   UNL A   1      39.277  35.664  39.247  1.00  0.00     0.200 A 
ATOM     84  F   UNL A   1      37.883  34.053  40.266  1.00  0.00    -0.200 F 
ATOM     85  F   UNL A   1      39.192  36.447  40.330  1.00  0.00    -0.200 F 
ENDBRANCH  51  75
BRANCH  63  86
ATOM     86  C   UNL A   1      43.797  28.814  35.291  1.00  0.00     0.064 A 
ATOM     87  C   UNL A   1      45.109  29.272  35.102  1.00  0.00     0.173 A 
ATOM     88  C   UNL A   1      43.589  27.773  36.210  1.00  0.00     0.173 A 
ATOM     89  F   UNL A   1      45.361  30.254  34.224  1.00  0.00    -0.203 F 
ATOM     90  C   UNL A   1      46.174  28.695  35.790  1.00  0.00     0.198 A 
ATOM     91  C   UNL A   1      44.653  27.219  36.917  1.00  0.00     0.198 A 
ATOM     92  F   UNL A   1      42.353  27.304  36.431  1.00  0.00    -0.203 F 
ATOM     93  F   UNL A   1      47.425  29.119  35.560  1.00  0.00    -0.200 F 
ATOM     94  C   UNL A   1      45.944  27.676  36.701  1.00  0.00     0.200 A 
ATOM     95  F   UNL A   1      44.428  26.243  37.807  1.00  0.00    -0.200 F 
ATOM     96  F   UNL A   1      46.969  27.128  37.368  1.00  0.00    -0.200 F 
ENDBRANCH  63  86
ENDBRANCH  37  38
ENDBRANCH  29  32
ENDBRANCH  27  28
ENDBRANCH  26  27
ENDBRANCH   1  26
TORSDOF 14
ENDMDL
MODEL 3
REMARK VINA RESULT:     -12.6      0.562      7.454
REMARK SMILES C[C@](NC(=O)Nc1ccccc1Cl)(C(=O)NCCCCNC(=O)c1ccc(-c2c3nc(c(-c4c(F)c(F)c(F)c(F)c4F)c4ccc([nH]4)c(-c4c(F)c(F)c(F)c(F)c4F)c4nc(c(-c5c(F)c(F)c(F)c(F)c5F)c5ccc2[nH]5)C=C4)C=C3)cc1)C(F)(F)F
REMARK SMILES IDX 18 1 17 2 16 3 14 4 15 5 2 7 1 8 87 9 88 10 89 11 90 12 3 13
REMARK SMILES IDX 4 14 5 16 6 17 7 19 8 20 12 21 9 22 11 23 13 24 10 25 19 26
REMARK SMILES IDX 20 27 21 28 22 29 23 31 24 32 25 33 86 34 26 35 85 36 27 37
REMARK SMILES IDX 28 38 29 39 79 40 30 41 84 42 78 43 80 44 31 45 83 46 77 47
REMARK SMILES IDX 76 48 32 50 64 51 44 52 63 53 45 54 48 55 62 56 81 57 46 58
REMARK SMILES IDX 47 59 61 61 82 62 49 63 33 64 34 65 42 66 35 67 36 68 40 69
REMARK SMILES IDX 43 70 37 71 38 72 41 73 39 74 65 75 66 76 74 77 67 78 68 79
REMARK SMILES IDX 72 80 75 81 69 82 70 83 73 84 71 85 50 86 51 87 59 88 52 89
REMARK SMILES IDX 53 90 57 91 60 92 54 93 55 94 58 95 56 96
REMARK H PARENT 16 6 3 15 6 18 21 30 80 49 48 60
REMARK Flexibility Score: inf
ROOT
ATOM      1  C   UNL A   1      31.831  30.470  26.684  1.00  0.00     0.023 C 
ENDROOT
BRANCH   1   2
ATOM      2  C   UNL A   1      31.390  29.858  25.359  1.00  0.00     0.116 C 
BRANCH   2   3
ATOM      3  N   UNL A   1      32.500  29.693  24.457  1.00  0.00    -0.354 N 
ATOM      4  C   UNL A   1      33.189  28.576  24.087  1.00  0.00     0.255 C 
ATOM      5  O   UNL A   1      34.067  28.782  23.244  1.00  0.00    -0.272 OA
ATOM      6  H   UNL A   1      32.814  30.527  24.038  1.00  0.00     0.163 HD
BRANCH   4   7
ATOM      7  C   UNL A   1      32.772  27.140  24.515  1.00  0.00     0.213 C 
ATOM      8  C   UNL A   1      33.589  26.170  23.667  1.00  0.00     0.056 C 
BRANCH   7   9
ATOM      9  C   UNL A   1      33.297  26.992  25.973  1.00  0.00     0.420 C 
ATOM     10  F   UNL A   1      32.279  27.023  26.868  1.00  0.00    -0.168 F 
ATOM     11  F   UNL A   1      33.897  25.781  26.131  1.00  0.00    -0.168 F 
ATOM     12  F   UNL A   1      34.213  27.917  26.327  1.00  0.00    -0.168 F 
ENDBRANCH   7   9
BRANCH   7  13
ATOM     13  N   UNL A   1      31.263  26.931  24.562  1.00  0.00    -0.316 N 
ATOM     14  C   UNL A   1      30.269  26.045  24.506  1.00  0.00     0.320 C 
ATOM     15  H   UNL A   1      30.853  27.818  24.684  1.00  0.00     0.166 HD
ATOM     16  O   UNL A   1      29.156  26.509  24.237  1.00  0.00    -0.248 OA
ATOM     17  N   UNL A   1      30.376  24.713  24.573  1.00  0.00    -0.307 N 
ATOM     18  H   UNL A   1      29.647  24.239  24.113  1.00  0.00     0.171 HD
BRANCH  17  19
ATOM     19  C   UNL A   1      31.310  23.857  25.164  1.00  0.00     0.061 A 
ATOM     20  C   UNL A   1      31.389  23.905  26.564  1.00  0.00     0.028 A 
ATOM     21  C   UNL A   1      32.153  22.994  24.455  1.00  0.00     0.064 A 
ATOM     22  C   UNL A   1      32.160  22.972  27.256  1.00  0.00     0.002 A 
ATOM     23  C   UNL A   1      32.953  22.084  25.154  1.00  0.00     0.023 A 
ATOM     24  Cl  UNL A   1      32.282  23.042  22.734  1.00  0.00    -0.082 Cl
ATOM     25  C   UNL A   1      32.925  22.046  26.550  1.00  0.00     0.002 A 
ENDBRANCH  17  19
ENDBRANCH   7  13
ENDBRANCH   4   7
ENDBRANCH   2   3
ENDBRANCH   1   2
BRANCH   1  26
ATOM     26  C   UNL A   1      31.570  31.975  26.762  1.00  0.00     0.023 C 
BRANCH  26  27
ATOM     27  C   UNL A   1      32.766  32.797  27.233  1.00  0.00     0.116 C 
BRANCH  27  28
ATOM     28  N   UNL A   1      32.415  34.154  27.624  1.00  0.00    -0.352 N 
ATOM     29  C   UNL A   1      32.986  34.927  28.610  1.00  0.00     0.251 C 
ATOM     30  H   UNL A   1      31.677  34.569  27.123  1.00  0.00     0.163 HD
ATOM     31  O   UNL A   1      32.528  36.023  28.895  1.00  0.00    -0.269 OA
BRANCH  29  32
ATOM     32  C   UNL A   1      34.142  34.383  29.351  1.00  0.00     0.039 A 
ATOM     33  C   UNL A   1      33.909  33.650  30.517  1.00  0.00     0.014 A 
ATOM     34  C   UNL A   1      35.438  34.535  28.851  1.00  0.00     0.014 A 
ATOM     35  C   UNL A   1      34.975  33.004  31.145  1.00  0.00     0.010 A 
ATOM     36  C   UNL A   1      36.485  33.835  29.438  1.00  0.00     0.010 A 
ATOM     37  C   UNL A   1      36.264  33.058  30.587  1.00  0.00    -0.014 A 
BRANCH  37  38
ATOM     38  C   UNL A   1      37.393  32.303  31.186  1.00  0.00     0.031 A 
ATOM     39  C   UNL A   1      37.876  32.644  32.567  1.00  0.00     0.074 A 
ATOM     40  C   UNL A   1      38.027  31.363  30.460  1.00  0.00     0.049 A 
ATOM     41  N   UNL A   1      38.889  32.153  33.236  1.00  0.00    -0.248 NA
ATOM     42  C   UNL A   1      37.141  33.700  33.281  1.00  0.00     0.031 C 
ATOM     43  C   UNL A   1      37.687  30.977  29.089  1.00  0.00     0.029 A 
ATOM     44  N   UNL A   1      39.101  30.566  30.771  1.00  0.00    -0.354 N 
ATOM     45  C   UNL A   1      38.922  32.851  34.435  1.00  0.00     0.074 A 
ATOM     46  C   UNL A   1      37.863  33.835  34.383  1.00  0.00     0.031 C 
ATOM     47  C   UNL A   1      38.518  30.002  28.688  1.00  0.00     0.029 A 
ATOM     48  C   UNL A   1      39.471  29.718  29.756  1.00  0.00     0.049 A 
ATOM     49  H   UNL A   1      39.563  30.599  31.640  1.00  0.00     0.167 HD
ATOM     50  C   UNL A   1      39.747  32.671  35.494  1.00  0.00     0.037 A 
ATOM     51  C   UNL A   1      40.469  28.816  29.694  1.00  0.00     0.037 A 
ATOM     52  C   UNL A   1      40.777  31.668  35.555  1.00  0.00     0.049 A 
ATOM     53  C   UNL A   1      41.368  28.632  30.886  1.00  0.00     0.074 A 
ATOM     54  C   UNL A   1      41.615  31.356  36.611  1.00  0.00     0.029 A 
ATOM     55  N   UNL A   1      41.107  30.812  34.515  1.00  0.00    -0.354 N 
ATOM     56  N   UNL A   1      41.343  29.245  32.045  1.00  0.00    -0.248 NA
ATOM     57  C   UNL A   1      42.432  27.625  30.765  1.00  0.00     0.031 C 
ATOM     58  C   UNL A   1      42.483  30.341  36.195  1.00  0.00     0.029 A 
ATOM     59  C   UNL A   1      42.155  29.987  34.896  1.00  0.00     0.049 A 
ATOM     60  H   UNL A   1      40.665  30.793  33.635  1.00  0.00     0.167 HD
ATOM     61  C   UNL A   1      42.361  28.680  32.799  1.00  0.00     0.074 A 
ATOM     62  C   UNL A   1      42.980  27.666  31.970  1.00  0.00     0.031 C 
ATOM     63  C   UNL A   1      42.751  28.975  34.064  1.00  0.00     0.037 A 
BRANCH  50  64
ATOM     64  C   UNL A   1      39.566  33.578  36.676  1.00  0.00     0.064 A 
ATOM     65  C   UNL A   1      38.768  33.210  37.769  1.00  0.00     0.173 A 
ATOM     66  C   UNL A   1      40.225  34.815  36.730  1.00  0.00     0.173 A 
ATOM     67  F   UNL A   1      38.105  32.044  37.760  1.00  0.00    -0.203 F 
ATOM     68  C   UNL A   1      38.611  34.061  38.860  1.00  0.00     0.198 A 
ATOM     69  C   UNL A   1      40.091  35.650  37.836  1.00  0.00     0.198 A 
ATOM     70  F   UNL A   1      41.003  35.213  35.713  1.00  0.00    -0.203 F 
ATOM     71  F   UNL A   1      37.802  33.712  39.869  1.00  0.00    -0.200 F 
ATOM     72  C   UNL A   1      39.278  35.277  38.896  1.00  0.00     0.200 A 
ATOM     73  F   UNL A   1      40.745  36.820  37.874  1.00  0.00    -0.200 F 
ATOM     74  F   UNL A   1      39.131  36.093  39.949  1.00  0.00    -0.200 F 
ENDBRANCH  50  64
BRANCH  51  75
ATOM     75  C   UNL A   1      40.653  27.991  28.471  1.00  0.00     0.064 A 
ATOM     76  C   UNL A   1      41.442  28.452  27.408  1.00  0.00     0.173 A 
ATOM     77  C   UNL A   1      40.043  26.736  28.335  1.00  0.00     0.173 A 
ATOM     78  F   UNL A   1      42.029  29.656  27.483  1.00  0.00    -0.203 F 
ATOM     79  C   UNL A   1      41.595  27.700  26.245  1.00  0.00     0.198 A 
ATOM     80  C   UNL A   1      40.219  25.972  27.182  1.00  0.00     0.198 A 
ATOM     81  F   UNL A   1      39.283  26.248  29.326  1.00  0.00    -0.203 F 
ATOM     82  F   UNL A   1      42.316  28.186  25.226  1.00  0.00    -0.200 F 
ATOM     83  C   UNL A   1      40.988  26.458  26.135  1.00  0.00     0.200 A 
ATOM     84  F   UNL A   1      39.642  24.767  27.086  1.00  0.00    -0.200 F 
ATOM     85  F   UNL A   1      41.137  25.733  25.019  1.00  0.00    -0.200 F 
ENDBRANCH  51  75
BRANCH  63  86
ATOM     86  C   UNL A   1      43.873  28.166  34.644  1.00  0.00     0.064 A 
ATOM     87  C   UNL A   1      45.205  28.601  34.581  1.00  0.00     0.173 A 
ATOM     88  C   UNL A   1      43.605  26.960  35.311  1.00  0.00     0.173 A 
ATOM     89  F   UNL A   1      45.513  29.740  33.942  1.00  0.00    -0.203 F 
ATOM     90  C   UNL A   1      46.231  27.846  35.144  1.00  0.00     0.198 A 
ATOM     91  C   UNL A   1      44.630  26.223  35.898  1.00  0.00     0.198 A 
ATOM     92  F   UNL A   1      42.348  26.504  35.404  1.00  0.00    -0.203 F 
ATOM     93  F   UNL A   1      47.501  28.259  35.033  1.00  0.00    -0.200 F 
ATOM     94  C   UNL A   1      45.942  26.663  35.808  1.00  0.00     0.200 A 
ATOM     95  F   UNL A   1      44.349  25.087  36.550  1.00  0.00    -0.200 F 
ATOM     96  F   UNL A   1      46.930  25.943  36.355  1.00  0.00    -0.200 F 
ENDBRANCH  63  86
ENDBRANCH  37  38
ENDBRANCH  29  32
ENDBRANCH  27  28
ENDBRANCH  26  27
ENDBRANCH   1  26
TORSDOF 14
ENDMDL
