MODEL 1
REMARK VINA RESULT:     -12.6      0.000      0.000
REMARK SMILES CCN1C(=O)C[C@@H](C(=O)NCCCCNC(=O)c2ccc(-c3c4nc(c(-c5c(F)c(F)c(F)c(F)c5F)c5ccc([nH]5)c(-c5c(F)c(F)c(F)c(F)c5F)c5nc(c(-c6c(F)c(F)c(F)c(F)c6F)c6ccc3[nH]6)C=C5)C=C4)cc2)[C@H]1c1ccccc1C1CC1
REMARK SMILES IDX 12 1 11 2 10 3 8 4 9 5 7 7 3 8 4 9 81 10 5 11 6 12 2 13 1 14
REMARK SMILES IDX 82 15 83 16 87 17 84 18 86 19 85 20 88 21 89 22 90 23 13 24
REMARK SMILES IDX 14 25 15 26 16 27 17 29 18 30 19 31 80 32 20 33 79 34 21 35
REMARK SMILES IDX 22 36 23 37 73 38 24 39 78 40 72 41 74 42 25 43 77 44 71 45
REMARK SMILES IDX 70 46 26 48 58 49 38 50 57 51 39 52 42 53 56 54 75 55 40 56
REMARK SMILES IDX 41 57 55 59 76 60 43 61 27 62 28 63 36 64 29 65 30 66 34 67
REMARK SMILES IDX 37 68 31 69 32 70 35 71 33 72 59 73 60 74 68 75 61 76 62 77
REMARK SMILES IDX 66 78 69 79 63 80 64 81 67 82 65 83 44 84 45 85 53 86 46 87
REMARK SMILES IDX 47 88 51 89 54 90 48 91 49 92 52 93 50 94
REMARK H PARENT 10 6 15 28 74 47 42 58
REMARK Flexibility Score: inf
ROOT
ATOM      1  C   UNL A   1      31.820  30.223  26.785  1.00  0.00     0.023 C 
ENDROOT
BRANCH   1   2
ATOM      2  C   UNL A   1      32.485  29.562  25.585  1.00  0.00     0.116 C 
BRANCH   2   3
ATOM      3  N   UNL A   1      31.730  28.457  25.020  1.00  0.00    -0.356 N 
ATOM      4  C   UNL A   1      32.039  27.317  24.365  1.00  0.00     0.226 C 
ATOM      5  O   UNL A   1      31.070  26.573  24.146  1.00  0.00    -0.275 OA
ATOM      6  H   UNL A   1      30.760  28.566  25.144  1.00  0.00     0.163 HD
BRANCH   4   7
ATOM      7  C   UNL A   1      33.421  26.831  23.905  1.00  0.00     0.115 C 
ATOM      8  N   UNL A   1      33.307  24.901  22.613  1.00  0.00    -0.335 N 
ATOM      9  C   UNL A   1      33.278  25.999  21.719  1.00  0.00     0.223 C 
ATOM     10  C   UNL A   1      33.872  25.350  23.908  1.00  0.00     0.128 C 
ATOM     11  O   UNL A   1      33.048  25.953  20.520  1.00  0.00    -0.275 OA
ATOM     12  C   UNL A   1      33.612  27.256  22.460  1.00  0.00     0.116 C 
BRANCH   8  13
ATOM     13  C   UNL A   1      33.194  23.593  21.964  1.00  0.00     0.117 C 
ATOM     14  C   UNL A   1      32.562  22.388  22.627  1.00  0.00     0.027 C 
ENDBRANCH   8  13
BRANCH  10  15
ATOM     15  C   UNL A   1      33.710  24.563  25.211  1.00  0.00    -0.021 A 
ATOM     16  C   UNL A   1      32.466  24.606  25.903  1.00  0.00     0.006 A 
ATOM     17  C   UNL A   1      34.747  23.825  25.834  1.00  0.00    -0.040 A 
ATOM     18  C   UNL A   1      32.148  23.771  26.973  1.00  0.00     0.000 A 
ATOM     19  C   UNL A   1      34.372  22.941  26.890  1.00  0.00     0.004 A 
ATOM     20  C   UNL A   1      33.091  22.881  27.429  1.00  0.00     0.000 A 
BRANCH  17  21
ATOM     21  C   UNL A   1      36.253  23.912  25.602  1.00  0.00     0.019 C 
ATOM     22  C   UNL A   1      37.323  22.862  25.684  1.00  0.00     0.009 C 
ATOM     23  C   UNL A   1      36.771  23.236  24.347  1.00  0.00     0.009 C 
ENDBRANCH  17  21
ENDBRANCH  10  15
ENDBRANCH   4   7
ENDBRANCH   2   3
ENDBRANCH   1   2
BRANCH   1  24
ATOM     24  C   UNL A   1      31.623  31.730  26.700  1.00  0.00     0.023 C 
BRANCH  24  25
ATOM     25  C   UNL A   1      32.802  32.499  27.253  1.00  0.00     0.116 C 
BRANCH  25  26
ATOM     26  N   UNL A   1      32.477  33.890  27.549  1.00  0.00    -0.352 N 
ATOM     27  C   UNL A   1      32.997  34.704  28.528  1.00  0.00     0.251 C 
ATOM     28  H   UNL A   1      31.792  34.300  26.971  1.00  0.00     0.163 HD
ATOM     29  O   UNL A   1      32.528  35.808  28.745  1.00  0.00    -0.269 OA
BRANCH  27  30
ATOM     30  C   UNL A   1      34.116  34.189  29.339  1.00  0.00     0.039 A 
ATOM     31  C   UNL A   1      33.850  33.301  30.381  1.00  0.00     0.014 A 
ATOM     32  C   UNL A   1      35.429  34.532  29.011  1.00  0.00     0.014 A 
ATOM     33  C   UNL A   1      34.914  32.712  31.061  1.00  0.00     0.010 A 
ATOM     34  C   UNL A   1      36.479  33.850  29.597  1.00  0.00     0.010 A 
ATOM     35  C   UNL A   1      36.235  32.959  30.651  1.00  0.00    -0.014 A 
BRANCH  35  36
ATOM     36  C   UNL A   1      37.392  32.350  31.344  1.00  0.00     0.031 A 
ATOM     37  C   UNL A   1      38.128  31.217  30.683  1.00  0.00     0.074 A 
ATOM     38  C   UNL A   1      37.725  32.763  32.581  1.00  0.00     0.049 A 
ATOM     39  N   UNL A   1      39.099  30.474  31.146  1.00  0.00    -0.248 NA
ATOM     40  C   UNL A   1      37.676  30.832  29.333  1.00  0.00     0.031 C 
ATOM     41  C   UNL A   1      37.034  33.803  33.344  1.00  0.00     0.029 A 
ATOM     42  N   UNL A   1      38.727  32.348  33.419  1.00  0.00    -0.354 N 
ATOM     43  C   UNL A   1      39.344  29.525  30.164  1.00  0.00     0.074 A 
ATOM     44  C   UNL A   1      38.373  29.729  29.116  1.00  0.00     0.031 C 
ATOM     45  C   UNL A   1      37.656  33.973  34.522  1.00  0.00     0.029 A 
ATOM     46  C   UNL A   1      38.764  33.028  34.612  1.00  0.00     0.049 A 
ATOM     47  H   UNL A   1      39.361  31.631  33.187  1.00  0.00     0.167 HD
ATOM     48  C   UNL A   1      40.322  28.591  30.121  1.00  0.00     0.037 A 
ATOM     49  C   UNL A   1      39.604  32.898  35.655  1.00  0.00     0.037 A 
ATOM     50  C   UNL A   1      41.317  28.436  31.146  1.00  0.00     0.049 A 
ATOM     51  C   UNL A   1      40.709  31.880  35.567  1.00  0.00     0.074 A 
ATOM     52  C   UNL A   1      42.398  27.576  31.181  1.00  0.00     0.029 A 
ATOM     53  N   UNL A   1      41.354  29.179  32.320  1.00  0.00    -0.354 N 
ATOM     54  N   UNL A   1      40.979  31.033  34.602  1.00  0.00    -0.248 NA
ATOM     55  C   UNL A   1      41.632  31.806  36.706  1.00  0.00     0.031 C 
ATOM     56  C   UNL A   1      43.067  27.769  32.394  1.00  0.00     0.029 A 
ATOM     57  C   UNL A   1      42.432  28.786  33.092  1.00  0.00     0.049 A 
ATOM     58  H   UNL A   1      40.707  29.880  32.566  1.00  0.00     0.167 HD
ATOM     59  C   UNL A   1      42.117  30.347  35.003  1.00  0.00     0.074 A 
ATOM     60  C   UNL A   1      42.495  30.889  36.292  1.00  0.00     0.031 C 
ATOM     61  C   UNL A   1      42.789  29.356  34.366  1.00  0.00     0.037 A 
BRANCH  48  62
ATOM     62  C   UNL A   1      40.369  27.688  28.922  1.00  0.00     0.064 A 
ATOM     63  C   UNL A   1      41.130  28.008  27.786  1.00  0.00     0.173 A 
ATOM     64  C   UNL A   1      39.651  26.483  28.907  1.00  0.00     0.173 A 
ATOM     65  F   UNL A   1      41.822  29.157  27.740  1.00  0.00    -0.203 F 
ATOM     66  C   UNL A   1      41.140  27.178  26.669  1.00  0.00     0.198 A 
ATOM     67  C   UNL A   1      39.691  25.636  27.802  1.00  0.00     0.198 A 
ATOM     68  F   UNL A   1      38.908  26.125  29.965  1.00  0.00    -0.203 F 
ATOM     69  F   UNL A   1      41.823  27.539  25.574  1.00  0.00    -0.200 F 
ATOM     70  C   UNL A   1      40.427  25.989  26.680  1.00  0.00     0.200 A 
ATOM     71  F   UNL A   1      39.011  24.481  27.819  1.00  0.00    -0.200 F 
ATOM     72  F   UNL A   1      40.441  25.188  25.607  1.00  0.00    -0.200 F 
ENDBRANCH  48  62
BRANCH  49  73
ATOM     73  C   UNL A   1      39.462  33.782  36.841  1.00  0.00     0.064 A 
ATOM     74  C   UNL A   1      38.742  33.363  37.969  1.00  0.00     0.173 A 
ATOM     75  C   UNL A   1      40.048  35.056  36.880  1.00  0.00     0.173 A 
ATOM     76  F   UNL A   1      38.151  32.158  37.975  1.00  0.00    -0.203 F 
ATOM     77  C   UNL A   1      38.592  34.191  39.078  1.00  0.00     0.198 A 
ATOM     78  C   UNL A   1      39.921  35.873  38.002  1.00  0.00     0.198 A 
ATOM     79  F   UNL A   1      40.757  35.502  35.833  1.00  0.00    -0.203 F 
ATOM     80  F   UNL A   1      37.859  33.782  40.123  1.00  0.00    -0.200 F 
ATOM     81  C   UNL A   1      39.186  35.443  39.097  1.00  0.00     0.200 A 
ATOM     82  F   UNL A   1      40.512  37.076  38.022  1.00  0.00    -0.200 F 
ATOM     83  F   UNL A   1      39.045  36.239  40.166  1.00  0.00    -0.200 F 
ENDBRANCH  49  73
BRANCH  61  84
ATOM     84  C   UNL A   1      44.019  28.823  35.037  1.00  0.00     0.064 A 
ATOM     85  C   UNL A   1      43.966  27.724  35.906  1.00  0.00     0.173 A 
ATOM     86  C   UNL A   1      45.273  29.391  34.767  1.00  0.00     0.173 A 
ATOM     87  F   UNL A   1      42.788  27.156  36.204  1.00  0.00    -0.203 F 
ATOM     88  C   UNL A   1      45.123  27.228  36.500  1.00  0.00     0.198 A 
ATOM     89  C   UNL A   1      46.431  28.873  35.338  1.00  0.00     0.198 A 
ATOM     90  F   UNL A   1      45.377  30.439  33.935  1.00  0.00    -0.203 F 
ATOM     91  F   UNL A   1      45.045  26.206  37.363  1.00  0.00    -0.200 F 
ATOM     92  C   UNL A   1      46.354  27.797  36.210  1.00  0.00     0.200 A 
ATOM     93  F   UNL A   1      47.621  29.413  35.043  1.00  0.00    -0.200 F 
ATOM     94  F   UNL A   1      47.468  27.311  36.774  1.00  0.00    -0.200 F 
ENDBRANCH  61  84
ENDBRANCH  35  36
ENDBRANCH  27  30
ENDBRANCH  25  26
ENDBRANCH  24  25
ENDBRANCH   1  24
TORSDOF 14
ENDMDL
MODEL 2
REMARK VINA RESULT:     -12.5      1.495      7.795
REMARK SMILES CCN1C(=O)C[C@@H](C(=O)NCCCCNC(=O)c2ccc(-c3c4nc(c(-c5c(F)c(F)c(F)c(F)c5F)c5ccc([nH]5)c(-c5c(F)c(F)c(F)c(F)c5F)c5nc(c(-c6c(F)c(F)c(F)c(F)c6F)c6ccc3[nH]6)C=C5)C=C4)cc2)[C@H]1c1ccccc1C1CC1
REMARK SMILES IDX 12 1 11 2 10 3 8 4 9 5 7 7 3 8 4 9 81 10 5 11 6 12 2 13 1 14
REMARK SMILES IDX 82 15 83 16 87 17 84 18 86 19 85 20 88 21 89 22 90 23 13 24
REMARK SMILES IDX 14 25 15 26 16 27 17 29 18 30 19 31 80 32 20 33 79 34 21 35
REMARK SMILES IDX 22 36 23 37 73 38 24 39 78 40 72 41 74 42 25 43 77 44 71 45
REMARK SMILES IDX 70 46 26 48 58 49 38 50 57 51 39 52 42 53 56 54 75 55 40 56
REMARK SMILES IDX 41 57 55 59 76 60 43 61 27 62 28 63 36 64 29 65 30 66 34 67
REMARK SMILES IDX 37 68 31 69 32 70 35 71 33 72 59 73 60 74 68 75 61 76 62 77
REMARK SMILES IDX 66 78 69 79 63 80 64 81 67 82 65 83 44 84 45 85 53 86 46 87
REMARK SMILES IDX 47 88 51 89 54 90 48 91 49 92 52 93 50 94
REMARK H PARENT 10 6 15 28 74 47 42 58
REMARK Flexibility Score: inf
ROOT
ATOM      1  C   UNL A   1      31.689  30.439  26.025  1.00  0.00     0.023 C 
ENDROOT
BRANCH   1   2
ATOM      2  C   UNL A   1      31.777  29.355  27.091  1.00  0.00     0.116 C 
BRANCH   2   3
ATOM      3  N   UNL A   1      32.737  28.306  26.795  1.00  0.00    -0.356 N 
ATOM      4  C   UNL A   1      32.663  27.031  26.354  1.00  0.00     0.226 C 
ATOM      5  O   UNL A   1      33.763  26.503  26.124  1.00  0.00    -0.275 OA
ATOM      6  H   UNL A   1      33.664  28.593  26.954  1.00  0.00     0.163 HD
BRANCH   4   7
ATOM      7  C   UNL A   1      31.406  26.194  26.077  1.00  0.00     0.115 C 
ATOM      8  N   UNL A   1      31.645  24.805  24.227  1.00  0.00    -0.335 N 
ATOM      9  C   UNL A   1      32.026  24.050  25.362  1.00  0.00     0.223 C 
ATOM     10  C   UNL A   1      30.812  25.950  24.669  1.00  0.00     0.128 C 
ATOM     11  O   UNL A   1      32.556  22.950  25.357  1.00  0.00    -0.275 OA
ATOM     12  C   UNL A   1      31.648  24.792  26.607  1.00  0.00     0.116 C 
BRANCH   8  13
ATOM     13  C   UNL A   1      31.781  24.092  22.955  1.00  0.00     0.117 C 
ATOM     14  C   UNL A   1      33.077  24.022  22.176  1.00  0.00     0.027 C 
ENDBRANCH   8  13
BRANCH  10  15
ATOM     15  C   UNL A   1      30.540  27.175  23.793  1.00  0.00    -0.021 A 
ATOM     16  C   UNL A   1      29.195  27.546  23.507  1.00  0.00     0.006 A 
ATOM     17  C   UNL A   1      31.549  27.956  23.174  1.00  0.00    -0.040 A 
ATOM     18  C   UNL A   1      28.838  28.750  22.900  1.00  0.00     0.000 A 
ATOM     19  C   UNL A   1      31.151  29.206  22.612  1.00  0.00     0.004 A 
ATOM     20  C   UNL A   1      29.827  29.620  22.509  1.00  0.00     0.000 A 
BRANCH  17  21
ATOM     21  C   UNL A   1      33.013  27.603  22.928  1.00  0.00     0.019 C 
ATOM     22  C   UNL A   1      34.027  28.203  21.998  1.00  0.00     0.009 C 
ATOM     23  C   UNL A   1      34.032  28.604  23.438  1.00  0.00     0.009 C 
ENDBRANCH  17  21
ENDBRANCH  10  15
ENDBRANCH   4   7
ENDBRANCH   2   3
ENDBRANCH   1   2
BRANCH   1  24
ATOM     24  C   UNL A   1      31.419  31.851  26.523  1.00  0.00     0.023 C 
BRANCH  24  25
ATOM     25  C   UNL A   1      32.606  32.446  27.249  1.00  0.00     0.116 C 
BRANCH  25  26
ATOM     26  N   UNL A   1      32.422  33.858  27.564  1.00  0.00    -0.352 N 
ATOM     27  C   UNL A   1      33.091  34.625  28.488  1.00  0.00     0.251 C 
ATOM     28  H   UNL A   1      31.725  34.324  27.047  1.00  0.00     0.163 HD
ATOM     29  O   UNL A   1      32.734  35.764  28.740  1.00  0.00    -0.269 OA
BRANCH  27  30
ATOM     30  C   UNL A   1      34.232  34.020  29.201  1.00  0.00     0.039 A 
ATOM     31  C   UNL A   1      33.987  33.141  30.255  1.00  0.00     0.014 A 
ATOM     32  C   UNL A   1      35.535  34.270  28.767  1.00  0.00     0.014 A 
ATOM     33  C   UNL A   1      35.057  32.467  30.841  1.00  0.00     0.010 A 
ATOM     34  C   UNL A   1      36.577  33.505  29.260  1.00  0.00     0.010 A 
ATOM     35  C   UNL A   1      36.354  32.622  30.324  1.00  0.00    -0.014 A 
BRANCH  35  36
ATOM     36  C   UNL A   1      37.516  31.921  30.915  1.00  0.00     0.031 A 
ATOM     37  C   UNL A   1      37.974  32.300  32.297  1.00  0.00     0.074 A 
ATOM     38  C   UNL A   1      38.193  31.013  30.187  1.00  0.00     0.049 A 
ATOM     39  N   UNL A   1      39.021  31.893  32.966  1.00  0.00    -0.248 NA
ATOM     40  C   UNL A   1      37.173  33.315  33.004  1.00  0.00     0.031 C 
ATOM     41  C   UNL A   1      37.879  30.624  28.811  1.00  0.00     0.029 A 
ATOM     42  N   UNL A   1      39.293  30.259  30.502  1.00  0.00    -0.354 N 
ATOM     43  C   UNL A   1      39.017  32.623  34.147  1.00  0.00     0.074 A 
ATOM     44  C   UNL A   1      37.916  33.554  34.073  1.00  0.00     0.031 C 
ATOM     45  C   UNL A   1      38.742  29.674  28.414  1.00  0.00     0.029 A 
ATOM     46  C   UNL A   1      39.691  29.417  29.492  1.00  0.00     0.049 A 
ATOM     47  H   UNL A   1      39.753  30.314  31.371  1.00  0.00     0.167 HD
ATOM     48  C   UNL A   1      39.835  32.497  35.217  1.00  0.00     0.037 A 
ATOM     49  C   UNL A   1      40.708  28.538  29.451  1.00  0.00     0.037 A 
ATOM     50  C   UNL A   1      40.891  31.528  35.299  1.00  0.00     0.049 A 
ATOM     51  C   UNL A   1      41.580  28.387  30.669  1.00  0.00     0.074 A 
ATOM     52  C   UNL A   1      41.738  31.258  36.357  1.00  0.00     0.029 A 
ATOM     53  N   UNL A   1      41.234  30.655  34.273  1.00  0.00    -0.354 N 
ATOM     54  N   UNL A   1      41.525  29.032  31.810  1.00  0.00    -0.248 NA
ATOM     55  C   UNL A   1      42.647  27.382  30.598  1.00  0.00     0.031 C 
ATOM     56  C   UNL A   1      42.621  30.248  35.958  1.00  0.00     0.029 A 
ATOM     57  C   UNL A   1      42.290  29.855  34.670  1.00  0.00     0.049 A 
ATOM     58  H   UNL A   1      40.791  30.613  33.395  1.00  0.00     0.167 HD
ATOM     59  C   UNL A   1      42.528  28.491  32.603  1.00  0.00     0.074 A 
ATOM     60  C   UNL A   1      43.165  27.455  31.816  1.00  0.00     0.031 C 
ATOM     61  C   UNL A   1      42.893  28.821  33.867  1.00  0.00     0.037 A 
BRANCH  48  62
ATOM     62  C   UNL A   1      39.600  33.416  36.382  1.00  0.00     0.064 A 
ATOM     63  C   UNL A   1      38.766  33.052  37.452  1.00  0.00     0.173 A 
ATOM     64  C   UNL A   1      40.220  34.673  36.436  1.00  0.00     0.173 A 
ATOM     65  F   UNL A   1      38.134  31.868  37.442  1.00  0.00    -0.203 F 
ATOM     66  C   UNL A   1      38.533  33.925  38.511  1.00  0.00     0.198 A 
ATOM     67  C   UNL A   1      40.013  35.530  37.515  1.00  0.00     0.198 A 
ATOM     68  F   UNL A   1      41.028  35.073  35.443  1.00  0.00    -0.203 F 
ATOM     69  F   UNL A   1      37.682  33.579  39.487  1.00  0.00    -0.200 F 
ATOM     70  C   UNL A   1      39.162  35.160  38.546  1.00  0.00     0.200 A 
ATOM     71  F   UNL A   1      40.632  36.718  37.553  1.00  0.00    -0.200 F 
ATOM     72  F   UNL A   1      38.940  35.998  39.567  1.00  0.00    -0.200 F 
ENDBRANCH  48  62
BRANCH  49  73
ATOM     73  C   UNL A   1      40.925  27.705  28.240  1.00  0.00     0.064 A 
ATOM     74  C   UNL A   1      40.338  26.436  28.125  1.00  0.00     0.173 A 
ATOM     75  C   UNL A   1      41.711  28.157  27.169  1.00  0.00     0.173 A 
ATOM     76  F   UNL A   1      39.589  25.953  29.127  1.00  0.00    -0.203 F 
ATOM     77  C   UNL A   1      40.549  25.643  26.999  1.00  0.00     0.198 A 
ATOM     78  C   UNL A   1      41.898  27.373  26.032  1.00  0.00     0.198 A 
ATOM     79  F   UNL A   1      42.286  29.367  27.223  1.00  0.00    -0.203 F 
ATOM     80  F   UNL A   1      40.013  24.416  26.937  1.00  0.00    -0.200 F 
ATOM     81  C   UNL A   1      41.324  26.114  25.951  1.00  0.00     0.200 A 
ATOM     82  F   UNL A   1      42.634  27.840  25.014  1.00  0.00    -0.200 F 
ATOM     83  F   UNL A   1      41.523  25.353  24.866  1.00  0.00    -0.200 F 
ENDBRANCH  49  73
BRANCH  61  84
ATOM     84  C   UNL A   1      44.006  28.030  34.486  1.00  0.00     0.064 A 
ATOM     85  C   UNL A   1      45.338  28.463  34.425  1.00  0.00     0.173 A 
ATOM     86  C   UNL A   1      43.726  26.850  35.191  1.00  0.00     0.173 A 
ATOM     87  F   UNL A   1      45.656  29.578  33.751  1.00  0.00    -0.203 F 
ATOM     88  C   UNL A   1      46.354  27.727  35.027  1.00  0.00     0.198 A 
ATOM     89  C   UNL A   1      44.740  26.134  35.819  1.00  0.00     0.198 A 
ATOM     90  F   UNL A   1      42.465  26.400  35.285  1.00  0.00    -0.203 F 
ATOM     91  F   UNL A   1      47.627  28.132  34.918  1.00  0.00    -0.200 F 
ATOM     92  C   UNL A   1      46.054  26.569  35.730  1.00  0.00     0.200 A 
ATOM     93  F   UNL A   1      44.446  25.026  36.511  1.00  0.00    -0.200 F 
ATOM     94  F   UNL A   1      47.033  25.869  36.319  1.00  0.00    -0.200 F 
ENDBRANCH  61  84
ENDBRANCH  35  36
ENDBRANCH  27  30
ENDBRANCH  25  26
ENDBRANCH  24  25
ENDBRANCH   1  24
TORSDOF 14
ENDMDL
MODEL 3
REMARK VINA RESULT:     -12.5      1.335      2.907
REMARK SMILES CCN1C(=O)C[C@@H](C(=O)NCCCCNC(=O)c2ccc(-c3c4nc(c(-c5c(F)c(F)c(F)c(F)c5F)c5ccc([nH]5)c(-c5c(F)c(F)c(F)c(F)c5F)c5nc(c(-c6c(F)c(F)c(F)c(F)c6F)c6ccc3[nH]6)C=C5)C=C4)cc2)[C@H]1c1ccccc1C1CC1
REMARK SMILES IDX 12 1 11 2 10 3 8 4 9 5 7 7 3 8 4 9 81 10 5 11 6 12 2 13 1 14
REMARK SMILES IDX 82 15 83 16 87 17 84 18 86 19 85 20 88 21 89 22 90 23 13 24
REMARK SMILES IDX 14 25 15 26 16 27 17 29 18 30 19 31 80 32 20 33 79 34 21 35
REMARK SMILES IDX 22 36 23 37 73 38 24 39 78 40 72 41 74 42 25 43 77 44 71 45
REMARK SMILES IDX 70 46 26 48 58 49 38 50 57 51 39 52 42 53 56 54 75 55 40 56
REMARK SMILES IDX 41 57 55 59 76 60 43 61 27 62 28 63 36 64 29 65 30 66 34 67
REMARK SMILES IDX 37 68 31 69 32 70 35 71 33 72 59 73 60 74 68 75 61 76 62 77
REMARK SMILES IDX 66 78 69 79 63 80 64 81 67 82 65 83 44 84 45 85 53 86 46 87
REMARK SMILES IDX 47 88 51 89 54 90 48 91 49 92 52 93 50 94
REMARK H PARENT 10 6 15 28 74 47 42 58
REMARK Flexibility Score: inf
ROOT
ATOM      1  C   UNL A   1      31.958  30.556  26.140  1.00  0.00     0.023 C 
ENDROOT
BRANCH   1   2
ATOM      2  C   UNL A   1      31.778  29.331  27.026  1.00  0.00     0.116 C 
BRANCH   2   3
ATOM      3  N   UNL A   1      32.723  28.261  26.763  1.00  0.00    -0.356 N 
ATOM      4  C   UNL A   1      32.635  26.982  26.338  1.00  0.00     0.226 C 
ATOM      5  O   UNL A   1      33.730  26.431  26.137  1.00  0.00    -0.275 OA
ATOM      6  H   UNL A   1      33.653  28.533  26.936  1.00  0.00     0.163 HD
BRANCH   4   7
ATOM      7  C   UNL A   1      31.369  26.163  26.049  1.00  0.00     0.115 C 
ATOM      8  N   UNL A   1      31.593  24.799  24.178  1.00  0.00    -0.335 N 
ATOM      9  C   UNL A   1      31.965  24.023  25.303  1.00  0.00     0.223 C 
ATOM     10  C   UNL A   1      30.773  25.946  24.636  1.00  0.00     0.128 C 
ATOM     11  O   UNL A   1      32.483  22.917  25.282  1.00  0.00    -0.275 OA
ATOM     12  C   UNL A   1      31.594  24.751  26.558  1.00  0.00     0.116 C 
BRANCH   8  13
ATOM     13  C   UNL A   1      31.723  24.103  22.896  1.00  0.00     0.117 C 
ATOM     14  C   UNL A   1      33.013  24.047  22.107  1.00  0.00     0.027 C 
ENDBRANCH   8  13
BRANCH  10  15
ATOM     15  C   UNL A   1      30.517  27.188  23.778  1.00  0.00    -0.021 A 
ATOM     16  C   UNL A   1      29.176  27.581  23.500  1.00  0.00     0.006 A 
ATOM     17  C   UNL A   1      31.535  27.963  23.168  1.00  0.00    -0.040 A 
ATOM     18  C   UNL A   1      28.834  28.798  22.911  1.00  0.00     0.000 A 
ATOM     19  C   UNL A   1      31.152  29.227  22.625  1.00  0.00     0.004 A 
ATOM     20  C   UNL A   1      29.834  29.660  22.530  1.00  0.00     0.000 A 
BRANCH  17  21
ATOM     21  C   UNL A   1      32.994  27.594  22.914  1.00  0.00     0.019 C 
ATOM     22  C   UNL A   1      34.018  28.203  22.002  1.00  0.00     0.009 C 
ATOM     23  C   UNL A   1      34.027  28.566  23.451  1.00  0.00     0.009 C 
ENDBRANCH  17  21
ENDBRANCH  10  15
ENDBRANCH   4   7
ENDBRANCH   2   3
ENDBRANCH   1   2
BRANCH   1  24
ATOM     24  C   UNL A   1      31.565  31.893  26.751  1.00  0.00     0.023 C 
BRANCH  24  25
ATOM     25  C   UNL A   1      32.755  32.654  27.293  1.00  0.00     0.116 C 
BRANCH  25  26
ATOM     26  N   UNL A   1      32.445  34.051  27.579  1.00  0.00    -0.352 N 
ATOM     27  C   UNL A   1      32.987  34.870  28.540  1.00  0.00     0.251 C 
ATOM     28  H   UNL A   1      31.756  34.461  27.006  1.00  0.00     0.163 HD
ATOM     29  O   UNL A   1      32.531  35.981  28.753  1.00  0.00    -0.269 OA
BRANCH  27  30
ATOM     30  C   UNL A   1      34.113  34.354  29.341  1.00  0.00     0.039 A 
ATOM     31  C   UNL A   1      33.848  33.616  30.494  1.00  0.00     0.014 A 
ATOM     32  C   UNL A   1      35.425  34.542  28.899  1.00  0.00     0.014 A 
ATOM     33  C   UNL A   1      34.905  33.017  31.176  1.00  0.00     0.010 A 
ATOM     34  C   UNL A   1      36.454  33.841  29.500  1.00  0.00     0.010 A 
ATOM     35  C   UNL A   1      36.210  33.100  30.664  1.00  0.00    -0.014 A 
BRANCH  35  36
ATOM     36  C   UNL A   1      37.359  32.474  31.355  1.00  0.00     0.031 A 
ATOM     37  C   UNL A   1      38.095  31.349  30.682  1.00  0.00     0.074 A 
ATOM     38  C   UNL A   1      37.685  32.865  32.602  1.00  0.00     0.049 A 
ATOM     39  N   UNL A   1      39.058  30.593  31.141  1.00  0.00    -0.248 NA
ATOM     40  C   UNL A   1      37.651  30.987  29.323  1.00  0.00     0.031 C 
ATOM     41  C   UNL A   1      36.993  33.897  33.376  1.00  0.00     0.029 A 
ATOM     42  N   UNL A   1      38.679  32.432  33.440  1.00  0.00    -0.354 N 
ATOM     43  C   UNL A   1      39.307  29.659  30.145  1.00  0.00     0.074 A 
ATOM     44  C   UNL A   1      38.345  29.884  29.093  1.00  0.00     0.031 C 
ATOM     45  C   UNL A   1      37.607  34.044  34.561  1.00  0.00     0.029 A 
ATOM     46  C   UNL A   1      38.710  33.093  34.644  1.00  0.00     0.049 A 
ATOM     47  H   UNL A   1      39.311  31.716  33.202  1.00  0.00     0.167 HD
ATOM     48  C   UNL A   1      40.281  28.721  30.095  1.00  0.00     0.037 A 
ATOM     49  C   UNL A   1      39.541  32.942  35.691  1.00  0.00     0.037 A 
ATOM     50  C   UNL A   1      41.267  28.545  31.125  1.00  0.00     0.049 A 
ATOM     51  C   UNL A   1      40.641  31.920  35.596  1.00  0.00     0.074 A 
ATOM     52  C   UNL A   1      42.343  27.678  31.153  1.00  0.00     0.029 A 
ATOM     53  N   UNL A   1      41.298  29.268  32.311  1.00  0.00    -0.354 N 
ATOM     54  N   UNL A   1      40.915  31.087  34.619  1.00  0.00    -0.248 NA
ATOM     55  C   UNL A   1      41.555  31.823  36.741  1.00  0.00     0.031 C 
ATOM     56  C   UNL A   1      43.004  27.849  32.375  1.00  0.00     0.029 A 
ATOM     57  C   UNL A   1      42.369  28.857  33.084  1.00  0.00     0.049 A 
ATOM     58  H   UNL A   1      40.653  29.968  32.562  1.00  0.00     0.167 HD
ATOM     59  C   UNL A   1      42.046  30.389  35.018  1.00  0.00     0.074 A 
ATOM     60  C   UNL A   1      42.417  30.908  36.318  1.00  0.00     0.031 C 
ATOM     61  C   UNL A   1      42.719  29.405  34.370  1.00  0.00     0.037 A 
BRANCH  48  62
ATOM     62  C   UNL A   1      40.332  27.837  28.881  1.00  0.00     0.064 A 
ATOM     63  C   UNL A   1      39.629  26.623  28.822  1.00  0.00     0.173 A 
ATOM     64  C   UNL A   1      41.088  28.208  27.760  1.00  0.00     0.173 A 
ATOM     65  F   UNL A   1      38.904  26.211  29.874  1.00  0.00    -0.203 F 
ATOM     66  C   UNL A   1      39.710  25.799  27.704  1.00  0.00     0.198 A 
ATOM     67  C   UNL A   1      41.139  27.398  26.628  1.00  0.00     0.198 A 
ATOM     68  F   UNL A   1      41.780  29.358  27.760  1.00  0.00    -0.203 F 
ATOM     69  F   UNL A   1      39.080  24.615  27.698  1.00  0.00    -0.200 F 
ATOM     70  C   UNL A   1      40.459  26.190  26.604  1.00  0.00     0.200 A 
ATOM     71  F   UNL A   1      41.853  27.783  25.561  1.00  0.00    -0.200 F 
ATOM     72  F   UNL A   1      40.533  25.398  25.527  1.00  0.00    -0.200 F 
ENDBRANCH  48  62
BRANCH  49  73
ATOM     73  C   UNL A   1      39.394  33.807  36.891  1.00  0.00     0.064 A 
ATOM     74  C   UNL A   1      39.971  35.084  36.932  1.00  0.00     0.173 A 
ATOM     75  C   UNL A   1      38.669  33.384  38.015  1.00  0.00     0.173 A 
ATOM     76  F   UNL A   1      40.685  35.529  35.886  1.00  0.00    -0.203 F 
ATOM     77  C   UNL A   1      39.850  35.895  38.058  1.00  0.00     0.198 A 
ATOM     78  C   UNL A   1      38.526  34.208  39.130  1.00  0.00     0.198 A 
ATOM     79  F   UNL A   1      38.088  32.176  38.025  1.00  0.00    -0.203 F 
ATOM     80  F   UNL A   1      40.451  37.092  38.086  1.00  0.00    -0.200 F 
ATOM     81  C   UNL A   1      39.124  35.459  39.155  1.00  0.00     0.200 A 
ATOM     82  F   UNL A   1      37.808  33.789  40.182  1.00  0.00    -0.200 F 
ATOM     83  F   UNL A   1      39.004  36.240  40.236  1.00  0.00    -0.200 F 
ENDBRANCH  49  73
BRANCH  61  84
ATOM     84  C   UNL A   1      43.941  28.855  35.042  1.00  0.00     0.064 A 
ATOM     85  C   UNL A   1      43.875  27.747  35.898  1.00  0.00     0.173 A 
ATOM     86  C   UNL A   1      45.200  29.417  34.785  1.00  0.00     0.173 A 
ATOM     87  F   UNL A   1      42.691  27.184  36.183  1.00  0.00    -0.203 F 
ATOM     88  C   UNL A   1      45.024  27.236  36.492  1.00  0.00     0.198 A 
ATOM     89  C   UNL A   1      46.352  28.884  35.356  1.00  0.00     0.198 A 
ATOM     90  F   UNL A   1      45.317  30.474  33.966  1.00  0.00    -0.203 F 
ATOM     91  F   UNL A   1      44.934  26.205  37.344  1.00  0.00    -0.200 F 
ATOM     92  C   UNL A   1      46.262  27.798  36.215  1.00  0.00     0.200 A 
ATOM     93  F   UNL A   1      47.547  29.418  35.074  1.00  0.00    -0.200 F 
ATOM     94  F   UNL A   1      47.369  27.297  36.780  1.00  0.00    -0.200 F 
ENDBRANCH  61  84
ENDBRANCH  35  36
ENDBRANCH  27  30
ENDBRANCH  25  26
ENDBRANCH  24  25
ENDBRANCH   1  24
TORSDOF 14
ENDMDL
