MODEL 1
REMARK VINA RESULT:     -12.2      0.000      0.000
REMARK SMILES O=C(NCCCCNC(=O)c1ccc(-c2c3nc(c(-c4c(F)c(F)c(F)c(F)c4F)c4ccc([nH]4)c(-c4c(F)c(F)c(F)c(F)c4F)c4nc(c(-c5c(F)c(F)c(F)c(F)c5F)c5ccc2[nH]5)C=C4)C=C3)cc1)C1=Cc2cc(Cl)ccc2O[C@@H]1C(F)(F)F
REMARK SMILES IDX 6 1 5 2 4 3 3 4 1 5 2 6 74 8 75 9 84 10 76 11 83 12 77 13
REMARK SMILES IDX 82 14 78 15 81 16 79 17 80 18 85 19 86 20 87 21 88 22 7 23
REMARK SMILES IDX 8 24 9 25 10 27 11 28 12 29 73 30 13 31 72 32 14 33 15 34
REMARK SMILES IDX 16 35 66 36 17 37 71 38 65 39 67 40 18 41 70 42 64 43 63 44
REMARK SMILES IDX 19 46 51 47 31 48 50 49 32 50 35 51 49 52 68 53 33 54 34 55
REMARK SMILES IDX 48 57 69 58 36 59 20 60 21 61 29 62 22 63 23 64 27 65 30 66
REMARK SMILES IDX 24 67 25 68 28 69 26 70 52 71 53 72 61 73 54 74 55 75 59 76
REMARK SMILES IDX 62 77 56 78 57 79 60 80 58 81 37 82 38 83 46 84 39 85 40 86
REMARK SMILES IDX 44 87 47 88 41 89 42 90 45 91 43 92
REMARK H PARENT 3 7 8 26 67 45 35 56
REMARK Flexibility Score: inf
ROOT
ATOM      1  C   UNL A   1      33.354  28.203  27.222  1.00  0.00     0.023 C 
ENDROOT
BRANCH   1   2
ATOM      2  C   UNL A   1      31.849  27.930  27.322  1.00  0.00     0.023 C 
BRANCH   2   3
ATOM      3  C   UNL A   1      31.299  27.070  26.177  1.00  0.00     0.116 C 
BRANCH   3   4
ATOM      4  N   UNL A   1      31.256  25.639  26.496  1.00  0.00    -0.352 N 
ATOM      5  O   UNL A   1      32.102  23.559  26.811  1.00  0.00    -0.270 OA
ATOM      6  C   UNL A   1      32.166  24.640  26.244  1.00  0.00     0.251 C 
ATOM      7  H   UNL A   1      30.443  25.346  26.967  1.00  0.00     0.163 HD
BRANCH   6   8
ATOM      8  C   UNL A   1      33.266  24.946  25.315  1.00  0.00     0.067 C 
ATOM      9  C   UNL A   1      34.494  25.041  25.838  1.00  0.00     0.025 C 
ATOM     10  C   UNL A   1      33.012  24.780  23.848  1.00  0.00     0.314 C 
ATOM     11  C   UNL A   1      35.498  24.301  25.069  1.00  0.00     0.019 A 
ATOM     12  O   UNL A   1      33.929  23.836  23.239  1.00  0.00    -0.475 OA
ATOM     13  C   UNL A   1      36.667  23.922  25.735  1.00  0.00     0.032 A 
ATOM     14  C   UNL A   1      35.128  23.642  23.880  1.00  0.00     0.128 A 
ATOM     15  C   UNL A   1      37.408  22.841  25.262  1.00  0.00     0.041 A 
ATOM     16  C   UNL A   1      35.903  22.593  23.390  1.00  0.00     0.048 A 
ATOM     17  Cl  UNL A   1      38.726  22.254  26.197  1.00  0.00    -0.084 Cl
ATOM     18  C   UNL A   1      37.028  22.171  24.100  1.00  0.00     0.024 A 
BRANCH  10  19
ATOM     19  C   UNL A   1      33.050  26.128  23.108  1.00  0.00     0.429 C 
ATOM     20  F   UNL A   1      31.800  26.630  22.951  1.00  0.00    -0.167 F 
ATOM     21  F   UNL A   1      33.761  27.058  23.785  1.00  0.00    -0.167 F 
ATOM     22  F   UNL A   1      33.595  26.024  21.874  1.00  0.00    -0.167 F 
ENDBRANCH  10  19
ENDBRANCH   6   8
ENDBRANCH   3   4
ENDBRANCH   2   3
ENDBRANCH   1   2
BRANCH   1  23
ATOM     23  C   UNL A   1      33.767  29.523  26.575  1.00  0.00     0.116 C 
BRANCH  23  24
ATOM     24  N   UNL A   1      33.761  30.670  27.469  1.00  0.00    -0.352 N 
ATOM     25  C   UNL A   1      34.747  31.079  28.353  1.00  0.00     0.251 C 
ATOM     26  H   UNL A   1      32.951  31.228  27.444  1.00  0.00     0.163 HD
ATOM     27  O   UNL A   1      34.592  32.061  29.054  1.00  0.00    -0.269 OA
BRANCH  25  28
ATOM     28  C   UNL A   1      35.976  30.260  28.484  1.00  0.00     0.039 A 
ATOM     29  C   UNL A   1      36.905  30.278  27.439  1.00  0.00     0.014 A 
ATOM     30  C   UNL A   1      36.257  29.568  29.665  1.00  0.00     0.014 A 
ATOM     31  C   UNL A   1      38.168  29.711  27.629  1.00  0.00     0.010 A 
ATOM     32  C   UNL A   1      37.539  29.066  29.877  1.00  0.00     0.010 A 
ATOM     33  C   UNL A   1      38.517  29.165  28.876  1.00  0.00    -0.014 A 
BRANCH  33  34
ATOM     34  C   UNL A   1      39.920  28.781  29.178  1.00  0.00     0.031 A 
ATOM     35  C   UNL A   1      40.848  29.735  29.871  1.00  0.00     0.074 A 
ATOM     36  C   UNL A   1      40.389  27.598  28.731  1.00  0.00     0.049 A 
ATOM     37  N   UNL A   1      42.120  29.597  30.149  1.00  0.00    -0.248 NA
ATOM     38  C   UNL A   1      40.280  31.029  30.275  1.00  0.00     0.031 C 
ATOM     39  C   UNL A   1      39.612  26.613  27.976  1.00  0.00     0.029 A 
ATOM     40  N   UNL A   1      41.636  27.030  28.829  1.00  0.00    -0.354 N 
ATOM     41  C   UNL A   1      42.506  30.786  30.751  1.00  0.00     0.074 A 
ATOM     42  C   UNL A   1      41.347  31.655  30.747  1.00  0.00     0.031 C 
ATOM     43  C   UNL A   1      40.392  25.558  27.695  1.00  0.00     0.029 A 
ATOM     44  C   UNL A   1      41.732  25.804  28.221  1.00  0.00     0.049 A 
ATOM     45  H   UNL A   1      42.389  27.462  29.293  1.00  0.00     0.167 HD
ATOM     46  C   UNL A   1      43.709  31.115  31.278  1.00  0.00     0.037 A 
ATOM     47  C   UNL A   1      42.782  24.969  28.093  1.00  0.00     0.037 A 
ATOM     48  C   UNL A   1      44.856  30.244  31.298  1.00  0.00     0.049 A 
ATOM     49  C   UNL A   1      44.104  25.350  28.696  1.00  0.00     0.074 A 
ATOM     50  C   UNL A   1      46.091  30.453  31.887  1.00  0.00     0.029 A 
ATOM     51  N   UNL A   1      44.909  28.997  30.693  1.00  0.00    -0.354 N 
ATOM     52  N   UNL A   1      44.432  26.440  29.344  1.00  0.00    -0.248 NA
ATOM     53  C   UNL A   1      45.200  24.382  28.553  1.00  0.00     0.031 C 
ATOM     54  C   UNL A   1      46.905  29.352  31.601  1.00  0.00     0.029 A 
ATOM     55  C   UNL A   1      46.166  28.438  30.868  1.00  0.00     0.049 A 
ATOM     56  H   UNL A   1      44.165  28.572  30.209  1.00  0.00     0.167 HD
ATOM     57  C   UNL A   1      45.765  26.290  29.695  1.00  0.00     0.074 A 
ATOM     58  C   UNL A   1      46.181  24.991  29.206  1.00  0.00     0.031 C 
ATOM     59  C   UNL A   1      46.572  27.152  30.361  1.00  0.00     0.037 A 
BRANCH  46  60
ATOM     60  C   UNL A   1      43.841  32.483  31.883  1.00  0.00     0.064 A 
ATOM     61  C   UNL A   1      44.264  33.583  31.121  1.00  0.00     0.173 A 
ATOM     62  C   UNL A   1      43.536  32.699  33.234  1.00  0.00     0.173 A 
ATOM     63  F   UNL A   1      44.580  33.426  29.826  1.00  0.00    -0.203 F 
ATOM     64  C   UNL A   1      44.415  34.840  31.700  1.00  0.00     0.198 A 
ATOM     65  C   UNL A   1      43.660  33.964  33.803  1.00  0.00     0.198 A 
ATOM     66  F   UNL A   1      43.122  31.682  34.006  1.00  0.00    -0.203 F 
ATOM     67  F   UNL A   1      44.877  35.862  30.966  1.00  0.00    -0.200 F 
ATOM     68  C   UNL A   1      44.109  35.030  33.039  1.00  0.00     0.200 A 
ATOM     69  F   UNL A   1      43.355  34.149  35.096  1.00  0.00    -0.200 F 
ATOM     70  F   UNL A   1      44.259  36.240  33.596  1.00  0.00    -0.200 F 
ENDBRANCH  46  60
BRANCH  47  71
ATOM     71  C   UNL A   1      42.608  23.679  27.378  1.00  0.00     0.064 A 
ATOM     72  C   UNL A   1      43.013  23.538  26.044  1.00  0.00     0.173 A 
ATOM     73  C   UNL A   1      42.064  22.558  28.019  1.00  0.00     0.173 A 
ATOM     74  F   UNL A   1      43.521  24.590  25.384  1.00  0.00    -0.203 F 
ATOM     75  C   UNL A   1      42.874  22.324  25.375  1.00  0.00     0.198 A 
ATOM     76  C   UNL A   1      41.946  21.338  27.357  1.00  0.00     0.198 A 
ATOM     77  F   UNL A   1      41.668  22.642  29.298  1.00  0.00    -0.203 F 
ATOM     78  F   UNL A   1      43.244  22.222  24.092  1.00  0.00    -0.200 F 
ATOM     79  C   UNL A   1      42.348  21.223  26.035  1.00  0.00     0.200 A 
ATOM     80  F   UNL A   1      41.451  20.273  28.001  1.00  0.00    -0.200 F 
ATOM     81  F   UNL A   1      42.227  20.051  25.395  1.00  0.00    -0.200 F 
ENDBRANCH  47  71
BRANCH  59  82
ATOM     82  C   UNL A   1      47.989  26.720  30.595  1.00  0.00     0.064 A 
ATOM     83  C   UNL A   1      49.021  27.102  29.726  1.00  0.00     0.173 A 
ATOM     84  C   UNL A   1      48.325  25.950  31.719  1.00  0.00     0.173 A 
ATOM     85  F   UNL A   1      48.747  27.823  28.629  1.00  0.00    -0.203 F 
ATOM     86  C   UNL A   1      50.337  26.713  29.964  1.00  0.00     0.198 A 
ATOM     87  C   UNL A   1      49.645  25.584  31.967  1.00  0.00     0.198 A 
ATOM     88  F   UNL A   1      47.373  25.562  32.581  1.00  0.00    -0.203 F 
ATOM     89  F   UNL A   1      51.301  27.056  29.099  1.00  0.00    -0.200 F 
ATOM     90  C   UNL A   1      50.648  25.961  31.087  1.00  0.00     0.200 A 
ATOM     91  F   UNL A   1      49.946  24.865  33.057  1.00  0.00    -0.200 F 
ATOM     92  F   UNL A   1      51.917  25.594  31.318  1.00  0.00    -0.200 F 
ENDBRANCH  59  82
ENDBRANCH  33  34
ENDBRANCH  25  28
ENDBRANCH  23  24
ENDBRANCH   1  23
TORSDOF 12
ENDMDL
MODEL 2
REMARK VINA RESULT:     -12.1      3.164      7.845
REMARK SMILES O=C(NCCCCNC(=O)c1ccc(-c2c3nc(c(-c4c(F)c(F)c(F)c(F)c4F)c4ccc([nH]4)c(-c4c(F)c(F)c(F)c(F)c4F)c4nc(c(-c5c(F)c(F)c(F)c(F)c5F)c5ccc2[nH]5)C=C4)C=C3)cc1)C1=Cc2cc(Cl)ccc2O[C@@H]1C(F)(F)F
REMARK SMILES IDX 6 1 5 2 4 3 3 4 1 5 2 6 74 8 75 9 84 10 76 11 83 12 77 13
REMARK SMILES IDX 82 14 78 15 81 16 79 17 80 18 85 19 86 20 87 21 88 22 7 23
REMARK SMILES IDX 8 24 9 25 10 27 11 28 12 29 73 30 13 31 72 32 14 33 15 34
REMARK SMILES IDX 16 35 66 36 17 37 71 38 65 39 67 40 18 41 70 42 64 43 63 44
REMARK SMILES IDX 19 46 51 47 31 48 50 49 32 50 35 51 49 52 68 53 33 54 34 55
REMARK SMILES IDX 48 57 69 58 36 59 20 60 21 61 29 62 22 63 23 64 27 65 30 66
REMARK SMILES IDX 24 67 25 68 28 69 26 70 52 71 53 72 61 73 54 74 55 75 59 76
REMARK SMILES IDX 62 77 56 78 57 79 60 80 58 81 37 82 38 83 46 84 39 85 40 86
REMARK SMILES IDX 44 87 47 88 41 89 42 90 45 91 43 92
REMARK H PARENT 3 7 8 26 67 45 35 56
REMARK Flexibility Score: inf
ROOT
ATOM      1  C   UNL A   1      31.775  29.301  27.177  1.00  0.00     0.023 C 
ENDROOT
BRANCH   1   2
ATOM      2  C   UNL A   1      32.156  27.825  27.019  1.00  0.00     0.023 C 
BRANCH   2   3
ATOM      3  C   UNL A   1      31.169  27.020  26.164  1.00  0.00     0.116 C 
BRANCH   3   4
ATOM      4  N   UNL A   1      31.151  25.590  26.492  1.00  0.00    -0.352 N 
ATOM      5  O   UNL A   1      32.031  23.527  26.824  1.00  0.00    -0.270 OA
ATOM      6  C   UNL A   1      32.078  24.605  26.249  1.00  0.00     0.251 C 
ATOM      7  H   UNL A   1      30.342  25.287  26.963  1.00  0.00     0.163 HD
BRANCH   6   8
ATOM      8  C   UNL A   1      33.175  24.923  25.321  1.00  0.00     0.067 C 
ATOM      9  C   UNL A   1      34.405  25.003  25.839  1.00  0.00     0.025 C 
ATOM     10  C   UNL A   1      32.912  24.785  23.853  1.00  0.00     0.314 C 
ATOM     11  C   UNL A   1      35.402  24.273  25.052  1.00  0.00     0.019 A 
ATOM     12  O   UNL A   1      33.822  23.848  23.221  1.00  0.00    -0.475 OA
ATOM     13  C   UNL A   1      36.572  23.877  25.705  1.00  0.00     0.032 A 
ATOM     14  C   UNL A   1      35.023  23.637  23.853  1.00  0.00     0.128 A 
ATOM     15  C   UNL A   1      37.307  22.802  25.209  1.00  0.00     0.041 A 
ATOM     16  C   UNL A   1      35.792  22.594  23.340  1.00  0.00     0.048 A 
ATOM     17  Cl  UNL A   1      38.627  22.192  26.126  1.00  0.00    -0.084 Cl
ATOM     18  C   UNL A   1      36.918  22.154  24.037  1.00  0.00     0.024 A 
BRANCH  10  19
ATOM     19  C   UNL A   1      32.952  26.146  23.136  1.00  0.00     0.429 C 
ATOM     20  F   UNL A   1      33.552  27.083  23.911  1.00  0.00    -0.167 F 
ATOM     21  F   UNL A   1      33.652  26.090  21.980  1.00  0.00    -0.167 F 
ATOM     22  F   UNL A   1      31.716  26.608  22.837  1.00  0.00    -0.167 F 
ENDBRANCH  10  19
ENDBRANCH   6   8
ENDBRANCH   3   4
ENDBRANCH   2   3
ENDBRANCH   1   2
BRANCH   1  23
ATOM     23  C   UNL A   1      32.672  30.317  26.471  1.00  0.00     0.116 C 
BRANCH  23  24
ATOM     24  N   UNL A   1      32.538  31.684  26.948  1.00  0.00    -0.352 N 
ATOM     25  C   UNL A   1      33.468  32.456  27.626  1.00  0.00     0.251 C 
ATOM     26  H   UNL A   1      31.673  32.118  26.766  1.00  0.00     0.163 HD
ATOM     27  O   UNL A   1      33.205  33.590  27.976  1.00  0.00    -0.269 OA
BRANCH  25  28
ATOM     28  C   UNL A   1      34.776  31.854  27.981  1.00  0.00     0.039 A 
ATOM     29  C   UNL A   1      35.896  32.687  28.059  1.00  0.00     0.014 A 
ATOM     30  C   UNL A   1      34.874  30.505  28.332  1.00  0.00     0.014 A 
ATOM     31  C   UNL A   1      37.081  32.199  28.613  1.00  0.00     0.010 A 
ATOM     32  C   UNL A   1      36.034  30.041  28.949  1.00  0.00     0.010 A 
ATOM     33  C   UNL A   1      37.134  30.893  29.129  1.00  0.00    -0.014 A 
BRANCH  33  34
ATOM     34  C   UNL A   1      38.295  30.435  29.937  1.00  0.00     0.031 A 
ATOM     35  C   UNL A   1      39.270  29.435  29.388  1.00  0.00     0.074 A 
ATOM     36  C   UNL A   1      38.410  30.849  31.215  1.00  0.00     0.049 A 
ATOM     37  N   UNL A   1      40.295  28.871  29.974  1.00  0.00    -0.248 NA
ATOM     38  C   UNL A   1      39.043  28.986  28.007  1.00  0.00     0.031 C 
ATOM     39  C   UNL A   1      37.486  31.759  31.895  1.00  0.00     0.029 A 
ATOM     40  N   UNL A   1      39.343  30.546  32.177  1.00  0.00    -0.354 N 
ATOM     41  C   UNL A   1      40.829  27.994  29.041  1.00  0.00     0.074 A 
ATOM     42  C   UNL A   1      39.982  28.061  27.869  1.00  0.00     0.031 C 
ATOM     43  C   UNL A   1      37.905  31.953  33.154  1.00  0.00     0.029 A 
ATOM     44  C   UNL A   1      39.109  31.159  33.383  1.00  0.00     0.049 A 
ATOM     45  H   UNL A   1      40.107  29.947  32.017  1.00  0.00     0.167 HD
ATOM     46  C   UNL A   1      41.937  27.222  29.144  1.00  0.00     0.037 A 
ATOM     47  C   UNL A   1      39.781  31.086  34.548  1.00  0.00     0.037 A 
ATOM     48  C   UNL A   1      42.789  27.170  30.303  1.00  0.00     0.049 A 
ATOM     49  C   UNL A   1      41.014  30.232  34.635  1.00  0.00     0.074 A 
ATOM     50  C   UNL A   1      43.981  26.486  30.470  1.00  0.00     0.029 A 
ATOM     51  N   UNL A   1      42.533  27.824  31.500  1.00  0.00    -0.354 N 
ATOM     52  N   UNL A   1      41.562  29.478  33.715  1.00  0.00    -0.248 NA
ATOM     53  C   UNL A   1      41.724  30.223  35.921  1.00  0.00     0.031 C 
ATOM     54  C   UNL A   1      44.424  26.692  31.782  1.00  0.00     0.029 A 
ATOM     55  C   UNL A   1      43.530  27.535  32.420  1.00  0.00     0.049 A 
ATOM     56  H   UNL A   1      41.759  28.406  31.671  1.00  0.00     0.167 HD
ATOM     57  C   UNL A   1      42.684  28.911  34.302  1.00  0.00     0.074 A 
ATOM     58  C   UNL A   1      42.751  29.426  35.655  1.00  0.00     0.031 C 
ATOM     59  C   UNL A   1      43.575  28.040  33.769  1.00  0.00     0.037 A 
BRANCH  46  60
ATOM     60  C   UNL A   1      42.290  26.370  27.959  1.00  0.00     0.064 A 
ATOM     61  C   UNL A   1      41.750  25.084  27.794  1.00  0.00     0.173 A 
ATOM     62  C   UNL A   1      43.169  26.844  26.976  1.00  0.00     0.173 A 
ATOM     63  F   UNL A   1      40.913  24.582  28.714  1.00  0.00    -0.203 F 
ATOM     64  C   UNL A   1      42.110  24.291  26.709  1.00  0.00     0.198 A 
ATOM     65  C   UNL A   1      43.505  26.057  25.877  1.00  0.00     0.198 A 
ATOM     66  F   UNL A   1      43.709  28.068  27.083  1.00  0.00    -0.203 F 
ATOM     67  F   UNL A   1      41.628  23.044  26.604  1.00  0.00    -0.200 F 
ATOM     68  C   UNL A   1      42.984  24.779  25.750  1.00  0.00     0.200 A 
ATOM     69  F   UNL A   1      44.342  26.534  24.944  1.00  0.00    -0.200 F 
ATOM     70  F   UNL A   1      43.333  24.011  24.707  1.00  0.00    -0.200 F 
ENDBRANCH  46  60
BRANCH  47  71
ATOM     71  C   UNL A   1      39.307  31.869  35.717  1.00  0.00     0.064 A 
ATOM     72  C   UNL A   1      39.744  33.184  35.926  1.00  0.00     0.173 A 
ATOM     73  C   UNL A   1      38.389  31.332  36.630  1.00  0.00     0.173 A 
ATOM     74  F   UNL A   1      40.637  33.733  35.089  1.00  0.00    -0.203 F 
ATOM     75  C   UNL A   1      39.285  33.931  37.009  1.00  0.00     0.198 A 
ATOM     76  C   UNL A   1      37.913  32.087  37.700  1.00  0.00     0.198 A 
ATOM     77  F   UNL A   1      37.937  30.079  36.469  1.00  0.00    -0.203 F 
ATOM     78  F   UNL A   1      39.738  35.177  37.201  1.00  0.00    -0.200 F 
ATOM     79  C   UNL A   1      38.363  33.384  37.890  1.00  0.00     0.200 A 
ATOM     80  F   UNL A   1      37.013  31.561  38.541  1.00  0.00    -0.200 F 
ATOM     81  F   UNL A   1      37.912  34.108  38.924  1.00  0.00    -0.200 F 
ENDBRANCH  47  71
BRANCH  59  82
ATOM     82  C   UNL A   1      44.698  27.585  34.652  1.00  0.00     0.064 A 
ATOM     83  C   UNL A   1      44.589  26.426  35.433  1.00  0.00     0.173 A 
ATOM     84  C   UNL A   1      45.910  28.292  34.689  1.00  0.00     0.173 A 
ATOM     85  F   UNL A   1      43.444  25.726  35.444  1.00  0.00    -0.203 F 
ATOM     86  C   UNL A   1      45.645  25.999  36.234  1.00  0.00     0.198 A 
ATOM     87  C   UNL A   1      46.973  27.850  35.472  1.00  0.00     0.198 A 
ATOM     88  F   UNL A   1      46.065  29.406  33.958  1.00  0.00    -0.203 F 
ATOM     89  F   UNL A   1      45.504  24.911  37.002  1.00  0.00    -0.200 F 
ATOM     90  C   UNL A   1      46.837  26.708  36.247  1.00  0.00     0.200 A 
ATOM     91  F   UNL A   1      48.127  28.530  35.478  1.00  0.00    -0.200 F 
ATOM     92  F   UNL A   1      47.856  26.293  37.014  1.00  0.00    -0.200 F 
ENDBRANCH  59  82
ENDBRANCH  33  34
ENDBRANCH  25  28
ENDBRANCH  23  24
ENDBRANCH   1  23
TORSDOF 12
ENDMDL
MODEL 3
REMARK VINA RESULT:     -12.0      3.059      3.955
REMARK SMILES O=C(NCCCCNC(=O)c1ccc(-c2c3nc(c(-c4c(F)c(F)c(F)c(F)c4F)c4ccc([nH]4)c(-c4c(F)c(F)c(F)c(F)c4F)c4nc(c(-c5c(F)c(F)c(F)c(F)c5F)c5ccc2[nH]5)C=C4)C=C3)cc1)C1=Cc2cc(Cl)ccc2O[C@@H]1C(F)(F)F
REMARK SMILES IDX 6 1 5 2 4 3 3 4 1 5 2 6 74 8 75 9 84 10 76 11 83 12 77 13
REMARK SMILES IDX 82 14 78 15 81 16 79 17 80 18 85 19 86 20 87 21 88 22 7 23
REMARK SMILES IDX 8 24 9 25 10 27 11 28 12 29 73 30 13 31 72 32 14 33 15 34
REMARK SMILES IDX 16 35 66 36 17 37 71 38 65 39 67 40 18 41 70 42 64 43 63 44
REMARK SMILES IDX 19 46 51 47 31 48 50 49 32 50 35 51 49 52 68 53 33 54 34 55
REMARK SMILES IDX 48 57 69 58 36 59 20 60 21 61 29 62 22 63 23 64 27 65 30 66
REMARK SMILES IDX 24 67 25 68 28 69 26 70 52 71 53 72 61 73 54 74 55 75 59 76
REMARK SMILES IDX 62 77 56 78 57 79 60 80 58 81 37 82 38 83 46 84 39 85 40 86
REMARK SMILES IDX 44 87 47 88 41 89 42 90 45 91 43 92
REMARK H PARENT 3 7 8 26 67 45 35 56
REMARK Flexibility Score: inf
ROOT
ATOM      1  C   UNL A   1      31.724  28.689  25.779  1.00  0.00     0.023 C 
ENDROOT
BRANCH   1   2
ATOM      2  C   UNL A   1      31.825  27.413  26.621  1.00  0.00     0.023 C 
BRANCH   2   3
ATOM      3  C   UNL A   1      31.002  26.241  26.071  1.00  0.00     0.116 C 
BRANCH   3   4
ATOM      4  N   UNL A   1      31.120  25.021  26.876  1.00  0.00    -0.352 N 
ATOM      5  O   UNL A   1      32.152  23.192  27.730  1.00  0.00    -0.270 OA
ATOM      6  C   UNL A   1      32.033  23.995  26.816  1.00  0.00     0.251 C 
ATOM      7  H   UNL A   1      30.433  24.921  27.573  1.00  0.00     0.163 HD
BRANCH   6   8
ATOM      8  C   UNL A   1      32.915  23.943  25.639  1.00  0.00     0.067 C 
ATOM      9  C   UNL A   1      34.106  24.541  25.745  1.00  0.00     0.025 C 
ATOM     10  C   UNL A   1      32.589  22.951  24.565  1.00  0.00     0.314 C 
ATOM     11  C   UNL A   1      35.207  23.708  25.255  1.00  0.00     0.019 A 
ATOM     12  O   UNL A   1      33.679  22.023  24.330  1.00  0.00    -0.475 OA
ATOM     13  C   UNL A   1      36.489  23.989  25.735  1.00  0.00     0.032 A 
ATOM     14  C   UNL A   1      34.936  22.447  24.688  1.00  0.00     0.128 A 
ATOM     15  C   UNL A   1      37.462  22.991  25.723  1.00  0.00     0.041 A 
ATOM     16  C   UNL A   1      35.930  21.472  24.638  1.00  0.00     0.048 A 
ATOM     17  Cl  UNL A   1      38.969  23.279  26.497  1.00  0.00    -0.084 Cl
ATOM     18  C   UNL A   1      37.187  21.734  25.186  1.00  0.00     0.024 A 
BRANCH  10  19
ATOM     19  C   UNL A   1      32.178  23.647  23.255  1.00  0.00     0.429 C 
ATOM     20  F   UNL A   1      32.846  23.123  22.198  1.00  0.00    -0.167 F 
ATOM     21  F   UNL A   1      30.859  23.498  22.995  1.00  0.00    -0.167 F 
ATOM     22  F   UNL A   1      32.438  24.975  23.272  1.00  0.00    -0.167 F 
ENDBRANCH  10  19
ENDBRANCH   6   8
ENDBRANCH   3   4
ENDBRANCH   2   3
ENDBRANCH   1   2
BRANCH   1  23
ATOM     23  C   UNL A   1      32.902  29.658  25.863  1.00  0.00     0.116 C 
BRANCH  23  24
ATOM     24  N   UNL A   1      32.605  30.925  26.512  1.00  0.00    -0.352 N 
ATOM     25  C   UNL A   1      33.411  31.670  27.357  1.00  0.00     0.251 C 
ATOM     26  H   UNL A   1      31.715  31.302  26.327  1.00  0.00     0.163 HD
ATOM     27  O   UNL A   1      33.016  32.715  27.839  1.00  0.00    -0.269 OA
BRANCH  25  28
ATOM     28  C   UNL A   1      34.747  31.142  27.723  1.00  0.00     0.039 A 
ATOM     29  C   UNL A   1      35.774  32.052  27.997  1.00  0.00     0.014 A 
ATOM     30  C   UNL A   1      34.956  29.772  27.895  1.00  0.00     0.014 A 
ATOM     31  C   UNL A   1      36.965  31.596  28.566  1.00  0.00     0.010 A 
ATOM     32  C   UNL A   1      36.116  29.328  28.528  1.00  0.00     0.010 A 
ATOM     33  C   UNL A   1      37.114  30.240  28.902  1.00  0.00    -0.014 A 
BRANCH  33  34
ATOM     34  C   UNL A   1      38.262  29.776  29.725  1.00  0.00     0.031 A 
ATOM     35  C   UNL A   1      38.482  30.309  31.110  1.00  0.00     0.074 A 
ATOM     36  C   UNL A   1      39.170  28.945  29.176  1.00  0.00     0.049 A 
ATOM     37  N   UNL A   1      39.466  30.073  31.941  1.00  0.00    -0.248 NA
ATOM     38  C   UNL A   1      37.481  31.258  31.616  1.00  0.00     0.031 C 
ATOM     39  C   UNL A   1      39.116  28.415  27.812  1.00  0.00     0.029 A 
ATOM     40  N   UNL A   1      40.327  28.411  29.690  1.00  0.00    -0.354 N 
ATOM     41  C   UNL A   1      39.209  30.848  33.061  1.00  0.00     0.074 A 
ATOM     42  C   UNL A   1      38.005  31.605  32.783  1.00  0.00     0.031 C 
ATOM     43  C   UNL A   1      40.178  27.623  27.604  1.00  0.00     0.029 A 
ATOM     44  C   UNL A   1      41.006  27.611  28.806  1.00  0.00     0.049 A 
ATOM     45  H   UNL A   1      40.640  28.587  30.607  1.00  0.00     0.167 HD
ATOM     46  C   UNL A   1      39.899  30.908  34.225  1.00  0.00     0.037 A 
ATOM     47  C   UNL A   1      42.170  26.946  28.941  1.00  0.00     0.037 A 
ATOM     48  C   UNL A   1      41.085  30.142  34.509  1.00  0.00     0.049 A 
ATOM     49  C   UNL A   1      42.913  27.017  30.244  1.00  0.00     0.074 A 
ATOM     50  C   UNL A   1      41.804  30.068  35.689  1.00  0.00     0.029 A 
ATOM     51  N   UNL A   1      41.731  29.323  33.596  1.00  0.00    -0.354 N 
ATOM     52  N   UNL A   1      42.610  27.684  31.331  1.00  0.00    -0.248 NA
ATOM     53  C   UNL A   1      44.157  26.241  30.342  1.00  0.00     0.031 C 
ATOM     54  C   UNL A   1      42.910  29.237  35.477  1.00  0.00     0.029 A 
ATOM     55  C   UNL A   1      42.859  28.761  34.177  1.00  0.00     0.049 A 
ATOM     56  H   UNL A   1      41.434  29.162  32.671  1.00  0.00     0.167 HD
ATOM     57  C   UNL A   1      43.615  27.403  32.245  1.00  0.00     0.074 A 
ATOM     58  C   UNL A   1      44.529  26.487  31.591  1.00  0.00     0.031 C 
ATOM     59  C   UNL A   1      43.768  27.866  33.509  1.00  0.00     0.037 A 
BRANCH  46  60
ATOM     60  C   UNL A   1      39.379  31.838  35.284  1.00  0.00     0.064 A 
ATOM     61  C   UNL A   1      39.727  33.198  35.299  1.00  0.00     0.173 A 
ATOM     62  C   UNL A   1      38.519  31.368  36.286  1.00  0.00     0.173 A 
ATOM     63  F   UNL A   1      40.557  33.692  34.368  1.00  0.00    -0.203 F 
ATOM     64  C   UNL A   1      39.266  34.043  36.304  1.00  0.00     0.198 A 
ATOM     65  C   UNL A   1      38.036  32.224  37.273  1.00  0.00     0.198 A 
ATOM     66  F   UNL A   1      38.151  30.078  36.313  1.00  0.00    -0.203 F 
ATOM     67  F   UNL A   1      39.660  35.324  36.333  1.00  0.00    -0.200 F 
ATOM     68  C   UNL A   1      38.418  33.557  37.288  1.00  0.00     0.200 A 
ATOM     69  F   UNL A   1      37.209  31.755  38.219  1.00  0.00    -0.200 F 
ATOM     70  F   UNL A   1      37.978  34.371  38.257  1.00  0.00    -0.200 F 
ENDBRANCH  46  60
BRANCH  47  71
ATOM     71  C   UNL A   1      42.686  26.136  27.808  1.00  0.00     0.064 A 
ATOM     72  C   UNL A   1      43.620  26.670  26.911  1.00  0.00     0.173 A 
ATOM     73  C   UNL A   1      42.281  24.808  27.617  1.00  0.00     0.173 A 
ATOM     74  F   UNL A   1      44.021  27.944  27.042  1.00  0.00    -0.203 F 
ATOM     75  C   UNL A   1      44.125  25.908  25.859  1.00  0.00     0.198 A 
ATOM     76  C   UNL A   1      42.803  24.039  26.580  1.00  0.00     0.198 A 
ATOM     77  F   UNL A   1      41.394  24.250  28.454  1.00  0.00    -0.203 F 
ATOM     78  F   UNL A   1      44.997  26.451  24.999  1.00  0.00    -0.200 F 
ATOM     79  C   UNL A   1      43.722  24.590  25.700  1.00  0.00     0.200 A 
ATOM     80  F   UNL A   1      42.422  22.762  26.437  1.00  0.00    -0.200 F 
ATOM     81  F   UNL A   1      44.218  23.853  24.697  1.00  0.00    -0.200 F 
ENDBRANCH  47  71
BRANCH  59  82
ATOM     82  C   UNL A   1      44.972  27.392  34.269  1.00  0.00     0.064 A 
ATOM     83  C   UNL A   1      46.172  28.116  34.260  1.00  0.00     0.173 A 
ATOM     84  C   UNL A   1      44.913  26.224  35.045  1.00  0.00     0.173 A 
ATOM     85  F   UNL A   1      46.283  29.229  33.519  1.00  0.00    -0.203 F 
ATOM     86  C   UNL A   1      47.277  27.679  34.986  1.00  0.00     0.198 A 
ATOM     87  C   UNL A   1      46.011  25.803  35.789  1.00  0.00     0.198 A 
ATOM     88  F   UNL A   1      43.786  25.498  35.089  1.00  0.00    -0.203 F 
ATOM     89  F   UNL A   1      48.427  28.365  34.931  1.00  0.00    -0.200 F 
ATOM     90  C   UNL A   1      47.193  26.527  35.755  1.00  0.00     0.200 A 
ATOM     91  F   UNL A   1      45.927  24.696  36.538  1.00  0.00    -0.200 F 
ATOM     92  F   UNL A   1      48.256  26.111  36.458  1.00  0.00    -0.200 F 
ENDBRANCH  59  82
ENDBRANCH  33  34
ENDBRANCH  25  28
ENDBRANCH  23  24
ENDBRANCH   1  23
TORSDOF 12
ENDMDL
