MODEL 1
REMARK VINA RESULT:     -13.3      0.000      0.000
REMARK SMILES O=C(CSc1nc(O)cc(=O)[nH]1)Nc1cccc(C(=O)NCCCCNC(=O)c2ccc(-c3c4nc(c(-c5c(F)c(F)c(F)c(F)c5F)c5ccc([nH]5)c(-c5c(F)c(F)c(F)c(F)c5F)c5nc(c(-c6c(F)c(F)c(F)c(F)c6F)c6ccc3[nH]6)C=C5)C=C4)cc2)c1
REMARK SMILES IDX 22 1 21 2 19 3 20 4 18 6 14 7 15 8 92 9 16 10 17 11 13 12
REMARK SMILES IDX 1 13 2 14 3 16 4 17 5 18 6 19 12 20 7 21 10 22 9 24 11 25
REMARK SMILES IDX 8 26 23 28 24 29 25 30 26 31 27 32 28 34 29 35 30 36 91 37
REMARK SMILES IDX 31 38 90 39 32 40 33 41 34 42 84 43 35 44 89 45 83 46 85 47
REMARK SMILES IDX 36 48 88 49 82 50 81 51 37 53 69 54 49 55 68 56 50 57 53 58
REMARK SMILES IDX 67 59 86 60 51 61 52 62 66 64 87 65 54 66 38 67 39 68 47 69
REMARK SMILES IDX 40 70 41 71 45 72 48 73 42 74 43 75 46 76 44 77 70 78 71 79
REMARK SMILES IDX 79 80 72 81 73 82 77 83 80 84 74 85 75 86 78 87 76 88 55 89
REMARK SMILES IDX 56 90 64 91 57 92 58 93 62 94 65 95 59 96 60 97 63 98 61 99
REMARK H PARENT 21 5 13 15 12 23 8 27 26 33 85 52 53 63
REMARK Flexibility Score: inf
ROOT
ATOM      1  C   UNL A   1      33.174  29.630  26.619  1.00  0.00     0.116 C 
ENDROOT
BRANCH   1   2
ATOM      2  N   UNL A   1      33.602  29.653  25.226  1.00  0.00    -0.352 N 
ATOM      3  C   UNL A   1      33.027  29.068  24.113  1.00  0.00     0.251 C 
ATOM      4  O   UNL A   1      33.562  29.196  23.015  1.00  0.00    -0.269 OA
ATOM      5  H   UNL A   1      34.426  30.163  25.051  1.00  0.00     0.163 HD
BRANCH   3   6
ATOM      6  C   UNL A   1      31.819  28.213  24.247  1.00  0.00     0.041 A 
ATOM      7  C   UNL A   1      30.900  26.004  24.549  1.00  0.00     0.041 A 
ATOM      8  C   UNL A   1      29.690  26.444  24.001  1.00  0.00     0.026 A 
ATOM      9  C   UNL A   1      31.903  26.934  24.798  1.00  0.00     0.040 A 
ATOM     10  C   UNL A   1      29.531  27.781  23.625  1.00  0.00     0.003 A 
ATOM     11  C   UNL A   1      30.611  28.659  23.710  1.00  0.00     0.014 A 
BRANCH   7  12
ATOM     12  N   UNL A   1      31.093  24.615  24.699  1.00  0.00    -0.325 N 
ATOM     13  O   UNL A   1      30.101  24.200  26.770  1.00  0.00    -0.274 OA
ATOM     14  C   UNL A   1      30.729  23.825  25.784  1.00  0.00     0.234 C 
ATOM     15  H   UNL A   1      31.537  24.153  23.951  1.00  0.00     0.169 HD
BRANCH  14  16
ATOM     16  C   UNL A   1      31.276  22.404  25.731  1.00  0.00     0.178 C 
BRANCH  16  17
ATOM     17  S   UNL A   1      32.322  22.112  24.277  1.00  0.00    -0.078 SA
BRANCH  17  18
ATOM     18  C   UNL A   1      32.381  20.378  24.337  1.00  0.00     0.172 A 
ATOM     19  N   UNL A   1      32.488  19.755  25.460  1.00  0.00    -0.189 NA
ATOM     20  N   UNL A   1      32.335  19.780  23.119  1.00  0.00    -0.301 N 
ATOM     21  C   UNL A   1      32.570  18.396  25.380  1.00  0.00     0.218 A 
ATOM     22  C   UNL A   1      32.399  18.428  22.990  1.00  0.00     0.255 A 
ATOM     23  H   UNL A   1      32.251  20.337  22.311  1.00  0.00     0.172 HD
ATOM     24  C   UNL A   1      32.536  17.688  24.248  1.00  0.00     0.139 A 
ATOM     25  O   UNL A   1      32.359  17.865  21.903  1.00  0.00    -0.269 OA
BRANCH  21  26
ATOM     26  O   UNL A   1      32.716  17.745  26.575  1.00  0.00    -0.493 OA
ATOM     27  H   UNL A   1      33.556  17.413  26.827  1.00  0.00     0.295 HD
ENDBRANCH  21  26
ENDBRANCH  17  18
ENDBRANCH  16  17
ENDBRANCH  14  16
ENDBRANCH   7  12
ENDBRANCH   3   6
ENDBRANCH   1   2
BRANCH   1  28
ATOM     28  C   UNL A   1      31.829  30.287  26.890  1.00  0.00     0.023 C 
BRANCH  28  29
ATOM     29  C   UNL A   1      31.761  31.792  26.675  1.00  0.00     0.023 C 
BRANCH  29  30
ATOM     30  C   UNL A   1      32.845  32.611  27.363  1.00  0.00     0.116 C 
BRANCH  30  31
ATOM     31  N   UNL A   1      32.451  33.980  27.664  1.00  0.00    -0.352 N 
ATOM     32  C   UNL A   1      32.987  34.874  28.566  1.00  0.00     0.251 C 
ATOM     33  H   UNL A   1      31.687  34.319  27.144  1.00  0.00     0.163 HD
ATOM     34  O   UNL A   1      32.466  35.962  28.747  1.00  0.00    -0.269 OA
BRANCH  32  35
ATOM     35  C   UNL A   1      34.179  34.487  29.357  1.00  0.00     0.039 A 
ATOM     36  C   UNL A   1      33.996  33.945  30.633  1.00  0.00     0.014 A 
ATOM     37  C   UNL A   1      35.464  34.618  28.828  1.00  0.00     0.014 A 
ATOM     38  C   UNL A   1      35.093  33.438  31.333  1.00  0.00     0.010 A 
ATOM     39  C   UNL A   1      36.541  34.037  29.488  1.00  0.00     0.010 A 
ATOM     40  C   UNL A   1      36.366  33.432  30.742  1.00  0.00    -0.014 A 
BRANCH  40  41
ATOM     41  C   UNL A   1      37.532  32.791  31.402  1.00  0.00     0.031 A 
ATOM     42  C   UNL A   1      38.235  31.642  30.736  1.00  0.00     0.074 A 
ATOM     43  C   UNL A   1      37.899  33.179  32.640  1.00  0.00     0.049 A 
ATOM     44  N   UNL A   1      39.184  30.869  31.199  1.00  0.00    -0.248 NA
ATOM     45  C   UNL A   1      37.786  31.298  29.378  1.00  0.00     0.031 C 
ATOM     46  C   UNL A   1      37.273  34.253  33.413  1.00  0.00     0.029 A 
ATOM     47  N   UNL A   1      38.882  32.702  33.472  1.00  0.00    -0.354 N 
ATOM     48  C   UNL A   1      39.427  29.936  30.200  1.00  0.00     0.074 A 
ATOM     49  C   UNL A   1      38.494  30.207  29.129  1.00  0.00     0.031 C 
ATOM     50  C   UNL A   1      37.901  34.368  34.595  1.00  0.00     0.029 A 
ATOM     51  C   UNL A   1      38.944  33.351  34.681  1.00  0.00     0.049 A 
ATOM     52  H   UNL A   1      39.484  31.964  33.227  1.00  0.00     0.167 HD
ATOM     53  C   UNL A   1      40.362  28.956  30.168  1.00  0.00     0.037 A 
ATOM     54  C   UNL A   1      39.745  33.143  35.743  1.00  0.00     0.037 A 
ATOM     55  C   UNL A   1      41.311  28.706  31.221  1.00  0.00     0.049 A 
ATOM     56  C   UNL A   1      40.768  32.041  35.688  1.00  0.00     0.074 A 
ATOM     57  C   UNL A   1      42.331  27.773  31.262  1.00  0.00     0.029 A 
ATOM     58  N   UNL A   1      41.354  29.400  32.422  1.00  0.00    -0.354 N 
ATOM     59  N   UNL A   1      41.026  31.198  34.718  1.00  0.00    -0.248 NA
ATOM     60  C   UNL A   1      41.613  31.862  36.877  1.00  0.00     0.031 C 
ATOM     61  C   UNL A   1      42.970  27.877  32.502  1.00  0.00     0.029 A 
ATOM     62  C   UNL A   1      42.376  28.904  33.217  1.00  0.00     0.049 A 
ATOM     63  H   UNL A   1      40.749  30.135  32.672  1.00  0.00     0.167 HD
ATOM     64  C   UNL A   1      42.080  30.414  35.163  1.00  0.00     0.074 A 
ATOM     65  C   UNL A   1      42.419  30.883  36.491  1.00  0.00     0.031 C 
ATOM     66  C   UNL A   1      42.711  29.396  34.529  1.00  0.00     0.037 A 
BRANCH  53  67
ATOM     67  C   UNL A   1      40.404  28.085  28.946  1.00  0.00     0.064 A 
ATOM     68  C   UNL A   1      41.164  28.437  27.820  1.00  0.00     0.173 A 
ATOM     69  C   UNL A   1      39.689  26.879  28.905  1.00  0.00     0.173 A 
ATOM     70  F   UNL A   1      41.855  29.588  27.805  1.00  0.00    -0.203 F 
ATOM     71  C   UNL A   1      41.176  27.633  26.683  1.00  0.00     0.198 A 
ATOM     72  C   UNL A   1      39.729  26.062  27.777  1.00  0.00     0.198 A 
ATOM     73  F   UNL A   1      38.953  26.492  29.956  1.00  0.00    -0.203 F 
ATOM     74  F   UNL A   1      41.862  28.020  25.600  1.00  0.00    -0.200 F 
ATOM     75  C   UNL A   1      40.464  26.445  26.665  1.00  0.00     0.200 A 
ATOM     76  F   UNL A   1      39.050  24.907  27.765  1.00  0.00    -0.200 F 
ATOM     77  F   UNL A   1      40.478  25.670  25.571  1.00  0.00    -0.200 F 
ENDBRANCH  53  67
BRANCH  54  78
ATOM     78  C   UNL A   1      39.638  34.019  36.938  1.00  0.00     0.064 A 
ATOM     79  C   UNL A   1      40.301  35.254  36.978  1.00  0.00     0.173 A 
ATOM     80  C   UNL A   1      38.878  33.649  38.056  1.00  0.00     0.173 A 
ATOM     81  F   UNL A   1      41.057  35.640  35.939  1.00  0.00    -0.203 F 
ATOM     82  C   UNL A   1      40.221  36.078  38.098  1.00  0.00     0.198 A 
ATOM     83  C   UNL A   1      38.780  34.485  39.166  1.00  0.00     0.198 A 
ATOM     84  F   UNL A   1      38.223  32.479  38.066  1.00  0.00    -0.203 F 
ATOM     85  F   UNL A   1      40.897  37.235  38.125  1.00  0.00    -0.200 F 
ATOM     86  C   UNL A   1      39.456  35.696  39.190  1.00  0.00     0.200 A 
ATOM     87  F   UNL A   1      38.029  34.119  40.215  1.00  0.00    -0.200 F 
ATOM     88  F   UNL A   1      39.376  36.491  40.265  1.00  0.00    -0.200 F 
ENDBRANCH  54  78
BRANCH  66  89
ATOM     89  C   UNL A   1      43.863  28.749  35.238  1.00  0.00     0.064 A 
ATOM     90  C   UNL A   1      45.174  29.223  35.098  1.00  0.00     0.173 A 
ATOM     91  C   UNL A   1      43.641  27.671  36.109  1.00  0.00     0.173 A 
ATOM     92  F   UNL A   1      45.440  30.240  34.266  1.00  0.00    -0.203 F 
ATOM     93  C   UNL A   1      46.226  28.629  35.791  1.00  0.00     0.198 A 
ATOM     94  C   UNL A   1      44.690  27.096  36.820  1.00  0.00     0.198 A 
ATOM     95  F   UNL A   1      42.402  27.184  36.280  1.00  0.00    -0.203 F 
ATOM     96  F   UNL A   1      47.479  29.072  35.614  1.00  0.00    -0.200 F 
ATOM     97  C   UNL A   1      45.982  27.572  36.658  1.00  0.00     0.200 A 
ATOM     98  F   UNL A   1      44.451  26.084  37.664  1.00  0.00    -0.200 F 
ATOM     99  F   UNL A   1      46.994  27.009  37.331  1.00  0.00    -0.200 F 
ENDBRANCH  66  89
ENDBRANCH  40  41
ENDBRANCH  32  35
ENDBRANCH  30  31
ENDBRANCH  29  30
ENDBRANCH  28  29
ENDBRANCH   1  28
TORSDOF 16
ENDMDL
MODEL 2
REMARK VINA RESULT:     -13.2      0.972      2.036
REMARK SMILES O=C(CSc1nc(O)cc(=O)[nH]1)Nc1cccc(C(=O)NCCCCNC(=O)c2ccc(-c3c4nc(c(-c5c(F)c(F)c(F)c(F)c5F)c5ccc([nH]5)c(-c5c(F)c(F)c(F)c(F)c5F)c5nc(c(-c6c(F)c(F)c(F)c(F)c6F)c6ccc3[nH]6)C=C5)C=C4)cc2)c1
REMARK SMILES IDX 22 1 21 2 19 3 20 4 18 6 14 7 15 8 92 9 16 10 17 11 13 12
REMARK SMILES IDX 1 13 2 14 3 16 4 17 5 18 6 19 12 20 7 21 10 22 9 24 11 25
REMARK SMILES IDX 8 26 23 28 24 29 25 30 26 31 27 32 28 34 29 35 30 36 91 37
REMARK SMILES IDX 31 38 90 39 32 40 33 41 34 42 84 43 35 44 89 45 83 46 85 47
REMARK SMILES IDX 36 48 88 49 82 50 81 51 37 53 69 54 49 55 68 56 50 57 53 58
REMARK SMILES IDX 67 59 86 60 51 61 52 62 66 64 87 65 54 66 38 67 39 68 47 69
REMARK SMILES IDX 40 70 41 71 45 72 48 73 42 74 43 75 46 76 44 77 70 78 71 79
REMARK SMILES IDX 79 80 72 81 73 82 77 83 80 84 74 85 75 86 78 87 76 88 55 89
REMARK SMILES IDX 56 90 64 91 57 92 58 93 62 94 65 95 59 96 60 97 63 98 61 99
REMARK H PARENT 21 5 13 15 12 23 8 27 26 33 85 52 53 63
REMARK Flexibility Score: inf
ROOT
ATOM      1  C   UNL A   1      33.337  29.733  26.492  1.00  0.00     0.116 C 
ENDROOT
BRANCH   1   2
ATOM      2  N   UNL A   1      33.581  29.707  25.055  1.00  0.00    -0.352 N 
ATOM      3  C   UNL A   1      33.191  28.779  24.107  1.00  0.00     0.251 C 
ATOM      4  O   UNL A   1      33.518  28.935  22.934  1.00  0.00    -0.269 OA
ATOM      5  H   UNL A   1      34.103  30.465  24.706  1.00  0.00     0.163 HD
BRANCH   3   6
ATOM      6  C   UNL A   1      32.457  27.551  24.509  1.00  0.00     0.041 A 
ATOM      7  C   UNL A   1      32.506  25.170  24.888  1.00  0.00     0.041 A 
ATOM      8  C   UNL A   1      31.117  25.127  24.735  1.00  0.00     0.026 A 
ATOM      9  C   UNL A   1      33.142  26.406  24.917  1.00  0.00     0.040 A 
ATOM     10  C   UNL A   1      30.394  26.304  24.519  1.00  0.00     0.003 A 
ATOM     11  C   UNL A   1      31.068  27.515  24.366  1.00  0.00     0.014 A 
BRANCH   7  12
ATOM     12  N   UNL A   1      33.213  23.950  24.873  1.00  0.00    -0.325 N 
ATOM     13  O   UNL A   1      34.182  23.968  22.750  1.00  0.00    -0.274 OA
ATOM     14  C   UNL A   1      33.955  23.418  23.824  1.00  0.00     0.234 C 
ATOM     15  H   UNL A   1      33.177  23.414  25.698  1.00  0.00     0.169 HD
BRANCH  14  16
ATOM     16  C   UNL A   1      34.412  21.982  24.050  1.00  0.00     0.178 C 
BRANCH  16  17
ATOM     17  S   UNL A   1      33.329  21.075  25.189  1.00  0.00    -0.078 SA
BRANCH  17  18
ATOM     18  C   UNL A   1      33.364  19.524  24.409  1.00  0.00     0.172 A 
ATOM     19  N   UNL A   1      32.558  19.249  23.442  1.00  0.00    -0.189 NA
ATOM     20  N   UNL A   1      34.275  18.662  24.930  1.00  0.00    -0.301 N 
ATOM     21  C   UNL A   1      32.646  17.984  22.937  1.00  0.00     0.218 A 
ATOM     22  C   UNL A   1      34.408  17.398  24.451  1.00  0.00     0.255 A 
ATOM     23  H   UNL A   1      34.851  18.960  25.670  1.00  0.00     0.172 HD
ATOM     24  C   UNL A   1      33.496  17.045  23.359  1.00  0.00     0.139 A 
ATOM     25  O   UNL A   1      35.222  16.602  24.903  1.00  0.00    -0.269 OA
BRANCH  21  26
ATOM     26  O   UNL A   1      31.764  17.691  21.933  1.00  0.00    -0.493 OA
ATOM     27  H   UNL A   1      32.069  17.620  21.049  1.00  0.00     0.295 HD
ENDBRANCH  21  26
ENDBRANCH  17  18
ENDBRANCH  16  17
ENDBRANCH  14  16
ENDBRANCH   7  12
ENDBRANCH   3   6
ENDBRANCH   1   2
BRANCH   1  28
ATOM     28  C   UNL A   1      31.960  30.237  26.901  1.00  0.00     0.023 C 
BRANCH  28  29
ATOM     29  C   UNL A   1      31.737  31.739  26.801  1.00  0.00     0.023 C 
BRANCH  29  30
ATOM     30  C   UNL A   1      32.866  32.615  27.328  1.00  0.00     0.116 C 
BRANCH  30  31
ATOM     31  N   UNL A   1      32.461  33.978  27.640  1.00  0.00    -0.352 N 
ATOM     32  C   UNL A   1      32.986  34.866  28.553  1.00  0.00     0.251 C 
ATOM     33  H   UNL A   1      31.698  34.316  27.119  1.00  0.00     0.163 HD
ATOM     34  O   UNL A   1      32.457  35.950  28.741  1.00  0.00    -0.269 OA
BRANCH  32  35
ATOM     35  C   UNL A   1      34.177  34.480  29.347  1.00  0.00     0.039 A 
ATOM     36  C   UNL A   1      33.991  33.923  30.615  1.00  0.00     0.014 A 
ATOM     37  C   UNL A   1      35.463  34.628  28.827  1.00  0.00     0.014 A 
ATOM     38  C   UNL A   1      35.088  33.417  31.317  1.00  0.00     0.010 A 
ATOM     39  C   UNL A   1      36.542  34.048  29.486  1.00  0.00     0.010 A 
ATOM     40  C   UNL A   1      36.364  33.428  30.732  1.00  0.00    -0.014 A 
BRANCH  40  41
ATOM     41  C   UNL A   1      37.531  32.788  31.393  1.00  0.00     0.031 A 
ATOM     42  C   UNL A   1      38.239  31.645  30.723  1.00  0.00     0.074 A 
ATOM     43  C   UNL A   1      37.895  33.174  32.632  1.00  0.00     0.049 A 
ATOM     44  N   UNL A   1      39.190  30.873  31.185  1.00  0.00    -0.248 NA
ATOM     45  C   UNL A   1      37.794  31.304  29.363  1.00  0.00     0.031 C 
ATOM     46  C   UNL A   1      37.264  34.243  33.408  1.00  0.00     0.029 A 
ATOM     47  N   UNL A   1      38.878  32.697  33.464  1.00  0.00    -0.354 N 
ATOM     48  C   UNL A   1      39.439  29.945  30.183  1.00  0.00     0.074 A 
ATOM     49  C   UNL A   1      38.506  30.216  29.112  1.00  0.00     0.031 C 
ATOM     50  C   UNL A   1      37.889  34.357  34.591  1.00  0.00     0.029 A 
ATOM     51  C   UNL A   1      38.936  33.343  34.676  1.00  0.00     0.049 A 
ATOM     52  H   UNL A   1      39.484  31.963  33.217  1.00  0.00     0.167 HD
ATOM     53  C   UNL A   1      40.377  28.968  30.150  1.00  0.00     0.037 A 
ATOM     54  C   UNL A   1      39.737  33.134  35.738  1.00  0.00     0.037 A 
ATOM     55  C   UNL A   1      41.325  28.718  31.204  1.00  0.00     0.049 A 
ATOM     56  C   UNL A   1      40.763  32.036  35.680  1.00  0.00     0.074 A 
ATOM     57  C   UNL A   1      42.348  27.788  31.243  1.00  0.00     0.029 A 
ATOM     58  N   UNL A   1      41.364  29.408  32.407  1.00  0.00    -0.354 N 
ATOM     59  N   UNL A   1      41.026  31.198  34.708  1.00  0.00    -0.248 NA
ATOM     60  C   UNL A   1      41.607  31.856  36.871  1.00  0.00     0.031 C 
ATOM     61  C   UNL A   1      42.985  27.891  32.484  1.00  0.00     0.029 A 
ATOM     62  C   UNL A   1      42.386  28.913  33.201  1.00  0.00     0.049 A 
ATOM     63  H   UNL A   1      40.756  30.140  32.659  1.00  0.00     0.167 HD
ATOM     64  C   UNL A   1      42.082  30.415  35.153  1.00  0.00     0.074 A 
ATOM     65  C   UNL A   1      42.417  30.881  36.482  1.00  0.00     0.031 C 
ATOM     66  C   UNL A   1      42.718  29.402  34.515  1.00  0.00     0.037 A 
BRANCH  53  67
ATOM     67  C   UNL A   1      40.424  28.101  28.925  1.00  0.00     0.064 A 
ATOM     68  C   UNL A   1      41.180  28.463  27.799  1.00  0.00     0.173 A 
ATOM     69  C   UNL A   1      39.718  26.891  28.880  1.00  0.00     0.173 A 
ATOM     70  F   UNL A   1      41.863  29.618  27.788  1.00  0.00    -0.203 F 
ATOM     71  C   UNL A   1      41.197  27.663  26.660  1.00  0.00     0.198 A 
ATOM     72  C   UNL A   1      39.762  26.077  27.750  1.00  0.00     0.198 A 
ATOM     73  F   UNL A   1      38.985  26.495  29.931  1.00  0.00    -0.203 F 
ATOM     74  F   UNL A   1      41.880  28.058  25.577  1.00  0.00    -0.200 F 
ATOM     75  C   UNL A   1      40.493  26.469  26.638  1.00  0.00     0.200 A 
ATOM     76  F   UNL A   1      39.091  24.918  27.735  1.00  0.00    -0.200 F 
ATOM     77  F   UNL A   1      40.512  25.698  25.542  1.00  0.00    -0.200 F 
ENDBRANCH  53  67
BRANCH  54  78
ATOM     78  C   UNL A   1      39.624  34.005  36.935  1.00  0.00     0.064 A 
ATOM     79  C   UNL A   1      38.842  33.615  38.031  1.00  0.00     0.173 A 
ATOM     80  C   UNL A   1      40.289  35.237  37.014  1.00  0.00     0.173 A 
ATOM     81  F   UNL A   1      38.170  32.454  37.992  1.00  0.00    -0.203 F 
ATOM     82  C   UNL A   1      38.716  34.429  39.154  1.00  0.00     0.198 A 
ATOM     83  C   UNL A   1      40.181  36.040  38.148  1.00  0.00     0.198 A 
ATOM     84  F   UNL A   1      41.053  35.655  35.994  1.00  0.00    -0.203 F 
ATOM     85  F   UNL A   1      37.929  34.049  40.170  1.00  0.00    -0.200 F 
ATOM     86  C   UNL A   1      39.390  35.639  39.215  1.00  0.00     0.200 A 
ATOM     87  F   UNL A   1      40.845  37.203  38.209  1.00  0.00    -0.200 F 
ATOM     88  F   UNL A   1      39.272  36.421  40.295  1.00  0.00    -0.200 F 
ENDBRANCH  54  78
BRANCH  66  89
ATOM     89  C   UNL A   1      43.871  28.757  35.225  1.00  0.00     0.064 A 
ATOM     90  C   UNL A   1      43.692  27.649  36.064  1.00  0.00     0.173 A 
ATOM     91  C   UNL A   1      45.178  29.226  35.021  1.00  0.00     0.173 A 
ATOM     92  F   UNL A   1      42.461  27.174  36.304  1.00  0.00    -0.203 F 
ATOM     93  C   UNL A   1      44.780  27.043  36.688  1.00  0.00     0.198 A 
ATOM     94  C   UNL A   1      46.265  28.602  35.625  1.00  0.00     0.198 A 
ATOM     95  F   UNL A   1      45.401  30.281  34.224  1.00  0.00    -0.203 F 
ATOM     96  F   UNL A   1      44.584  26.008  37.518  1.00  0.00    -0.200 F 
ATOM     97  C   UNL A   1      46.065  27.515  36.462  1.00  0.00     0.200 A 
ATOM     98  F   UNL A   1      47.506  29.052  35.397  1.00  0.00    -0.200 F 
ATOM     99  F   UNL A   1      47.111  26.924  37.056  1.00  0.00    -0.200 F 
ENDBRANCH  66  89
ENDBRANCH  40  41
ENDBRANCH  32  35
ENDBRANCH  30  31
ENDBRANCH  29  30
ENDBRANCH  28  29
ENDBRANCH   1  28
TORSDOF 16
ENDMDL
MODEL 3
REMARK VINA RESULT:     -13.2      1.152      7.336
REMARK SMILES O=C(CSc1nc(O)cc(=O)[nH]1)Nc1cccc(C(=O)NCCCCNC(=O)c2ccc(-c3c4nc(c(-c5c(F)c(F)c(F)c(F)c5F)c5ccc([nH]5)c(-c5c(F)c(F)c(F)c(F)c5F)c5nc(c(-c6c(F)c(F)c(F)c(F)c6F)c6ccc3[nH]6)C=C5)C=C4)cc2)c1
REMARK SMILES IDX 22 1 21 2 19 3 20 4 18 6 14 7 15 8 92 9 16 10 17 11 13 12
REMARK SMILES IDX 1 13 2 14 3 16 4 17 5 18 6 19 12 20 7 21 10 22 9 24 11 25
REMARK SMILES IDX 8 26 23 28 24 29 25 30 26 31 27 32 28 34 29 35 30 36 91 37
REMARK SMILES IDX 31 38 90 39 32 40 33 41 34 42 84 43 35 44 89 45 83 46 85 47
REMARK SMILES IDX 36 48 88 49 82 50 81 51 37 53 69 54 49 55 68 56 50 57 53 58
REMARK SMILES IDX 67 59 86 60 51 61 52 62 66 64 87 65 54 66 38 67 39 68 47 69
REMARK SMILES IDX 40 70 41 71 45 72 48 73 42 74 43 75 46 76 44 77 70 78 71 79
REMARK SMILES IDX 79 80 72 81 73 82 77 83 80 84 74 85 75 86 78 87 76 88 55 89
REMARK SMILES IDX 56 90 64 91 57 92 58 93 62 94 65 95 59 96 60 97 63 98 61 99
REMARK H PARENT 21 5 13 15 12 23 8 27 26 33 85 52 53 63
REMARK Flexibility Score: inf
ROOT
ATOM      1  C   UNL A   1      33.082  30.091  26.397  1.00  0.00     0.116 C 
ENDROOT
BRANCH   1   2
ATOM      2  N   UNL A   1      33.590  29.708  25.086  1.00  0.00    -0.352 N 
ATOM      3  C   UNL A   1      33.487  28.505  24.413  1.00  0.00     0.251 C 
ATOM      4  O   UNL A   1      34.007  28.381  23.308  1.00  0.00    -0.269 OA
ATOM      5  H   UNL A   1      34.083  30.413  24.607  1.00  0.00     0.163 HD
BRANCH   3   6
ATOM      6  C   UNL A   1      32.830  27.335  25.052  1.00  0.00     0.041 A 
ATOM      7  C   UNL A   1      32.909  24.986  25.591  1.00  0.00     0.041 A 
ATOM      8  C   UNL A   1      31.518  24.983  25.738  1.00  0.00     0.026 A 
ATOM      9  C   UNL A   1      33.562  26.196  25.391  1.00  0.00     0.040 A 
ATOM     10  C   UNL A   1      30.791  26.169  25.593  1.00  0.00     0.003 A 
ATOM     11  C   UNL A   1      31.443  27.340  25.209  1.00  0.00     0.014 A 
BRANCH   7  12
ATOM     12  N   UNL A   1      33.570  23.742  25.518  1.00  0.00    -0.325 N 
ATOM     13  O   UNL A   1      34.159  23.629  23.263  1.00  0.00    -0.274 OA
ATOM     14  C   UNL A   1      34.106  23.137  24.386  1.00  0.00     0.234 C 
ATOM     15  H   UNL A   1      33.662  23.247  26.364  1.00  0.00     0.169 HD
BRANCH  14  16
ATOM     16  C   UNL A   1      34.557  21.698  24.604  1.00  0.00     0.178 C 
BRANCH  16  17
ATOM     17  S   UNL A   1      33.366  20.731  25.573  1.00  0.00    -0.078 SA
BRANCH  17  18
ATOM     18  C   UNL A   1      33.401  19.262  24.647  1.00  0.00     0.172 A 
ATOM     19  N   UNL A   1      32.632  19.102  23.627  1.00  0.00    -0.189 NA
ATOM     20  N   UNL A   1      34.271  18.332  25.118  1.00  0.00    -0.301 N 
ATOM     21  C   UNL A   1      32.715  17.890  23.005  1.00  0.00     0.218 A 
ATOM     22  C   UNL A   1      34.399  17.117  24.524  1.00  0.00     0.255 A 
ATOM     23  H   UNL A   1      34.822  18.543  25.907  1.00  0.00     0.172 HD
ATOM     24  C   UNL A   1      33.527  16.894  23.367  1.00  0.00     0.139 A 
ATOM     25  O   UNL A   1      35.176  16.261  24.929  1.00  0.00    -0.269 OA
BRANCH  21  26
ATOM     26  O   UNL A   1      31.871  17.717  21.942  1.00  0.00    -0.493 OA
ATOM     27  H   UNL A   1      32.201  17.373  21.134  1.00  0.00     0.295 HD
ENDBRANCH  21  26
ENDBRANCH  17  18
ENDBRANCH  16  17
ENDBRANCH  14  16
ENDBRANCH   7  12
ENDBRANCH   3   6
ENDBRANCH   1   2
BRANCH   1  28
ATOM     28  C   UNL A   1      31.646  30.595  26.408  1.00  0.00     0.023 C 
BRANCH  28  29
ATOM     29  C   UNL A   1      31.456  32.077  26.695  1.00  0.00     0.023 C 
BRANCH  29  30
ATOM     30  C   UNL A   1      32.665  32.802  27.272  1.00  0.00     0.116 C 
BRANCH  30  31
ATOM     31  N   UNL A   1      32.401  34.182  27.653  1.00  0.00    -0.352 N 
ATOM     32  C   UNL A   1      33.017  34.969  28.603  1.00  0.00     0.251 C 
ATOM     33  H   UNL A   1      31.673  34.621  27.156  1.00  0.00     0.163 HD
ATOM     34  O   UNL A   1      32.601  36.090  28.847  1.00  0.00    -0.269 OA
BRANCH  32  35
ATOM     35  C   UNL A   1      34.166  34.427  29.365  1.00  0.00     0.039 A 
ATOM     36  C   UNL A   1      33.922  33.755  30.567  1.00  0.00     0.014 A 
ATOM     37  C   UNL A   1      35.469  34.544  28.879  1.00  0.00     0.014 A 
ATOM     38  C   UNL A   1      34.973  33.110  31.225  1.00  0.00     0.010 A 
ATOM     39  C   UNL A   1      36.496  33.831  29.486  1.00  0.00     0.010 A 
ATOM     40  C   UNL A   1      36.257  33.098  30.660  1.00  0.00    -0.014 A 
BRANCH  40  41
ATOM     41  C   UNL A   1      37.369  32.320  31.264  1.00  0.00     0.031 A 
ATOM     42  C   UNL A   1      37.884  32.683  32.628  1.00  0.00     0.074 A 
ATOM     43  C   UNL A   1      37.975  31.351  30.550  1.00  0.00     0.049 A 
ATOM     44  N   UNL A   1      38.922  32.215  33.274  1.00  0.00    -0.248 NA
ATOM     45  C   UNL A   1      37.151  33.735  33.347  1.00  0.00     0.031 C 
ATOM     46  C   UNL A   1      37.599  30.930  29.199  1.00  0.00     0.029 A 
ATOM     47  N   UNL A   1      39.050  30.553  30.857  1.00  0.00    -0.354 N 
ATOM     48  C   UNL A   1      38.978  32.932  34.461  1.00  0.00     0.074 A 
ATOM     49  C   UNL A   1      37.903  33.899  34.425  1.00  0.00     0.031 C 
ATOM     50  C   UNL A   1      38.413  29.937  28.804  1.00  0.00     0.029 A 
ATOM     51  C   UNL A   1      39.394  29.680  29.853  1.00  0.00     0.049 A 
ATOM     52  H   UNL A   1      39.529  30.602  31.715  1.00  0.00     0.167 HD
ATOM     53  C   UNL A   1      39.835  32.781  35.500  1.00  0.00     0.037 A 
ATOM     54  C   UNL A   1      40.394  28.781  29.785  1.00  0.00     0.037 A 
ATOM     55  C   UNL A   1      40.885  31.799  35.549  1.00  0.00     0.049 A 
ATOM     56  C   UNL A   1      41.338  28.640  30.947  1.00  0.00     0.074 A 
ATOM     57  C   UNL A   1      41.771  31.531  36.577  1.00  0.00     0.029 A 
ATOM     58  N   UNL A   1      41.187  30.919  34.520  1.00  0.00    -0.354 N 
ATOM     59  N   UNL A   1      41.351  29.286  32.087  1.00  0.00    -0.248 NA
ATOM     60  C   UNL A   1      42.409  27.642  30.812  1.00  0.00     0.031 C 
ATOM     61  C   UNL A   1      42.633  30.513  36.158  1.00  0.00     0.029 A 
ATOM     62  C   UNL A   1      42.258  30.117  34.884  1.00  0.00     0.049 A 
ATOM     63  H   UNL A   1      40.713  30.871  33.659  1.00  0.00     0.167 HD
ATOM     64  C   UNL A   1      42.404  28.754  32.816  1.00  0.00     0.074 A 
ATOM     65  C   UNL A   1      43.006  27.726  31.993  1.00  0.00     0.031 C 
ATOM     66  C   UNL A   1      42.832  29.086  34.058  1.00  0.00     0.037 A 
BRANCH  53  67
ATOM     67  C   UNL A   1      39.662  33.702  36.673  1.00  0.00     0.064 A 
ATOM     68  C   UNL A   1      38.864  33.348  37.772  1.00  0.00     0.173 A 
ATOM     69  C   UNL A   1      40.311  34.945  36.706  1.00  0.00     0.173 A 
ATOM     70  F   UNL A   1      38.212  32.175  37.783  1.00  0.00    -0.203 F 
ATOM     71  C   UNL A   1      38.692  34.221  38.844  1.00  0.00     0.198 A 
ATOM     72  C   UNL A   1      40.161  35.802  37.794  1.00  0.00     0.198 A 
ATOM     73  F   UNL A   1      41.090  35.330  35.685  1.00  0.00    -0.203 F 
ATOM     74  F   UNL A   1      37.879  33.884  39.854  1.00  0.00    -0.200 F 
ATOM     75  C   UNL A   1      39.344  35.444  38.856  1.00  0.00     0.200 A 
ATOM     76  F   UNL A   1      40.802  36.978  37.811  1.00  0.00    -0.200 F 
ATOM     77  F   UNL A   1      39.180  36.282  39.889  1.00  0.00    -0.200 F 
ENDBRANCH  53  67
BRANCH  54  78
ATOM     78  C   UNL A   1      40.533  27.916  28.585  1.00  0.00     0.064 A 
ATOM     79  C   UNL A   1      41.294  28.339  27.486  1.00  0.00     0.173 A 
ATOM     80  C   UNL A   1      39.917  26.659  28.507  1.00  0.00     0.173 A 
ATOM     81  F   UNL A   1      41.884  29.544  27.506  1.00  0.00    -0.203 F 
ATOM     82  C   UNL A   1      41.421  27.545  26.349  1.00  0.00     0.198 A 
ATOM     83  C   UNL A   1      40.064  25.856  27.378  1.00  0.00     0.198 A 
ATOM     84  F   UNL A   1      39.181  26.207  29.533  1.00  0.00    -0.203 F 
ATOM     85  F   UNL A   1      42.122  27.992  25.296  1.00  0.00    -0.200 F 
ATOM     86  C   UNL A   1      40.810  26.301  26.297  1.00  0.00     0.200 A 
ATOM     87  F   UNL A   1      39.484  24.648  27.337  1.00  0.00    -0.200 F 
ATOM     88  F   UNL A   1      40.935  25.535  25.205  1.00  0.00    -0.200 F 
ENDBRANCH  54  78
BRANCH  66  89
ATOM     89  C   UNL A   1      43.979  28.302  34.625  1.00  0.00     0.064 A 
ATOM     90  C   UNL A   1      45.301  28.756  34.526  1.00  0.00     0.173 A 
ATOM     91  C   UNL A   1      43.743  27.105  35.318  1.00  0.00     0.173 A 
ATOM     92  F   UNL A   1      45.580  29.886  33.860  1.00  0.00    -0.203 F 
ATOM     93  C   UNL A   1      46.349  28.030  35.088  1.00  0.00     0.198 A 
ATOM     94  C   UNL A   1      44.789  26.396  35.900  1.00  0.00     0.198 A 
ATOM     95  F   UNL A   1      42.494  26.631  35.443  1.00  0.00    -0.203 F 
ATOM     96  F   UNL A   1      47.611  28.462  34.950  1.00  0.00    -0.200 F 
ATOM     97  C   UNL A   1      46.091  26.856  35.781  1.00  0.00     0.200 A 
ATOM     98  F   UNL A   1      44.537  25.268  36.579  1.00  0.00    -0.200 F 
ATOM     99  F   UNL A   1      47.100  26.165  36.329  1.00  0.00    -0.200 F 
ENDBRANCH  66  89
ENDBRANCH  40  41
ENDBRANCH  32  35
ENDBRANCH  30  31
ENDBRANCH  29  30
ENDBRANCH  28  29
ENDBRANCH   1  28
TORSDOF 16
ENDMDL
