MODEL 1
REMARK VINA RESULT:     -12.6      0.000      0.000
REMARK SMILES Cc1nn(-c2ccccc2)c(C)c1CNC(=O)CCCC(=O)NCCCCNC(=O)c1ccc(-c2c3nc(c(-c4c(F)c(F)c(F)c(F)c4F)c4ccc([nH]4)c(-c4c(F)c(F)c(F)c(F)c4F)c4nc(c(-c5c(F)c(F)c(F)c(F)c5F)c5ccc2[nH]5)C=C4)C=C3)cc1
REMARK SMILES IDX 21 1 22 2 23 3 20 5 19 6 18 7 16 8 15 9 17 11 14 12 13 13
REMARK SMILES IDX 1 14 2 15 3 16 4 17 11 18 12 19 5 20 6 21 10 22 7 23 9 24
REMARK SMILES IDX 8 25 24 26 25 27 26 28 27 29 28 30 29 31 30 33 31 34 32 35
REMARK SMILES IDX 93 36 33 37 92 38 34 39 35 40 36 41 86 42 37 43 91 44 85 45
REMARK SMILES IDX 87 46 38 47 90 48 84 49 83 50 39 52 71 53 51 54 70 55 52 56
REMARK SMILES IDX 55 57 69 58 88 59 53 60 54 61 68 63 89 64 56 65 40 66 41 67
REMARK SMILES IDX 49 68 42 69 43 70 47 71 50 72 44 73 45 74 48 75 46 76 72 77
REMARK SMILES IDX 73 78 81 79 74 80 75 81 79 82 82 83 76 84 77 85 80 86 78 87
REMARK SMILES IDX 57 88 58 89 66 90 59 91 60 92 64 93 67 94 61 95 62 96 65 97
REMARK SMILES IDX 63 98
REMARK H PARENT 23 4 15 10 28 32 87 51 55 62
REMARK Flexibility Score: inf
ROOT
ATOM      1  C   UNL A   1      37.897  23.100  25.761  1.00  0.00     0.220 C 
ATOM      2  O   UNL A   1      37.344  24.147  26.113  1.00  0.00    -0.275 OA
ATOM      3  N   UNL A   1      38.941  22.688  26.523  1.00  0.00    -0.356 N 
ATOM      4  H   UNL A   1      39.186  23.311  27.245  1.00  0.00     0.163 HD
ENDROOT
BRANCH   1   5
ATOM      5  C   UNL A   1      37.320  22.292  24.609  1.00  0.00     0.100 C 
BRANCH   5   6
ATOM      6  C   UNL A   1      36.683  22.958  23.403  1.00  0.00     0.020 C 
BRANCH   6   7
ATOM      7  C   UNL A   1      35.271  23.551  23.390  1.00  0.00     0.100 C 
BRANCH   7   8
ATOM      8  C   UNL A   1      34.557  24.507  24.362  1.00  0.00     0.220 C 
ATOM      9  N   UNL A   1      34.128  24.305  25.621  1.00  0.00    -0.352 N 
ATOM     10  H   UNL A   1      33.732  25.128  25.989  1.00  0.00     0.163 HD
ATOM     11  O   UNL A   1      34.263  25.630  23.917  1.00  0.00    -0.275 OA
BRANCH   9  12
ATOM     12  C   UNL A   1      34.078  23.235  26.597  1.00  0.00     0.155 C 
BRANCH  12  13
ATOM     13  C   UNL A   1      33.370  22.021  26.102  1.00  0.00     0.016 A 
ATOM     14  C   UNL A   1      30.964  23.049  25.919  1.00  0.00     0.069 C 
ATOM     15  C   UNL A   1      31.976  21.962  25.790  1.00  0.00     0.065 A 
ATOM     16  N   UNL A   1      31.631  20.797  25.235  1.00  0.00    -0.173 NA
ATOM     17  N   UNL A   1      32.748  20.042  25.305  1.00  0.00    -0.237 N 
ATOM     18  C   UNL A   1      33.855  20.796  25.667  1.00  0.00     0.046 A 
ATOM     19  C   UNL A   1      35.235  20.298  25.416  1.00  0.00     0.067 C 
BRANCH  17  20
ATOM     20  C   UNL A   1      32.776  18.688  24.892  1.00  0.00     0.065 A 
ATOM     21  C   UNL A   1      33.061  18.367  23.564  1.00  0.00     0.028 A 
ATOM     22  C   UNL A   1      32.650  17.675  25.855  1.00  0.00     0.028 A 
ATOM     23  C   UNL A   1      33.332  17.037  23.236  1.00  0.00     0.002 A 
ATOM     24  C   UNL A   1      32.924  16.354  25.522  1.00  0.00     0.002 A 
ATOM     25  C   UNL A   1      33.286  16.040  24.215  1.00  0.00     0.000 A 
ENDBRANCH  17  20
ENDBRANCH  12  13
ENDBRANCH   9  12
ENDBRANCH   7   8
ENDBRANCH   6   7
ENDBRANCH   5   6
ENDBRANCH   1   5
BRANCH   3  26
ATOM     26  C   UNL A   1      39.756  21.501  26.464  1.00  0.00     0.116 C 
BRANCH  26  27
ATOM     27  C   UNL A   1      40.881  21.491  27.496  1.00  0.00     0.023 C 
BRANCH  27  28
ATOM     28  C   UNL A   1      41.986  20.475  27.226  1.00  0.00     0.023 C 
BRANCH  28  29
ATOM     29  C   UNL A   1      42.064  20.051  25.768  1.00  0.00     0.116 C 
BRANCH  29  30
ATOM     30  N   UNL A   1      43.398  19.615  25.353  1.00  0.00    -0.352 N 
ATOM     31  C   UNL A   1      44.418  20.429  24.876  1.00  0.00     0.251 C 
ATOM     32  H   UNL A   1      43.592  18.653  25.419  1.00  0.00     0.163 HD
ATOM     33  O   UNL A   1      45.333  20.004  24.206  1.00  0.00    -0.269 OA
BRANCH  31  34
ATOM     34  C   UNL A   1      44.360  21.850  25.264  1.00  0.00     0.039 A 
ATOM     35  C   UNL A   1      43.481  22.751  24.661  1.00  0.00     0.014 A 
ATOM     36  C   UNL A   1      45.168  22.224  26.336  1.00  0.00     0.014 A 
ATOM     37  C   UNL A   1      43.373  24.030  25.201  1.00  0.00     0.010 A 
ATOM     38  C   UNL A   1      44.930  23.412  26.968  1.00  0.00     0.010 A 
ATOM     39  C   UNL A   1      44.093  24.343  26.367  1.00  0.00    -0.014 A 
BRANCH  39  40
ATOM     40  C   UNL A   1      43.884  25.595  27.082  1.00  0.00     0.031 A 
ATOM     41  C   UNL A   1      44.866  26.647  26.707  1.00  0.00     0.074 A 
ATOM     42  C   UNL A   1      42.769  25.827  27.810  1.00  0.00     0.049 A 
ATOM     43  N   UNL A   1      45.841  27.096  27.425  1.00  0.00    -0.248 NA
ATOM     44  C   UNL A   1      44.898  27.127  25.314  1.00  0.00     0.031 C 
ATOM     45  C   UNL A   1      41.595  24.954  27.959  1.00  0.00     0.029 A 
ATOM     46  N   UNL A   1      42.395  26.939  28.505  1.00  0.00    -0.354 N 
ATOM     47  C   UNL A   1      46.444  28.098  26.668  1.00  0.00     0.074 A 
ATOM     48  C   UNL A   1      45.982  27.908  25.322  1.00  0.00     0.031 C 
ATOM     49  C   UNL A   1      40.566  25.648  28.492  1.00  0.00     0.029 A 
ATOM     50  C   UNL A   1      41.054  26.952  28.892  1.00  0.00     0.049 A 
ATOM     51  H   UNL A   1      43.018  27.672  28.716  1.00  0.00     0.167 HD
ATOM     52  C   UNL A   1      46.991  29.180  27.291  1.00  0.00     0.037 A 
ATOM     53  C   UNL A   1      40.398  27.971  29.504  1.00  0.00     0.037 A 
ATOM     54  C   UNL A   1      47.093  28.922  28.708  1.00  0.00     0.049 A 
ATOM     55  C   UNL A   1      41.428  28.834  30.121  1.00  0.00     0.074 A 
ATOM     56  C   UNL A   1      47.873  28.145  29.534  1.00  0.00     0.029 A 
ATOM     57  N   UNL A   1      45.945  29.227  29.392  1.00  0.00    -0.354 N 
ATOM     58  N   UNL A   1      42.176  28.447  31.117  1.00  0.00    -0.248 NA
ATOM     59  C   UNL A   1      41.921  29.984  29.377  1.00  0.00     0.031 C 
ATOM     60  C   UNL A   1      47.054  27.830  30.662  1.00  0.00     0.029 A 
ATOM     61  C   UNL A   1      45.827  28.481  30.529  1.00  0.00     0.049 A 
ATOM     62  H   UNL A   1      45.288  29.900  29.100  1.00  0.00     0.167 HD
ATOM     63  C   UNL A   1      43.413  29.004  30.852  1.00  0.00     0.074 A 
ATOM     64  C   UNL A   1      43.155  30.063  29.881  1.00  0.00     0.031 C 
ATOM     65  C   UNL A   1      44.553  28.335  31.194  1.00  0.00     0.037 A 
BRANCH  52  66
ATOM     66  C   UNL A   1      46.917  30.619  26.795  1.00  0.00     0.064 A 
ATOM     67  C   UNL A   1      48.080  31.419  26.888  1.00  0.00     0.173 A 
ATOM     68  C   UNL A   1      45.722  31.331  26.565  1.00  0.00     0.173 A 
ATOM     69  F   UNL A   1      49.281  30.860  27.103  1.00  0.00    -0.203 F 
ATOM     70  C   UNL A   1      48.028  32.817  26.861  1.00  0.00     0.198 A 
ATOM     71  C   UNL A   1      45.680  32.725  26.494  1.00  0.00     0.198 A 
ATOM     72  F   UNL A   1      44.528  30.735  26.507  1.00  0.00    -0.203 F 
ATOM     73  F   UNL A   1      49.140  33.531  27.087  1.00  0.00    -0.200 F 
ATOM     74  C   UNL A   1      46.825  33.469  26.678  1.00  0.00     0.200 A 
ATOM     75  F   UNL A   1      44.498  33.339  26.335  1.00  0.00    -0.200 F 
ATOM     76  F   UNL A   1      46.757  34.806  26.720  1.00  0.00    -0.200 F 
ENDBRANCH  52  66
BRANCH  53  77
ATOM     77  C   UNL A   1      38.982  28.395  29.390  1.00  0.00     0.064 A 
ATOM     78  C   UNL A   1      38.174  28.582  30.525  1.00  0.00     0.173 A 
ATOM     79  C   UNL A   1      38.493  28.921  28.180  1.00  0.00     0.173 A 
ATOM     80  F   UNL A   1      38.588  28.150  31.725  1.00  0.00    -0.203 F 
ATOM     81  C   UNL A   1      36.963  29.282  30.457  1.00  0.00     0.198 A 
ATOM     82  C   UNL A   1      37.286  29.622  28.113  1.00  0.00     0.198 A 
ATOM     83  F   UNL A   1      39.230  28.851  27.060  1.00  0.00    -0.203 F 
ATOM     84  F   UNL A   1      36.249  29.495  31.572  1.00  0.00    -0.200 F 
ATOM     85  C   UNL A   1      36.528  29.814  29.254  1.00  0.00     0.200 A 
ATOM     86  F   UNL A   1      36.900  30.169  26.952  1.00  0.00    -0.200 F 
ATOM     87  F   UNL A   1      35.406  30.546  29.201  1.00  0.00    -0.200 F 
ENDBRANCH  53  77
BRANCH  65  88
ATOM     88  C   UNL A   1      44.435  27.272  32.243  1.00  0.00     0.064 A 
ATOM     89  C   UNL A   1      44.302  25.899  31.983  1.00  0.00     0.173 A 
ATOM     90  C   UNL A   1      44.553  27.671  33.580  1.00  0.00     0.173 A 
ATOM     91  F   UNL A   1      44.262  25.434  30.730  1.00  0.00    -0.203 F 
ATOM     92  C   UNL A   1      44.249  24.973  33.025  1.00  0.00     0.198 A 
ATOM     93  C   UNL A   1      44.539  26.744  34.614  1.00  0.00     0.198 A 
ATOM     94  F   UNL A   1      44.726  28.969  33.879  1.00  0.00    -0.203 F 
ATOM     95  F   UNL A   1      44.105  23.666  32.757  1.00  0.00    -0.200 F 
ATOM     96  C   UNL A   1      44.374  25.397  34.339  1.00  0.00     0.200 A 
ATOM     97  F   UNL A   1      44.705  27.156  35.878  1.00  0.00    -0.200 F 
ATOM     98  F   UNL A   1      44.360  24.505  35.339  1.00  0.00    -0.200 F 
ENDBRANCH  65  88
ENDBRANCH  39  40
ENDBRANCH  31  34
ENDBRANCH  29  30
ENDBRANCH  28  29
ENDBRANCH  27  28
ENDBRANCH  26  27
ENDBRANCH   3  26
TORSDOF 17
ENDMDL
MODEL 2
REMARK VINA RESULT:     -12.6      1.490      3.383
REMARK SMILES Cc1nn(-c2ccccc2)c(C)c1CNC(=O)CCCC(=O)NCCCCNC(=O)c1ccc(-c2c3nc(c(-c4c(F)c(F)c(F)c(F)c4F)c4ccc([nH]4)c(-c4c(F)c(F)c(F)c(F)c4F)c4nc(c(-c5c(F)c(F)c(F)c(F)c5F)c5ccc2[nH]5)C=C4)C=C3)cc1
REMARK SMILES IDX 21 1 22 2 23 3 20 5 19 6 18 7 16 8 15 9 17 11 14 12 13 13
REMARK SMILES IDX 1 14 2 15 3 16 4 17 11 18 12 19 5 20 6 21 10 22 7 23 9 24
REMARK SMILES IDX 8 25 24 26 25 27 26 28 27 29 28 30 29 31 30 33 31 34 32 35
REMARK SMILES IDX 93 36 33 37 92 38 34 39 35 40 36 41 86 42 37 43 91 44 85 45
REMARK SMILES IDX 87 46 38 47 90 48 84 49 83 50 39 52 71 53 51 54 70 55 52 56
REMARK SMILES IDX 55 57 69 58 88 59 53 60 54 61 68 63 89 64 56 65 40 66 41 67
REMARK SMILES IDX 49 68 42 69 43 70 47 71 50 72 44 73 45 74 48 75 46 76 72 77
REMARK SMILES IDX 73 78 81 79 74 80 75 81 79 82 82 83 76 84 77 85 80 86 78 87
REMARK SMILES IDX 57 88 58 89 66 90 59 91 60 92 64 93 67 94 61 95 62 96 65 97
REMARK SMILES IDX 63 98
REMARK H PARENT 23 4 15 10 28 32 87 51 55 62
REMARK Flexibility Score: inf
ROOT
ATOM      1  C   UNL A   1      37.767  22.847  25.772  1.00  0.00     0.220 C 
ATOM      2  O   UNL A   1      37.168  23.851  26.170  1.00  0.00    -0.275 OA
ATOM      3  N   UNL A   1      38.935  22.557  26.399  1.00  0.00    -0.356 N 
ATOM      4  H   UNL A   1      39.212  23.224  27.068  1.00  0.00     0.163 HD
ENDROOT
BRANCH   1   5
ATOM      5  C   UNL A   1      37.125  21.952  24.725  1.00  0.00     0.100 C 
BRANCH   5   6
ATOM      6  C   UNL A   1      36.188  20.819  25.102  1.00  0.00     0.020 C 
BRANCH   6   7
ATOM      7  C   UNL A   1      34.676  20.977  25.292  1.00  0.00     0.100 C 
BRANCH   7   8
ATOM      8  C   UNL A   1      33.548  21.284  24.292  1.00  0.00     0.220 C 
ATOM      9  N   UNL A   1      33.456  22.244  23.354  1.00  0.00    -0.352 N 
ATOM     10  H   UNL A   1      32.614  22.158  22.850  1.00  0.00     0.163 HD
ATOM     11  O   UNL A   1      32.522  20.588  24.384  1.00  0.00    -0.275 OA
BRANCH   9  12
ATOM     12  C   UNL A   1      34.231  23.366  22.863  1.00  0.00     0.155 C 
BRANCH  12  13
ATOM     13  C   UNL A   1      33.747  24.681  23.372  1.00  0.00     0.016 A 
ATOM     14  C   UNL A   1      32.615  25.534  21.166  1.00  0.00     0.069 C 
ATOM     15  C   UNL A   1      33.013  25.632  22.599  1.00  0.00     0.065 A 
ATOM     16  N   UNL A   1      32.583  26.660  23.337  1.00  0.00    -0.173 NA
ATOM     17  N   UNL A   1      33.143  26.466  24.551  1.00  0.00    -0.237 N 
ATOM     18  C   UNL A   1      33.711  25.204  24.657  1.00  0.00     0.046 A 
ATOM     19  C   UNL A   1      34.014  24.611  25.988  1.00  0.00     0.067 C 
BRANCH  17  20
ATOM     20  C   UNL A   1      33.000  27.394  25.610  1.00  0.00     0.065 A 
ATOM     21  C   UNL A   1      34.025  28.298  25.891  1.00  0.00     0.028 A 
ATOM     22  C   UNL A   1      31.770  27.485  26.280  1.00  0.00     0.028 A 
ATOM     23  C   UNL A   1      33.766  29.360  26.760  1.00  0.00     0.002 A 
ATOM     24  C   UNL A   1      31.519  28.545  27.142  1.00  0.00     0.002 A 
ATOM     25  C   UNL A   1      32.513  29.495  27.365  1.00  0.00     0.000 A 
ENDBRANCH  17  20
ENDBRANCH  12  13
ENDBRANCH   9  12
ENDBRANCH   7   8
ENDBRANCH   6   7
ENDBRANCH   5   6
ENDBRANCH   1   5
BRANCH   3  26
ATOM     26  C   UNL A   1      39.844  21.447  26.259  1.00  0.00     0.116 C 
BRANCH  26  27
ATOM     27  C   UNL A   1      40.825  21.323  27.422  1.00  0.00     0.023 C 
BRANCH  27  28
ATOM     28  C   UNL A   1      41.999  20.382  27.169  1.00  0.00     0.023 C 
BRANCH  28  29
ATOM     29  C   UNL A   1      42.108  19.942  25.718  1.00  0.00     0.116 C 
BRANCH  29  30
ATOM     30  N   UNL A   1      43.455  19.518  25.332  1.00  0.00    -0.352 N 
ATOM     31  C   UNL A   1      44.477  20.341  24.874  1.00  0.00     0.251 C 
ATOM     32  H   UNL A   1      43.657  18.558  25.405  1.00  0.00     0.163 HD
ATOM     33  O   UNL A   1      45.410  19.924  24.225  1.00  0.00    -0.269 OA
BRANCH  31  34
ATOM     34  C   UNL A   1      44.396  21.762  25.257  1.00  0.00     0.039 A 
ATOM     35  C   UNL A   1      43.440  22.625  24.719  1.00  0.00     0.014 A 
ATOM     36  C   UNL A   1      45.270  22.175  26.261  1.00  0.00     0.014 A 
ATOM     37  C   UNL A   1      43.327  23.904  25.259  1.00  0.00     0.010 A 
ATOM     38  C   UNL A   1      45.039  23.359  26.902  1.00  0.00     0.010 A 
ATOM     39  C   UNL A   1      44.123  24.254  26.363  1.00  0.00    -0.014 A 
BRANCH  39  40
ATOM     40  C   UNL A   1      43.924  25.503  27.084  1.00  0.00     0.031 A 
ATOM     41  C   UNL A   1      44.913  26.550  26.713  1.00  0.00     0.074 A 
ATOM     42  C   UNL A   1      42.812  25.739  27.816  1.00  0.00     0.049 A 
ATOM     43  N   UNL A   1      45.892  26.989  27.431  1.00  0.00    -0.248 NA
ATOM     44  C   UNL A   1      44.945  27.037  25.322  1.00  0.00     0.031 C 
ATOM     45  C   UNL A   1      41.632  24.873  27.962  1.00  0.00     0.029 A 
ATOM     46  N   UNL A   1      42.446  26.850  28.517  1.00  0.00    -0.354 N 
ATOM     47  C   UNL A   1      46.500  27.991  26.678  1.00  0.00     0.074 A 
ATOM     48  C   UNL A   1      46.034  27.811  25.332  1.00  0.00     0.031 C 
ATOM     49  C   UNL A   1      40.609  25.571  28.501  1.00  0.00     0.029 A 
ATOM     50  C   UNL A   1      41.106  26.871  28.907  1.00  0.00     0.049 A 
ATOM     51  H   UNL A   1      43.075  27.578  28.731  1.00  0.00     0.167 HD
ATOM     52  C   UNL A   1      47.055  29.067  27.306  1.00  0.00     0.037 A 
ATOM     53  C   UNL A   1      40.458  27.891  29.525  1.00  0.00     0.037 A 
ATOM     54  C   UNL A   1      47.158  28.800  28.721  1.00  0.00     0.049 A 
ATOM     55  C   UNL A   1      41.495  28.744  30.145  1.00  0.00     0.074 A 
ATOM     56  C   UNL A   1      47.934  28.014  29.542  1.00  0.00     0.029 A 
ATOM     57  N   UNL A   1      46.014  29.110  29.409  1.00  0.00    -0.354 N 
ATOM     58  N   UNL A   1      42.242  28.346  31.137  1.00  0.00    -0.248 NA
ATOM     59  C   UNL A   1      41.995  29.894  29.405  1.00  0.00     0.031 C 
ATOM     60  C   UNL A   1      47.115  27.699  30.670  1.00  0.00     0.029 A 
ATOM     61  C   UNL A   1      45.893  28.359  30.542  1.00  0.00     0.049 A 
ATOM     62  H   UNL A   1      45.360  29.788  29.121  1.00  0.00     0.167 HD
ATOM     63  C   UNL A   1      43.482  28.897  30.873  1.00  0.00     0.074 A 
ATOM     64  C   UNL A   1      43.231  29.962  29.907  1.00  0.00     0.031 C 
ATOM     65  C   UNL A   1      44.619  28.218  31.209  1.00  0.00     0.037 A 
BRANCH  52  66
ATOM     66  C   UNL A   1      46.991  30.508  26.817  1.00  0.00     0.064 A 
ATOM     67  C   UNL A   1      48.159  31.300  26.911  1.00  0.00     0.173 A 
ATOM     68  C   UNL A   1      45.800  31.230  26.593  1.00  0.00     0.173 A 
ATOM     69  F   UNL A   1      49.356  30.731  27.122  1.00  0.00    -0.203 F 
ATOM     70  C   UNL A   1      48.116  32.698  26.892  1.00  0.00     0.198 A 
ATOM     71  C   UNL A   1      45.767  32.624  26.529  1.00  0.00     0.198 A 
ATOM     72  F   UNL A   1      44.602  30.642  26.535  1.00  0.00    -0.203 F 
ATOM     73  F   UNL A   1      49.234  33.403  27.119  1.00  0.00    -0.200 F 
ATOM     74  C   UNL A   1      46.918  33.359  26.714  1.00  0.00     0.200 A 
ATOM     75  F   UNL A   1      44.589  33.246  26.375  1.00  0.00    -0.200 F 
ATOM     76  F   UNL A   1      46.859  34.696  26.763  1.00  0.00    -0.200 F 
ENDBRANCH  52  66
BRANCH  53  77
ATOM     77  C   UNL A   1      39.046  28.325  29.415  1.00  0.00     0.064 A 
ATOM     78  C   UNL A   1      38.243  28.520  30.553  1.00  0.00     0.173 A 
ATOM     79  C   UNL A   1      38.556  28.852  28.206  1.00  0.00     0.173 A 
ATOM     80  F   UNL A   1      38.658  28.087  31.752  1.00  0.00    -0.203 F 
ATOM     81  C   UNL A   1      37.037  29.228  30.489  1.00  0.00     0.198 A 
ATOM     82  C   UNL A   1      37.354  29.561  28.143  1.00  0.00     0.198 A 
ATOM     83  F   UNL A   1      39.287  28.775  27.084  1.00  0.00    -0.203 F 
ATOM     84  F   UNL A   1      36.328  29.449  31.606  1.00  0.00    -0.200 F 
ATOM     85  C   UNL A   1      36.601  29.761  29.287  1.00  0.00     0.200 A 
ATOM     86  F   UNL A   1      36.967  30.109  26.983  1.00  0.00    -0.200 F 
ATOM     87  F   UNL A   1      35.484  30.501  29.237  1.00  0.00    -0.200 F 
ENDBRANCH  53  77
BRANCH  65  88
ATOM     88  C   UNL A   1      44.496  27.151  32.253  1.00  0.00     0.064 A 
ATOM     89  C   UNL A   1      44.336  25.782  31.987  1.00  0.00     0.173 A 
ATOM     90  C   UNL A   1      44.637  27.540  33.590  1.00  0.00     0.173 A 
ATOM     91  F   UNL A   1      44.273  25.325  30.731  1.00  0.00    -0.203 F 
ATOM     92  C   UNL A   1      44.281  24.850  33.023  1.00  0.00     0.198 A 
ATOM     93  C   UNL A   1      44.619  26.606  34.619  1.00  0.00     0.198 A 
ATOM     94  F   UNL A   1      44.835  28.832  33.895  1.00  0.00    -0.203 F 
ATOM     95  F   UNL A   1      44.111  23.548  32.749  1.00  0.00    -0.200 F 
ATOM     96  C   UNL A   1      44.429  25.264  34.337  1.00  0.00     0.200 A 
ATOM     97  F   UNL A   1      44.808  27.008  35.884  1.00  0.00    -0.200 F 
ATOM     98  F   UNL A   1      44.411  24.366  35.333  1.00  0.00    -0.200 F 
ENDBRANCH  65  88
ENDBRANCH  39  40
ENDBRANCH  31  34
ENDBRANCH  29  30
ENDBRANCH  28  29
ENDBRANCH  27  28
ENDBRANCH  26  27
ENDBRANCH   3  26
TORSDOF 17
ENDMDL
MODEL 3
REMARK VINA RESULT:     -12.3      3.087      5.403
REMARK SMILES Cc1nn(-c2ccccc2)c(C)c1CNC(=O)CCCC(=O)NCCCCNC(=O)c1ccc(-c2c3nc(c(-c4c(F)c(F)c(F)c(F)c4F)c4ccc([nH]4)c(-c4c(F)c(F)c(F)c(F)c4F)c4nc(c(-c5c(F)c(F)c(F)c(F)c5F)c5ccc2[nH]5)C=C4)C=C3)cc1
REMARK SMILES IDX 21 1 22 2 23 3 20 5 19 6 18 7 16 8 15 9 17 11 14 12 13 13
REMARK SMILES IDX 1 14 2 15 3 16 4 17 11 18 12 19 5 20 6 21 10 22 7 23 9 24
REMARK SMILES IDX 8 25 24 26 25 27 26 28 27 29 28 30 29 31 30 33 31 34 32 35
REMARK SMILES IDX 93 36 33 37 92 38 34 39 35 40 36 41 86 42 37 43 91 44 85 45
REMARK SMILES IDX 87 46 38 47 90 48 84 49 83 50 39 52 71 53 51 54 70 55 52 56
REMARK SMILES IDX 55 57 69 58 88 59 53 60 54 61 68 63 89 64 56 65 40 66 41 67
REMARK SMILES IDX 49 68 42 69 43 70 47 71 50 72 44 73 45 74 48 75 46 76 72 77
REMARK SMILES IDX 73 78 81 79 74 80 75 81 79 82 82 83 76 84 77 85 80 86 78 87
REMARK SMILES IDX 57 88 58 89 66 90 59 91 60 92 64 93 67 94 61 95 62 96 65 97
REMARK SMILES IDX 63 98
REMARK H PARENT 23 4 15 10 28 32 87 51 55 62
REMARK Flexibility Score: inf
ROOT
ATOM      1  C   UNL A   1      33.994  22.042  25.237  1.00  0.00     0.220 C 
ATOM      2  O   UNL A   1      33.142  22.302  26.093  1.00  0.00    -0.275 OA
ATOM      3  N   UNL A   1      35.135  21.460  25.682  1.00  0.00    -0.356 N 
ATOM      4  H   UNL A   1      35.185  21.365  26.660  1.00  0.00     0.163 HD
ENDROOT
BRANCH   1   5
ATOM      5  C   UNL A   1      33.678  22.268  23.767  1.00  0.00     0.100 C 
BRANCH   5   6
ATOM      6  C   UNL A   1      33.956  23.593  23.080  1.00  0.00     0.020 C 
BRANCH   6   7
ATOM      7  C   UNL A   1      32.916  24.700  22.887  1.00  0.00     0.100 C 
BRANCH   7   8
ATOM      8  C   UNL A   1      32.604  25.611  21.687  1.00  0.00     0.220 C 
ATOM      9  N   UNL A   1      31.725  26.622  21.569  1.00  0.00    -0.352 N 
ATOM     10  H   UNL A   1      31.784  27.031  20.675  1.00  0.00     0.163 HD
ATOM     11  O   UNL A   1      33.203  25.355  20.628  1.00  0.00    -0.275 OA
BRANCH   9  12
ATOM     12  C   UNL A   1      30.717  27.289  22.368  1.00  0.00     0.155 C 
BRANCH  12  13
ATOM     13  C   UNL A   1      31.181  27.613  23.747  1.00  0.00     0.016 A 
ATOM     14  C   UNL A   1      29.618  25.965  25.057  1.00  0.00     0.069 C 
ATOM     15  C   UNL A   1      30.685  26.998  24.938  1.00  0.00     0.065 A 
ATOM     16  N   UNL A   1      31.371  27.372  26.023  1.00  0.00    -0.173 NA
ATOM     17  N   UNL A   1      32.216  28.327  25.579  1.00  0.00    -0.237 N 
ATOM     18  C   UNL A   1      32.247  28.381  24.193  1.00  0.00     0.046 A 
ATOM     19  C   UNL A   1      33.373  29.042  23.478  1.00  0.00     0.067 C 
BRANCH  17  20
ATOM     20  C   UNL A   1      33.070  29.047  26.449  1.00  0.00     0.065 A 
ATOM     21  C   UNL A   1      34.313  28.521  26.803  1.00  0.00     0.028 A 
ATOM     22  C   UNL A   1      32.713  30.348  26.838  1.00  0.00     0.028 A 
ATOM     23  C   UNL A   1      35.236  29.349  27.447  1.00  0.00     0.002 A 
ATOM     24  C   UNL A   1      33.638  31.166  27.476  1.00  0.00     0.002 A 
ATOM     25  C   UNL A   1      34.907  30.671  27.761  1.00  0.00     0.000 A 
ENDBRANCH  17  20
ENDBRANCH  12  13
ENDBRANCH   9  12
ENDBRANCH   7   8
ENDBRANCH   6   7
ENDBRANCH   5   6
ENDBRANCH   1   5
BRANCH   3  26
ATOM     26  C   UNL A   1      36.288  20.956  24.979  1.00  0.00     0.116 C 
BRANCH  26  27
ATOM     27  C   UNL A   1      37.320  22.036  24.664  1.00  0.00     0.023 C 
BRANCH  27  28
ATOM     28  C   UNL A   1      37.052  23.386  25.321  1.00  0.00     0.023 C 
BRANCH  28  29
ATOM     29  C   UNL A   1      38.047  23.722  26.421  1.00  0.00     0.116 C 
BRANCH  29  30
ATOM     30  N   UNL A   1      39.189  22.808  26.479  1.00  0.00    -0.352 N 
ATOM     31  C   UNL A   1      40.531  23.164  26.424  1.00  0.00     0.251 C 
ATOM     32  H   UNL A   1      38.986  21.849  26.566  1.00  0.00     0.163 HD
ATOM     33  O   UNL A   1      41.399  22.386  26.097  1.00  0.00    -0.269 OA
BRANCH  31  34
ATOM     34  C   UNL A   1      40.862  24.542  26.829  1.00  0.00     0.039 A 
ATOM     35  C   UNL A   1      40.659  25.636  25.984  1.00  0.00     0.014 A 
ATOM     36  C   UNL A   1      41.300  24.704  28.141  1.00  0.00     0.014 A 
ATOM     37  C   UNL A   1      40.839  26.914  26.506  1.00  0.00     0.010 A 
ATOM     38  C   UNL A   1      41.303  25.954  28.695  1.00  0.00     0.010 A 
ATOM     39  C   UNL A   1      41.146  27.060  27.870  1.00  0.00    -0.014 A 
BRANCH  39  40
ATOM     40  C   UNL A   1      41.168  28.366  28.514  1.00  0.00     0.031 A 
ATOM     41  C   UNL A   1      42.313  29.209  28.078  1.00  0.00     0.074 A 
ATOM     42  C   UNL A   1      40.119  28.829  29.231  1.00  0.00     0.049 A 
ATOM     43  N   UNL A   1      43.360  29.520  28.766  1.00  0.00    -0.248 NA
ATOM     44  C   UNL A   1      42.409  29.599  26.660  1.00  0.00     0.031 C 
ATOM     45  C   UNL A   1      38.813  28.182  29.432  1.00  0.00     0.029 A 
ATOM     46  N   UNL A   1      39.953  30.025  29.864  1.00  0.00    -0.354 N 
ATOM     47  C   UNL A   1      44.118  30.359  27.952  1.00  0.00     0.074 A 
ATOM     48  C   UNL A   1      43.613  30.178  26.620  1.00  0.00     0.031 C 
ATOM     49  C   UNL A   1      37.927  29.073  29.929  1.00  0.00     0.029 A 
ATOM     50  C   UNL A   1      38.639  30.293  30.254  1.00  0.00     0.049 A 
ATOM     51  H   UNL A   1      40.697  30.649  30.032  1.00  0.00     0.167 HD
ATOM     52  C   UNL A   1      44.853  31.362  28.513  1.00  0.00     0.037 A 
ATOM     53  C   UNL A   1      38.178  31.442  30.810  1.00  0.00     0.037 A 
ATOM     54  C   UNL A   1      44.926  31.167  29.941  1.00  0.00     0.049 A 
ATOM     55  C   UNL A   1      39.350  32.145  31.374  1.00  0.00     0.074 A 
ATOM     56  C   UNL A   1      45.569  30.313  30.807  1.00  0.00     0.029 A 
ATOM     57  N   UNL A   1      43.858  31.705  30.611  1.00  0.00    -0.354 N 
ATOM     58  N   UNL A   1      40.032  31.688  32.388  1.00  0.00    -0.248 NA
ATOM     59  C   UNL A   1      40.026  33.149  30.565  1.00  0.00     0.031 C 
ATOM     60  C   UNL A   1      44.722  30.207  31.953  1.00  0.00     0.029 A 
ATOM     61  C   UNL A   1      43.626  31.054  31.788  1.00  0.00     0.049 A 
ATOM     62  H   UNL A   1      43.324  32.464  30.283  1.00  0.00     0.167 HD
ATOM     63  C   UNL A   1      41.344  32.006  32.089  1.00  0.00     0.074 A 
ATOM     64  C   UNL A   1      41.262  33.039  31.061  1.00  0.00     0.031 C 
ATOM     65  C   UNL A   1      42.355  31.168  32.464  1.00  0.00     0.037 A 
BRANCH  52  66
ATOM     66  C   UNL A   1      45.024  32.762  27.937  1.00  0.00     0.064 A 
ATOM     67  C   UNL A   1      46.333  33.208  27.640  1.00  0.00     0.173 A 
ATOM     68  C   UNL A   1      44.046  33.777  27.984  1.00  0.00     0.173 A 
ATOM     69  F   UNL A   1      47.352  32.338  27.565  1.00  0.00    -0.203 F 
ATOM     70  C   UNL A   1      46.648  34.565  27.512  1.00  0.00     0.198 A 
ATOM     71  C   UNL A   1      44.356  35.127  27.811  1.00  0.00     0.198 A 
ATOM     72  F   UNL A   1      42.772  33.536  28.306  1.00  0.00    -0.203 F 
ATOM     73  F   UNL A   1      47.926  34.942  27.365  1.00  0.00    -0.200 F 
ATOM     74  C   UNL A   1      45.660  35.525  27.611  1.00  0.00     0.200 A 
ATOM     75  F   UNL A   1      43.385  36.044  27.930  1.00  0.00    -0.200 F 
ATOM     76  F   UNL A   1      45.964  36.828  27.558  1.00  0.00    -0.200 F 
ENDBRANCH  52  66
BRANCH  53  77
ATOM     77  C   UNL A   1      36.857  32.099  30.676  1.00  0.00     0.064 A 
ATOM     78  C   UNL A   1      35.920  32.094  31.725  1.00  0.00     0.173 A 
ATOM     79  C   UNL A   1      36.617  33.006  29.628  1.00  0.00     0.173 A 
ATOM     80  F   UNL A   1      36.099  31.290  32.783  1.00  0.00    -0.203 F 
ATOM     81  C   UNL A   1      34.826  32.968  31.738  1.00  0.00     0.198 A 
ATOM     82  C   UNL A   1      35.527  33.880  29.642  1.00  0.00     0.198 A 
ATOM     83  F   UNL A   1      37.495  33.131  28.620  1.00  0.00    -0.203 F 
ATOM     84  F   UNL A   1      33.988  32.978  32.785  1.00  0.00    -0.200 F 
ATOM     85  C   UNL A   1      34.639  33.870  30.703  1.00  0.00     0.200 A 
ATOM     86  F   UNL A   1      35.383  34.778  28.657  1.00  0.00    -0.200 F 
ATOM     87  F   UNL A   1      33.634  34.757  30.749  1.00  0.00    -0.200 F 
ENDBRANCH  53  77
BRANCH  65  88
ATOM     88  C   UNL A   1      42.067  30.202  33.572  1.00  0.00     0.064 A 
ATOM     89  C   UNL A   1      41.660  28.870  33.389  1.00  0.00     0.173 A 
ATOM     90  C   UNL A   1      42.305  30.634  34.881  1.00  0.00     0.173 A 
ATOM     91  F   UNL A   1      41.488  28.362  32.164  1.00  0.00    -0.203 F 
ATOM     92  C   UNL A   1      41.464  28.024  34.481  1.00  0.00     0.198 A 
ATOM     93  C   UNL A   1      42.145  29.778  35.964  1.00  0.00     0.198 A 
ATOM     94  F   UNL A   1      42.738  31.885  35.106  1.00  0.00    -0.203 F 
ATOM     95  F   UNL A   1      41.059  26.759  34.287  1.00  0.00    -0.200 F 
ATOM     96  C   UNL A   1      41.713  28.478  35.766  1.00  0.00     0.200 A 
ATOM     97  F   UNL A   1      42.431  30.211  37.200  1.00  0.00    -0.200 F 
ATOM     98  F   UNL A   1      41.558  27.655  36.813  1.00  0.00    -0.200 F 
ENDBRANCH  65  88
ENDBRANCH  39  40
ENDBRANCH  31  34
ENDBRANCH  29  30
ENDBRANCH  28  29
ENDBRANCH  27  28
ENDBRANCH  26  27
ENDBRANCH   3  26
TORSDOF 17
ENDMDL
