MODEL 1
REMARK VINA RESULT:     -11.8      0.000      0.000
REMARK SMILES C/C=C/C[N@H+]1CCC[C@H](C(=O)NCCCCNC(=O)c2ccc(-c3c4nc(c(-c5c(F)c(F)c(F)c(F)c5F)c5ccc([nH]5)c(-c5c(F)c(F)c(F)c(F)c5F)c5nc(c(-c6c(F)c(F)c(F)c(F)c6F)c6ccc3[nH]6)C=C5)C=C4)cc2)C1
REMARK SMILES IDX 14 1 13 2 12 3 10 4 11 5 9 7 5 8 6 9 83 10 7 12 8 13 4 14
REMARK SMILES IDX 3 15 1 16 2 17 15 18 16 19 17 20 18 21 19 23 20 24 21 25
REMARK SMILES IDX 82 26 22 27 81 28 23 29 24 30 25 31 75 32 26 33 80 34 74 35
REMARK SMILES IDX 76 36 27 37 79 38 73 39 72 40 28 42 60 43 40 44 59 45 41 46
REMARK SMILES IDX 44 47 58 48 77 49 42 50 43 51 57 53 78 54 45 55 29 56 30 57
REMARK SMILES IDX 38 58 31 59 32 60 36 61 39 62 33 63 34 64 37 65 35 66 61 67
REMARK SMILES IDX 62 68 70 69 63 70 64 71 68 72 71 73 65 74 66 75 69 76 67 77
REMARK SMILES IDX 46 78 47 79 55 80 48 81 49 82 53 83 56 84 50 85 51 86 54 87
REMARK SMILES IDX 52 88
REMARK H PARENT 12 6 5 11 17 22 76 41 44 52
REMARK Flexibility Score: inf
ROOT
ATOM      1  C   UNL A   1      32.126  30.424  26.739  1.00  0.00     0.023 C 
ENDROOT
BRANCH   1   2
ATOM      2  C   UNL A   1      31.735  29.810  25.400  1.00  0.00     0.116 C 
BRANCH   2   3
ATOM      3  N   UNL A   1      32.861  29.660  24.508  1.00  0.00    -0.356 N 
ATOM      4  C   UNL A   1      33.054  28.831  23.451  1.00  0.00     0.228 C 
ATOM      5  O   UNL A   1      34.104  28.994  22.817  1.00  0.00    -0.275 OA
ATOM      6  H   UNL A   1      33.618  30.261  24.699  1.00  0.00     0.163 HD
BRANCH   4   7
ATOM      7  C   UNL A   1      32.089  27.716  23.032  1.00  0.00     0.133 C 
ATOM      8  N   UNL A   1      29.642  28.200  23.402  1.00  0.00    -0.331 N 
ATOM      9  C   UNL A   1      29.468  26.902  24.056  1.00  0.00     0.262 C 
ATOM     10  C   UNL A   1      30.751  28.184  22.442  1.00  0.00     0.276 C 
ATOM     11  H   UNL A   1      29.894  28.857  24.142  1.00  0.00     0.348 HD
ATOM     12  C   UNL A   1      30.712  26.544  24.866  1.00  0.00     0.062 C 
ATOM     13  C   UNL A   1      31.989  26.561  24.034  1.00  0.00     0.025 C 
BRANCH   8  14
ATOM     14  C   UNL A   1      28.407  28.730  22.820  1.00  0.00     0.290 C 
BRANCH  14  15
ATOM     15  C   UNL A   1      28.548  30.207  22.559  1.00  0.00     0.029 C 
ATOM     16  C   UNL A   1      28.870  32.598  23.241  1.00  0.00     0.035 C 
ATOM     17  C   UNL A   1      28.741  31.134  23.512  1.00  0.00    -0.029 C 
ENDBRANCH  14  15
ENDBRANCH   8  14
ENDBRANCH   4   7
ENDBRANCH   2   3
ENDBRANCH   1   2
BRANCH   1  18
ATOM     18  C   UNL A   1      31.742  31.892  26.898  1.00  0.00     0.023 C 
BRANCH  18  19
ATOM     19  C   UNL A   1      32.874  32.819  27.334  1.00  0.00     0.116 C 
BRANCH  19  20
ATOM     20  N   UNL A   1      32.452  34.169  27.680  1.00  0.00    -0.352 N 
ATOM     21  C   UNL A   1      32.991  35.004  28.635  1.00  0.00     0.251 C 
ATOM     22  H   UNL A   1      31.691  34.530  27.170  1.00  0.00     0.163 HD
ATOM     23  O   UNL A   1      32.509  36.104  28.866  1.00  0.00    -0.269 OA
BRANCH  21  24
ATOM     24  C   UNL A   1      34.147  34.517  29.414  1.00  0.00     0.039 A 
ATOM     25  C   UNL A   1      33.923  33.892  30.641  1.00  0.00     0.014 A 
ATOM     26  C   UNL A   1      35.432  34.588  28.872  1.00  0.00     0.014 A 
ATOM     27  C   UNL A   1      34.982  33.251  31.286  1.00  0.00     0.010 A 
ATOM     28  C   UNL A   1      36.466  33.885  29.476  1.00  0.00     0.010 A 
ATOM     29  C   UNL A   1      36.249  33.200  30.682  1.00  0.00    -0.014 A 
BRANCH  29  30
ATOM     30  C   UNL A   1      37.364  32.426  31.283  1.00  0.00     0.031 A 
ATOM     31  C   UNL A   1      37.868  32.782  32.652  1.00  0.00     0.074 A 
ATOM     32  C   UNL A   1      37.982  31.472  30.561  1.00  0.00     0.049 A 
ATOM     33  N   UNL A   1      38.898  32.308  33.305  1.00  0.00    -0.248 NA
ATOM     34  C   UNL A   1      37.138  33.841  33.367  1.00  0.00     0.031 C 
ATOM     35  C   UNL A   1      37.629  31.079  29.195  1.00  0.00     0.029 A 
ATOM     36  N   UNL A   1      39.051  30.668  30.870  1.00  0.00    -0.354 N 
ATOM     37  C   UNL A   1      38.954  33.027  34.491  1.00  0.00     0.074 A 
ATOM     38  C   UNL A   1      37.887  34.003  34.447  1.00  0.00     0.031 C 
ATOM     39  C   UNL A   1      38.452  30.097  28.793  1.00  0.00     0.029 A 
ATOM     40  C   UNL A   1      39.409  29.812  29.858  1.00  0.00     0.049 A 
ATOM     41  H   UNL A   1      39.517  30.701  31.737  1.00  0.00     0.167 HD
ATOM     42  C   UNL A   1      39.804  32.871  35.533  1.00  0.00     0.037 A 
ATOM     43  C   UNL A   1      40.401  28.904  29.796  1.00  0.00     0.037 A 
ATOM     44  C   UNL A   1      40.837  31.871  35.594  1.00  0.00     0.049 A 
ATOM     45  C   UNL A   1      41.305  28.721  30.984  1.00  0.00     0.074 A 
ATOM     46  C   UNL A   1      41.705  31.588  36.632  1.00  0.00     0.029 A 
ATOM     47  N   UNL A   1      41.134  30.985  34.568  1.00  0.00    -0.354 N 
ATOM     48  N   UNL A   1      41.308  29.363  32.127  1.00  0.00    -0.248 NA
ATOM     49  C   UNL A   1      42.338  27.681  30.877  1.00  0.00     0.031 C 
ATOM     50  C   UNL A   1      42.546  30.546  36.227  1.00  0.00     0.029 A 
ATOM     51  C   UNL A   1      42.177  30.158  34.948  1.00  0.00     0.049 A 
ATOM     52  H   UNL A   1      40.671  30.950  33.700  1.00  0.00     0.167 HD
ATOM     53  C   UNL A   1      42.322  28.792  32.882  1.00  0.00     0.074 A 
ATOM     54  C   UNL A   1      42.906  27.742  32.073  1.00  0.00     0.031 C 
ATOM     55  C   UNL A   1      42.735  29.111  34.133  1.00  0.00     0.037 A 
BRANCH  42  56
ATOM     56  C   UNL A   1      39.638  33.799  36.700  1.00  0.00     0.064 A 
ATOM     57  C   UNL A   1      38.850  33.448  37.807  1.00  0.00     0.173 A 
ATOM     58  C   UNL A   1      40.285  35.042  36.721  1.00  0.00     0.173 A 
ATOM     59  F   UNL A   1      38.199  32.275  37.827  1.00  0.00    -0.203 F 
ATOM     60  C   UNL A   1      38.690  34.322  38.878  1.00  0.00     0.198 A 
ATOM     61  C   UNL A   1      40.145  35.903  37.806  1.00  0.00     0.198 A 
ATOM     62  F   UNL A   1      41.053  35.424  35.689  1.00  0.00    -0.203 F 
ATOM     63  F   UNL A   1      37.889  33.989  39.899  1.00  0.00    -0.200 F 
ATOM     64  C   UNL A   1      39.342  35.547  38.879  1.00  0.00     0.200 A 
ATOM     65  F   UNL A   1      40.783  37.082  37.812  1.00  0.00    -0.200 F 
ATOM     66  F   UNL A   1      39.187  36.387  39.912  1.00  0.00    -0.200 F 
ENDBRANCH  42  56
BRANCH  43  67
ATOM     67  C   UNL A   1      40.568  28.071  28.579  1.00  0.00     0.064 A 
ATOM     68  C   UNL A   1      41.361  28.514  27.511  1.00  0.00     0.173 A 
ATOM     69  C   UNL A   1      39.945  26.821  28.455  1.00  0.00     0.173 A 
ATOM     70  F   UNL A   1      41.960  29.712  27.576  1.00  0.00    -0.203 F 
ATOM     71  C   UNL A   1      41.510  27.747  26.357  1.00  0.00     0.198 A 
ATOM     72  C   UNL A   1      40.113  26.045  27.310  1.00  0.00     0.198 A 
ATOM     73  F   UNL A   1      39.180  26.351  29.452  1.00  0.00    -0.203 F 
ATOM     74  F   UNL A   1      42.242  28.212  25.336  1.00  0.00    -0.200 F 
ATOM     75  C   UNL A   1      40.889  26.510  26.260  1.00  0.00     0.200 A 
ATOM     76  F   UNL A   1      39.521  24.846  27.224  1.00  0.00    -0.200 F 
ATOM     77  F   UNL A   1      41.035  25.772  25.152  1.00  0.00    -0.200 F 
ENDBRANCH  43  67
BRANCH  55  78
ATOM     78  C   UNL A   1      43.850  28.295  34.716  1.00  0.00     0.064 A 
ATOM     79  C   UNL A   1      45.189  28.694  34.598  1.00  0.00     0.173 A 
ATOM     80  C   UNL A   1      43.569  27.126  35.439  1.00  0.00     0.173 A 
ATOM     81  F   UNL A   1      45.507  29.796  33.902  1.00  0.00    -0.203 F 
ATOM     82  C   UNL A   1      46.210  27.940  35.170  1.00  0.00     0.198 A 
ATOM     83  C   UNL A   1      44.591  26.388  36.029  1.00  0.00     0.198 A 
ATOM     84  F   UNL A   1      42.303  26.708  35.583  1.00  0.00    -0.203 F 
ATOM     85  F   UNL A   1      47.486  28.318  35.014  1.00  0.00    -0.200 F 
ATOM     86  C   UNL A   1      45.910  26.793  35.891  1.00  0.00     0.200 A 
ATOM     87  F   UNL A   1      44.299  25.287  36.734  1.00  0.00    -0.200 F 
ATOM     88  F   UNL A   1      46.895  26.074  36.446  1.00  0.00    -0.200 F 
ENDBRANCH  55  78
ENDBRANCH  29  30
ENDBRANCH  21  24
ENDBRANCH  19  20
ENDBRANCH  18  19
ENDBRANCH   1  18
TORSDOF 13
ENDMDL
MODEL 2
REMARK VINA RESULT:     -11.8      1.141      2.805
REMARK SMILES C/C=C/C[N@H+]1CCC[C@H](C(=O)NCCCCNC(=O)c2ccc(-c3c4nc(c(-c5c(F)c(F)c(F)c(F)c5F)c5ccc([nH]5)c(-c5c(F)c(F)c(F)c(F)c5F)c5nc(c(-c6c(F)c(F)c(F)c(F)c6F)c6ccc3[nH]6)C=C5)C=C4)cc2)C1
REMARK SMILES IDX 14 1 13 2 12 3 10 4 11 5 9 7 5 8 6 9 83 10 7 12 8 13 4 14
REMARK SMILES IDX 3 15 1 16 2 17 15 18 16 19 17 20 18 21 19 23 20 24 21 25
REMARK SMILES IDX 82 26 22 27 81 28 23 29 24 30 25 31 75 32 26 33 80 34 74 35
REMARK SMILES IDX 76 36 27 37 79 38 73 39 72 40 28 42 60 43 40 44 59 45 41 46
REMARK SMILES IDX 44 47 58 48 77 49 42 50 43 51 57 53 78 54 45 55 29 56 30 57
REMARK SMILES IDX 38 58 31 59 32 60 36 61 39 62 33 63 34 64 37 65 35 66 61 67
REMARK SMILES IDX 62 68 70 69 63 70 64 71 68 72 71 73 65 74 66 75 69 76 67 77
REMARK SMILES IDX 46 78 47 79 55 80 48 81 49 82 53 83 56 84 50 85 51 86 54 87
REMARK SMILES IDX 52 88
REMARK H PARENT 12 6 5 11 17 22 76 41 44 52
REMARK Flexibility Score: inf
ROOT
ATOM      1  C   UNL A   1      31.923  30.385  26.829  1.00  0.00     0.023 C 
ENDROOT
BRANCH   1   2
ATOM      2  C   UNL A   1      33.279  29.957  26.277  1.00  0.00     0.116 C 
BRANCH   2   3
ATOM      3  N   UNL A   1      33.247  29.716  24.853  1.00  0.00    -0.356 N 
ATOM      4  C   UNL A   1      32.836  28.635  24.143  1.00  0.00     0.228 C 
ATOM      5  O   UNL A   1      32.850  28.756  22.911  1.00  0.00    -0.275 OA
ATOM      6  H   UNL A   1      33.581  30.462  24.304  1.00  0.00     0.163 HD
BRANCH   4   7
ATOM      7  C   UNL A   1      32.402  27.301  24.761  1.00  0.00     0.133 C 
ATOM      8  N   UNL A   1      32.382  25.329  23.189  1.00  0.00    -0.331 N 
ATOM      9  C   UNL A   1      31.035  24.968  23.634  1.00  0.00     0.262 C 
ATOM     10  C   UNL A   1      33.123  26.056  24.226  1.00  0.00     0.276 C 
ATOM     11  H   UNL A   1      32.258  25.969  22.404  1.00  0.00     0.348 HD
ATOM     12  C   UNL A   1      30.216  26.225  23.925  1.00  0.00     0.062 C 
ATOM     13  C   UNL A   1      30.887  27.150  24.932  1.00  0.00     0.025 C 
BRANCH   8  14
ATOM     14  C   UNL A   1      33.141  24.198  22.649  1.00  0.00     0.290 C 
BRANCH  14  15
ATOM     15  C   UNL A   1      34.465  24.077  23.356  1.00  0.00     0.029 C 
ATOM     16  C   UNL A   1      36.668  22.986  23.850  1.00  0.00     0.035 C 
ATOM     17  C   UNL A   1      35.360  23.100  23.134  1.00  0.00    -0.029 C 
ENDBRANCH  14  15
ENDBRANCH   8  14
ENDBRANCH   4   7
ENDBRANCH   2   3
ENDBRANCH   1   2
BRANCH   1  18
ATOM     18  C   UNL A   1      31.665  31.887  26.775  1.00  0.00     0.023 C 
BRANCH  18  19
ATOM     19  C   UNL A   1      32.792  32.762  27.315  1.00  0.00     0.116 C 
BRANCH  19  20
ATOM     20  N   UNL A   1      32.399  34.129  27.632  1.00  0.00    -0.352 N 
ATOM     21  C   UNL A   1      32.963  34.976  28.561  1.00  0.00     0.251 C 
ATOM     22  H   UNL A   1      31.641  34.492  27.119  1.00  0.00     0.163 HD
ATOM     23  O   UNL A   1      32.504  36.091  28.769  1.00  0.00    -0.269 OA
BRANCH  21  24
ATOM     24  C   UNL A   1      34.116  34.486  29.342  1.00  0.00     0.039 A 
ATOM     25  C   UNL A   1      33.886  33.838  30.557  1.00  0.00     0.014 A 
ATOM     26  C   UNL A   1      35.405  34.578  28.813  1.00  0.00     0.014 A 
ATOM     27  C   UNL A   1      34.945  33.196  31.200  1.00  0.00     0.010 A 
ATOM     28  C   UNL A   1      36.440  33.874  29.415  1.00  0.00     0.010 A 
ATOM     29  C   UNL A   1      36.218  33.166  30.607  1.00  0.00    -0.014 A 
BRANCH  29  30
ATOM     30  C   UNL A   1      37.335  32.392  31.205  1.00  0.00     0.031 A 
ATOM     31  C   UNL A   1      37.833  32.738  32.579  1.00  0.00     0.074 A 
ATOM     32  C   UNL A   1      37.958  31.446  30.477  1.00  0.00     0.049 A 
ATOM     33  N   UNL A   1      38.862  32.263  33.231  1.00  0.00    -0.248 NA
ATOM     34  C   UNL A   1      37.096  33.788  33.300  1.00  0.00     0.031 C 
ATOM     35  C   UNL A   1      37.612  31.064  29.107  1.00  0.00     0.029 A 
ATOM     36  N   UNL A   1      39.030  30.644  30.782  1.00  0.00    -0.354 N 
ATOM     37  C   UNL A   1      38.912  32.972  34.423  1.00  0.00     0.074 A 
ATOM     38  C   UNL A   1      37.840  33.944  34.384  1.00  0.00     0.031 C 
ATOM     39  C   UNL A   1      38.440  30.089  28.699  1.00  0.00     0.029 A 
ATOM     40  C   UNL A   1      39.395  29.799  29.764  1.00  0.00     0.049 A 
ATOM     41  H   UNL A   1      39.493  30.672  31.652  1.00  0.00     0.167 HD
ATOM     42  C   UNL A   1      39.759  32.810  35.466  1.00  0.00     0.037 A 
ATOM     43  C   UNL A   1      40.391  28.895  29.698  1.00  0.00     0.037 A 
ATOM     44  C   UNL A   1      40.796  31.815  35.522  1.00  0.00     0.049 A 
ATOM     45  C   UNL A   1      41.292  28.705  30.887  1.00  0.00     0.074 A 
ATOM     46  C   UNL A   1      41.662  31.526  36.561  1.00  0.00     0.029 A 
ATOM     47  N   UNL A   1      41.100  30.939  34.490  1.00  0.00    -0.354 N 
ATOM     48  N   UNL A   1      41.288  29.338  32.035  1.00  0.00    -0.248 NA
ATOM     49  C   UNL A   1      42.329  27.671  30.774  1.00  0.00     0.031 C 
ATOM     50  C   UNL A   1      42.508  30.491  36.149  1.00  0.00     0.029 A 
ATOM     51  C   UNL A   1      42.145  30.113  34.866  1.00  0.00     0.049 A 
ATOM     52  H   UNL A   1      40.639  30.909  33.620  1.00  0.00     0.167 HD
ATOM     53  C   UNL A   1      42.303  28.765  32.789  1.00  0.00     0.074 A 
ATOM     54  C   UNL A   1      42.893  27.724  31.973  1.00  0.00     0.031 C 
ATOM     55  C   UNL A   1      42.710  29.075  34.044  1.00  0.00     0.037 A 
BRANCH  42  56
ATOM     56  C   UNL A   1      39.585  33.727  36.641  1.00  0.00     0.064 A 
ATOM     57  C   UNL A   1      38.795  33.365  37.742  1.00  0.00     0.173 A 
ATOM     58  C   UNL A   1      40.228  34.973  36.675  1.00  0.00     0.173 A 
ATOM     59  F   UNL A   1      38.147  32.189  37.750  1.00  0.00    -0.203 F 
ATOM     60  C   UNL A   1      38.627  34.229  38.819  1.00  0.00     0.198 A 
ATOM     61  C   UNL A   1      40.080  35.824  37.767  1.00  0.00     0.198 A 
ATOM     62  F   UNL A   1      40.997  35.367  35.650  1.00  0.00    -0.203 F 
ATOM     63  F   UNL A   1      37.824  33.884  39.835  1.00  0.00    -0.200 F 
ATOM     64  C   UNL A   1      39.274  35.456  38.834  1.00  0.00     0.200 A 
ATOM     65  F   UNL A   1      40.714  37.005  37.785  1.00  0.00    -0.200 F 
ATOM     66  F   UNL A   1      39.113  36.286  39.873  1.00  0.00    -0.200 F 
ENDBRANCH  42  56
BRANCH  43  67
ATOM     67  C   UNL A   1      40.565  28.073  28.474  1.00  0.00     0.064 A 
ATOM     68  C   UNL A   1      39.958  26.814  28.365  1.00  0.00     0.173 A 
ATOM     69  C   UNL A   1      41.336  28.523  27.392  1.00  0.00     0.173 A 
ATOM     70  F   UNL A   1      39.229  26.334  29.382  1.00  0.00    -0.203 F 
ATOM     71  C   UNL A   1      40.129  26.028  27.228  1.00  0.00     0.198 A 
ATOM     72  C   UNL A   1      41.488  27.746  26.246  1.00  0.00     0.198 A 
ATOM     73  F   UNL A   1      41.933  29.723  27.447  1.00  0.00    -0.203 F 
ATOM     74  F   UNL A   1      39.570  24.812  27.165  1.00  0.00    -0.200 F 
ATOM     75  C   UNL A   1      40.891  26.497  26.167  1.00  0.00     0.200 A 
ATOM     76  F   UNL A   1      42.215  28.206  25.219  1.00  0.00    -0.200 F 
ATOM     77  F   UNL A   1      41.053  25.742  25.072  1.00  0.00    -0.200 F 
ENDBRANCH  43  67
BRANCH  55  78
ATOM     78  C   UNL A   1      43.827  28.258  34.623  1.00  0.00     0.064 A 
ATOM     79  C   UNL A   1      43.580  27.058  35.305  1.00  0.00     0.173 A 
ATOM     80  C   UNL A   1      45.160  28.661  34.454  1.00  0.00     0.173 A 
ATOM     81  F   UNL A   1      42.320  26.643  35.505  1.00  0.00    -0.203 F 
ATOM     82  C   UNL A   1      44.629  26.298  35.812  1.00  0.00     0.198 A 
ATOM     83  C   UNL A   1      46.207  27.885  34.941  1.00  0.00     0.198 A 
ATOM     84  F   UNL A   1      45.446  29.799  33.804  1.00  0.00    -0.203 F 
ATOM     85  F   UNL A   1      44.370  25.173  36.494  1.00  0.00    -0.200 F 
ATOM     86  C   UNL A   1      45.941  26.707  35.624  1.00  0.00     0.200 A 
ATOM     87  F   UNL A   1      47.475  28.276  34.750  1.00  0.00    -0.200 F 
ATOM     88  F   UNL A   1      46.950  25.969  36.107  1.00  0.00    -0.200 F 
ENDBRANCH  55  78
ENDBRANCH  29  30
ENDBRANCH  21  24
ENDBRANCH  19  20
ENDBRANCH  18  19
ENDBRANCH   1  18
TORSDOF 13
ENDMDL
MODEL 3
REMARK VINA RESULT:     -11.8      3.099      4.306
REMARK SMILES C/C=C/C[N@H+]1CCC[C@H](C(=O)NCCCCNC(=O)c2ccc(-c3c4nc(c(-c5c(F)c(F)c(F)c(F)c5F)c5ccc([nH]5)c(-c5c(F)c(F)c(F)c(F)c5F)c5nc(c(-c6c(F)c(F)c(F)c(F)c6F)c6ccc3[nH]6)C=C5)C=C4)cc2)C1
REMARK SMILES IDX 14 1 13 2 12 3 10 4 11 5 9 7 5 8 6 9 83 10 7 12 8 13 4 14
REMARK SMILES IDX 3 15 1 16 2 17 15 18 16 19 17 20 18 21 19 23 20 24 21 25
REMARK SMILES IDX 82 26 22 27 81 28 23 29 24 30 25 31 75 32 26 33 80 34 74 35
REMARK SMILES IDX 76 36 27 37 79 38 73 39 72 40 28 42 60 43 40 44 59 45 41 46
REMARK SMILES IDX 44 47 58 48 77 49 42 50 43 51 57 53 78 54 45 55 29 56 30 57
REMARK SMILES IDX 38 58 31 59 32 60 36 61 39 62 33 63 34 64 37 65 35 66 61 67
REMARK SMILES IDX 62 68 70 69 63 70 64 71 68 72 71 73 65 74 66 75 69 76 67 77
REMARK SMILES IDX 46 78 47 79 55 80 48 81 49 82 53 83 56 84 50 85 51 86 54 87
REMARK SMILES IDX 52 88
REMARK H PARENT 12 6 5 11 17 22 76 41 44 52
REMARK Flexibility Score: inf
ROOT
ATOM      1  C   UNL A   1      31.360  27.905  25.909  1.00  0.00     0.023 C 
ENDROOT
BRANCH   1   2
ATOM      2  C   UNL A   1      32.169  26.618  26.027  1.00  0.00     0.116 C 
BRANCH   2   3
ATOM      3  N   UNL A   1      31.393  25.521  26.556  1.00  0.00    -0.356 N 
ATOM      4  C   UNL A   1      31.682  24.200  26.667  1.00  0.00     0.228 C 
ATOM      5  O   UNL A   1      30.839  23.506  27.249  1.00  0.00    -0.275 OA
ATOM      6  H   UNL A   1      30.503  25.774  26.892  1.00  0.00     0.163 HD
BRANCH   4   7
ATOM      7  C   UNL A   1      32.941  23.533  26.100  1.00  0.00     0.133 C 
ATOM      8  N   UNL A   1      32.638  21.173  25.264  1.00  0.00    -0.331 N 
ATOM      9  C   UNL A   1      33.815  20.738  26.020  1.00  0.00     0.262 C 
ATOM     10  C   UNL A   1      32.713  22.594  24.907  1.00  0.00     0.276 C 
ATOM     11  H   UNL A   1      31.843  21.063  25.894  1.00  0.00     0.348 HD
ATOM     12  C   UNL A   1      33.906  21.495  27.344  1.00  0.00     0.062 C 
ATOM     13  C   UNL A   1      33.909  23.008  27.165  1.00  0.00     0.025 C 
BRANCH   8  14
ATOM     14  C   UNL A   1      32.339  20.322  24.110  1.00  0.00     0.290 C 
BRANCH  14  15
ATOM     15  C   UNL A   1      32.994  18.976  24.275  1.00  0.00     0.029 C 
ATOM     16  C   UNL A   1      33.739  16.717  23.481  1.00  0.00     0.035 C 
ATOM     17  C   UNL A   1      33.095  18.054  23.303  1.00  0.00    -0.029 C 
ENDBRANCH  14  15
ENDBRANCH   8  14
ENDBRANCH   4   7
ENDBRANCH   2   3
ENDBRANCH   1   2
BRANCH   1  18
ATOM     18  C   UNL A   1      31.783  29.008  26.874  1.00  0.00     0.023 C 
BRANCH  18  19
ATOM     19  C   UNL A   1      32.817  29.990  26.330  1.00  0.00     0.116 C 
BRANCH  19  20
ATOM     20  N   UNL A   1      32.630  31.369  26.761  1.00  0.00    -0.352 N 
ATOM     21  C   UNL A   1      33.476  32.136  27.531  1.00  0.00     0.251 C 
ATOM     22  H   UNL A   1      31.799  31.806  26.465  1.00  0.00     0.163 HD
ATOM     23  O   UNL A   1      33.177  33.273  27.869  1.00  0.00    -0.269 OA
BRANCH  21  24
ATOM     24  C   UNL A   1      34.746  31.532  27.984  1.00  0.00     0.039 A 
ATOM     25  C   UNL A   1      35.871  32.345  28.127  1.00  0.00     0.014 A 
ATOM     26  C   UNL A   1      34.781  30.189  28.365  1.00  0.00     0.014 A 
ATOM     27  C   UNL A   1      37.013  31.832  28.743  1.00  0.00     0.010 A 
ATOM     28  C   UNL A   1      35.890  29.703  29.047  1.00  0.00     0.010 A 
ATOM     29  C   UNL A   1      37.011  30.523  29.253  1.00  0.00    -0.014 A 
BRANCH  29  30
ATOM     30  C   UNL A   1      38.165  29.987  30.018  1.00  0.00     0.031 A 
ATOM     31  C   UNL A   1      38.401  30.441  31.430  1.00  0.00     0.074 A 
ATOM     32  C   UNL A   1      39.048  29.171  29.413  1.00  0.00     0.049 A 
ATOM     33  N   UNL A   1      39.407  30.182  32.226  1.00  0.00    -0.248 NA
ATOM     34  C   UNL A   1      37.389  31.338  32.011  1.00  0.00     0.031 C 
ATOM     35  C   UNL A   1      38.965  28.710  28.025  1.00  0.00     0.029 A 
ATOM     36  N   UNL A   1      40.202  28.595  29.883  1.00  0.00    -0.354 N 
ATOM     37  C   UNL A   1      39.161  30.903  33.387  1.00  0.00     0.074 A 
ATOM     38  C   UNL A   1      37.940  31.648  33.174  1.00  0.00     0.031 C 
ATOM     39  C   UNL A   1      40.011  27.909  27.764  1.00  0.00     0.029 A 
ATOM     40  C   UNL A   1      40.853  27.823  28.953  1.00  0.00     0.049 A 
ATOM     41  H   UNL A   1      40.532  28.723  30.803  1.00  0.00     0.167 HD
ATOM     42  C   UNL A   1      39.878  30.922  34.535  1.00  0.00     0.037 A 
ATOM     43  C   UNL A   1      42.002  27.128  29.049  1.00  0.00     0.037 A 
ATOM     44  C   UNL A   1      41.068  30.146  34.761  1.00  0.00     0.049 A 
ATOM     45  C   UNL A   1      42.757  27.132  30.350  1.00  0.00     0.074 A 
ATOM     46  C   UNL A   1      41.828  30.044  35.913  1.00  0.00     0.029 A 
ATOM     47  N   UNL A   1      41.667  29.332  33.811  1.00  0.00    -0.354 N 
ATOM     48  N   UNL A   1      42.481  27.766  31.464  1.00  0.00    -0.248 NA
ATOM     49  C   UNL A   1      43.978  26.316  30.411  1.00  0.00     0.031 C 
ATOM     50  C   UNL A   1      42.902  29.187  35.652  1.00  0.00     0.029 A 
ATOM     51  C   UNL A   1      42.791  28.729  34.349  1.00  0.00     0.049 A 
ATOM     52  H   UNL A   1      41.341  29.202  32.891  1.00  0.00     0.167 HD
ATOM     53  C   UNL A   1      43.477  27.410  32.362  1.00  0.00     0.074 A 
ATOM     54  C   UNL A   1      44.357  26.492  31.669  1.00  0.00     0.031 C 
ATOM     55  C   UNL A   1      43.647  27.809  33.646  1.00  0.00     0.037 A 
BRANCH  42  56
ATOM     56  C   UNL A   1      39.379  31.803  35.642  1.00  0.00     0.064 A 
ATOM     57  C   UNL A   1      38.459  31.334  36.592  1.00  0.00     0.173 A 
ATOM     58  C   UNL A   1      39.836  33.123  35.765  1.00  0.00     0.173 A 
ATOM     59  F   UNL A   1      37.980  30.084  36.508  1.00  0.00    -0.203 F 
ATOM     60  C   UNL A   1      37.990  32.164  37.606  1.00  0.00     0.198 A 
ATOM     61  C   UNL A   1      39.386  33.942  36.797  1.00  0.00     0.198 A 
ATOM     62  F   UNL A   1      40.718  33.619  34.885  1.00  0.00    -0.203 F 
ATOM     63  F   UNL A   1      37.070  31.712  38.470  1.00  0.00    -0.200 F 
ATOM     64  C   UNL A   1      38.458  33.467  37.710  1.00  0.00     0.200 A 
ATOM     65  F   UNL A   1      39.846  35.197  36.903  1.00  0.00    -0.200 F 
ATOM     66  F   UNL A   1      38.006  34.264  38.688  1.00  0.00    -0.200 F 
ENDBRANCH  42  56
BRANCH  43  67
ATOM     67  C   UNL A   1      42.491  26.339  27.890  1.00  0.00     0.064 A 
ATOM     68  C   UNL A   1      43.383  26.902  26.966  1.00  0.00     0.173 A 
ATOM     69  C   UNL A   1      42.081  25.015  27.680  1.00  0.00     0.173 A 
ATOM     70  F   UNL A   1      43.786  28.172  27.115  1.00  0.00    -0.203 F 
ATOM     71  C   UNL A   1      43.833  26.175  25.866  1.00  0.00     0.198 A 
ATOM     72  C   UNL A   1      42.550  24.282  26.592  1.00  0.00     0.198 A 
ATOM     73  F   UNL A   1      41.232  24.431  28.539  1.00  0.00    -0.203 F 
ATOM     74  F   UNL A   1      44.655  26.750  24.977  1.00  0.00    -0.200 F 
ATOM     75  C   UNL A   1      43.420  24.864  25.683  1.00  0.00     0.200 A 
ATOM     76  F   UNL A   1      42.157  23.012  26.424  1.00  0.00    -0.200 F 
ATOM     77  F   UNL A   1      43.856  24.165  24.626  1.00  0.00    -0.200 F 
ENDBRANCH  43  67
BRANCH  55  78
ATOM     78  C   UNL A   1      44.811  27.232  34.394  1.00  0.00     0.064 A 
ATOM     79  C   UNL A   1      46.048  27.890  34.447  1.00  0.00     0.173 A 
ATOM     80  C   UNL A   1      44.671  26.030  35.105  1.00  0.00     0.173 A 
ATOM     81  F   UNL A   1      46.233  29.033  33.770  1.00  0.00    -0.203 F 
ATOM     82  C   UNL A   1      47.110  27.355  35.169  1.00  0.00     0.198 A 
ATOM     83  C   UNL A   1      45.728  25.511  35.845  1.00  0.00     0.198 A 
ATOM     84  F   UNL A   1      43.505  25.367  35.088  1.00  0.00    -0.203 F 
ATOM     85  F   UNL A   1      48.296  27.980  35.175  1.00  0.00    -0.200 F 
ATOM     86  C   UNL A   1      46.948  26.171  35.874  1.00  0.00     0.200 A 
ATOM     87  F   UNL A   1      45.567  24.372  36.534  1.00  0.00    -0.200 F 
ATOM     88  F   UNL A   1      47.970  25.662  36.574  1.00  0.00    -0.200 F 
ENDBRANCH  55  78
ENDBRANCH  29  30
ENDBRANCH  21  24
ENDBRANCH  19  20
ENDBRANCH  18  19
ENDBRANCH   1  18
TORSDOF 13
ENDMDL
