MODEL 1
REMARK VINA RESULT:     -11.7      0.000      0.000
REMARK SMILES NC(=O)CC[C@H](NC(=O)CC1CC1)C(=O)NCCCCNC(=O)c1ccc(-c2c3nc(c(-c4c(F)c(F)c(F)c(F)c4F)c4ccc([nH]4)c(-c4c(F)c(F)c(F)c(F)c4F)c4nc(c(-c5c(F)c(F)c(F)c(F)c5F)c5ccc2[nH]5)C=C4)C=C3)cc1
REMARK SMILES IDX 18 1 17 2 16 3 14 4 15 5 6 7 5 8 4 9 2 10 1 11 3 14 7 15
REMARK SMILES IDX 8 16 9 18 10 19 11 20 12 21 13 22 19 23 20 24 21 25 22 26
REMARK SMILES IDX 23 28 24 29 25 30 86 31 26 32 85 33 27 34 28 35 29 36 79 37
REMARK SMILES IDX 30 38 84 39 78 40 80 41 31 42 83 43 77 44 76 45 32 47 64 48
REMARK SMILES IDX 44 49 63 50 45 51 48 52 62 53 81 54 46 55 47 56 61 58 82 59
REMARK SMILES IDX 49 60 33 61 34 62 42 63 35 64 36 65 40 66 43 67 37 68 38 69
REMARK SMILES IDX 41 70 39 71 65 72 66 73 74 74 67 75 68 76 72 77 75 78 69 79
REMARK SMILES IDX 70 80 73 81 71 82 50 83 51 84 59 85 52 86 53 87 57 88 60 89
REMARK SMILES IDX 54 90 55 91 58 92 56 93
REMARK H PARENT 16 6 1 12 1 13 7 17 21 27 80 46 48 57
REMARK Flexibility Score: inf
ROOT
ATOM      1  C   UNL A   1      31.863  30.703  25.840  1.00  0.00     0.023 C 
ENDROOT
BRANCH   1   2
ATOM      2  C   UNL A   1      32.970  29.695  26.112  1.00  0.00     0.116 C 
BRANCH   2   3
ATOM      3  N   UNL A   1      33.700  29.344  24.903  1.00  0.00    -0.354 N 
ATOM      4  C   UNL A   1      33.280  28.824  23.718  1.00  0.00     0.242 C 
ATOM      5  O   UNL A   1      34.023  28.989  22.743  1.00  0.00    -0.273 OA
ATOM      6  H   UNL A   1      34.668  29.514  24.952  1.00  0.00     0.163 HD
BRANCH   4   7
ATOM      7  C   UNL A   1      31.882  28.231  23.514  1.00  0.00     0.171 C 
BRANCH   7   8
ATOM      8  C   UNL A   1      31.805  26.688  23.607  1.00  0.00     0.045 C 
BRANCH   8   9
ATOM      9  C   UNL A   1      31.544  25.799  22.392  1.00  0.00     0.102 C 
BRANCH   9  10
ATOM     10  C   UNL A   1      32.518  25.791  21.226  1.00  0.00     0.217 C 
ATOM     11  N   UNL A   1      32.073  25.559  19.970  1.00  0.00    -0.370 N 
ATOM     12  H   UNL A   1      32.705  25.554  19.216  1.00  0.00     0.159 HD
ATOM     13  H   UNL A   1      31.115  25.395  19.810  1.00  0.00     0.159 HD
ATOM     14  O   UNL A   1      33.729  25.910  21.411  1.00  0.00    -0.275 OA
ENDBRANCH   9  10
ENDBRANCH   8   9
ENDBRANCH   7   8
BRANCH   7  15
ATOM     15  N   UNL A   1      31.280  28.824  22.317  1.00  0.00    -0.344 N 
ATOM     16  C   UNL A   1      30.152  29.569  22.165  1.00  0.00     0.220 C 
ATOM     17  H   UNL A   1      31.775  28.655  21.483  1.00  0.00     0.164 HD
ATOM     18  O   UNL A   1      29.973  30.109  21.072  1.00  0.00    -0.275 OA
BRANCH  16  19
ATOM     19  C   UNL A   1      29.182  29.763  23.311  1.00  0.00     0.103 C 
BRANCH  19  20
ATOM     20  C   UNL A   1      27.974  30.582  22.959  1.00  0.00    -0.002 C 
ATOM     21  C   UNL A   1      27.335  31.472  23.998  1.00  0.00     0.004 C 
ATOM     22  C   UNL A   1      28.090  32.081  22.856  1.00  0.00     0.004 C 
ENDBRANCH  19  20
ENDBRANCH  16  19
ENDBRANCH   7  15
ENDBRANCH   4   7
ENDBRANCH   2   3
ENDBRANCH   1   2
BRANCH   1  23
ATOM     23  C   UNL A   1      31.636  31.681  26.997  1.00  0.00     0.023 C 
BRANCH  23  24
ATOM     24  C   UNL A   1      32.844  32.545  27.362  1.00  0.00     0.116 C 
BRANCH  24  25
ATOM     25  N   UNL A   1      32.490  33.939  27.578  1.00  0.00    -0.352 N 
ATOM     26  C   UNL A   1      32.990  34.831  28.500  1.00  0.00     0.251 C 
ATOM     27  H   UNL A   1      31.794  34.296  26.980  1.00  0.00     0.163 HD
ATOM     28  O   UNL A   1      32.453  35.912  28.676  1.00  0.00    -0.269 OA
BRANCH  26  29
ATOM     29  C   UNL A   1      34.170  34.445  29.300  1.00  0.00     0.039 A 
ATOM     30  C   UNL A   1      33.974  33.905  30.572  1.00  0.00     0.014 A 
ATOM     31  C   UNL A   1      35.457  34.573  28.771  1.00  0.00     0.014 A 
ATOM     32  C   UNL A   1      35.067  33.405  31.279  1.00  0.00     0.010 A 
ATOM     33  C   UNL A   1      36.534  34.006  29.445  1.00  0.00     0.010 A 
ATOM     34  C   UNL A   1      36.347  33.403  30.698  1.00  0.00    -0.014 A 
BRANCH  34  35
ATOM     35  C   UNL A   1      37.489  32.731  31.366  1.00  0.00     0.031 A 
ATOM     36  C   UNL A   1      38.178  31.568  30.712  1.00  0.00     0.074 A 
ATOM     37  C   UNL A   1      37.857  33.129  32.601  1.00  0.00     0.049 A 
ATOM     38  N   UNL A   1      39.149  30.819  31.169  1.00  0.00    -0.248 NA
ATOM     39  C   UNL A   1      37.695  31.178  29.379  1.00  0.00     0.031 C 
ATOM     40  C   UNL A   1      37.231  34.211  33.361  1.00  0.00     0.029 A 
ATOM     41  N   UNL A   1      38.839  32.660  33.438  1.00  0.00    -0.354 N 
ATOM     42  C   UNL A   1      39.390  29.870  30.186  1.00  0.00     0.074 A 
ATOM     43  C   UNL A   1      38.426  30.101  29.132  1.00  0.00     0.031 C 
ATOM     44  C   UNL A   1      37.857  34.340  34.541  1.00  0.00     0.029 A 
ATOM     45  C   UNL A   1      38.899  33.323  34.641  1.00  0.00     0.049 A 
ATOM     46  H   UNL A   1      39.442  31.920  33.201  1.00  0.00     0.167 HD
ATOM     47  C   UNL A   1      40.342  28.908  30.157  1.00  0.00     0.037 A 
ATOM     48  C   UNL A   1      39.694  33.124  35.709  1.00  0.00     0.037 A 
ATOM     49  C   UNL A   1      41.308  28.692  31.203  1.00  0.00     0.049 A 
ATOM     50  C   UNL A   1      40.723  32.028  35.662  1.00  0.00     0.074 A 
ATOM     51  C   UNL A   1      42.357  27.790  31.235  1.00  0.00     0.029 A 
ATOM     52  N   UNL A   1      41.334  29.378  32.409  1.00  0.00    -0.354 N 
ATOM     53  N   UNL A   1      40.998  31.191  34.691  1.00  0.00    -0.248 NA
ATOM     54  C   UNL A   1      41.555  31.850  36.859  1.00  0.00     0.031 C 
ATOM     55  C   UNL A   1      42.982  27.891  32.483  1.00  0.00     0.029 A 
ATOM     56  C   UNL A   1      42.359  28.894  33.207  1.00  0.00     0.049 A 
ATOM     57  H   UNL A   1      40.716  30.103  32.660  1.00  0.00     0.167 HD
ATOM     58  C   UNL A   1      42.040  30.400  35.151  1.00  0.00     0.074 A 
ATOM     59  C   UNL A   1      42.369  30.874  36.479  1.00  0.00     0.031 C 
ATOM     60  C   UNL A   1      42.667  29.370  34.531  1.00  0.00     0.037 A 
BRANCH  47  61
ATOM     61  C   UNL A   1      40.390  28.012  28.952  1.00  0.00     0.064 A 
ATOM     62  C   UNL A   1      39.672  26.809  28.901  1.00  0.00     0.173 A 
ATOM     63  C   UNL A   1      41.125  28.386  27.816  1.00  0.00     0.173 A 
ATOM     64  F   UNL A   1      38.961  26.401  29.962  1.00  0.00    -0.203 F 
ATOM     65  C   UNL A   1      39.711  25.998  27.770  1.00  0.00     0.198 A 
ATOM     66  C   UNL A   1      41.137  27.588  26.676  1.00  0.00     0.198 A 
ATOM     67  F   UNL A   1      41.825  29.531  27.809  1.00  0.00    -0.203 F 
ATOM     68  F   UNL A   1      39.055  24.829  27.763  1.00  0.00    -0.200 F 
ATOM     69  C   UNL A   1      40.437  26.391  26.656  1.00  0.00     0.200 A 
ATOM     70  F   UNL A   1      41.826  27.978  25.594  1.00  0.00    -0.200 F 
ATOM     71  F   UNL A   1      40.464  25.614  25.563  1.00  0.00    -0.200 F 
ENDBRANCH  47  61
BRANCH  48  72
ATOM     72  C   UNL A   1      39.553  33.986  36.912  1.00  0.00     0.064 A 
ATOM     73  C   UNL A   1      38.778  33.574  38.005  1.00  0.00     0.173 A 
ATOM     74  C   UNL A   1      40.182  35.236  36.993  1.00  0.00     0.173 A 
ATOM     75  F   UNL A   1      38.138  32.396  37.966  1.00  0.00    -0.203 F 
ATOM     76  C   UNL A   1      38.620  34.390  39.125  1.00  0.00     0.198 A 
ATOM     77  C   UNL A   1      40.049  36.037  38.126  1.00  0.00     0.198 A 
ATOM     78  F   UNL A   1      40.939  35.676  35.977  1.00  0.00    -0.203 F 
ATOM     79  F   UNL A   1      37.834  33.992  40.135  1.00  0.00    -0.200 F 
ATOM     80  C   UNL A   1      39.261  35.617  39.186  1.00  0.00     0.200 A 
ATOM     81  F   UNL A   1      40.683  37.216  38.188  1.00  0.00    -0.200 F 
ATOM     82  F   UNL A   1      39.114  36.399  40.265  1.00  0.00    -0.200 F 
ENDBRANCH  48  72
BRANCH  60  83
ATOM     83  C   UNL A   1      43.778  28.691  35.280  1.00  0.00     0.064 A 
ATOM     84  C   UNL A   1      45.105  29.135  35.183  1.00  0.00     0.173 A 
ATOM     85  C   UNL A   1      43.508  27.612  36.135  1.00  0.00     0.173 A 
ATOM     86  F   UNL A   1      45.418  30.153  34.366  1.00  0.00    -0.203 F 
ATOM     87  C   UNL A   1      46.124  28.508  35.895  1.00  0.00     0.198 A 
ATOM     88  C   UNL A   1      44.524  27.008  36.870  1.00  0.00     0.198 A 
ATOM     89  F   UNL A   1      42.255  27.151  36.268  1.00  0.00    -0.203 F 
ATOM     90  F   UNL A   1      47.392  28.919  35.748  1.00  0.00    -0.200 F 
ATOM     91  C   UNL A   1      45.832  27.452  36.744  1.00  0.00     0.200 A 
ATOM     92  F   UNL A   1      44.237  25.996  37.700  1.00  0.00    -0.200 F 
ATOM     93  F   UNL A   1      46.812  26.854  37.436  1.00  0.00    -0.200 F 
ENDBRANCH  60  83
ENDBRANCH  34  35
ENDBRANCH  26  29
ENDBRANCH  24  25
ENDBRANCH  23  24
ENDBRANCH   1  23
TORSDOF 17
ENDMDL
MODEL 2
REMARK VINA RESULT:     -11.4      1.242      7.579
REMARK SMILES NC(=O)CC[C@H](NC(=O)CC1CC1)C(=O)NCCCCNC(=O)c1ccc(-c2c3nc(c(-c4c(F)c(F)c(F)c(F)c4F)c4ccc([nH]4)c(-c4c(F)c(F)c(F)c(F)c4F)c4nc(c(-c5c(F)c(F)c(F)c(F)c5F)c5ccc2[nH]5)C=C4)C=C3)cc1
REMARK SMILES IDX 18 1 17 2 16 3 14 4 15 5 6 7 5 8 4 9 2 10 1 11 3 14 7 15
REMARK SMILES IDX 8 16 9 18 10 19 11 20 12 21 13 22 19 23 20 24 21 25 22 26
REMARK SMILES IDX 23 28 24 29 25 30 86 31 26 32 85 33 27 34 28 35 29 36 79 37
REMARK SMILES IDX 30 38 84 39 78 40 80 41 31 42 83 43 77 44 76 45 32 47 64 48
REMARK SMILES IDX 44 49 63 50 45 51 48 52 62 53 81 54 46 55 47 56 61 58 82 59
REMARK SMILES IDX 49 60 33 61 34 62 42 63 35 64 36 65 40 66 43 67 37 68 38 69
REMARK SMILES IDX 41 70 39 71 65 72 66 73 74 74 67 75 68 76 72 77 75 78 69 79
REMARK SMILES IDX 70 80 73 81 71 82 50 83 51 84 59 85 52 86 53 87 57 88 60 89
REMARK SMILES IDX 54 90 55 91 58 92 56 93
REMARK H PARENT 16 6 1 12 1 13 7 17 21 27 80 46 48 57
REMARK Flexibility Score: inf
ROOT
ATOM      1  C   UNL A   1      31.676  30.590  26.206  1.00  0.00     0.023 C 
ENDROOT
BRANCH   1   2
ATOM      2  C   UNL A   1      32.976  29.966  26.688  1.00  0.00     0.116 C 
BRANCH   2   3
ATOM      3  N   UNL A   1      33.817  29.529  25.584  1.00  0.00    -0.354 N 
ATOM      4  C   UNL A   1      33.654  28.534  24.670  1.00  0.00     0.242 C 
ATOM      5  O   UNL A   1      34.307  28.628  23.623  1.00  0.00    -0.273 OA
ATOM      6  H   UNL A   1      34.649  30.044  25.479  1.00  0.00     0.163 HD
BRANCH   4   7
ATOM      7  C   UNL A   1      32.587  27.443  24.803  1.00  0.00     0.171 C 
BRANCH   7   8
ATOM      8  C   UNL A   1      32.972  26.259  25.722  1.00  0.00     0.045 C 
BRANCH   8   9
ATOM      9  C   UNL A   1      31.938  25.442  26.496  1.00  0.00     0.102 C 
BRANCH   9  10
ATOM     10  C   UNL A   1      30.654  24.993  25.818  1.00  0.00     0.217 C 
ATOM     11  N   UNL A   1      29.478  25.056  26.481  1.00  0.00    -0.370 N 
ATOM     12  H   UNL A   1      28.648  24.764  26.040  1.00  0.00     0.159 HD
ATOM     13  H   UNL A   1      29.452  25.393  27.406  1.00  0.00     0.159 HD
ATOM     14  O   UNL A   1      30.674  24.492  24.694  1.00  0.00    -0.275 OA
ENDBRANCH   9  10
ENDBRANCH   8   9
ENDBRANCH   7   8
BRANCH   7  15
ATOM     15  N   UNL A   1      32.108  27.077  23.467  1.00  0.00    -0.344 N 
ATOM     16  C   UNL A   1      30.949  27.384  22.824  1.00  0.00     0.220 C 
ATOM     17  H   UNL A   1      32.727  26.514  22.949  1.00  0.00     0.164 HD
ATOM     18  O   UNL A   1      30.876  27.108  21.625  1.00  0.00    -0.275 OA
BRANCH  16  19
ATOM     19  C   UNL A   1      29.814  28.081  23.544  1.00  0.00     0.103 C 
BRANCH  19  20
ATOM     20  C   UNL A   1      28.965  28.945  22.659  1.00  0.00    -0.002 C 
ATOM     21  C   UNL A   1      28.502  30.299  23.141  1.00  0.00     0.004 C 
ATOM     22  C   UNL A   1      29.542  30.206  22.066  1.00  0.00     0.004 C 
ENDBRANCH  19  20
ENDBRANCH  16  19
ENDBRANCH   7  15
ENDBRANCH   4   7
ENDBRANCH   2   3
ENDBRANCH   1   2
BRANCH   1  23
ATOM     23  C   UNL A   1      31.416  31.982  26.792  1.00  0.00     0.023 C 
BRANCH  23  24
ATOM     24  C   UNL A   1      32.654  32.700  27.330  1.00  0.00     0.116 C 
BRANCH  24  25
ATOM     25  N   UNL A   1      32.411  34.109  27.597  1.00  0.00    -0.352 N 
ATOM     26  C   UNL A   1      32.992  34.929  28.538  1.00  0.00     0.251 C 
ATOM     27  H   UNL A   1      31.736  34.538  27.023  1.00  0.00     0.163 HD
ATOM     28  O   UNL A   1      32.543  36.041  28.758  1.00  0.00    -0.269 OA
BRANCH  26  29
ATOM     29  C   UNL A   1      34.150  34.427  29.305  1.00  0.00     0.039 A 
ATOM     30  C   UNL A   1      33.926  33.807  30.534  1.00  0.00     0.014 A 
ATOM     31  C   UNL A   1      35.443  34.528  28.783  1.00  0.00     0.014 A 
ATOM     32  C   UNL A   1      34.992  33.203  31.201  1.00  0.00     0.010 A 
ATOM     33  C   UNL A   1      36.489  33.861  29.411  1.00  0.00     0.010 A 
ATOM     34  C   UNL A   1      36.272  33.179  30.618  1.00  0.00    -0.014 A 
BRANCH  34  35
ATOM     35  C   UNL A   1      37.378  32.404  31.232  1.00  0.00     0.031 A 
ATOM     36  C   UNL A   1      37.891  32.759  32.598  1.00  0.00     0.074 A 
ATOM     37  C   UNL A   1      37.968  31.422  30.522  1.00  0.00     0.049 A 
ATOM     38  N   UNL A   1      38.887  32.238  33.268  1.00  0.00    -0.248 NA
ATOM     39  C   UNL A   1      37.212  33.864  33.293  1.00  0.00     0.031 C 
ATOM     40  C   UNL A   1      37.595  31.019  29.165  1.00  0.00     0.029 A 
ATOM     41  N   UNL A   1      39.016  30.592  30.837  1.00  0.00    -0.354 N 
ATOM     42  C   UNL A   1      38.957  32.951  34.457  1.00  0.00     0.074 A 
ATOM     43  C   UNL A   1      37.941  33.978  34.393  1.00  0.00     0.031 C 
ATOM     44  C   UNL A   1      38.382  30.006  28.774  1.00  0.00     0.029 A 
ATOM     45  C   UNL A   1      39.346  29.716  29.831  1.00  0.00     0.049 A 
ATOM     46  H   UNL A   1      39.486  30.623  31.700  1.00  0.00     0.167 HD
ATOM     47  C   UNL A   1      39.781  32.750  35.513  1.00  0.00     0.037 A 
ATOM     48  C   UNL A   1      40.323  28.792  29.764  1.00  0.00     0.037 A 
ATOM     49  C   UNL A   1      40.781  31.717  35.576  1.00  0.00     0.049 A 
ATOM     50  C   UNL A   1      41.243  28.612  30.939  1.00  0.00     0.074 A 
ATOM     51  C   UNL A   1      41.617  31.389  36.629  1.00  0.00     0.029 A 
ATOM     52  N   UNL A   1      41.091  30.852  34.536  1.00  0.00    -0.354 N 
ATOM     53  N   UNL A   1      41.245  29.236  32.093  1.00  0.00    -0.248 NA
ATOM     54  C   UNL A   1      42.297  27.598  30.805  1.00  0.00     0.031 C 
ATOM     55  C   UNL A   1      42.470  30.364  36.207  1.00  0.00     0.029 A 
ATOM     56  C   UNL A   1      42.130  30.015  34.910  1.00  0.00     0.049 A 
ATOM     57  H   UNL A   1      40.639  30.835  33.661  1.00  0.00     0.167 HD
ATOM     58  C   UNL A   1      42.285  28.681  32.825  1.00  0.00     0.074 A 
ATOM     59  C   UNL A   1      42.876  27.651  31.997  1.00  0.00     0.031 C 
ATOM     60  C   UNL A   1      42.714  29.000  34.071  1.00  0.00     0.037 A 
BRANCH  47  61
ATOM     61  C   UNL A   1      39.635  33.669  36.692  1.00  0.00     0.064 A 
ATOM     62  C   UNL A   1      40.287  34.910  36.743  1.00  0.00     0.173 A 
ATOM     63  C   UNL A   1      38.795  33.325  37.763  1.00  0.00     0.173 A 
ATOM     64  F   UNL A   1      41.107  35.283  35.750  1.00  0.00    -0.203 F 
ATOM     65  C   UNL A   1      40.128  35.759  37.835  1.00  0.00     0.198 A 
ATOM     66  C   UNL A   1      38.614  34.191  38.838  1.00  0.00     0.198 A 
ATOM     67  F   UNL A   1      38.142  32.153  37.762  1.00  0.00    -0.203 F 
ATOM     68  F   UNL A   1      40.799  36.919  37.883  1.00  0.00    -0.200 F 
ATOM     69  C   UNL A   1      39.286  35.403  38.878  1.00  0.00     0.200 A 
ATOM     70  F   UNL A   1      37.787  33.852  39.838  1.00  0.00    -0.200 F 
ATOM     71  F   UNL A   1      39.125  36.227  39.923  1.00  0.00    -0.200 F 
ENDBRANCH  47  61
BRANCH  48  72
ATOM     72  C   UNL A   1      40.478  27.962  28.540  1.00  0.00     0.064 A 
ATOM     73  C   UNL A   1      39.872  26.702  28.444  1.00  0.00     0.173 A 
ATOM     74  C   UNL A   1      41.237  28.406  27.447  1.00  0.00     0.173 A 
ATOM     75  F   UNL A   1      39.155  26.224  29.471  1.00  0.00    -0.203 F 
ATOM     76  C   UNL A   1      40.036  25.908  27.309  1.00  0.00     0.198 A 
ATOM     77  C   UNL A   1      41.374  27.625  26.301  1.00  0.00     0.198 A 
ATOM     78  F   UNL A   1      41.834  29.606  27.485  1.00  0.00    -0.203 F 
ATOM     79  F   UNL A   1      39.485  24.688  27.263  1.00  0.00    -0.200 F 
ATOM     80  C   UNL A   1      40.781  26.373  26.237  1.00  0.00     0.200 A 
ATOM     81  F   UNL A   1      42.082  28.085  25.260  1.00  0.00    -0.200 F 
ATOM     82  F   UNL A   1      40.934  25.613  25.144  1.00  0.00    -0.200 F 
ENDBRANCH  48  72
BRANCH  60  83
ATOM     83  C   UNL A   1      43.875  28.219  34.617  1.00  0.00     0.064 A 
ATOM     84  C   UNL A   1      45.192  28.689  34.504  1.00  0.00     0.173 A 
ATOM     85  C   UNL A   1      43.666  27.009  35.296  1.00  0.00     0.173 A 
ATOM     86  F   UNL A   1      45.447  29.832  33.849  1.00  0.00    -0.203 F 
ATOM     87  C   UNL A   1      46.258  27.964  35.029  1.00  0.00     0.198 A 
ATOM     88  C   UNL A   1      44.731  26.303  35.848  1.00  0.00     0.198 A 
ATOM     89  F   UNL A   1      42.425  26.518  35.436  1.00  0.00    -0.203 F 
ATOM     90  F   UNL A   1      47.513  28.408  34.865  1.00  0.00    -0.200 F 
ATOM     91  C   UNL A   1      46.027  26.777  35.707  1.00  0.00     0.200 A 
ATOM     92  F   UNL A   1      44.504  25.163  36.514  1.00  0.00    -0.200 F 
ATOM     93  F   UNL A   1      47.054  26.084  36.219  1.00  0.00    -0.200 F 
ENDBRANCH  60  83
ENDBRANCH  34  35
ENDBRANCH  26  29
ENDBRANCH  24  25
ENDBRANCH  23  24
ENDBRANCH   1  23
TORSDOF 17
ENDMDL
MODEL 3
REMARK VINA RESULT:     -11.3      1.204      7.551
REMARK SMILES NC(=O)CC[C@H](NC(=O)CC1CC1)C(=O)NCCCCNC(=O)c1ccc(-c2c3nc(c(-c4c(F)c(F)c(F)c(F)c4F)c4ccc([nH]4)c(-c4c(F)c(F)c(F)c(F)c4F)c4nc(c(-c5c(F)c(F)c(F)c(F)c5F)c5ccc2[nH]5)C=C4)C=C3)cc1
REMARK SMILES IDX 18 1 17 2 16 3 14 4 15 5 6 7 5 8 4 9 2 10 1 11 3 14 7 15
REMARK SMILES IDX 8 16 9 18 10 19 11 20 12 21 13 22 19 23 20 24 21 25 22 26
REMARK SMILES IDX 23 28 24 29 25 30 86 31 26 32 85 33 27 34 28 35 29 36 79 37
REMARK SMILES IDX 30 38 84 39 78 40 80 41 31 42 83 43 77 44 76 45 32 47 64 48
REMARK SMILES IDX 44 49 63 50 45 51 48 52 62 53 81 54 46 55 47 56 61 58 82 59
REMARK SMILES IDX 49 60 33 61 34 62 42 63 35 64 36 65 40 66 43 67 37 68 38 69
REMARK SMILES IDX 41 70 39 71 65 72 66 73 74 74 67 75 68 76 72 77 75 78 69 79
REMARK SMILES IDX 70 80 73 81 71 82 50 83 51 84 59 85 52 86 53 87 57 88 60 89
REMARK SMILES IDX 54 90 55 91 58 92 56 93
REMARK H PARENT 16 6 1 12 1 13 7 17 21 27 80 46 48 57
REMARK Flexibility Score: inf
ROOT
ATOM      1  C   UNL A   1      31.645  30.398  26.592  1.00  0.00     0.023 C 
ENDROOT
BRANCH   1   2
ATOM      2  C   UNL A   1      33.052  29.838  26.741  1.00  0.00     0.116 C 
BRANCH   2   3
ATOM      3  N   UNL A   1      33.666  29.551  25.454  1.00  0.00    -0.354 N 
ATOM      4  C   UNL A   1      33.169  28.959  24.333  1.00  0.00     0.242 C 
ATOM      5  O   UNL A   1      33.763  29.190  23.272  1.00  0.00    -0.273 OA
ATOM      6  H   UNL A   1      34.605  29.835  25.381  1.00  0.00     0.163 HD
BRANCH   4   7
ATOM      7  C   UNL A   1      31.839  28.201  24.308  1.00  0.00     0.171 C 
BRANCH   7   8
ATOM      8  C   UNL A   1      31.909  26.738  24.807  1.00  0.00     0.045 C 
BRANCH   8   9
ATOM      9  C   UNL A   1      31.014  26.200  25.924  1.00  0.00     0.102 C 
BRANCH   9  10
ATOM     10  C   UNL A   1      30.992  24.714  26.237  1.00  0.00     0.217 C 
ATOM     11  N   UNL A   1      30.397  23.848  25.385  1.00  0.00    -0.370 N 
ATOM     12  H   UNL A   1      30.383  22.886  25.590  1.00  0.00     0.159 HD
ATOM     13  H   UNL A   1      29.978  24.182  24.559  1.00  0.00     0.159 HD
ATOM     14  O   UNL A   1      31.435  24.284  27.302  1.00  0.00    -0.275 OA
ENDBRANCH   9  10
ENDBRANCH   8   9
ENDBRANCH   7   8
BRANCH   7  15
ATOM     15  N   UNL A   1      31.202  28.393  23.001  1.00  0.00    -0.344 N 
ATOM     16  C   UNL A   1      30.270  29.294  22.592  1.00  0.00     0.220 C 
ATOM     17  H   UNL A   1      31.500  27.765  22.304  1.00  0.00     0.164 HD
ATOM     18  O   UNL A   1      30.043  29.366  21.383  1.00  0.00    -0.275 OA
BRANCH  16  19
ATOM     19  C   UNL A   1      29.573  30.205  23.580  1.00  0.00     0.103 C 
BRANCH  19  20
ATOM     20  C   UNL A   1      28.407  30.956  23.007  1.00  0.00    -0.002 C 
ATOM     21  C   UNL A   1      27.396  31.601  23.924  1.00  0.00     0.004 C 
ATOM     22  C   UNL A   1      28.343  32.456  23.139  1.00  0.00     0.004 C 
ENDBRANCH  19  20
ENDBRANCH  16  19
ENDBRANCH   7  15
ENDBRANCH   4   7
ENDBRANCH   2   3
ENDBRANCH   1   2
BRANCH   1  23
ATOM     23  C   UNL A   1      31.599  31.929  26.573  1.00  0.00     0.023 C 
BRANCH  23  24
ATOM     24  C   UNL A   1      32.725  32.620  27.343  1.00  0.00     0.116 C 
BRANCH  24  25
ATOM     25  N   UNL A   1      32.437  34.019  27.619  1.00  0.00    -0.352 N 
ATOM     26  C   UNL A   1      32.985  34.849  28.571  1.00  0.00     0.251 C 
ATOM     27  H   UNL A   1      31.752  34.431  27.043  1.00  0.00     0.163 HD
ATOM     28  O   UNL A   1      32.500  35.945  28.796  1.00  0.00    -0.269 OA
BRANCH  26  29
ATOM     29  C   UNL A   1      34.152  34.377  29.343  1.00  0.00     0.039 A 
ATOM     30  C   UNL A   1      33.937  33.713  30.550  1.00  0.00     0.014 A 
ATOM     31  C   UNL A   1      35.447  34.550  28.846  1.00  0.00     0.014 A 
ATOM     32  C   UNL A   1      35.019  33.138  31.217  1.00  0.00     0.010 A 
ATOM     33  C   UNL A   1      36.512  33.912  29.471  1.00  0.00     0.010 A 
ATOM     34  C   UNL A   1      36.307  33.187  30.655  1.00  0.00    -0.014 A 
BRANCH  34  35
ATOM     35  C   UNL A   1      37.437  32.444  31.266  1.00  0.00     0.031 A 
ATOM     36  C   UNL A   1      37.960  32.830  32.619  1.00  0.00     0.074 A 
ATOM     37  C   UNL A   1      38.039  31.464  30.562  1.00  0.00     0.049 A 
ATOM     38  N   UNL A   1      38.976  32.340  33.284  1.00  0.00    -0.248 NA
ATOM     39  C   UNL A   1      37.268  33.931  33.307  1.00  0.00     0.031 C 
ATOM     40  C   UNL A   1      37.655  31.033  29.217  1.00  0.00     0.029 A 
ATOM     41  N   UNL A   1      39.107  30.661  30.875  1.00  0.00    -0.354 N 
ATOM     42  C   UNL A   1      39.047  33.072  34.460  1.00  0.00     0.074 A 
ATOM     43  C   UNL A   1      38.009  34.077  34.395  1.00  0.00     0.031 C 
ATOM     44  C   UNL A   1      38.459  30.030  28.830  1.00  0.00     0.029 A 
ATOM     45  C   UNL A   1      39.442  29.776  29.879  1.00  0.00     0.049 A 
ATOM     46  H   UNL A   1      39.588  30.714  31.732  1.00  0.00     0.167 HD
ATOM     47  C   UNL A   1      39.889  32.905  35.508  1.00  0.00     0.037 A 
ATOM     48  C   UNL A   1      40.437  28.872  29.812  1.00  0.00     0.037 A 
ATOM     49  C   UNL A   1      40.911  31.893  35.573  1.00  0.00     0.049 A 
ATOM     50  C   UNL A   1      41.376  28.729  30.977  1.00  0.00     0.074 A 
ATOM     51  C   UNL A   1      41.767  31.598  36.620  1.00  0.00     0.029 A 
ATOM     52  N   UNL A   1      41.225  31.019  34.542  1.00  0.00    -0.354 N 
ATOM     53  N   UNL A   1      41.381  29.370  32.121  1.00  0.00    -0.248 NA
ATOM     54  C   UNL A   1      42.450  27.734  30.844  1.00  0.00     0.031 C 
ATOM     55  C   UNL A   1      42.636  30.585  36.201  1.00  0.00     0.029 A 
ATOM     56  C   UNL A   1      42.287  30.209  34.915  1.00  0.00     0.049 A 
ATOM     57  H   UNL A   1      40.762  30.980  33.673  1.00  0.00     0.167 HD
ATOM     58  C   UNL A   1      42.441  28.848  32.847  1.00  0.00     0.074 A 
ATOM     59  C   UNL A   1      43.043  27.818  32.027  1.00  0.00     0.031 C 
ATOM     60  C   UNL A   1      42.880  29.195  34.083  1.00  0.00     0.037 A 
BRANCH  47  61
ATOM     61  C   UNL A   1      39.739  33.838  36.676  1.00  0.00     0.064 A 
ATOM     62  C   UNL A   1      38.930  33.517  37.775  1.00  0.00     0.173 A 
ATOM     63  C   UNL A   1      40.451  35.047  36.716  1.00  0.00     0.173 A 
ATOM     64  F   UNL A   1      38.223  32.378  37.783  1.00  0.00    -0.203 F 
ATOM     65  C   UNL A   1      38.816  34.384  38.859  1.00  0.00     0.198 A 
ATOM     66  C   UNL A   1      40.358  35.897  37.815  1.00  0.00     0.198 A 
ATOM     67  F   UNL A   1      41.244  35.401  35.693  1.00  0.00    -0.203 F 
ATOM     68  F   UNL A   1      38.000  34.077  39.877  1.00  0.00    -0.200 F 
ATOM     69  C   UNL A   1      39.536  35.569  38.881  1.00  0.00     0.200 A 
ATOM     70  F   UNL A   1      41.067  37.035  37.842  1.00  0.00    -0.200 F 
ATOM     71  F   UNL A   1      39.433  36.397  39.931  1.00  0.00    -0.200 F 
ENDBRANCH  47  61
BRANCH  48  72
ATOM     72  C   UNL A   1      40.593  28.027  28.598  1.00  0.00     0.064 A 
ATOM     73  C   UNL A   1      39.977  26.771  28.512  1.00  0.00     0.173 A 
ATOM     74  C   UNL A   1      41.363  28.452  27.506  1.00  0.00     0.173 A 
ATOM     75  F   UNL A   1      39.248  26.311  29.540  1.00  0.00    -0.203 F 
ATOM     76  C   UNL A   1      40.141  25.963  27.388  1.00  0.00     0.198 A 
ATOM     77  C   UNL A   1      41.501  27.656  26.369  1.00  0.00     0.198 A 
ATOM     78  F   UNL A   1      41.970  29.647  27.535  1.00  0.00    -0.203 F 
ATOM     79  F   UNL A   1      39.581  24.747  27.352  1.00  0.00    -0.200 F 
ATOM     80  C   UNL A   1      40.898  26.409  26.316  1.00  0.00     0.200 A 
ATOM     81  F   UNL A   1      42.220  28.099  25.329  1.00  0.00    -0.200 F 
ATOM     82  F   UNL A   1      41.052  25.635  25.233  1.00  0.00    -0.200 F 
ENDBRANCH  48  72
BRANCH  60  83
ATOM     83  C   UNL A   1      44.064  28.446  34.625  1.00  0.00     0.064 A 
ATOM     84  C   UNL A   1      43.912  27.234  35.315  1.00  0.00     0.173 A 
ATOM     85  C   UNL A   1      45.367  28.924  34.418  1.00  0.00     0.173 A 
ATOM     86  F   UNL A   1      42.686  26.744  35.554  1.00  0.00    -0.203 F 
ATOM     87  C   UNL A   1      45.018  26.542  35.799  1.00  0.00     0.198 A 
ATOM     88  C   UNL A   1      46.473  28.212  34.875  1.00  0.00     0.198 A 
ATOM     89  F   UNL A   1      45.569  30.076  33.760  1.00  0.00    -0.203 F 
ATOM     90  F   UNL A   1      44.844  25.411  36.499  1.00  0.00    -0.200 F 
ATOM     91  C   UNL A   1      46.297  27.026  35.572  1.00  0.00     0.200 A 
ATOM     92  F   UNL A   1      47.708  28.675  34.642  1.00  0.00    -0.200 F 
ATOM     93  F   UNL A   1      47.361  26.353  36.030  1.00  0.00    -0.200 F 
ENDBRANCH  60  83
ENDBRANCH  34  35
ENDBRANCH  26  29
ENDBRANCH  24  25
ENDBRANCH  23  24
ENDBRANCH   1  23
TORSDOF 17
ENDMDL
