MODEL 1
REMARK VINA RESULT:     -12.6      0.000      0.000
REMARK SMILES Cc1cc(C[N@H+]2CCN(C)C(=O)C2(C)C)oc1C(=O)NCCCCNC(=O)c1ccc(-c2c3nc(c(-c4c(F)c(F)c(F)c(F)c4F)c4ccc([nH]4)c(-c4c(F)c(F)c(F)c(F)c4F)c4nc(c(-c5c(F)c(F)c(F)c(F)c5F)c5ccc2[nH]5)C=C4)C=C3)cc1
REMARK SMILES IDX 22 1 21 2 20 3 18 4 19 5 17 7 1 8 2 9 3 10 4 11 16 12 5 13
REMARK SMILES IDX 6 14 7 15 13 16 8 18 11 19 14 20 15 21 9 22 12 23 10 24
REMARK SMILES IDX 23 25 24 26 25 27 26 28 27 30 28 31 29 32 90 33 30 34 89 35
REMARK SMILES IDX 31 36 32 37 33 38 83 39 34 40 88 41 82 42 84 43 35 44 87 45
REMARK SMILES IDX 81 46 80 47 36 49 68 50 48 51 67 52 49 53 52 54 66 55 85 56
REMARK SMILES IDX 50 57 51 58 65 60 86 61 53 62 37 63 38 64 46 65 39 66 40 67
REMARK SMILES IDX 44 68 47 69 41 70 42 71 45 72 43 73 69 74 70 75 78 76 71 77
REMARK SMILES IDX 72 78 76 79 79 80 73 81 74 82 77 83 75 84 54 85 55 86 63 87
REMARK SMILES IDX 56 88 57 89 61 90 64 91 58 92 59 93 62 94 60 95
REMARK H PARENT 20 6 6 17 25 29 84 48 52 59
REMARK Flexibility Score: inf
ROOT
ATOM      1  C   UNL A   1      37.035  21.246  24.401  1.00  0.00     0.023 C 
ENDROOT
BRANCH   1   2
ATOM      2  C   UNL A   1      36.582  22.315  25.390  1.00  0.00     0.116 C 
BRANCH   2   3
ATOM      3  N   UNL A   1      35.792  21.803  26.484  1.00  0.00    -0.349 N 
ATOM      4  C   UNL A   1      34.428  21.868  26.678  1.00  0.00     0.287 C 
ATOM      5  O   UNL A   1      34.021  21.455  27.763  1.00  0.00    -0.266 OA
ATOM      6  H   UNL A   1      36.298  21.343  27.192  1.00  0.00     0.163 HD
BRANCH   4   7
ATOM      7  C   UNL A   1      33.549  22.435  25.666  1.00  0.00     0.194 A 
ATOM      8  C   UNL A   1      32.991  20.659  23.826  1.00  0.00     0.049 C 
ATOM      9  C   UNL A   1      32.931  21.974  24.507  1.00  0.00     0.001 A 
ATOM     10  C   UNL A   1      32.142  23.053  24.026  1.00  0.00     0.056 A 
ATOM     11  C   UNL A   1      32.385  24.135  24.836  1.00  0.00     0.159 A 
ATOM     12  O   UNL A   1      33.180  23.749  25.871  1.00  0.00    -0.450 OA
BRANCH  11  13
ATOM     13  C   UNL A   1      31.949  25.561  24.793  1.00  0.00     0.339 C 
BRANCH  13  14
ATOM     14  N   UNL A   1      32.635  26.443  23.823  1.00  0.00    -0.315 N 
ATOM     15  C   UNL A   1      31.973  26.465  22.513  1.00  0.00     0.285 C 
ATOM     16  C   UNL A   1      32.995  27.819  24.278  1.00  0.00     0.172 C 
ATOM     17  H   UNL A   1      33.543  25.986  23.732  1.00  0.00     0.349 HD
ATOM     18  C   UNL A   1      30.799  27.441  22.386  1.00  0.00     0.180 C 
ATOM     19  C   UNL A   1      31.764  28.783  24.261  1.00  0.00     0.283 C 
ATOM     20  C   UNL A   1      33.712  27.819  25.646  1.00  0.00     0.090 C 
ATOM     21  C   UNL A   1      34.016  28.461  23.300  1.00  0.00     0.090 C 
ATOM     22  N   UNL A   1      30.914  28.676  23.158  1.00  0.00    -0.335 N 
ATOM     23  O   UNL A   1      31.628  29.671  25.104  1.00  0.00    -0.268 OA
ATOM     24  C   UNL A   1      29.902  29.686  22.922  1.00  0.00     0.147 C 
ENDBRANCH  13  14
ENDBRANCH  11  13
ENDBRANCH   4   7
ENDBRANCH   2   3
ENDBRANCH   1   2
BRANCH   1  25
ATOM     25  C   UNL A   1      37.801  20.067  25.000  1.00  0.00     0.023 C 
BRANCH  25  26
ATOM     26  C   UNL A   1      39.069  20.408  25.779  1.00  0.00     0.116 C 
BRANCH  26  27
ATOM     27  N   UNL A   1      40.024  19.311  25.856  1.00  0.00    -0.352 N 
ATOM     28  C   UNL A   1      41.375  19.317  26.108  1.00  0.00     0.251 C 
ATOM     29  H   UNL A   1      39.638  18.419  25.700  1.00  0.00     0.163 HD
ATOM     30  O   UNL A   1      42.013  18.270  26.040  1.00  0.00    -0.269 OA
BRANCH  28  31
ATOM     31  C   UNL A   1      42.079  20.581  26.415  1.00  0.00     0.039 A 
ATOM     32  C   UNL A   1      42.549  21.360  25.354  1.00  0.00     0.014 A 
ATOM     33  C   UNL A   1      42.265  21.010  27.730  1.00  0.00     0.014 A 
ATOM     34  C   UNL A   1      43.107  22.616  25.608  1.00  0.00     0.010 A 
ATOM     35  C   UNL A   1      42.741  22.295  27.977  1.00  0.00     0.010 A 
ATOM     36  C   UNL A   1      43.154  23.118  26.918  1.00  0.00    -0.014 A 
BRANCH  36  37
ATOM     37  C   UNL A   1      43.604  24.506  27.202  1.00  0.00     0.031 A 
ATOM     38  C   UNL A   1      42.631  25.530  27.718  1.00  0.00     0.074 A 
ATOM     39  C   UNL A   1      44.869  24.869  26.909  1.00  0.00     0.049 A 
ATOM     40  N   UNL A   1      42.809  26.812  27.922  1.00  0.00    -0.248 NA
ATOM     41  C   UNL A   1      41.270  25.057  28.010  1.00  0.00     0.031 C 
ATOM     42  C   UNL A   1      45.895  23.987  26.351  1.00  0.00     0.029 A 
ATOM     43  N   UNL A   1      45.504  26.081  27.027  1.00  0.00    -0.354 N 
ATOM     44  C   UNL A   1      41.578  27.299  28.343  1.00  0.00     0.074 A 
ATOM     45  C   UNL A   1      40.652  26.188  28.320  1.00  0.00     0.031 C 
ATOM     46  C   UNL A   1      47.034  24.680  26.195  1.00  0.00     0.029 A 
ATOM     47  C   UNL A   1      46.811  26.063  26.605  1.00  0.00     0.049 A 
ATOM     48  H   UNL A   1      45.063  26.888  27.381  1.00  0.00     0.167 HD
ATOM     49  C   UNL A   1      41.256  28.555  28.736  1.00  0.00     0.037 A 
ATOM     50  C   UNL A   1      47.724  27.050  26.548  1.00  0.00     0.037 A 
ATOM     51  C   UNL A   1      42.187  29.651  28.798  1.00  0.00     0.049 A 
ATOM     52  C   UNL A   1      47.345  28.431  27.006  1.00  0.00     0.074 A 
ATOM     53  C   UNL A   1      41.973  30.940  29.253  1.00  0.00     0.029 A 
ATOM     54  N   UNL A   1      43.512  29.584  28.393  1.00  0.00    -0.354 N 
ATOM     55  N   UNL A   1      46.197  28.865  27.467  1.00  0.00    -0.248 NA
ATOM     56  C   UNL A   1      48.392  29.461  26.941  1.00  0.00     0.031 C 
ATOM     57  C   UNL A   1      43.159  31.664  29.092  1.00  0.00     0.029 A 
ATOM     58  C   UNL A   1      44.123  30.814  28.573  1.00  0.00     0.049 A 
ATOM     59  H   UNL A   1      43.953  28.781  28.032  1.00  0.00     0.167 HD
ATOM     60  C   UNL A   1      46.388  30.206  27.768  1.00  0.00     0.074 A 
ATOM     61  C   UNL A   1      47.768  30.513  27.453  1.00  0.00     0.031 C 
ATOM     62  C   UNL A   1      45.500  31.102  28.260  1.00  0.00     0.037 A 
BRANCH  49  63
ATOM     63  C   UNL A   1      39.834  28.809  29.141  1.00  0.00     0.064 A 
ATOM     64  C   UNL A   1      39.409  28.649  30.468  1.00  0.00     0.173 A 
ATOM     65  C   UNL A   1      38.892  29.249  28.199  1.00  0.00     0.173 A 
ATOM     66  F   UNL A   1      40.269  28.219  31.405  1.00  0.00    -0.203 F 
ATOM     67  C   UNL A   1      38.087  28.889  30.832  1.00  0.00     0.198 A 
ATOM     68  C   UNL A   1      37.577  29.517  28.571  1.00  0.00     0.198 A 
ATOM     69  F   UNL A   1      39.248  29.423  26.917  1.00  0.00    -0.203 F 
ATOM     70  F   UNL A   1      37.694  28.682  32.096  1.00  0.00    -0.200 F 
ATOM     71  C   UNL A   1      37.174  29.329  29.885  1.00  0.00     0.200 A 
ATOM     72  F   UNL A   1      36.699  29.952  27.657  1.00  0.00    -0.200 F 
ATOM     73  F   UNL A   1      35.903  29.565  30.237  1.00  0.00    -0.200 F 
ENDBRANCH  49  63
BRANCH  50  74
ATOM     74  C   UNL A   1      49.099  26.763  26.062  1.00  0.00     0.064 A 
ATOM     75  C   UNL A   1      49.447  26.991  24.724  1.00  0.00     0.173 A 
ATOM     76  C   UNL A   1      50.086  26.254  26.917  1.00  0.00     0.173 A 
ATOM     77  F   UNL A   1      48.529  27.456  23.864  1.00  0.00    -0.203 F 
ATOM     78  C   UNL A   1      50.727  26.703  24.254  1.00  0.00     0.198 A 
ATOM     79  C   UNL A   1      51.373  25.990  26.452  1.00  0.00     0.198 A 
ATOM     80  F   UNL A   1      49.803  26.022  28.207  1.00  0.00    -0.203 F 
ATOM     81  F   UNL A   1      51.020  26.890  22.960  1.00  0.00    -0.200 F 
ATOM     82  C   UNL A   1      51.690  26.207  25.120  1.00  0.00     0.200 A 
ATOM     83  F   UNL A   1      52.304  25.523  27.294  1.00  0.00    -0.200 F 
ATOM     84  F   UNL A   1      52.922  25.933  24.669  1.00  0.00    -0.200 F 
ENDBRANCH  50  74
BRANCH  62  85
ATOM     85  C   UNL A   1      45.998  32.493  28.516  1.00  0.00     0.064 A 
ATOM     86  C   UNL A   1      46.588  32.848  29.737  1.00  0.00     0.173 A 
ATOM     87  C   UNL A   1      45.921  33.472  27.513  1.00  0.00     0.173 A 
ATOM     88  F   UNL A   1      46.669  31.953  30.733  1.00  0.00    -0.203 F 
ATOM     89  C   UNL A   1      47.062  34.139  29.954  1.00  0.00     0.198 A 
ATOM     90  C   UNL A   1      46.420  34.753  27.723  1.00  0.00     0.198 A 
ATOM     91  F   UNL A   1      45.370  33.180  26.324  1.00  0.00    -0.203 F 
ATOM     92  F   UNL A   1      47.584  34.468  31.143  1.00  0.00    -0.200 F 
ATOM     93  C   UNL A   1      46.986  35.088  28.945  1.00  0.00     0.200 A 
ATOM     94  F   UNL A   1      46.355  35.665  26.744  1.00  0.00    -0.200 F 
ATOM     95  F   UNL A   1      47.450  36.328  29.152  1.00  0.00    -0.200 F 
ENDBRANCH  62  85
ENDBRANCH  36  37
ENDBRANCH  28  31
ENDBRANCH  26  27
ENDBRANCH  25  26
ENDBRANCH   1  25
TORSDOF 13
ENDMDL
MODEL 2
REMARK VINA RESULT:     -12.6      0.075      1.941
REMARK SMILES Cc1cc(C[N@H+]2CCN(C)C(=O)C2(C)C)oc1C(=O)NCCCCNC(=O)c1ccc(-c2c3nc(c(-c4c(F)c(F)c(F)c(F)c4F)c4ccc([nH]4)c(-c4c(F)c(F)c(F)c(F)c4F)c4nc(c(-c5c(F)c(F)c(F)c(F)c5F)c5ccc2[nH]5)C=C4)C=C3)cc1
REMARK SMILES IDX 22 1 21 2 20 3 18 4 19 5 17 7 1 8 2 9 3 10 4 11 16 12 5 13
REMARK SMILES IDX 6 14 7 15 13 16 8 18 11 19 14 20 15 21 9 22 12 23 10 24
REMARK SMILES IDX 23 25 24 26 25 27 26 28 27 30 28 31 29 32 90 33 30 34 89 35
REMARK SMILES IDX 31 36 32 37 33 38 83 39 34 40 88 41 82 42 84 43 35 44 87 45
REMARK SMILES IDX 81 46 80 47 36 49 68 50 48 51 67 52 49 53 52 54 66 55 85 56
REMARK SMILES IDX 50 57 51 58 65 60 86 61 53 62 37 63 38 64 46 65 39 66 40 67
REMARK SMILES IDX 44 68 47 69 41 70 42 71 45 72 43 73 69 74 70 75 78 76 71 77
REMARK SMILES IDX 72 78 76 79 79 80 73 81 74 82 77 83 75 84 54 85 55 86 63 87
REMARK SMILES IDX 56 88 57 89 61 90 64 91 58 92 59 93 62 94 60 95
REMARK H PARENT 20 6 6 17 25 29 84 48 52 59
REMARK Flexibility Score: inf
ROOT
ATOM      1  C   UNL A   1      36.993  21.346  24.402  1.00  0.00     0.023 C 
ENDROOT
BRANCH   1   2
ATOM      2  C   UNL A   1      36.532  22.393  25.410  1.00  0.00     0.116 C 
BRANCH   2   3
ATOM      3  N   UNL A   1      35.755  21.854  26.501  1.00  0.00    -0.349 N 
ATOM      4  C   UNL A   1      34.390  21.886  26.696  1.00  0.00     0.287 C 
ATOM      5  O   UNL A   1      33.993  21.453  27.777  1.00  0.00    -0.266 OA
ATOM      6  H   UNL A   1      36.272  21.398  27.203  1.00  0.00     0.163 HD
BRANCH   4   7
ATOM      7  C   UNL A   1      33.497  22.442  25.691  1.00  0.00     0.194 A 
ATOM      8  C   UNL A   1      32.938  20.655  23.861  1.00  0.00     0.049 C 
ATOM      9  C   UNL A   1      32.873  21.972  24.538  1.00  0.00     0.001 A 
ATOM     10  C   UNL A   1      32.071  23.042  24.061  1.00  0.00     0.056 A 
ATOM     11  C   UNL A   1      32.311  24.129  24.866  1.00  0.00     0.159 A 
ATOM     12  O   UNL A   1      33.119  23.753  25.894  1.00  0.00    -0.450 OA
BRANCH  11  13
ATOM     13  C   UNL A   1      31.863  25.552  24.821  1.00  0.00     0.339 C 
BRANCH  13  14
ATOM     14  N   UNL A   1      32.532  26.436  23.841  1.00  0.00    -0.315 N 
ATOM     15  C   UNL A   1      31.839  26.469  22.547  1.00  0.00     0.285 C 
ATOM     16  C   UNL A   1      32.910  27.807  24.296  1.00  0.00     0.172 C 
ATOM     17  H   UNL A   1      33.434  25.973  23.726  1.00  0.00     0.349 HD
ATOM     18  C   UNL A   1      30.668  27.453  22.454  1.00  0.00     0.180 C 
ATOM     19  C   UNL A   1      31.685  28.777  24.313  1.00  0.00     0.283 C 
ATOM     20  C   UNL A   1      33.659  27.793  25.647  1.00  0.00     0.090 C 
ATOM     21  C   UNL A   1      33.911  28.448  23.298  1.00  0.00     0.090 C 
ATOM     22  N   UNL A   1      30.808  28.682  23.230  1.00  0.00    -0.335 N 
ATOM     23  O   UNL A   1      31.574  29.661  25.165  1.00  0.00    -0.268 OA
ATOM     24  C   UNL A   1      29.797  29.700  23.025  1.00  0.00     0.147 C 
ENDBRANCH  13  14
ENDBRANCH  11  13
ENDBRANCH   4   7
ENDBRANCH   2   3
ENDBRANCH   1   2
BRANCH   1  25
ATOM     25  C   UNL A   1      37.758  20.156  24.981  1.00  0.00     0.023 C 
BRANCH  25  26
ATOM     26  C   UNL A   1      39.013  20.483  25.784  1.00  0.00     0.116 C 
BRANCH  26  27
ATOM     27  N   UNL A   1      39.959  19.379  25.871  1.00  0.00    -0.352 N 
ATOM     28  C   UNL A   1      41.309  19.376  26.127  1.00  0.00     0.251 C 
ATOM     29  H   UNL A   1      39.566  18.489  25.721  1.00  0.00     0.163 HD
ATOM     30  O   UNL A   1      41.939  18.324  26.067  1.00  0.00    -0.269 OA
BRANCH  28  31
ATOM     31  C   UNL A   1      42.023  20.637  26.426  1.00  0.00     0.039 A 
ATOM     32  C   UNL A   1      42.473  21.421  25.360  1.00  0.00     0.014 A 
ATOM     33  C   UNL A   1      42.238  21.057  27.739  1.00  0.00     0.014 A 
ATOM     34  C   UNL A   1      43.038  22.675  25.610  1.00  0.00     0.010 A 
ATOM     35  C   UNL A   1      42.722  22.340  27.984  1.00  0.00     0.010 A 
ATOM     36  C   UNL A   1      43.114  23.168  26.922  1.00  0.00    -0.014 A 
BRANCH  36  37
ATOM     37  C   UNL A   1      43.574  24.553  27.204  1.00  0.00     0.031 A 
ATOM     38  C   UNL A   1      42.608  25.583  27.721  1.00  0.00     0.074 A 
ATOM     39  C   UNL A   1      44.840  24.908  26.910  1.00  0.00     0.049 A 
ATOM     40  N   UNL A   1      42.794  26.864  27.925  1.00  0.00    -0.248 NA
ATOM     41  C   UNL A   1      41.244  25.120  28.016  1.00  0.00     0.031 C 
ATOM     42  C   UNL A   1      45.860  24.020  26.350  1.00  0.00     0.029 A 
ATOM     43  N   UNL A   1      45.483  26.116  27.027  1.00  0.00    -0.354 N 
ATOM     44  C   UNL A   1      41.567  27.359  28.347  1.00  0.00     0.074 A 
ATOM     45  C   UNL A   1      40.634  26.255  28.326  1.00  0.00     0.031 C 
ATOM     46  C   UNL A   1      47.004  24.705  26.192  1.00  0.00     0.029 A 
ATOM     47  C   UNL A   1      46.789  26.089  26.603  1.00  0.00     0.049 A 
ATOM     48  H   UNL A   1      45.049  26.926  27.380  1.00  0.00     0.167 HD
ATOM     49  C   UNL A   1      41.254  28.618  28.740  1.00  0.00     0.037 A 
ATOM     50  C   UNL A   1      47.709  27.071  26.544  1.00  0.00     0.037 A 
ATOM     51  C   UNL A   1      42.192  29.707  28.801  1.00  0.00     0.049 A 
ATOM     52  C   UNL A   1      47.340  28.454  27.003  1.00  0.00     0.074 A 
ATOM     53  C   UNL A   1      41.987  30.998  29.255  1.00  0.00     0.029 A 
ATOM     54  N   UNL A   1      43.516  29.632  28.394  1.00  0.00    -0.354 N 
ATOM     55  N   UNL A   1      46.195  28.896  27.465  1.00  0.00    -0.248 NA
ATOM     56  C   UNL A   1      48.393  29.478  26.936  1.00  0.00     0.031 C 
ATOM     57  C   UNL A   1      43.178  31.714  29.092  1.00  0.00     0.029 A 
ATOM     58  C   UNL A   1      44.135  30.859  28.573  1.00  0.00     0.049 A 
ATOM     59  H   UNL A   1      43.951  28.826  28.033  1.00  0.00     0.167 HD
ATOM     60  C   UNL A   1      46.395  30.235  27.765  1.00  0.00     0.074 A 
ATOM     61  C   UNL A   1      47.776  30.533  27.447  1.00  0.00     0.031 C 
ATOM     62  C   UNL A   1      45.513  31.137  28.257  1.00  0.00     0.037 A 
BRANCH  49  63
ATOM     63  C   UNL A   1      39.834  28.881  29.147  1.00  0.00     0.064 A 
ATOM     64  C   UNL A   1      38.872  29.308  28.220  1.00  0.00     0.173 A 
ATOM     65  C   UNL A   1      39.422  28.671  30.471  1.00  0.00     0.173 A 
ATOM     66  F   UNL A   1      39.218  29.534  26.943  1.00  0.00    -0.203 F 
ATOM     67  C   UNL A   1      37.557  29.547  28.609  1.00  0.00     0.198 A 
ATOM     68  C   UNL A   1      38.099  28.883  30.852  1.00  0.00     0.198 A 
ATOM     69  F   UNL A   1      40.301  28.258  31.397  1.00  0.00    -0.203 F 
ATOM     70  F   UNL A   1      36.668  30.001  27.716  1.00  0.00    -0.200 F 
ATOM     71  C   UNL A   1      37.170  29.328  29.923  1.00  0.00     0.200 A 
ATOM     72  F   UNL A   1      37.724  28.661  32.119  1.00  0.00    -0.200 F 
ATOM     73  F   UNL A   1      35.903  29.553  30.296  1.00  0.00    -0.200 F 
ENDBRANCH  49  63
BRANCH  50  74
ATOM     74  C   UNL A   1      49.081  26.774  26.056  1.00  0.00     0.064 A 
ATOM     75  C   UNL A   1      50.059  26.275  26.928  1.00  0.00     0.173 A 
ATOM     76  C   UNL A   1      49.445  26.987  24.719  1.00  0.00     0.173 A 
ATOM     77  F   UNL A   1      49.763  26.077  28.221  1.00  0.00    -0.203 F 
ATOM     78  C   UNL A   1      51.354  26.016  26.485  1.00  0.00     0.198 A 
ATOM     79  C   UNL A   1      50.733  26.703  24.271  1.00  0.00     0.198 A 
ATOM     80  F   UNL A   1      48.544  27.460  23.845  1.00  0.00    -0.203 F 
ATOM     81  F   UNL A   1      52.280  25.579  27.349  1.00  0.00    -0.200 F 
ATOM     82  C   UNL A   1      51.689  26.226  25.155  1.00  0.00     0.200 A 
ATOM     83  F   UNL A   1      51.050  26.895  22.984  1.00  0.00    -0.200 F 
ATOM     84  F   UNL A   1      52.934  25.973  24.728  1.00  0.00    -0.200 F 
ENDBRANCH  50  74
BRANCH  62  85
ATOM     85  C   UNL A   1      46.020  32.526  28.512  1.00  0.00     0.064 A 
ATOM     86  C   UNL A   1      45.936  33.528  27.535  1.00  0.00     0.173 A 
ATOM     87  C   UNL A   1      46.561  32.868  29.761  1.00  0.00     0.173 A 
ATOM     88  F   UNL A   1      45.444  33.246  26.319  1.00  0.00    -0.203 F 
ATOM     89  C   UNL A   1      46.394  34.817  27.792  1.00  0.00     0.198 A 
ATOM     90  C   UNL A   1      46.992  34.163  30.024  1.00  0.00     0.198 A 
ATOM     91  F   UNL A   1      46.657  31.945  30.731  1.00  0.00    -0.203 F 
ATOM     92  F   UNL A   1      46.343  35.749  26.830  1.00  0.00    -0.200 F 
ATOM     93  C   UNL A   1      46.915  35.136  29.038  1.00  0.00     0.200 A 
ATOM     94  F   UNL A   1      47.485  34.473  31.231  1.00  0.00    -0.200 F 
ATOM     95  F   UNL A   1      47.349  36.380  29.286  1.00  0.00    -0.200 F 
ENDBRANCH  62  85
ENDBRANCH  36  37
ENDBRANCH  28  31
ENDBRANCH  26  27
ENDBRANCH  25  26
ENDBRANCH   1  25
TORSDOF 13
ENDMDL
MODEL 3
REMARK VINA RESULT:     -12.6      5.463     11.257
REMARK SMILES Cc1cc(C[N@H+]2CCN(C)C(=O)C2(C)C)oc1C(=O)NCCCCNC(=O)c1ccc(-c2c3nc(c(-c4c(F)c(F)c(F)c(F)c4F)c4ccc([nH]4)c(-c4c(F)c(F)c(F)c(F)c4F)c4nc(c(-c5c(F)c(F)c(F)c(F)c5F)c5ccc2[nH]5)C=C4)C=C3)cc1
REMARK SMILES IDX 22 1 21 2 20 3 18 4 19 5 17 7 1 8 2 9 3 10 4 11 16 12 5 13
REMARK SMILES IDX 6 14 7 15 13 16 8 18 11 19 14 20 15 21 9 22 12 23 10 24
REMARK SMILES IDX 23 25 24 26 25 27 26 28 27 30 28 31 29 32 90 33 30 34 89 35
REMARK SMILES IDX 31 36 32 37 33 38 83 39 34 40 88 41 82 42 84 43 35 44 87 45
REMARK SMILES IDX 81 46 80 47 36 49 68 50 48 51 67 52 49 53 52 54 66 55 85 56
REMARK SMILES IDX 50 57 51 58 65 60 86 61 53 62 37 63 38 64 46 65 39 66 40 67
REMARK SMILES IDX 44 68 47 69 41 70 42 71 45 72 43 73 69 74 70 75 78 76 71 77
REMARK SMILES IDX 72 78 76 79 79 80 73 81 74 82 77 83 75 84 54 85 55 86 63 87
REMARK SMILES IDX 56 88 57 89 61 90 64 91 58 92 59 93 62 94 60 95
REMARK H PARENT 20 6 6 17 25 29 84 48 52 59
REMARK Flexibility Score: inf
ROOT
ATOM      1  C   UNL A   1      31.880  30.271  26.856  1.00  0.00     0.023 C 
ENDROOT
BRANCH   1   2
ATOM      2  C   UNL A   1      31.578  29.509  25.570  1.00  0.00     0.116 C 
BRANCH   2   3
ATOM      3  N   UNL A   1      32.570  29.687  24.537  1.00  0.00    -0.349 N 
ATOM      4  C   UNL A   1      33.015  28.785  23.592  1.00  0.00     0.287 C 
ATOM      5  O   UNL A   1      33.962  29.157  22.901  1.00  0.00    -0.266 OA
ATOM      6  H   UNL A   1      32.988  30.577  24.500  1.00  0.00     0.163 HD
BRANCH   4   7
ATOM      7  C   UNL A   1      32.415  27.465  23.470  1.00  0.00     0.194 A 
ATOM      8  C   UNL A   1      29.861  27.657  22.931  1.00  0.00     0.049 C 
ATOM      9  C   UNL A   1      31.147  26.966  23.186  1.00  0.00     0.001 A 
ATOM     10  C   UNL A   1      31.278  25.551  23.160  1.00  0.00     0.056 A 
ATOM     11  C   UNL A   1      32.568  25.249  23.521  1.00  0.00     0.159 A 
ATOM     12  O   UNL A   1      33.280  26.403  23.642  1.00  0.00    -0.450 OA
BRANCH  11  13
ATOM     13  C   UNL A   1      33.283  23.965  23.776  1.00  0.00     0.339 C 
BRANCH  13  14
ATOM     14  N   UNL A   1      33.143  23.374  25.125  1.00  0.00    -0.315 N 
ATOM     15  C   UNL A   1      31.990  22.470  25.228  1.00  0.00     0.285 C 
ATOM     16  C   UNL A   1      34.363  22.780  25.749  1.00  0.00     0.172 C 
ATOM     17  H   UNL A   1      32.971  24.202  25.697  1.00  0.00     0.349 HD
ATOM     18  C   UNL A   1      32.239  21.034  24.757  1.00  0.00     0.180 C 
ATOM     19  C   UNL A   1      34.680  21.361  25.176  1.00  0.00     0.283 C 
ATOM     20  C   UNL A   1      35.583  23.724  25.670  1.00  0.00     0.090 C 
ATOM     21  C   UNL A   1      34.137  22.555  27.267  1.00  0.00     0.090 C 
ATOM     22  N   UNL A   1      33.586  20.516  24.982  1.00  0.00    -0.335 N 
ATOM     23  O   UNL A   1      35.840  20.968  25.031  1.00  0.00    -0.268 OA
ATOM     24  C   UNL A   1      33.797  19.109  24.703  1.00  0.00     0.147 C 
ENDBRANCH  13  14
ENDBRANCH  11  13
ENDBRANCH   4   7
ENDBRANCH   2   3
ENDBRANCH   1   2
BRANCH   1  25
ATOM     25  C   UNL A   1      31.648  31.781  26.805  1.00  0.00     0.023 C 
BRANCH  25  26
ATOM     26  C   UNL A   1      32.827  32.663  27.206  1.00  0.00     0.116 C 
BRANCH  26  27
ATOM     27  N   UNL A   1      32.446  34.014  27.591  1.00  0.00    -0.352 N 
ATOM     28  C   UNL A   1      32.978  34.859  28.536  1.00  0.00     0.251 C 
ATOM     29  H   UNL A   1      31.681  34.383  27.094  1.00  0.00     0.163 HD
ATOM     30  O   UNL A   1      32.440  35.940  28.761  1.00  0.00    -0.269 OA
BRANCH  28  31
ATOM     31  C   UNL A   1      34.167  34.460  29.321  1.00  0.00     0.039 A 
ATOM     32  C   UNL A   1      33.976  33.891  30.583  1.00  0.00     0.014 A 
ATOM     33  C   UNL A   1      35.459  34.625  28.820  1.00  0.00     0.014 A 
ATOM     34  C   UNL A   1      35.070  33.391  31.294  1.00  0.00     0.010 A 
ATOM     35  C   UNL A   1      36.538  34.052  29.488  1.00  0.00     0.010 A 
ATOM     36  C   UNL A   1      36.353  33.416  30.725  1.00  0.00    -0.014 A 
BRANCH  36  37
ATOM     37  C   UNL A   1      37.510  32.761  31.392  1.00  0.00     0.031 A 
ATOM     38  C   UNL A   1      38.208  31.603  30.736  1.00  0.00     0.074 A 
ATOM     39  C   UNL A   1      37.874  33.152  32.629  1.00  0.00     0.049 A 
ATOM     40  N   UNL A   1      39.162  30.837  31.205  1.00  0.00    -0.248 NA
ATOM     41  C   UNL A   1      37.752  31.235  29.387  1.00  0.00     0.031 C 
ATOM     42  C   UNL A   1      37.242  34.224  33.399  1.00  0.00     0.029 A 
ATOM     43  N   UNL A   1      38.858  32.681  33.464  1.00  0.00    -0.354 N 
ATOM     44  C   UNL A   1      39.400  29.886  30.221  1.00  0.00     0.074 A 
ATOM     45  C   UNL A   1      38.461  30.141  29.150  1.00  0.00     0.031 C 
ATOM     46  C   UNL A   1      37.865  34.344  34.582  1.00  0.00     0.029 A 
ATOM     47  C   UNL A   1      38.915  33.333  34.672  1.00  0.00     0.049 A 
ATOM     48  H   UNL A   1      39.465  31.945  33.221  1.00  0.00     0.167 HD
ATOM     49  C   UNL A   1      40.333  28.904  30.203  1.00  0.00     0.037 A 
ATOM     50  C   UNL A   1      39.717  33.135  35.735  1.00  0.00     0.037 A 
ATOM     51  C   UNL A   1      41.294  28.677  31.250  1.00  0.00     0.049 A 
ATOM     52  C   UNL A   1      40.756  32.049  35.681  1.00  0.00     0.074 A 
ATOM     53  C   UNL A   1      42.326  27.756  31.288  1.00  0.00     0.029 A 
ATOM     54  N   UNL A   1      41.341  29.381  32.443  1.00  0.00    -0.354 N 
ATOM     55  N   UNL A   1      41.017  31.201  34.717  1.00  0.00    -0.248 NA
ATOM     56  C   UNL A   1      41.617  31.897  36.863  1.00  0.00     0.031 C 
ATOM     57  C   UNL A   1      42.976  27.878  32.520  1.00  0.00     0.029 A 
ATOM     58  C   UNL A   1      42.375  28.903  33.233  1.00  0.00     0.049 A 
ATOM     59  H   UNL A   1      40.731  30.112  32.693  1.00  0.00     0.167 HD
ATOM     60  C   UNL A   1      42.083  30.432  35.163  1.00  0.00     0.074 A 
ATOM     61  C   UNL A   1      42.431  30.924  36.480  1.00  0.00     0.031 C 
ATOM     62  C   UNL A   1      42.713  29.409  34.539  1.00  0.00     0.037 A 
BRANCH  49  63
ATOM     63  C   UNL A   1      40.366  28.005  29.002  1.00  0.00     0.064 A 
ATOM     64  C   UNL A   1      41.142  28.315  27.874  1.00  0.00     0.173 A 
ATOM     65  C   UNL A   1      39.641  26.805  28.990  1.00  0.00     0.173 A 
ATOM     66  F   UNL A   1      41.845  29.457  27.831  1.00  0.00    -0.203 F 
ATOM     67  C   UNL A   1      41.166  27.472  26.767  1.00  0.00     0.198 A 
ATOM     68  C   UNL A   1      39.689  25.949  27.892  1.00  0.00     0.198 A 
ATOM     69  F   UNL A   1      38.888  26.459  30.045  1.00  0.00    -0.203 F 
ATOM     70  F   UNL A   1      41.875  27.812  25.683  1.00  0.00    -0.200 F 
ATOM     71  C   UNL A   1      40.445  26.286  26.779  1.00  0.00     0.200 A 
ATOM     72  F   UNL A   1      39.001  24.799  27.910  1.00  0.00    -0.200 F 
ATOM     73  F   UNL A   1      40.473  25.473  25.715  1.00  0.00    -0.200 F 
ENDBRANCH  49  63
BRANCH  50  74
ATOM     74  C   UNL A   1      39.589  34.004  36.934  1.00  0.00     0.064 A 
ATOM     75  C   UNL A   1      40.250  35.238  36.997  1.00  0.00     0.173 A 
ATOM     76  C   UNL A   1      38.813  33.620  38.036  1.00  0.00     0.173 A 
ATOM     77  F   UNL A   1      41.022  35.637  35.976  1.00  0.00    -0.203 F 
ATOM     78  C   UNL A   1      40.155  36.048  38.127  1.00  0.00     0.198 A 
ATOM     79  C   UNL A   1      38.697  34.443  39.155  1.00  0.00     0.198 A 
ATOM     80  F   UNL A   1      38.158  32.450  38.022  1.00  0.00    -0.203 F 
ATOM     81  F   UNL A   1      40.831  37.204  38.178  1.00  0.00    -0.200 F 
ATOM     82  C   UNL A   1      39.374  35.652  39.203  1.00  0.00     0.200 A 
ATOM     83  F   UNL A   1      37.933  34.063  40.187  1.00  0.00    -0.200 F 
ATOM     84  F   UNL A   1      39.279  36.433  40.288  1.00  0.00    -0.200 F 
ENDBRANCH  50  74
BRANCH  62  85
ATOM     85  C   UNL A   1      43.865  28.771  35.258  1.00  0.00     0.064 A 
ATOM     86  C   UNL A   1      45.181  29.216  35.074  1.00  0.00     0.173 A 
ATOM     87  C   UNL A   1      43.643  27.728  36.170  1.00  0.00     0.173 A 
ATOM     88  F   UNL A   1      45.446  30.199  34.199  1.00  0.00    -0.203 F 
ATOM     89  C   UNL A   1      46.238  28.627  35.762  1.00  0.00     0.198 A 
ATOM     90  C   UNL A   1      44.698  27.159  36.877  1.00  0.00     0.198 A 
ATOM     91  F   UNL A   1      42.400  27.270  36.385  1.00  0.00    -0.203 F 
ATOM     92  F   UNL A   1      47.494  29.040  35.541  1.00  0.00    -0.200 F 
ATOM     93  C   UNL A   1      45.996  27.604  36.668  1.00  0.00     0.200 A 
ATOM     94  F   UNL A   1      44.461  26.179  37.759  1.00  0.00    -0.200 F 
ATOM     95  F   UNL A   1      47.013  27.043  37.336  1.00  0.00    -0.200 F 
ENDBRANCH  62  85
ENDBRANCH  36  37
ENDBRANCH  28  31
ENDBRANCH  26  27
ENDBRANCH  25  26
ENDBRANCH   1  25
TORSDOF 13
ENDMDL
