MODEL 1
REMARK VINA RESULT:     -12.9      0.000      0.000
REMARK SMILES Cc1ccccc1[C@@H](CC(=O)NCCCCNC(=O)c1ccc(-c2c3nc(c(-c4c(F)c(F)c(F)c(F)c4F)c4ccc([nH]4)c(-c4c(F)c(F)c(F)c(F)c4F)c4nc(c(-c5c(F)c(F)c(F)c(F)c5F)c5ccc2[nH]5)C=C4)C=C3)cc1)NC(=O)C(F)(F)F
REMARK SMILES IDX 14 1 13 2 12 3 10 4 11 5 9 7 8 8 7 9 1 10 2 11 3 12 4 13
REMARK SMILES IDX 6 14 5 15 83 16 84 17 85 19 86 20 87 21 88 22 89 23 15 24
REMARK SMILES IDX 16 25 17 26 18 27 19 29 20 30 21 31 82 32 22 33 81 34 23 35
REMARK SMILES IDX 24 36 25 37 75 38 26 39 80 40 74 41 76 42 27 43 79 44 73 45
REMARK SMILES IDX 72 46 28 48 60 49 40 50 59 51 41 52 44 53 58 54 77 55 42 56
REMARK SMILES IDX 43 57 57 59 78 60 45 61 29 62 30 63 38 64 31 65 32 66 36 67
REMARK SMILES IDX 39 68 33 69 34 70 37 71 35 72 61 73 62 74 70 75 63 76 64 77
REMARK SMILES IDX 68 78 71 79 65 80 66 81 69 82 67 83 46 84 47 85 55 86 48 87
REMARK SMILES IDX 49 88 53 89 56 90 50 91 51 92 54 93 52 94
REMARK H PARENT 12 6 83 18 17 28 76 47 44 58
REMARK Flexibility Score: inf
ROOT
ATOM      1  C   UNL A   1      32.189  28.503  25.909  1.00  0.00     0.023 C 
ENDROOT
BRANCH   1   2
ATOM      2  C   UNL A   1      31.789  27.654  27.128  1.00  0.00     0.116 C 
BRANCH   2   3
ATOM      3  N   UNL A   1      31.054  26.465  26.716  1.00  0.00    -0.356 N 
ATOM      4  C   UNL A   1      31.455  25.302  26.133  1.00  0.00     0.222 C 
ATOM      5  O   UNL A   1      30.568  24.558  25.703  1.00  0.00    -0.275 OA
ATOM      6  H   UNL A   1      30.087  26.510  26.893  1.00  0.00     0.163 HD
BRANCH   4   7
ATOM      7  C   UNL A   1      32.909  24.883  26.032  1.00  0.00     0.129 C 
BRANCH   7   8
ATOM      8  C   UNL A   1      33.488  24.607  24.623  1.00  0.00     0.122 C 
BRANCH   8   9
ATOM      9  C   UNL A   1      34.657  23.624  24.713  1.00  0.00    -0.022 A 
ATOM     10  C   UNL A   1      33.295  21.567  23.952  1.00  0.00     0.045 C 
ATOM     11  C   UNL A   1      34.491  22.225  24.591  1.00  0.00    -0.046 A 
ATOM     12  C   UNL A   1      35.540  21.367  24.978  1.00  0.00     0.004 A 
ATOM     13  C   UNL A   1      36.755  21.870  25.430  1.00  0.00     0.000 A 
ATOM     14  C   UNL A   1      35.932  24.102  25.052  1.00  0.00     0.006 A 
ATOM     15  C   UNL A   1      36.966  23.238  25.420  1.00  0.00     0.000 A 
ENDBRANCH   8   9
BRANCH   8  16
ATOM     16  N   UNL A   1      33.817  25.807  23.860  1.00  0.00    -0.341 N 
ATOM     17  C   UNL A   1      33.459  26.097  22.561  1.00  0.00     0.326 C 
ATOM     18  H   UNL A   1      34.356  26.485  24.326  1.00  0.00     0.164 HD
ATOM     19  O   UNL A   1      33.941  27.121  22.063  1.00  0.00    -0.265 OA
BRANCH  17  20
ATOM     20  C   UNL A   1      32.481  25.168  21.804  1.00  0.00     0.471 C 
ATOM     21  F   UNL A   1      31.300  25.003  22.464  1.00  0.00    -0.162 F 
ATOM     22  F   UNL A   1      32.158  25.662  20.573  1.00  0.00    -0.162 F 
ATOM     23  F   UNL A   1      32.979  23.918  21.594  1.00  0.00    -0.162 F 
ENDBRANCH  17  20
ENDBRANCH   8  16
ENDBRANCH   7   8
ENDBRANCH   4   7
ENDBRANCH   2   3
ENDBRANCH   1   2
BRANCH   1  24
ATOM     24  C   UNL A   1      33.639  28.970  25.739  1.00  0.00     0.023 C 
BRANCH  24  25
ATOM     25  C   UNL A   1      34.464  29.188  27.007  1.00  0.00     0.116 C 
BRANCH  25  26
ATOM     26  N   UNL A   1      34.991  30.553  27.198  1.00  0.00    -0.352 N 
ATOM     27  C   UNL A   1      35.980  30.999  28.073  1.00  0.00     0.251 C 
ATOM     28  H   UNL A   1      34.587  31.247  26.628  1.00  0.00     0.163 HD
ATOM     29  O   UNL A   1      36.046  32.179  28.411  1.00  0.00    -0.269 OA
BRANCH  27  30
ATOM     30  C   UNL A   1      36.983  30.034  28.560  1.00  0.00     0.039 A 
ATOM     31  C   UNL A   1      36.915  29.308  29.759  1.00  0.00     0.014 A 
ATOM     32  C   UNL A   1      38.071  29.872  27.730  1.00  0.00     0.014 A 
ATOM     33  C   UNL A   1      37.940  28.396  30.059  1.00  0.00     0.010 A 
ATOM     34  C   UNL A   1      38.825  28.749  27.827  1.00  0.00     0.010 A 
ATOM     35  C   UNL A   1      38.893  28.128  29.072  1.00  0.00    -0.014 A 
BRANCH  35  36
ATOM     36  C   UNL A   1      40.212  27.530  29.242  1.00  0.00     0.031 A 
ATOM     37  C   UNL A   1      40.611  26.249  28.660  1.00  0.00     0.074 A 
ATOM     38  C   UNL A   1      41.163  28.460  29.520  1.00  0.00     0.049 A 
ATOM     39  N   UNL A   1      41.726  25.674  28.953  1.00  0.00    -0.248 NA
ATOM     40  C   UNL A   1      39.830  25.538  27.656  1.00  0.00     0.031 C 
ATOM     41  C   UNL A   1      42.579  28.467  29.185  1.00  0.00     0.029 A 
ATOM     42  N   UNL A   1      40.965  29.705  30.139  1.00  0.00    -0.354 N 
ATOM     43  C   UNL A   1      41.962  24.729  27.986  1.00  0.00     0.074 A 
ATOM     44  C   UNL A   1      40.711  24.606  27.266  1.00  0.00     0.031 C 
ATOM     45  C   UNL A   1      43.166  29.489  29.836  1.00  0.00     0.029 A 
ATOM     46  C   UNL A   1      42.180  30.058  30.740  1.00  0.00     0.049 A 
ATOM     47  H   UNL A   1      40.132  30.230  30.148  1.00  0.00     0.167 HD
ATOM     48  C   UNL A   1      43.233  24.266  27.798  1.00  0.00     0.037 A 
ATOM     49  C   UNL A   1      42.213  30.021  32.107  1.00  0.00     0.037 A 
ATOM     50  C   UNL A   1      44.200  24.979  28.640  1.00  0.00     0.049 A 
ATOM     51  C   UNL A   1      43.020  28.854  32.638  1.00  0.00     0.074 A 
ATOM     52  C   UNL A   1      45.139  25.974  28.414  1.00  0.00     0.029 A 
ATOM     53  N   UNL A   1      44.053  24.922  30.013  1.00  0.00    -0.354 N 
ATOM     54  N   UNL A   1      43.717  28.035  31.898  1.00  0.00    -0.248 NA
ATOM     55  C   UNL A   1      43.028  28.466  34.047  1.00  0.00     0.031 C 
ATOM     56  C   UNL A   1      45.546  26.506  29.677  1.00  0.00     0.029 A 
ATOM     57  C   UNL A   1      44.867  25.825  30.669  1.00  0.00     0.049 A 
ATOM     58  H   UNL A   1      43.438  24.306  30.472  1.00  0.00     0.167 HD
ATOM     59  C   UNL A   1      44.152  26.986  32.656  1.00  0.00     0.074 A 
ATOM     60  C   UNL A   1      43.723  27.318  34.004  1.00  0.00     0.031 C 
ATOM     61  C   UNL A   1      44.780  25.896  32.122  1.00  0.00     0.037 A 
BRANCH  48  62
ATOM     62  C   UNL A   1      43.619  23.315  26.692  1.00  0.00     0.064 A 
ATOM     63  C   UNL A   1      43.271  21.950  26.738  1.00  0.00     0.173 A 
ATOM     64  C   UNL A   1      44.318  23.713  25.534  1.00  0.00     0.173 A 
ATOM     65  F   UNL A   1      42.530  21.448  27.733  1.00  0.00    -0.203 F 
ATOM     66  C   UNL A   1      43.674  21.040  25.755  1.00  0.00     0.198 A 
ATOM     67  C   UNL A   1      44.767  22.795  24.578  1.00  0.00     0.198 A 
ATOM     68  F   UNL A   1      44.551  25.007  25.276  1.00  0.00    -0.203 F 
ATOM     69  F   UNL A   1      43.311  19.754  25.852  1.00  0.00    -0.200 F 
ATOM     70  C   UNL A   1      44.451  21.457  24.693  1.00  0.00     0.200 A 
ATOM     71  F   UNL A   1      45.505  23.220  23.542  1.00  0.00    -0.200 F 
ATOM     72  F   UNL A   1      44.871  20.577  23.775  1.00  0.00    -0.200 F 
ENDBRANCH  48  62
BRANCH  49  73
ATOM     73  C   UNL A   1      40.925  30.539  32.681  1.00  0.00     0.064 A 
ATOM     74  C   UNL A   1      40.639  31.912  32.513  1.00  0.00     0.173 A 
ATOM     75  C   UNL A   1      39.838  29.688  32.938  1.00  0.00     0.173 A 
ATOM     76  F   UNL A   1      41.632  32.773  32.236  1.00  0.00    -0.203 F 
ATOM     77  C   UNL A   1      39.327  32.387  32.487  1.00  0.00     0.198 A 
ATOM     78  C   UNL A   1      38.525  30.170  32.921  1.00  0.00     0.198 A 
ATOM     79  F   UNL A   1      40.030  28.368  33.079  1.00  0.00    -0.203 F 
ATOM     80  F   UNL A   1      39.088  33.676  32.207  1.00  0.00    -0.200 F 
ATOM     81  C   UNL A   1      38.270  31.510  32.664  1.00  0.00     0.200 A 
ATOM     82  F   UNL A   1      37.501  29.319  33.073  1.00  0.00    -0.200 F 
ATOM     83  F   UNL A   1      37.009  31.948  32.551  1.00  0.00    -0.200 F 
ENDBRANCH  49  73
BRANCH  61  84
ATOM     84  C   UNL A   1      45.323  24.768  32.958  1.00  0.00     0.064 A 
ATOM     85  C   UNL A   1      44.532  23.668  33.325  1.00  0.00     0.173 A 
ATOM     86  C   UNL A   1      46.622  24.801  33.516  1.00  0.00     0.173 A 
ATOM     87  F   UNL A   1      43.249  23.586  32.942  1.00  0.00    -0.203 F 
ATOM     88  C   UNL A   1      45.033  22.633  34.115  1.00  0.00     0.198 A 
ATOM     89  C   UNL A   1      47.098  23.797  34.355  1.00  0.00     0.198 A 
ATOM     90  F   UNL A   1      47.486  25.790  33.251  1.00  0.00    -0.203 F 
ATOM     91  F   UNL A   1      44.264  21.567  34.376  1.00  0.00    -0.200 F 
ATOM     92  C   UNL A   1      46.312  22.701  34.635  1.00  0.00     0.200 A 
ATOM     93  F   UNL A   1      48.327  23.902  34.880  1.00  0.00    -0.200 F 
ATOM     94  F   UNL A   1      46.787  21.713  35.406  1.00  0.00    -0.200 F 
ENDBRANCH  61  84
ENDBRANCH  35  36
ENDBRANCH  27  30
ENDBRANCH  25  26
ENDBRANCH  24  25
ENDBRANCH   1  24
TORSDOF 15
ENDMDL
MODEL 2
REMARK VINA RESULT:     -12.8      1.474      2.144
REMARK SMILES Cc1ccccc1[C@@H](CC(=O)NCCCCNC(=O)c1ccc(-c2c3nc(c(-c4c(F)c(F)c(F)c(F)c4F)c4ccc([nH]4)c(-c4c(F)c(F)c(F)c(F)c4F)c4nc(c(-c5c(F)c(F)c(F)c(F)c5F)c5ccc2[nH]5)C=C4)C=C3)cc1)NC(=O)C(F)(F)F
REMARK SMILES IDX 14 1 13 2 12 3 10 4 11 5 9 7 8 8 7 9 1 10 2 11 3 12 4 13
REMARK SMILES IDX 6 14 5 15 83 16 84 17 85 19 86 20 87 21 88 22 89 23 15 24
REMARK SMILES IDX 16 25 17 26 18 27 19 29 20 30 21 31 82 32 22 33 81 34 23 35
REMARK SMILES IDX 24 36 25 37 75 38 26 39 80 40 74 41 76 42 27 43 79 44 73 45
REMARK SMILES IDX 72 46 28 48 60 49 40 50 59 51 41 52 44 53 58 54 77 55 42 56
REMARK SMILES IDX 43 57 57 59 78 60 45 61 29 62 30 63 38 64 31 65 32 66 36 67
REMARK SMILES IDX 39 68 33 69 34 70 37 71 35 72 61 73 62 74 70 75 63 76 64 77
REMARK SMILES IDX 68 78 71 79 65 80 66 81 69 82 67 83 46 84 47 85 55 86 48 87
REMARK SMILES IDX 49 88 53 89 56 90 50 91 51 92 54 93 52 94
REMARK H PARENT 12 6 83 18 17 28 76 47 44 58
REMARK Flexibility Score: inf
ROOT
ATOM      1  C   UNL A   1      32.005  27.995  27.286  1.00  0.00     0.023 C 
ENDROOT
BRANCH   1   2
ATOM      2  C   UNL A   1      31.209  27.055  26.364  1.00  0.00     0.116 C 
BRANCH   2   3
ATOM      3  N   UNL A   1      31.184  25.700  26.900  1.00  0.00    -0.356 N 
ATOM      4  C   UNL A   1      30.859  24.503  26.339  1.00  0.00     0.222 C 
ATOM      5  O   UNL A   1      30.725  23.544  27.106  1.00  0.00    -0.275 OA
ATOM      6  H   UNL A   1      31.453  25.639  27.845  1.00  0.00     0.163 HD
BRANCH   4   7
ATOM      7  C   UNL A   1      30.699  24.304  24.844  1.00  0.00     0.129 C 
BRANCH   7   8
ATOM      8  C   UNL A   1      31.959  23.929  24.024  1.00  0.00     0.122 C 
BRANCH   8   9
ATOM      9  C   UNL A   1      32.660  25.193  23.523  1.00  0.00    -0.022 A 
ATOM     10  C   UNL A   1      34.458  25.218  25.375  1.00  0.00     0.045 C 
ATOM     11  C   UNL A   1      33.664  25.857  24.265  1.00  0.00    -0.046 A 
ATOM     12  C   UNL A   1      34.051  27.160  23.896  1.00  0.00     0.004 A 
ATOM     13  C   UNL A   1      33.501  27.790  22.784  1.00  0.00     0.000 A 
ATOM     14  C   UNL A   1      32.216  25.802  22.338  1.00  0.00     0.006 A 
ATOM     15  C   UNL A   1      32.619  27.090  21.979  1.00  0.00     0.000 A 
ENDBRANCH   8   9
BRANCH   8  16
ATOM     16  N   UNL A   1      31.721  22.957  22.963  1.00  0.00    -0.341 N 
ATOM     17  C   UNL A   1      32.071  21.623  22.955  1.00  0.00     0.326 C 
ATOM     18  H   UNL A   1      31.258  23.291  22.162  1.00  0.00     0.164 HD
ATOM     19  O   UNL A   1      31.879  21.001  21.904  1.00  0.00    -0.265 OA
BRANCH  17  20
ATOM     20  C   UNL A   1      32.656  20.972  24.231  1.00  0.00     0.471 C 
ATOM     21  F   UNL A   1      33.847  21.522  24.600  1.00  0.00    -0.162 F 
ATOM     22  F   UNL A   1      31.825  21.120  25.304  1.00  0.00    -0.162 F 
ATOM     23  F   UNL A   1      32.874  19.635  24.101  1.00  0.00    -0.162 F 
ENDBRANCH  17  20
ENDBRANCH   8  16
ENDBRANCH   7   8
ENDBRANCH   4   7
ENDBRANCH   2   3
ENDBRANCH   1   2
BRANCH   1  24
ATOM     24  C   UNL A   1      32.920  29.069  26.686  1.00  0.00     0.023 C 
BRANCH  24  25
ATOM     25  C   UNL A   1      34.347  29.163  27.225  1.00  0.00     0.116 C 
BRANCH  25  26
ATOM     26  N   UNL A   1      34.936  30.516  27.237  1.00  0.00    -0.352 N 
ATOM     27  C   UNL A   1      36.003  31.004  27.990  1.00  0.00     0.251 C 
ATOM     28  H   UNL A   1      34.516  31.166  26.628  1.00  0.00     0.163 HD
ATOM     29  O   UNL A   1      36.137  32.207  28.200  1.00  0.00    -0.269 OA
BRANCH  27  30
ATOM     30  C   UNL A   1      37.004  30.049  28.501  1.00  0.00     0.039 A 
ATOM     31  C   UNL A   1      36.949  29.377  29.732  1.00  0.00     0.014 A 
ATOM     32  C   UNL A   1      38.075  29.839  27.660  1.00  0.00     0.014 A 
ATOM     33  C   UNL A   1      37.970  28.467  30.054  1.00  0.00     0.010 A 
ATOM     34  C   UNL A   1      38.819  28.712  27.793  1.00  0.00     0.010 A 
ATOM     35  C   UNL A   1      38.902  28.145  29.064  1.00  0.00    -0.014 A 
BRANCH  35  36
ATOM     36  C   UNL A   1      40.217  27.540  29.236  1.00  0.00     0.031 A 
ATOM     37  C   UNL A   1      40.611  26.257  28.655  1.00  0.00     0.074 A 
ATOM     38  C   UNL A   1      41.173  28.464  29.519  1.00  0.00     0.049 A 
ATOM     39  N   UNL A   1      41.722  25.676  28.950  1.00  0.00    -0.248 NA
ATOM     40  C   UNL A   1      39.830  25.552  27.648  1.00  0.00     0.031 C 
ATOM     41  C   UNL A   1      42.589  28.464  29.188  1.00  0.00     0.029 A 
ATOM     42  N   UNL A   1      40.979  29.710  30.139  1.00  0.00    -0.354 N 
ATOM     43  C   UNL A   1      41.956  24.731  27.983  1.00  0.00     0.074 A 
ATOM     44  C   UNL A   1      40.707  24.616  27.259  1.00  0.00     0.031 C 
ATOM     45  C   UNL A   1      43.180  29.482  29.842  1.00  0.00     0.029 A 
ATOM     46  C   UNL A   1      42.195  30.056  30.744  1.00  0.00     0.049 A 
ATOM     47  H   UNL A   1      40.149  30.239  30.146  1.00  0.00     0.167 HD
ATOM     48  C   UNL A   1      43.225  24.261  27.798  1.00  0.00     0.037 A 
ATOM     49  C   UNL A   1      42.223  30.017  32.110  1.00  0.00     0.037 A 
ATOM     50  C   UNL A   1      44.193  24.968  28.644  1.00  0.00     0.049 A 
ATOM     51  C   UNL A   1      43.022  28.845  32.643  1.00  0.00     0.074 A 
ATOM     52  C   UNL A   1      45.138  25.958  28.422  1.00  0.00     0.029 A 
ATOM     53  N   UNL A   1      44.042  24.910  30.016  1.00  0.00    -0.354 N 
ATOM     54  N   UNL A   1      43.717  28.023  31.904  1.00  0.00    -0.248 NA
ATOM     55  C   UNL A   1      43.024  28.456  34.051  1.00  0.00     0.031 C 
ATOM     56  C   UNL A   1      45.544  26.487  29.687  1.00  0.00     0.029 A 
ATOM     57  C   UNL A   1      44.858  25.808  30.676  1.00  0.00     0.049 A 
ATOM     58  H   UNL A   1      43.422  24.297  30.473  1.00  0.00     0.167 HD
ATOM     59  C   UNL A   1      44.144  26.971  32.662  1.00  0.00     0.074 A 
ATOM     60  C   UNL A   1      43.712  27.303  34.009  1.00  0.00     0.031 C 
ATOM     61  C   UNL A   1      44.767  25.878  32.129  1.00  0.00     0.037 A 
BRANCH  48  62
ATOM     62  C   UNL A   1      43.610  23.310  26.693  1.00  0.00     0.064 A 
ATOM     63  C   UNL A   1      43.291  21.937  26.755  1.00  0.00     0.173 A 
ATOM     64  C   UNL A   1      44.278  23.712  25.519  1.00  0.00     0.173 A 
ATOM     65  F   UNL A   1      42.579  21.428  27.768  1.00  0.00    -0.203 F 
ATOM     66  C   UNL A   1      43.693  21.028  25.773  1.00  0.00     0.198 A 
ATOM     67  C   UNL A   1      44.727  22.795  24.561  1.00  0.00     0.198 A 
ATOM     68  F   UNL A   1      44.479  25.009  25.246  1.00  0.00    -0.203 F 
ATOM     69  F   UNL A   1      43.359  19.736  25.886  1.00  0.00    -0.200 F 
ATOM     70  C   UNL A   1      44.440  21.452  24.692  1.00  0.00     0.200 A 
ATOM     71  F   UNL A   1      45.436  23.227  23.508  1.00  0.00    -0.200 F 
ATOM     72  F   UNL A   1      44.861  20.574  23.773  1.00  0.00    -0.200 F 
ENDBRANCH  48  62
BRANCH  49  73
ATOM     73  C   UNL A   1      40.936  30.542  32.681  1.00  0.00     0.064 A 
ATOM     74  C   UNL A   1      40.653  31.914  32.505  1.00  0.00     0.173 A 
ATOM     75  C   UNL A   1      39.847  29.694  32.944  1.00  0.00     0.173 A 
ATOM     76  F   UNL A   1      41.648  32.771  32.223  1.00  0.00    -0.203 F 
ATOM     77  C   UNL A   1      39.342  32.391  32.476  1.00  0.00     0.198 A 
ATOM     78  C   UNL A   1      38.536  30.179  32.923  1.00  0.00     0.198 A 
ATOM     79  F   UNL A   1      40.036  28.375  33.092  1.00  0.00    -0.203 F 
ATOM     80  F   UNL A   1      39.106  33.680  32.188  1.00  0.00    -0.200 F 
ATOM     81  C   UNL A   1      38.284  31.518  32.658  1.00  0.00     0.200 A 
ATOM     82  F   UNL A   1      37.510  29.331  33.080  1.00  0.00    -0.200 F 
ATOM     83  F   UNL A   1      37.023  31.958  32.542  1.00  0.00    -0.200 F 
ENDBRANCH  49  73
BRANCH  61  84
ATOM     84  C   UNL A   1      45.302  24.747  32.965  1.00  0.00     0.064 A 
ATOM     85  C   UNL A   1      44.497  23.663  33.350  1.00  0.00     0.173 A 
ATOM     86  C   UNL A   1      46.609  24.760  33.506  1.00  0.00     0.173 A 
ATOM     87  F   UNL A   1      43.207  23.601  32.986  1.00  0.00    -0.203 F 
ATOM     88  C   UNL A   1      44.990  22.624  34.141  1.00  0.00     0.198 A 
ATOM     89  C   UNL A   1      47.078  23.753  34.345  1.00  0.00     0.198 A 
ATOM     90  F   UNL A   1      47.487  25.731  33.222  1.00  0.00    -0.203 F 
ATOM     91  F   UNL A   1      44.206  21.574  34.420  1.00  0.00    -0.200 F 
ATOM     92  C   UNL A   1      46.277  22.673  34.643  1.00  0.00     0.200 A 
ATOM     93  F   UNL A   1      48.316  23.840  34.852  1.00  0.00    -0.200 F 
ATOM     94  F   UNL A   1      46.745  21.683  35.414  1.00  0.00    -0.200 F 
ENDBRANCH  61  84
ENDBRANCH  35  36
ENDBRANCH  27  30
ENDBRANCH  25  26
ENDBRANCH  24  25
ENDBRANCH   1  24
TORSDOF 15
ENDMDL
MODEL 3
REMARK VINA RESULT:     -12.8      3.280      9.556
REMARK SMILES Cc1ccccc1[C@@H](CC(=O)NCCCCNC(=O)c1ccc(-c2c3nc(c(-c4c(F)c(F)c(F)c(F)c4F)c4ccc([nH]4)c(-c4c(F)c(F)c(F)c(F)c4F)c4nc(c(-c5c(F)c(F)c(F)c(F)c5F)c5ccc2[nH]5)C=C4)C=C3)cc1)NC(=O)C(F)(F)F
REMARK SMILES IDX 14 1 13 2 12 3 10 4 11 5 9 7 8 8 7 9 1 10 2 11 3 12 4 13
REMARK SMILES IDX 6 14 5 15 83 16 84 17 85 19 86 20 87 21 88 22 89 23 15 24
REMARK SMILES IDX 16 25 17 26 18 27 19 29 20 30 21 31 82 32 22 33 81 34 23 35
REMARK SMILES IDX 24 36 25 37 75 38 26 39 80 40 74 41 76 42 27 43 79 44 73 45
REMARK SMILES IDX 72 46 28 48 60 49 40 50 59 51 41 52 44 53 58 54 77 55 42 56
REMARK SMILES IDX 43 57 57 59 78 60 45 61 29 62 30 63 38 64 31 65 32 66 36 67
REMARK SMILES IDX 39 68 33 69 34 70 37 71 35 72 61 73 62 74 70 75 63 76 64 77
REMARK SMILES IDX 68 78 71 79 65 80 66 81 69 82 67 83 46 84 47 85 55 86 48 87
REMARK SMILES IDX 49 88 53 89 56 90 50 91 51 92 54 93 52 94
REMARK H PARENT 12 6 83 18 17 28 76 47 44 58
REMARK Flexibility Score: inf
ROOT
ATOM      1  C   UNL A   1      36.058  21.827  24.264  1.00  0.00     0.023 C 
ENDROOT
BRANCH   1   2
ATOM      2  C   UNL A   1      34.547  22.120  24.249  1.00  0.00     0.116 C 
BRANCH   2   3
ATOM      3  N   UNL A   1      34.198  22.988  23.132  1.00  0.00    -0.356 N 
ATOM      4  C   UNL A   1      33.851  24.304  23.073  1.00  0.00     0.222 C 
ATOM      5  O   UNL A   1      33.398  24.714  21.999  1.00  0.00    -0.275 OA
ATOM      6  H   UNL A   1      34.217  22.541  22.256  1.00  0.00     0.163 HD
BRANCH   4   7
ATOM      7  C   UNL A   1      34.033  25.262  24.234  1.00  0.00     0.129 C 
BRANCH   7   8
ATOM      8  C   UNL A   1      32.865  25.409  25.241  1.00  0.00     0.122 C 
BRANCH   8   9
ATOM      9  C   UNL A   1      32.700  26.874  25.648  1.00  0.00    -0.022 A 
ATOM     10  C   UNL A   1      30.446  27.206  24.432  1.00  0.00     0.045 C 
ATOM     11  C   UNL A   1      31.696  27.711  25.107  1.00  0.00    -0.046 A 
ATOM     12  C   UNL A   1      31.782  29.105  25.292  1.00  0.00     0.004 A 
ATOM     13  C   UNL A   1      32.807  29.673  26.040  1.00  0.00     0.000 A 
ATOM     14  C   UNL A   1      33.648  27.462  26.500  1.00  0.00     0.006 A 
ATOM     15  C   UNL A   1      33.712  28.846  26.684  1.00  0.00     0.000 A 
ENDBRANCH   8   9
BRANCH   8  16
ATOM     16  N   UNL A   1      32.939  24.510  26.387  1.00  0.00    -0.341 N 
ATOM     17  C   UNL A   1      31.955  23.662  26.851  1.00  0.00     0.326 C 
ATOM     18  H   UNL A   1      33.787  24.507  26.885  1.00  0.00     0.164 HD
ATOM     19  O   UNL A   1      32.183  23.068  27.910  1.00  0.00    -0.265 OA
BRANCH  17  20
ATOM     20  C   UNL A   1      30.651  23.478  26.040  1.00  0.00     0.471 C 
ATOM     21  F   UNL A   1      29.914  22.415  26.468  1.00  0.00    -0.162 F 
ATOM     22  F   UNL A   1      29.832  24.566  26.139  1.00  0.00    -0.162 F 
ATOM     23  F   UNL A   1      30.866  23.285  24.710  1.00  0.00    -0.162 F 
ENDBRANCH  17  20
ENDBRANCH   8  16
ENDBRANCH   7   8
ENDBRANCH   4   7
ENDBRANCH   2   3
ENDBRANCH   1   2
BRANCH   1  24
ATOM     24  C   UNL A   1      37.061  22.967  24.475  1.00  0.00     0.023 C 
BRANCH  24  25
ATOM     25  C   UNL A   1      37.368  23.379  25.915  1.00  0.00     0.116 C 
BRANCH  25  26
ATOM     26  N   UNL A   1      38.520  22.701  26.540  1.00  0.00    -0.352 N 
ATOM     27  C   UNL A   1      39.773  23.216  26.865  1.00  0.00     0.251 C 
ATOM     28  H   UNL A   1      38.384  21.750  26.758  1.00  0.00     0.163 HD
ATOM     29  O   UNL A   1      40.747  22.480  27.006  1.00  0.00    -0.269 OA
BRANCH  27  30
ATOM     30  C   UNL A   1      39.908  24.669  27.080  1.00  0.00     0.039 A 
ATOM     31  C   UNL A   1      40.405  25.597  26.153  1.00  0.00     0.014 A 
ATOM     32  C   UNL A   1      39.503  25.102  28.323  1.00  0.00     0.014 A 
ATOM     33  C   UNL A   1      40.432  26.958  26.503  1.00  0.00     0.010 A 
ATOM     34  C   UNL A   1      39.173  26.406  28.503  1.00  0.00     0.010 A 
ATOM     35  C   UNL A   1      39.806  27.345  27.690  1.00  0.00    -0.014 A 
BRANCH  35  36
ATOM     36  C   UNL A   1      39.996  28.581  28.440  1.00  0.00     0.031 A 
ATOM     37  C   UNL A   1      38.969  29.611  28.595  1.00  0.00     0.074 A 
ATOM     38  C   UNL A   1      40.968  28.464  29.382  1.00  0.00     0.049 A 
ATOM     39  N   UNL A   1      39.215  30.757  29.130  1.00  0.00    -0.248 NA
ATOM     40  C   UNL A   1      37.572  29.422  28.227  1.00  0.00     0.031 C 
ATOM     41  C   UNL A   1      41.094  29.123  30.673  1.00  0.00     0.029 A 
ATOM     42  N   UNL A   1      42.062  27.583  29.354  1.00  0.00    -0.354 N 
ATOM     43  C   UNL A   1      38.007  31.315  29.466  1.00  0.00     0.074 A 
ATOM     44  C   UNL A   1      37.015  30.503  28.792  1.00  0.00     0.031 C 
ATOM     45  C   UNL A   1      42.314  28.853  31.173  1.00  0.00     0.029 A 
ATOM     46  C   UNL A   1      43.068  28.159  30.141  1.00  0.00     0.049 A 
ATOM     47  H   UNL A   1      42.112  26.724  28.875  1.00  0.00     0.167 HD
ATOM     48  C   UNL A   1      37.965  32.308  30.404  1.00  0.00     0.037 A 
ATOM     49  C   UNL A   1      44.161  28.636  29.472  1.00  0.00     0.037 A 
ATOM     50  C   UNL A   1      39.284  32.544  31.001  1.00  0.00     0.049 A 
ATOM     51  C   UNL A   1      44.205  30.150  29.436  1.00  0.00     0.074 A 
ATOM     52  C   UNL A   1      39.881  32.211  32.207  1.00  0.00     0.029 A 
ATOM     53  N   UNL A   1      40.323  32.942  30.180  1.00  0.00    -0.354 N 
ATOM     54  N   UNL A   1      43.374  30.933  30.069  1.00  0.00    -0.248 NA
ATOM     55  C   UNL A   1      45.143  30.900  28.603  1.00  0.00     0.031 C 
ATOM     56  C   UNL A   1      41.290  32.417  32.087  1.00  0.00     0.029 A 
ATOM     57  C   UNL A   1      41.548  32.890  30.814  1.00  0.00     0.049 A 
ATOM     58  H   UNL A   1      40.202  33.231  29.247  1.00  0.00     0.167 HD
ATOM     59  C   UNL A   1      43.560  32.224  29.666  1.00  0.00     0.074 A 
ATOM     60  C   UNL A   1      44.702  32.158  28.770  1.00  0.00     0.031 C 
ATOM     61  C   UNL A   1      42.734  33.245  30.046  1.00  0.00     0.037 A 
BRANCH  48  62
ATOM     62  C   UNL A   1      36.685  32.908  30.927  1.00  0.00     0.064 A 
ATOM     63  C   UNL A   1      35.893  33.765  30.134  1.00  0.00     0.173 A 
ATOM     64  C   UNL A   1      36.170  32.644  32.212  1.00  0.00     0.173 A 
ATOM     65  F   UNL A   1      36.210  34.034  28.861  1.00  0.00    -0.203 F 
ATOM     66  C   UNL A   1      34.737  34.382  30.621  1.00  0.00     0.198 A 
ATOM     67  C   UNL A   1      35.043  33.301  32.718  1.00  0.00     0.198 A 
ATOM     68  F   UNL A   1      36.721  31.710  33.000  1.00  0.00    -0.203 F 
ATOM     69  F   UNL A   1      34.025  35.185  29.818  1.00  0.00    -0.200 F 
ATOM     70  C   UNL A   1      34.330  34.176  31.923  1.00  0.00     0.200 A 
ATOM     71  F   UNL A   1      34.651  33.075  33.980  1.00  0.00    -0.200 F 
ATOM     72  F   UNL A   1      33.246  34.800  32.402  1.00  0.00    -0.200 F 
ENDBRANCH  48  62
BRANCH  49  73
ATOM     73  C   UNL A   1      44.538  27.714  28.349  1.00  0.00     0.064 A 
ATOM     74  C   UNL A   1      45.070  26.450  28.689  1.00  0.00     0.173 A 
ATOM     75  C   UNL A   1      43.978  27.846  27.068  1.00  0.00     0.173 A 
ATOM     76  F   UNL A   1      45.593  26.252  29.910  1.00  0.00    -0.203 F 
ATOM     77  C   UNL A   1      44.940  25.350  27.839  1.00  0.00     0.198 A 
ATOM     78  C   UNL A   1      43.859  26.743  26.216  1.00  0.00     0.198 A 
ATOM     79  F   UNL A   1      43.428  29.008  26.686  1.00  0.00    -0.203 F 
ATOM     80  F   UNL A   1      45.351  24.140  28.246  1.00  0.00    -0.200 F 
ATOM     81  C   UNL A   1      44.311  25.492  26.615  1.00  0.00     0.200 A 
ATOM     82  F   UNL A   1      43.233  26.876  25.038  1.00  0.00    -0.200 F 
ATOM     83  F   UNL A   1      44.107  24.421  25.837  1.00  0.00    -0.200 F 
ENDBRANCH  49  73
BRANCH  61  84
ATOM     84  C   UNL A   1      42.972  34.681  29.662  1.00  0.00     0.064 A 
ATOM     85  C   UNL A   1      42.893  35.116  28.330  1.00  0.00     0.173 A 
ATOM     86  C   UNL A   1      43.397  35.652  30.598  1.00  0.00     0.173 A 
ATOM     87  F   UNL A   1      42.605  34.256  27.341  1.00  0.00    -0.203 F 
ATOM     88  C   UNL A   1      43.132  36.444  27.974  1.00  0.00     0.198 A 
ATOM     89  C   UNL A   1      43.695  36.961  30.231  1.00  0.00     0.198 A 
ATOM     90  F   UNL A   1      43.515  35.377  31.904  1.00  0.00    -0.203 F 
ATOM     91  F   UNL A   1      42.971  36.829  26.700  1.00  0.00    -0.200 F 
ATOM     92  C   UNL A   1      43.539  37.364  28.923  1.00  0.00     0.200 A 
ATOM     93  F   UNL A   1      44.124  37.826  31.160  1.00  0.00    -0.200 F 
ATOM     94  F   UNL A   1      43.782  38.636  28.578  1.00  0.00    -0.200 F 
ENDBRANCH  61  84
ENDBRANCH  35  36
ENDBRANCH  27  30
ENDBRANCH  25  26
ENDBRANCH  24  25
ENDBRANCH   1  24
TORSDOF 15
ENDMDL
