MODEL 1
REMARK VINA RESULT:     -13.6      0.000      0.000
REMARK SMILES Cc1ccc(C(=O)NCCCCNC(=O)c2ccc(-c3c4nc(c(-c5c(F)c(F)c(F)c(F)c5F)c5ccc([nH]5)c(-c5c(F)c(F)c(F)c(F)c5F)c5nc(c(-c6c(F)c(F)c(F)c(F)c6F)c6ccc3[nH]6)C=C5)C=C4)cc2)cc1O[C@@H](C)C(=O)N[C@@H]1CCS(=O)(=O)C1
REMARK SMILES IDX 9 1 8 2 6 3 7 4 5 6 1 7 2 8 3 9 80 10 4 11 79 12 81 13 82 14
REMARK SMILES IDX 83 15 84 16 85 17 86 18 87 20 88 21 93 22 89 23 90 24 91 25
REMARK SMILES IDX 92 26 10 27 11 28 12 29 13 30 14 31 15 33 16 34 17 35 78 36
REMARK SMILES IDX 18 37 77 38 19 39 20 40 21 41 71 42 22 43 76 44 70 45 72 46
REMARK SMILES IDX 23 47 75 48 69 49 68 50 24 52 56 53 36 54 55 55 37 56 40 57
REMARK SMILES IDX 54 58 73 59 38 60 39 61 53 63 74 64 41 65 25 66 26 67 34 68
REMARK SMILES IDX 27 69 28 70 32 71 35 72 29 73 30 74 33 75 31 76 57 77 58 78
REMARK SMILES IDX 66 79 59 80 60 81 64 82 67 83 61 84 62 85 65 86 63 87 42 88
REMARK SMILES IDX 43 89 51 90 44 91 45 92 49 93 52 94 46 95 47 96 50 97 48 98
REMARK H PARENT 8 5 86 19 13 32 72 51 40 62
REMARK Flexibility Score: inf
ROOT
ATOM      1  C   UNL A   1      34.979  19.791  25.001  1.00  0.00     0.116 C 
ENDROOT
BRANCH   1   2
ATOM      2  N   UNL A   1      34.079  20.508  25.891  1.00  0.00    -0.352 N 
ATOM      3  C   UNL A   1      33.333  21.662  25.774  1.00  0.00     0.251 C 
ATOM      4  O   UNL A   1      32.619  21.959  26.734  1.00  0.00    -0.269 OA
ATOM      5  H   UNL A   1      33.979  20.074  26.769  1.00  0.00     0.163 HD
BRANCH   3   6
ATOM      6  C   UNL A   1      33.397  22.622  24.623  1.00  0.00     0.043 A 
ATOM      7  C   UNL A   1      32.903  25.391  21.297  1.00  0.00     0.048 C 
ATOM      8  C   UNL A   1      33.090  24.486  22.480  1.00  0.00    -0.009 A 
ATOM      9  C   UNL A   1      32.539  23.192  22.413  1.00  0.00     0.008 A 
ATOM     10  C   UNL A   1      33.778  24.836  23.642  1.00  0.00     0.124 A 
ATOM     11  C   UNL A   1      32.646  22.297  23.485  1.00  0.00     0.014 A 
ATOM     12  C   UNL A   1      34.048  23.854  24.628  1.00  0.00     0.060 A 
BRANCH  10  13
ATOM     13  O   UNL A   1      34.213  26.062  24.022  1.00  0.00    -0.481 OA
BRANCH  13  14
ATOM     14  C   UNL A   1      33.467  27.262  24.104  1.00  0.00     0.258 C 
ATOM     15  C   UNL A   1      33.650  27.730  25.565  1.00  0.00     0.064 C 
BRANCH  14  16
ATOM     16  C   UNL A   1      33.110  28.537  23.199  1.00  0.00     0.261 C 
ATOM     17  O   UNL A   1      33.935  28.960  22.376  1.00  0.00    -0.271 OA
ATOM     18  N   UNL A   1      32.001  29.318  23.321  1.00  0.00    -0.349 N 
ATOM     19  H   UNL A   1      32.047  30.179  22.845  1.00  0.00     0.163 HD
BRANCH  18  20
ATOM     20  C   UNL A   1      30.766  29.085  24.036  1.00  0.00     0.098 C 
ATOM     21  C   UNL A   1      30.093  27.733  23.727  1.00  0.00     0.042 C 
ATOM     22  C   UNL A   1      29.767  30.205  23.851  1.00  0.00     0.161 C 
ATOM     23  C   UNL A   1      28.712  27.945  23.126  1.00  0.00     0.139 C 
ATOM     24  S   UNL A   1      28.583  29.645  22.688  1.00  0.00     0.152 S 
ATOM     25  O   UNL A   1      29.116  29.848  21.353  1.00  0.00    -0.229 OA
ATOM     26  O   UNL A   1      27.279  30.109  23.085  1.00  0.00    -0.229 OA
ENDBRANCH  18  20
ENDBRANCH  14  16
ENDBRANCH  13  14
ENDBRANCH  10  13
ENDBRANCH   3   6
ENDBRANCH   1   2
BRANCH   1  27
ATOM     27  C   UNL A   1      36.430  20.289  24.978  1.00  0.00     0.023 C 
BRANCH  27  28
ATOM     28  C   UNL A   1      36.782  21.548  25.751  1.00  0.00     0.023 C 
BRANCH  28  29
ATOM     29  C   UNL A   1      38.117  22.151  25.389  1.00  0.00     0.116 C 
BRANCH  29  30
ATOM     30  N   UNL A   1      39.171  21.966  26.374  1.00  0.00    -0.352 N 
ATOM     31  C   UNL A   1      39.962  22.909  27.012  1.00  0.00     0.251 C 
ATOM     32  H   UNL A   1      39.349  21.032  26.626  1.00  0.00     0.163 HD
ATOM     33  O   UNL A   1      40.928  22.533  27.671  1.00  0.00    -0.269 OA
BRANCH  31  34
ATOM     34  C   UNL A   1      39.540  24.336  27.083  1.00  0.00     0.039 A 
ATOM     35  C   UNL A   1      40.190  25.234  26.222  1.00  0.00     0.014 A 
ATOM     36  C   UNL A   1      38.908  24.822  28.213  1.00  0.00     0.014 A 
ATOM     37  C   UNL A   1      40.494  26.506  26.678  1.00  0.00     0.010 A 
ATOM     38  C   UNL A   1      39.412  25.956  28.774  1.00  0.00     0.010 A 
ATOM     39  C   UNL A   1      40.247  26.772  28.013  1.00  0.00    -0.014 A 
BRANCH  39  40
ATOM     40  C   UNL A   1      40.635  27.960  28.729  1.00  0.00     0.031 A 
ATOM     41  C   UNL A   1      39.680  29.075  28.649  1.00  0.00     0.074 A 
ATOM     42  C   UNL A   1      41.599  27.810  29.663  1.00  0.00     0.049 A 
ATOM     43  N   UNL A   1      39.868  30.226  29.172  1.00  0.00    -0.248 NA
ATOM     44  C   UNL A   1      38.402  28.979  27.931  1.00  0.00     0.031 C 
ATOM     45  C   UNL A   1      41.871  28.620  30.844  1.00  0.00     0.029 A 
ATOM     46  N   UNL A   1      42.696  26.933  29.597  1.00  0.00    -0.354 N 
ATOM     47  C   UNL A   1      38.654  30.876  29.170  1.00  0.00     0.074 A 
ATOM     48  C   UNL A   1      37.822  30.134  28.266  1.00  0.00     0.031 C 
ATOM     49  C   UNL A   1      43.163  28.462  31.188  1.00  0.00     0.029 A 
ATOM     50  C   UNL A   1      43.779  27.672  30.133  1.00  0.00     0.049 A 
ATOM     51  H   UNL A   1      42.708  26.009  29.255  1.00  0.00     0.167 HD
ATOM     52  C   UNL A   1      38.484  31.872  30.081  1.00  0.00     0.037 A 
ATOM     53  C   UNL A   1      44.760  28.131  29.295  1.00  0.00     0.037 A 
ATOM     54  C   UNL A   1      39.782  32.198  30.675  1.00  0.00     0.049 A 
ATOM     55  C   UNL A   1      44.786  29.642  29.245  1.00  0.00     0.074 A 
ATOM     56  C   UNL A   1      40.380  31.844  31.871  1.00  0.00     0.029 A 
ATOM     57  N   UNL A   1      40.800  32.640  29.832  1.00  0.00    -0.354 N 
ATOM     58  N   UNL A   1      43.733  30.399  29.415  1.00  0.00    -0.248 NA
ATOM     59  C   UNL A   1      46.015  30.409  29.085  1.00  0.00     0.031 C 
ATOM     60  C   UNL A   1      41.790  31.952  31.686  1.00  0.00     0.029 A 
ATOM     61  C   UNL A   1      42.036  32.410  30.400  1.00  0.00     0.049 A 
ATOM     62  H   UNL A   1      40.656  33.060  28.953  1.00  0.00     0.167 HD
ATOM     63  C   UNL A   1      44.123  31.712  29.446  1.00  0.00     0.074 A 
ATOM     64  C   UNL A   1      45.558  31.665  29.223  1.00  0.00     0.031 C 
ATOM     65  C   UNL A   1      43.259  32.745  29.681  1.00  0.00     0.037 A 
BRANCH  52  66
ATOM     66  C   UNL A   1      37.170  32.405  30.607  1.00  0.00     0.064 A 
ATOM     67  C   UNL A   1      36.377  33.224  29.772  1.00  0.00     0.173 A 
ATOM     68  C   UNL A   1      36.681  32.267  31.924  1.00  0.00     0.173 A 
ATOM     69  F   UNL A   1      36.715  33.445  28.494  1.00  0.00    -0.203 F 
ATOM     70  C   UNL A   1      35.220  33.867  30.224  1.00  0.00     0.198 A 
ATOM     71  C   UNL A   1      35.502  32.878  32.362  1.00  0.00     0.198 A 
ATOM     72  F   UNL A   1      37.335  31.581  32.864  1.00  0.00    -0.203 F 
ATOM     73  F   UNL A   1      34.542  34.674  29.396  1.00  0.00    -0.200 F 
ATOM     74  C   UNL A   1      34.778  33.688  31.518  1.00  0.00     0.200 A 
ATOM     75  F   UNL A   1      35.091  32.692  33.626  1.00  0.00    -0.200 F 
ATOM     76  F   UNL A   1      33.669  34.304  31.952  1.00  0.00    -0.200 F 
ENDBRANCH  52  66
BRANCH  53  77
ATOM     77  C   UNL A   1      44.975  27.195  28.145  1.00  0.00     0.064 A 
ATOM     78  C   UNL A   1      45.451  25.903  28.467  1.00  0.00     0.173 A 
ATOM     79  C   UNL A   1      44.278  27.339  26.940  1.00  0.00     0.173 A 
ATOM     80  F   UNL A   1      46.161  25.715  29.591  1.00  0.00    -0.203 F 
ATOM     81  C   UNL A   1      45.037  24.783  27.751  1.00  0.00     0.198 A 
ATOM     82  C   UNL A   1      43.920  26.214  26.190  1.00  0.00     0.198 A 
ATOM     83  F   UNL A   1      43.823  28.540  26.555  1.00  0.00    -0.203 F 
ATOM     84  F   UNL A   1      45.327  23.555  28.207  1.00  0.00    -0.200 F 
ATOM     85  C   UNL A   1      44.237  24.937  26.634  1.00  0.00     0.200 A 
ATOM     86  F   UNL A   1      43.163  26.357  25.091  1.00  0.00    -0.200 F 
ATOM     87  F   UNL A   1      43.731  23.861  26.015  1.00  0.00    -0.200 F 
ENDBRANCH  53  77
BRANCH  65  88
ATOM     88  C   UNL A   1      43.534  34.196  29.350  1.00  0.00     0.064 A 
ATOM     89  C   UNL A   1      43.603  34.695  28.039  1.00  0.00     0.173 A 
ATOM     90  C   UNL A   1      43.584  35.177  30.372  1.00  0.00     0.173 A 
ATOM     91  F   UNL A   1      43.402  33.907  26.976  1.00  0.00    -0.203 F 
ATOM     92  C   UNL A   1      43.818  36.049  27.772  1.00  0.00     0.198 A 
ATOM     93  C   UNL A   1      43.716  36.537  30.098  1.00  0.00     0.198 A 
ATOM     94  F   UNL A   1      43.474  34.857  31.669  1.00  0.00    -0.203 F 
ATOM     95  F   UNL A   1      43.951  36.458  26.503  1.00  0.00    -0.200 F 
ATOM     96  C   UNL A   1      43.865  36.970  28.800  1.00  0.00     0.200 A 
ATOM     97  F   UNL A   1      43.676  37.423  31.104  1.00  0.00    -0.200 F 
ATOM     98  F   UNL A   1      44.026  38.273  28.537  1.00  0.00    -0.200 F 
ENDBRANCH  65  88
ENDBRANCH  39  40
ENDBRANCH  31  34
ENDBRANCH  29  30
ENDBRANCH  28  29
ENDBRANCH  27  28
ENDBRANCH   1  27
TORSDOF 15
ENDMDL
MODEL 2
REMARK VINA RESULT:     -13.5      3.969      9.354
REMARK SMILES Cc1ccc(C(=O)NCCCCNC(=O)c2ccc(-c3c4nc(c(-c5c(F)c(F)c(F)c(F)c5F)c5ccc([nH]5)c(-c5c(F)c(F)c(F)c(F)c5F)c5nc(c(-c6c(F)c(F)c(F)c(F)c6F)c6ccc3[nH]6)C=C5)C=C4)cc2)cc1O[C@@H](C)C(=O)N[C@@H]1CCS(=O)(=O)C1
REMARK SMILES IDX 9 1 8 2 6 3 7 4 5 6 1 7 2 8 3 9 80 10 4 11 79 12 81 13 82 14
REMARK SMILES IDX 83 15 84 16 85 17 86 18 87 20 88 21 93 22 89 23 90 24 91 25
REMARK SMILES IDX 92 26 10 27 11 28 12 29 13 30 14 31 15 33 16 34 17 35 78 36
REMARK SMILES IDX 18 37 77 38 19 39 20 40 21 41 71 42 22 43 76 44 70 45 72 46
REMARK SMILES IDX 23 47 75 48 69 49 68 50 24 52 56 53 36 54 55 55 37 56 40 57
REMARK SMILES IDX 54 58 73 59 38 60 39 61 53 63 74 64 41 65 25 66 26 67 34 68
REMARK SMILES IDX 27 69 28 70 32 71 35 72 29 73 30 74 33 75 31 76 57 77 58 78
REMARK SMILES IDX 66 79 59 80 60 81 64 82 67 83 61 84 62 85 65 86 63 87 42 88
REMARK SMILES IDX 43 89 51 90 44 91 45 92 49 93 52 94 46 95 47 96 50 97 48 98
REMARK H PARENT 8 5 86 19 13 32 72 51 40 62
REMARK Flexibility Score: inf
ROOT
ATOM      1  C   UNL A   1      35.038  30.516  27.746  1.00  0.00     0.116 C 
ENDROOT
BRANCH   1   2
ATOM      2  N   UNL A   1      33.815  30.870  27.041  1.00  0.00    -0.352 N 
ATOM      3  C   UNL A   1      32.762  30.145  26.527  1.00  0.00     0.251 C 
ATOM      4  O   UNL A   1      31.839  30.791  26.024  1.00  0.00    -0.269 OA
ATOM      5  H   UNL A   1      33.720  31.840  26.901  1.00  0.00     0.163 HD
BRANCH   3   6
ATOM      6  C   UNL A   1      32.696  28.649  26.446  1.00  0.00     0.043 A 
ATOM      7  C   UNL A   1      31.882  24.397  25.958  1.00  0.00     0.048 C 
ATOM      8  C   UNL A   1      32.201  25.860  26.076  1.00  0.00    -0.009 A 
ATOM      9  C   UNL A   1      31.358  26.655  26.875  1.00  0.00     0.008 A 
ATOM     10  C   UNL A   1      33.281  26.485  25.453  1.00  0.00     0.124 A 
ATOM     11  C   UNL A   1      31.572  28.033  27.014  1.00  0.00     0.014 A 
ATOM     12  C   UNL A   1      33.596  27.831  25.765  1.00  0.00     0.060 A 
BRANCH  10  13
ATOM     13  O   UNL A   1      34.098  25.988  24.493  1.00  0.00    -0.481 OA
BRANCH  13  14
ATOM     14  C   UNL A   1      33.772  25.671  23.153  1.00  0.00     0.258 C 
ATOM     15  C   UNL A   1      33.598  24.137  23.151  1.00  0.00     0.064 C 
BRANCH  14  16
ATOM     16  C   UNL A   1      32.939  26.283  21.926  1.00  0.00     0.261 C 
ATOM     17  O   UNL A   1      33.268  26.013  20.762  1.00  0.00    -0.271 OA
ATOM     18  N   UNL A   1      31.939  27.204  22.019  1.00  0.00    -0.349 N 
ATOM     19  H   UNL A   1      31.693  27.634  21.168  1.00  0.00     0.163 HD
BRANCH  18  20
ATOM     20  C   UNL A   1      31.182  27.650  23.166  1.00  0.00     0.098 C 
ATOM     21  C   UNL A   1      29.761  27.062  23.263  1.00  0.00     0.042 C 
ATOM     22  C   UNL A   1      31.118  29.157  23.271  1.00  0.00     0.161 C 
ATOM     23  C   UNL A   1      28.717  28.168  23.212  1.00  0.00     0.139 C 
ATOM     24  S   UNL A   1      29.534  29.641  22.701  1.00  0.00     0.152 S 
ATOM     25  O   UNL A   1      29.566  29.704  21.251  1.00  0.00    -0.229 OA
ATOM     26  O   UNL A   1      29.052  30.723  23.517  1.00  0.00    -0.229 OA
ENDBRANCH  18  20
ENDBRANCH  14  16
ENDBRANCH  13  14
ENDBRANCH  10  13
ENDBRANCH   3   6
ENDBRANCH   1   2
BRANCH   1  27
ATOM     27  C   UNL A   1      36.046  31.655  27.946  1.00  0.00     0.023 C 
BRANCH  27  28
ATOM     28  C   UNL A   1      35.697  32.780  28.904  1.00  0.00     0.023 C 
BRANCH  28  29
ATOM     29  C   UNL A   1      34.781  32.376  30.034  1.00  0.00     0.116 C 
BRANCH  29  30
ATOM     30  N   UNL A   1      33.995  33.454  30.613  1.00  0.00    -0.352 N 
ATOM     31  C   UNL A   1      34.150  34.112  31.823  1.00  0.00     0.251 C 
ATOM     32  H   UNL A   1      33.239  33.762  30.063  1.00  0.00     0.163 HD
ATOM     33  O   UNL A   1      33.263  34.866  32.213  1.00  0.00    -0.269 OA
BRANCH  31  34
ATOM     34  C   UNL A   1      35.454  34.082  32.545  1.00  0.00     0.039 A 
ATOM     35  C   UNL A   1      36.520  34.782  31.958  1.00  0.00     0.014 A 
ATOM     36  C   UNL A   1      35.725  33.078  33.456  1.00  0.00     0.014 A 
ATOM     37  C   UNL A   1      37.795  34.242  32.017  1.00  0.00     0.010 A 
ATOM     38  C   UNL A   1      36.898  32.402  33.312  1.00  0.00     0.010 A 
ATOM     39  C   UNL A   1      37.916  32.971  32.547  1.00  0.00    -0.014 A 
BRANCH  39  40
ATOM     40  C   UNL A   1      39.108  32.163  32.554  1.00  0.00     0.031 A 
ATOM     41  C   UNL A   1      39.021  30.917  31.779  1.00  0.00     0.074 A 
ATOM     42  C   UNL A   1      40.248  32.779  32.935  1.00  0.00     0.049 A 
ATOM     43  N   UNL A   1      39.953  30.045  31.705  1.00  0.00    -0.248 NA
ATOM     44  C   UNL A   1      37.825  30.537  31.015  1.00  0.00     0.031 C 
ATOM     45  C   UNL A   1      41.629  32.446  32.607  1.00  0.00     0.029 A 
ATOM     46  N   UNL A   1      40.367  33.786  33.910  1.00  0.00    -0.354 N 
ATOM     47  C   UNL A   1      39.642  29.206  30.658  1.00  0.00     0.074 A 
ATOM     48  C   UNL A   1      38.260  29.455  30.364  1.00  0.00     0.031 C 
ATOM     49  C   UNL A   1      42.434  32.949  33.562  1.00  0.00     0.029 A 
ATOM     50  C   UNL A   1      41.562  33.474  34.602  1.00  0.00     0.049 A 
ATOM     51  H   UNL A   1      39.756  34.541  34.072  1.00  0.00     0.167 HD
ATOM     52  C   UNL A   1      40.672  28.530  30.081  1.00  0.00     0.037 A 
ATOM     53  C   UNL A   1      41.490  32.974  35.876  1.00  0.00     0.037 A 
ATOM     54  C   UNL A   1      41.859  28.662  30.927  1.00  0.00     0.049 A 
ATOM     55  C   UNL A   1      42.014  31.557  35.948  1.00  0.00     0.074 A 
ATOM     56  C   UNL A   1      42.974  29.479  30.857  1.00  0.00     0.029 A 
ATOM     57  N   UNL A   1      41.793  28.184  32.234  1.00  0.00    -0.354 N 
ATOM     58  N   UNL A   1      41.955  30.704  34.959  1.00  0.00    -0.248 NA
ATOM     59  C   UNL A   1      42.719  31.030  37.110  1.00  0.00     0.031 C 
ATOM     60  C   UNL A   1      43.498  29.592  32.178  1.00  0.00     0.029 A 
ATOM     61  C   UNL A   1      42.729  28.813  33.030  1.00  0.00     0.049 A 
ATOM     62  H   UNL A   1      41.167  27.491  32.546  1.00  0.00     0.167 HD
ATOM     63  C   UNL A   1      42.637  29.566  35.305  1.00  0.00     0.074 A 
ATOM     64  C   UNL A   1      43.084  29.817  36.664  1.00  0.00     0.031 C 
ATOM     65  C   UNL A   1      42.817  28.512  34.453  1.00  0.00     0.037 A 
BRANCH  52  66
ATOM     66  C   UNL A   1      40.703  27.946  28.686  1.00  0.00     0.064 A 
ATOM     67  C   UNL A   1      40.077  26.701  28.449  1.00  0.00     0.173 A 
ATOM     68  C   UNL A   1      41.411  28.464  27.580  1.00  0.00     0.173 A 
ATOM     69  F   UNL A   1      39.367  26.089  29.406  1.00  0.00    -0.203 F 
ATOM     70  C   UNL A   1      40.175  26.028  27.227  1.00  0.00     0.198 A 
ATOM     71  C   UNL A   1      41.474  27.808  26.346  1.00  0.00     0.198 A 
ATOM     72  F   UNL A   1      42.113  29.598  27.644  1.00  0.00    -0.203 F 
ATOM     73  F   UNL A   1      39.603  24.825  27.083  1.00  0.00    -0.200 F 
ATOM     74  C   UNL A   1      40.869  26.585  26.172  1.00  0.00     0.200 A 
ATOM     75  F   UNL A   1      42.156  28.367  25.334  1.00  0.00    -0.200 F 
ATOM     76  F   UNL A   1      40.965  25.940  25.001  1.00  0.00    -0.200 F 
ENDBRANCH  52  66
BRANCH  53  77
ATOM     77  C   UNL A   1      40.309  33.528  36.611  1.00  0.00     0.064 A 
ATOM     78  C   UNL A   1      39.203  32.661  36.769  1.00  0.00     0.173 A 
ATOM     79  C   UNL A   1      40.442  34.570  37.536  1.00  0.00     0.173 A 
ATOM     80  F   UNL A   1      39.003  31.668  35.887  1.00  0.00    -0.203 F 
ATOM     81  C   UNL A   1      38.425  32.686  37.924  1.00  0.00     0.198 A 
ATOM     82  C   UNL A   1      39.615  34.628  38.663  1.00  0.00     0.198 A 
ATOM     83  F   UNL A   1      41.449  35.449  37.433  1.00  0.00    -0.203 F 
ATOM     84  F   UNL A   1      37.525  31.716  38.143  1.00  0.00    -0.200 F 
ATOM     85  C   UNL A   1      38.659  33.646  38.891  1.00  0.00     0.200 A 
ATOM     86  F   UNL A   1      39.820  35.571  39.594  1.00  0.00    -0.200 F 
ATOM     87  F   UNL A   1      38.002  33.601  40.058  1.00  0.00    -0.200 F 
ENDBRANCH  53  77
BRANCH  65  88
ATOM     88  C   UNL A   1      43.203  27.112  34.879  1.00  0.00     0.064 A 
ATOM     89  C   UNL A   1      44.500  26.752  35.282  1.00  0.00     0.173 A 
ATOM     90  C   UNL A   1      42.219  26.106  35.045  1.00  0.00     0.173 A 
ATOM     91  F   UNL A   1      45.492  27.648  35.338  1.00  0.00    -0.203 F 
ATOM     92  C   UNL A   1      44.811  25.459  35.709  1.00  0.00     0.198 A 
ATOM     93  C   UNL A   1      42.518  24.842  35.550  1.00  0.00     0.198 A 
ATOM     94  F   UNL A   1      40.928  26.322  34.756  1.00  0.00    -0.203 F 
ATOM     95  F   UNL A   1      46.080  25.151  36.009  1.00  0.00    -0.200 F 
ATOM     96  C   UNL A   1      43.820  24.508  35.852  1.00  0.00     0.200 A 
ATOM     97  F   UNL A   1      41.531  23.960  35.760  1.00  0.00    -0.200 F 
ATOM     98  F   UNL A   1      44.115  23.283  36.304  1.00  0.00    -0.200 F 
ENDBRANCH  65  88
ENDBRANCH  39  40
ENDBRANCH  31  34
ENDBRANCH  29  30
ENDBRANCH  28  29
ENDBRANCH  27  28
ENDBRANCH   1  27
TORSDOF 15
ENDMDL
MODEL 3
REMARK VINA RESULT:     -13.4      3.581      5.705
REMARK SMILES Cc1ccc(C(=O)NCCCCNC(=O)c2ccc(-c3c4nc(c(-c5c(F)c(F)c(F)c(F)c5F)c5ccc([nH]5)c(-c5c(F)c(F)c(F)c(F)c5F)c5nc(c(-c6c(F)c(F)c(F)c(F)c6F)c6ccc3[nH]6)C=C5)C=C4)cc2)cc1O[C@@H](C)C(=O)N[C@@H]1CCS(=O)(=O)C1
REMARK SMILES IDX 9 1 8 2 6 3 7 4 5 6 1 7 2 8 3 9 80 10 4 11 79 12 81 13 82 14
REMARK SMILES IDX 83 15 84 16 85 17 86 18 87 20 88 21 93 22 89 23 90 24 91 25
REMARK SMILES IDX 92 26 10 27 11 28 12 29 13 30 14 31 15 33 16 34 17 35 78 36
REMARK SMILES IDX 18 37 77 38 19 39 20 40 21 41 71 42 22 43 76 44 70 45 72 46
REMARK SMILES IDX 23 47 75 48 69 49 68 50 24 52 56 53 36 54 55 55 37 56 40 57
REMARK SMILES IDX 54 58 73 59 38 60 39 61 53 63 74 64 41 65 25 66 26 67 34 68
REMARK SMILES IDX 27 69 28 70 32 71 35 72 29 73 30 74 33 75 31 76 57 77 58 78
REMARK SMILES IDX 66 79 59 80 60 81 64 82 67 83 61 84 62 85 65 86 63 87 42 88
REMARK SMILES IDX 43 89 51 90 44 91 45 92 49 93 52 94 46 95 47 96 50 97 48 98
REMARK H PARENT 8 5 86 19 13 32 72 51 40 62
REMARK Flexibility Score: inf
ROOT
ATOM      1  C   UNL A   1      39.363  23.079  26.933  1.00  0.00     0.116 C 
ENDROOT
BRANCH   1   2
ATOM      2  N   UNL A   1      38.889  21.859  26.297  1.00  0.00    -0.352 N 
ATOM      3  C   UNL A   1      37.925  21.585  25.350  1.00  0.00     0.251 C 
ATOM      4  O   UNL A   1      37.821  20.410  24.991  1.00  0.00    -0.269 OA
ATOM      5  H   UNL A   1      39.360  21.054  26.610  1.00  0.00     0.163 HD
BRANCH   3   6
ATOM      6  C   UNL A   1      36.941  22.575  24.802  1.00  0.00     0.043 A 
ATOM      7  C   UNL A   1      33.793  24.917  22.908  1.00  0.00     0.048 C 
ATOM      8  C   UNL A   1      34.848  24.117  23.616  1.00  0.00    -0.009 A 
ATOM      9  C   UNL A   1      35.724  23.342  22.833  1.00  0.00     0.008 A 
ATOM     10  C   UNL A   1      35.024  24.092  25.000  1.00  0.00     0.124 A 
ATOM     11  C   UNL A   1      36.717  22.547  23.419  1.00  0.00     0.014 A 
ATOM     12  C   UNL A   1      36.155  23.443  25.558  1.00  0.00     0.060 A 
BRANCH  10  13
ATOM     13  O   UNL A   1      34.201  24.579  25.959  1.00  0.00    -0.481 OA
BRANCH  13  14
ATOM     14  C   UNL A   1      33.207  23.883  26.687  1.00  0.00     0.258 C 
ATOM     15  C   UNL A   1      31.875  24.506  26.213  1.00  0.00     0.064 C 
BRANCH  14  16
ATOM     16  C   UNL A   1      32.913  22.406  27.239  1.00  0.00     0.261 C 
ATOM     17  O   UNL A   1      32.466  22.254  28.386  1.00  0.00    -0.271 OA
ATOM     18  N   UNL A   1      33.227  21.240  26.609  1.00  0.00    -0.349 N 
ATOM     19  H   UNL A   1      33.185  20.438  27.178  1.00  0.00     0.163 HD
BRANCH  18  20
ATOM     20  C   UNL A   1      33.611  20.992  25.237  1.00  0.00     0.098 C 
ATOM     21  C   UNL A   1      32.480  21.194  24.210  1.00  0.00     0.042 C 
ATOM     22  C   UNL A   1      34.235  19.629  25.046  1.00  0.00     0.161 C 
ATOM     23  C   UNL A   1      32.189  19.898  23.469  1.00  0.00     0.139 C 
ATOM     24  S   UNL A   1      33.009  18.601  24.333  1.00  0.00     0.152 S 
ATOM     25  O   UNL A   1      32.152  18.103  25.394  1.00  0.00    -0.229 OA
ATOM     26  O   UNL A   1      33.625  17.739  23.360  1.00  0.00    -0.229 OA
ENDBRANCH  18  20
ENDBRANCH  14  16
ENDBRANCH  13  14
ENDBRANCH  10  13
ENDBRANCH   3   6
ENDBRANCH   1   2
BRANCH   1  27
ATOM     27  C   UNL A   1      40.866  23.131  27.237  1.00  0.00     0.023 C 
BRANCH  27  28
ATOM     28  C   UNL A   1      41.847  22.822  26.120  1.00  0.00     0.023 C 
BRANCH  28  29
ATOM     29  C   UNL A   1      42.669  21.575  26.338  1.00  0.00     0.116 C 
BRANCH  29  30
ATOM     30  N   UNL A   1      43.422  21.116  25.181  1.00  0.00    -0.352 N 
ATOM     31  C   UNL A   1      44.519  21.686  24.556  1.00  0.00     0.251 C 
ATOM     32  H   UNL A   1      43.104  20.274  24.783  1.00  0.00     0.163 HD
ATOM     33  O   UNL A   1      44.892  21.238  23.474  1.00  0.00    -0.269 OA
BRANCH  31  34
ATOM     34  C   UNL A   1      45.372  22.679  25.267  1.00  0.00     0.039 A 
ATOM     35  C   UNL A   1      45.446  22.566  26.665  1.00  0.00     0.014 A 
ATOM     36  C   UNL A   1      45.684  23.887  24.670  1.00  0.00     0.014 A 
ATOM     37  C   UNL A   1      45.478  23.718  27.434  1.00  0.00     0.010 A 
ATOM     38  C   UNL A   1      45.456  25.019  25.392  1.00  0.00     0.010 A 
ATOM     39  C   UNL A   1      45.306  24.920  26.774  1.00  0.00    -0.014 A 
BRANCH  39  40
ATOM     40  C   UNL A   1      45.143  26.212  27.390  1.00  0.00     0.031 A 
ATOM     41  C   UNL A   1      43.790  26.782  27.293  1.00  0.00     0.074 A 
ATOM     42  C   UNL A   1      46.093  26.579  28.276  1.00  0.00     0.049 A 
ATOM     43  N   UNL A   1      43.460  27.937  27.731  1.00  0.00    -0.248 NA
ATOM     44  C   UNL A   1      42.672  26.075  26.656  1.00  0.00     0.031 C 
ATOM     45  C   UNL A   1      46.005  27.520  29.387  1.00  0.00     0.029 A 
ATOM     46  N   UNL A   1      47.464  26.272  28.204  1.00  0.00    -0.354 N 
ATOM     47  C   UNL A   1      42.084  27.983  27.756  1.00  0.00     0.074 A 
ATOM     48  C   UNL A   1      41.648  26.879  26.949  1.00  0.00     0.031 C 
ATOM     49  C   UNL A   1      47.240  27.975  29.667  1.00  0.00     0.029 A 
ATOM     50  C   UNL A   1      48.118  27.454  28.631  1.00  0.00     0.049 A 
ATOM     51  H   UNL A   1      47.876  25.424  27.922  1.00  0.00     0.167 HD
ATOM     52  C   UNL A   1      41.510  28.874  28.609  1.00  0.00     0.037 A 
ATOM     53  C   UNL A   1      48.775  28.228  27.711  1.00  0.00     0.037 A 
ATOM     54  C   UNL A   1      42.542  29.785  29.108  1.00  0.00     0.049 A 
ATOM     55  C   UNL A   1      48.128  29.586  27.564  1.00  0.00     0.074 A 
ATOM     56  C   UNL A   1      43.262  29.830  30.288  1.00  0.00     0.029 A 
ATOM     57  N   UNL A   1      43.240  30.559  28.183  1.00  0.00    -0.354 N 
ATOM     58  N   UNL A   1      46.852  29.813  27.745  1.00  0.00    -0.248 NA
ATOM     59  C   UNL A   1      48.886  30.801  27.287  1.00  0.00     0.031 C 
ATOM     60  C   UNL A   1      44.473  30.532  30.018  1.00  0.00     0.029 A 
ATOM     61  C   UNL A   1      44.463  30.944  28.694  1.00  0.00     0.049 A 
ATOM     62  H   UNL A   1      42.905  30.800  27.288  1.00  0.00     0.167 HD
ATOM     63  C   UNL A   1      46.620  31.162  27.670  1.00  0.00     0.074 A 
ATOM     64  C   UNL A   1      47.922  31.733  27.371  1.00  0.00     0.031 C 
ATOM     65  C   UNL A   1      45.393  31.724  27.887  1.00  0.00     0.037 A 
BRANCH  52  66
ATOM     66  C   UNL A   1      40.108  28.814  29.174  1.00  0.00     0.064 A 
ATOM     67  C   UNL A   1      39.024  29.222  28.364  1.00  0.00     0.173 A 
ATOM     68  C   UNL A   1      39.757  28.495  30.504  1.00  0.00     0.173 A 
ATOM     69  F   UNL A   1      39.205  29.553  27.078  1.00  0.00    -0.203 F 
ATOM     70  C   UNL A   1      37.717  29.327  28.850  1.00  0.00     0.198 A 
ATOM     71  C   UNL A   1      38.443  28.563  30.977  1.00  0.00     0.198 A 
ATOM     72  F   UNL A   1      40.662  28.152  31.423  1.00  0.00    -0.203 F 
ATOM     73  F   UNL A   1      36.743  29.772  28.045  1.00  0.00    -0.200 F 
ATOM     74  C   UNL A   1      37.425  28.991  30.156  1.00  0.00     0.200 A 
ATOM     75  F   UNL A   1      38.181  28.232  32.251  1.00  0.00    -0.200 F 
ATOM     76  F   UNL A   1      36.173  29.092  30.623  1.00  0.00    -0.200 F 
ENDBRANCH  52  66
BRANCH  53  77
ATOM     77  C   UNL A   1      49.358  27.392  26.613  1.00  0.00     0.064 A 
ATOM     78  C   UNL A   1      48.691  27.438  25.367  1.00  0.00     0.173 A 
ATOM     79  C   UNL A   1      50.710  27.032  26.603  1.00  0.00     0.173 A 
ATOM     80  F   UNL A   1      47.383  27.738  25.321  1.00  0.00    -0.203 F 
ATOM     81  C   UNL A   1      49.397  27.373  24.168  1.00  0.00     0.198 A 
ATOM     82  C   UNL A   1      51.400  26.903  25.393  1.00  0.00     0.198 A 
ATOM     83  F   UNL A   1      51.400  26.939  27.749  1.00  0.00    -0.203 F 
ATOM     84  F   UNL A   1      48.772  27.635  23.011  1.00  0.00    -0.200 F 
ATOM     85  C   UNL A   1      50.761  27.145  24.184  1.00  0.00     0.200 A 
ATOM     86  F   UNL A   1      52.720  26.660  25.400  1.00  0.00    -0.200 F 
ATOM     87  F   UNL A   1      51.467  27.206  23.047  1.00  0.00    -0.200 F 
ENDBRANCH  53  77
BRANCH  65  88
ATOM     88  C   UNL A   1      44.989  33.115  27.451  1.00  0.00     0.064 A 
ATOM     89  C   UNL A   1      44.202  33.377  26.317  1.00  0.00     0.173 A 
ATOM     90  C   UNL A   1      45.261  34.241  28.267  1.00  0.00     0.173 A 
ATOM     91  F   UNL A   1      43.729  32.389  25.547  1.00  0.00    -0.203 F 
ATOM     92  C   UNL A   1      43.813  34.672  25.967  1.00  0.00     0.198 A 
ATOM     93  C   UNL A   1      44.801  35.519  27.959  1.00  0.00     0.198 A 
ATOM     94  F   UNL A   1      45.953  34.137  29.411  1.00  0.00    -0.203 F 
ATOM     95  F   UNL A   1      43.127  34.871  24.834  1.00  0.00    -0.200 F 
ATOM     96  C   UNL A   1      44.104  35.740  26.792  1.00  0.00     0.200 A 
ATOM     97  F   UNL A   1      45.022  36.529  28.813  1.00  0.00    -0.200 F 
ATOM     98  F   UNL A   1      43.691  36.974  26.475  1.00  0.00    -0.200 F 
ENDBRANCH  65  88
ENDBRANCH  39  40
ENDBRANCH  31  34
ENDBRANCH  29  30
ENDBRANCH  28  29
ENDBRANCH  27  28
ENDBRANCH   1  27
TORSDOF 15
ENDMDL
