MODEL 1
REMARK VINA RESULT:     -12.5      0.000      0.000
REMARK SMILES Cn1ccnc(N[C@H]2C=C[C@H](C(=O)NCCCCNC(=O)c3ccc(-c4c5nc(c(-c6c(F)c(F)c(F)c(F)c6F)c6ccc([nH]6)c(-c6c(F)c(F)c(F)c(F)c6F)c6nc(c(-c7c(F)c(F)c(F)c(F)c7F)c7ccc4[nH]7)C=C6)C=C5)cc3)C2)c1=O
REMARK SMILES IDX 16 1 15 2 14 3 12 4 13 5 11 7 8 8 9 9 85 10 10 11 7 12 6 14
REMARK SMILES IDX 1 15 2 16 3 17 86 18 4 19 87 20 5 21 17 22 18 23 19 24 20 25
REMARK SMILES IDX 21 27 22 28 23 29 84 30 24 31 83 32 25 33 26 34 27 35 77 36
REMARK SMILES IDX 28 37 82 38 76 39 78 40 29 41 81 42 75 43 74 44 30 46 62 47
REMARK SMILES IDX 42 48 61 49 43 50 46 51 60 52 79 53 44 54 45 55 59 57 80 58
REMARK SMILES IDX 47 59 31 60 32 61 40 62 33 63 34 64 38 65 41 66 35 67 36 68
REMARK SMILES IDX 39 69 37 70 63 71 64 72 72 73 65 74 66 75 70 76 73 77 67 78
REMARK SMILES IDX 68 79 71 80 69 81 48 82 49 83 57 84 50 85 51 86 55 87 58 88
REMARK SMILES IDX 52 89 53 90 56 91 54 92
REMARK H PARENT 14 6 7 13 19 26 78 45 46 56
REMARK Flexibility Score: inf
ROOT
ATOM      1  C   UNL A   1      32.053  30.228  26.601  1.00  0.00     0.023 C 
ENDROOT
BRANCH   1   2
ATOM      2  C   UNL A   1      31.785  29.673  25.207  1.00  0.00     0.116 C 
BRANCH   2   3
ATOM      3  N   UNL A   1      32.975  29.637  24.373  1.00  0.00    -0.356 N 
ATOM      4  C   UNL A   1      33.385  28.636  23.530  1.00  0.00     0.227 C 
ATOM      5  O   UNL A   1      34.364  28.835  22.813  1.00  0.00    -0.274 OA
ATOM      6  H   UNL A   1      33.560  30.428  24.421  1.00  0.00     0.163 HD
BRANCH   4   7
ATOM      7  C   UNL A   1      32.595  27.331  23.538  1.00  0.00     0.103 C 
ATOM      8  C   UNL A   1      32.844  25.434  21.999  1.00  0.00     0.104 C 
ATOM      9  C   UNL A   1      31.695  26.292  21.614  1.00  0.00    -0.006 C 
ATOM     10  C   UNL A   1      33.435  26.071  23.256  1.00  0.00     0.046 C 
ATOM     11  C   UNL A   1      31.573  27.343  22.431  1.00  0.00    -0.016 C 
BRANCH   8  12
ATOM     12  N   UNL A   1      32.451  24.060  22.144  1.00  0.00    -0.359 N 
ATOM     13  H   UNL A   1      32.293  23.608  21.283  1.00  0.00     0.162 HD
BRANCH  12  14
ATOM     14  C   UNL A   1      32.249  23.239  23.231  1.00  0.00     0.193 A 
ATOM     15  C   UNL A   1      30.345  22.753  26.533  1.00  0.00     0.153 C 
ATOM     16  N   UNL A   1      31.243  22.562  25.413  1.00  0.00    -0.314 N 
ATOM     17  C   UNL A   1      32.087  21.483  25.355  1.00  0.00     0.109 A 
ATOM     18  C   UNL A   1      31.223  23.501  24.385  1.00  0.00     0.293 A 
ATOM     19  C   UNL A   1      32.908  21.318  24.313  1.00  0.00     0.131 A 
ATOM     20  O   UNL A   1      30.467  24.462  24.386  1.00  0.00    -0.265 OA
ATOM     21  N   UNL A   1      33.013  22.168  23.247  1.00  0.00    -0.233 NA
ENDBRANCH  12  14
ENDBRANCH   8  12
ENDBRANCH   4   7
ENDBRANCH   2   3
ENDBRANCH   1   2
BRANCH   1  22
ATOM     22  C   UNL A   1      31.757  31.717  26.771  1.00  0.00     0.023 C 
BRANCH  22  23
ATOM     23  C   UNL A   1      32.896  32.543  27.359  1.00  0.00     0.116 C 
BRANCH  23  24
ATOM     24  N   UNL A   1      32.515  33.922  27.629  1.00  0.00    -0.352 N 
ATOM     25  C   UNL A   1      33.025  34.808  28.549  1.00  0.00     0.251 C 
ATOM     26  H   UNL A   1      31.784  34.272  27.071  1.00  0.00     0.163 HD
ATOM     27  O   UNL A   1      32.474  35.887  28.738  1.00  0.00    -0.269 OA
BRANCH  25  28
ATOM     28  C   UNL A   1      34.217  34.442  29.343  1.00  0.00     0.039 A 
ATOM     29  C   UNL A   1      34.035  33.910  30.622  1.00  0.00     0.014 A 
ATOM     30  C   UNL A   1      35.504  34.587  28.819  1.00  0.00     0.014 A 
ATOM     31  C   UNL A   1      35.136  33.428  31.333  1.00  0.00     0.010 A 
ATOM     32  C   UNL A   1      36.589  34.035  29.493  1.00  0.00     0.010 A 
ATOM     33  C   UNL A   1      36.413  33.430  30.747  1.00  0.00    -0.014 A 
BRANCH  33  34
ATOM     34  C   UNL A   1      37.559  32.747  31.400  1.00  0.00     0.031 A 
ATOM     35  C   UNL A   1      38.223  31.569  30.749  1.00  0.00     0.074 A 
ATOM     36  C   UNL A   1      37.948  33.145  32.628  1.00  0.00     0.049 A 
ATOM     37  N   UNL A   1      39.185  30.806  31.203  1.00  0.00    -0.248 NA
ATOM     38  C   UNL A   1      37.725  31.183  29.421  1.00  0.00     0.031 C 
ATOM     39  C   UNL A   1      37.353  34.248  33.384  1.00  0.00     0.029 A 
ATOM     40  N   UNL A   1      38.925  32.661  33.461  1.00  0.00    -0.354 N 
ATOM     41  C   UNL A   1      39.403  29.848  30.222  1.00  0.00     0.074 A 
ATOM     42  C   UNL A   1      38.435  30.092  29.174  1.00  0.00     0.031 C 
ATOM     43  C   UNL A   1      37.993  34.374  34.557  1.00  0.00     0.029 A 
ATOM     44  C   UNL A   1      39.008  33.330  34.659  1.00  0.00     0.049 A 
ATOM     45  H   UNL A   1      39.512  31.907  33.224  1.00  0.00     0.167 HD
ATOM     46  C   UNL A   1      40.340  28.869  30.191  1.00  0.00     0.037 A 
ATOM     47  C   UNL A   1      39.799  33.117  35.726  1.00  0.00     0.037 A 
ATOM     48  C   UNL A   1      41.300  28.633  31.238  1.00  0.00     0.049 A 
ATOM     49  C   UNL A   1      40.792  31.988  35.691  1.00  0.00     0.074 A 
ATOM     50  C   UNL A   1      42.329  27.708  31.273  1.00  0.00     0.029 A 
ATOM     51  N   UNL A   1      41.338  29.316  32.446  1.00  0.00    -0.354 N 
ATOM     52  N   UNL A   1      41.047  31.141  34.724  1.00  0.00    -0.248 NA
ATOM     53  C   UNL A   1      41.604  31.782  36.898  1.00  0.00     0.031 C 
ATOM     54  C   UNL A   1      42.946  27.785  32.527  1.00  0.00     0.029 A 
ATOM     55  C   UNL A   1      42.343  28.801  33.252  1.00  0.00     0.049 A 
ATOM     56  H   UNL A   1      40.740  30.057  32.695  1.00  0.00     0.167 HD
ATOM     57  C   UNL A   1      42.056  30.313  35.196  1.00  0.00     0.074 A 
ATOM     58  C   UNL A   1      42.385  30.776  36.529  1.00  0.00     0.031 C 
ATOM     59  C   UNL A   1      42.653  29.262  34.583  1.00  0.00     0.037 A 
BRANCH  46  60
ATOM     60  C   UNL A   1      40.361  27.969  28.986  1.00  0.00     0.064 A 
ATOM     61  C   UNL A   1      41.114  28.284  27.844  1.00  0.00     0.173 A 
ATOM     62  C   UNL A   1      39.638  26.767  28.982  1.00  0.00     0.173 A 
ATOM     63  F   UNL A   1      41.818  29.424  27.790  1.00  0.00    -0.203 F 
ATOM     64  C   UNL A   1      41.109  27.448  26.729  1.00  0.00     0.198 A 
ATOM     65  C   UNL A   1      39.664  25.917  27.880  1.00  0.00     0.198 A 
ATOM     66  F   UNL A   1      38.909  26.411  30.050  1.00  0.00    -0.203 F 
ATOM     67  F   UNL A   1      41.786  27.800  25.627  1.00  0.00    -0.200 F 
ATOM     68  C   UNL A   1      40.389  26.264  26.749  1.00  0.00     0.200 A 
ATOM     69  F   UNL A   1      38.982  24.763  27.908  1.00  0.00    -0.200 F 
ATOM     70  F   UNL A   1      40.388  25.460  25.678  1.00  0.00    -0.200 F 
ENDBRANCH  46  60
BRANCH  47  71
ATOM     71  C   UNL A   1      39.688  34.002  36.916  1.00  0.00     0.064 A 
ATOM     72  C   UNL A   1      40.382  35.219  36.973  1.00  0.00     0.173 A 
ATOM     73  C   UNL A   1      38.882  33.659  38.012  1.00  0.00     0.173 A 
ATOM     74  F   UNL A   1      41.183  35.580  35.959  1.00  0.00    -0.203 F 
ATOM     75  C   UNL A   1      40.282  36.054  38.083  1.00  0.00     0.198 A 
ATOM     76  C   UNL A   1      38.758  34.509  39.109  1.00  0.00     0.198 A 
ATOM     77  F   UNL A   1      38.196  32.507  38.007  1.00  0.00    -0.203 F 
ATOM     78  F   UNL A   1      40.986  37.192  38.128  1.00  0.00    -0.200 F 
ATOM     79  C   UNL A   1      39.463  35.702  39.147  1.00  0.00     0.200 A 
ATOM     80  F   UNL A   1      37.953  34.174  40.126  1.00  0.00    -0.200 F 
ATOM     81  F   UNL A   1      39.358  36.511  40.210  1.00  0.00    -0.200 F 
ENDBRANCH  47  71
BRANCH  59  82
ATOM     82  C   UNL A   1      43.727  28.538  35.344  1.00  0.00     0.064 A 
ATOM     83  C   UNL A   1      43.424  27.478  36.211  1.00  0.00     0.173 A 
ATOM     84  C   UNL A   1      45.077  28.879  35.172  1.00  0.00     0.173 A 
ATOM     85  F   UNL A   1      42.147  27.124  36.425  1.00  0.00    -0.203 F 
ATOM     86  C   UNL A   1      44.431  26.798  36.892  1.00  0.00     0.198 A 
ATOM     87  C   UNL A   1      46.084  28.175  35.828  1.00  0.00     0.198 A 
ATOM     88  F   UNL A   1      45.423  29.883  34.352  1.00  0.00    -0.203 F 
ATOM     89  F   UNL A   1      44.114  25.819  37.749  1.00  0.00    -0.200 F 
ATOM     90  C   UNL A   1      45.760  27.141  36.692  1.00  0.00     0.200 A 
ATOM     91  F   UNL A   1      47.369  28.499  35.623  1.00  0.00    -0.200 F 
ATOM     92  F   UNL A   1      46.729  26.478  37.338  1.00  0.00    -0.200 F 
ENDBRANCH  59  82
ENDBRANCH  33  34
ENDBRANCH  25  28
ENDBRANCH  23  24
ENDBRANCH  22  23
ENDBRANCH   1  22
TORSDOF 13
ENDMDL
MODEL 2
REMARK VINA RESULT:     -12.5      0.079      1.141
REMARK SMILES Cn1ccnc(N[C@H]2C=C[C@H](C(=O)NCCCCNC(=O)c3ccc(-c4c5nc(c(-c6c(F)c(F)c(F)c(F)c6F)c6ccc([nH]6)c(-c6c(F)c(F)c(F)c(F)c6F)c6nc(c(-c7c(F)c(F)c(F)c(F)c7F)c7ccc4[nH]7)C=C6)C=C5)cc3)C2)c1=O
REMARK SMILES IDX 16 1 15 2 14 3 12 4 13 5 11 7 8 8 9 9 85 10 10 11 7 12 6 14
REMARK SMILES IDX 1 15 2 16 3 17 86 18 4 19 87 20 5 21 17 22 18 23 19 24 20 25
REMARK SMILES IDX 21 27 22 28 23 29 84 30 24 31 83 32 25 33 26 34 27 35 77 36
REMARK SMILES IDX 28 37 82 38 76 39 78 40 29 41 81 42 75 43 74 44 30 46 62 47
REMARK SMILES IDX 42 48 61 49 43 50 46 51 60 52 79 53 44 54 45 55 59 57 80 58
REMARK SMILES IDX 47 59 31 60 32 61 40 62 33 63 34 64 38 65 41 66 35 67 36 68
REMARK SMILES IDX 39 69 37 70 63 71 64 72 72 73 65 74 66 75 70 76 73 77 67 78
REMARK SMILES IDX 68 79 71 80 69 81 48 82 49 83 57 84 50 85 51 86 55 87 58 88
REMARK SMILES IDX 52 89 53 90 56 91 54 92
REMARK H PARENT 14 6 7 13 19 26 78 45 46 56
REMARK Flexibility Score: inf
ROOT
ATOM      1  C   UNL A   1      32.018  30.253  26.652  1.00  0.00     0.023 C 
ENDROOT
BRANCH   1   2
ATOM      2  C   UNL A   1      31.755  29.639  25.283  1.00  0.00     0.116 C 
BRANCH   2   3
ATOM      3  N   UNL A   1      32.930  29.639  24.427  1.00  0.00    -0.356 N 
ATOM      4  C   UNL A   1      33.340  28.661  23.557  1.00  0.00     0.227 C 
ATOM      5  O   UNL A   1      34.302  28.890  22.826  1.00  0.00    -0.274 OA
ATOM      6  H   UNL A   1      33.501  30.439  24.478  1.00  0.00     0.163 HD
BRANCH   4   7
ATOM      7  C   UNL A   1      32.574  27.342  23.555  1.00  0.00     0.103 C 
ATOM      8  C   UNL A   1      32.854  25.462  22.000  1.00  0.00     0.104 C 
ATOM      9  C   UNL A   1      31.690  26.303  21.624  1.00  0.00    -0.006 C 
ATOM     10  C   UNL A   1      33.435  26.099  23.263  1.00  0.00     0.046 C 
ATOM     11  C   UNL A   1      31.551  27.345  22.448  1.00  0.00    -0.016 C 
BRANCH   8  12
ATOM     12  N   UNL A   1      32.485  24.080  22.135  1.00  0.00    -0.359 N 
ATOM     13  H   UNL A   1      32.366  23.624  21.270  1.00  0.00     0.162 HD
BRANCH  12  14
ATOM     14  C   UNL A   1      32.263  23.257  23.216  1.00  0.00     0.193 A 
ATOM     15  C   UNL A   1      30.306  22.767  26.487  1.00  0.00     0.153 C 
ATOM     16  N   UNL A   1      31.221  22.576  25.381  1.00  0.00    -0.314 N 
ATOM     17  C   UNL A   1      32.062  21.495  25.332  1.00  0.00     0.109 A 
ATOM     18  C   UNL A   1      31.221  23.519  24.355  1.00  0.00     0.293 A 
ATOM     19  C   UNL A   1      32.899  21.330  24.303  1.00  0.00     0.131 A 
ATOM     20  O   UNL A   1      30.467  24.483  24.347  1.00  0.00    -0.265 OA
ATOM     21  N   UNL A   1      33.023  22.183  23.241  1.00  0.00    -0.233 NA
ENDBRANCH  12  14
ENDBRANCH   8  12
ENDBRANCH   4   7
ENDBRANCH   2   3
ENDBRANCH   1   2
BRANCH   1  22
ATOM     22  C   UNL A   1      31.746  31.753  26.751  1.00  0.00     0.023 C 
BRANCH  22  23
ATOM     23  C   UNL A   1      32.876  32.581  27.353  1.00  0.00     0.116 C 
BRANCH  23  24
ATOM     24  N   UNL A   1      32.488  33.958  27.623  1.00  0.00    -0.352 N 
ATOM     25  C   UNL A   1      32.993  34.846  28.543  1.00  0.00     0.251 C 
ATOM     26  H   UNL A   1      31.756  34.304  27.064  1.00  0.00     0.163 HD
ATOM     27  O   UNL A   1      32.436  35.922  28.733  1.00  0.00    -0.269 OA
BRANCH  25  28
ATOM     28  C   UNL A   1      34.186  34.485  29.337  1.00  0.00     0.039 A 
ATOM     29  C   UNL A   1      34.007  33.957  30.619  1.00  0.00     0.014 A 
ATOM     30  C   UNL A   1      35.473  34.633  28.812  1.00  0.00     0.014 A 
ATOM     31  C   UNL A   1      35.110  33.480  31.330  1.00  0.00     0.010 A 
ATOM     32  C   UNL A   1      36.560  34.085  29.487  1.00  0.00     0.010 A 
ATOM     33  C   UNL A   1      36.386  33.485  30.744  1.00  0.00    -0.014 A 
BRANCH  33  34
ATOM     34  C   UNL A   1      37.535  32.806  31.398  1.00  0.00     0.031 A 
ATOM     35  C   UNL A   1      38.207  31.635  30.746  1.00  0.00     0.074 A 
ATOM     36  C   UNL A   1      37.918  33.204  32.628  1.00  0.00     0.049 A 
ATOM     37  N   UNL A   1      39.173  30.876  31.201  1.00  0.00    -0.248 NA
ATOM     38  C   UNL A   1      37.715  31.249  29.416  1.00  0.00     0.031 C 
ATOM     39  C   UNL A   1      37.314  34.302  33.385  1.00  0.00     0.029 A 
ATOM     40  N   UNL A   1      38.895  32.724  33.463  1.00  0.00    -0.354 N 
ATOM     41  C   UNL A   1      39.400  29.922  30.218  1.00  0.00     0.074 A 
ATOM     42  C   UNL A   1      38.433  30.162  29.168  1.00  0.00     0.031 C 
ATOM     43  C   UNL A   1      37.950  34.429  34.560  1.00  0.00     0.029 A 
ATOM     44  C   UNL A   1      38.971  33.390  34.662  1.00  0.00     0.049 A 
ATOM     45  H   UNL A   1      39.487  31.974  33.225  1.00  0.00     0.167 HD
ATOM     46  C   UNL A   1      40.342  28.948  30.187  1.00  0.00     0.037 A 
ATOM     47  C   UNL A   1      39.761  33.180  35.732  1.00  0.00     0.037 A 
ATOM     48  C   UNL A   1      41.300  28.716  31.236  1.00  0.00     0.049 A 
ATOM     49  C   UNL A   1      40.760  32.056  35.696  1.00  0.00     0.074 A 
ATOM     50  C   UNL A   1      42.335  27.796  31.272  1.00  0.00     0.029 A 
ATOM     51  N   UNL A   1      41.331  29.396  32.446  1.00  0.00    -0.354 N 
ATOM     52  N   UNL A   1      41.023  31.213  34.727  1.00  0.00    -0.248 NA
ATOM     53  C   UNL A   1      41.571  31.852  36.905  1.00  0.00     0.031 C 
ATOM     54  C   UNL A   1      42.949  27.875  32.527  1.00  0.00     0.029 A 
ATOM     55  C   UNL A   1      42.337  28.885  33.253  1.00  0.00     0.049 A 
ATOM     56  H   UNL A   1      40.728  30.133  32.695  1.00  0.00     0.167 HD
ATOM     57  C   UNL A   1      42.036  30.390  35.201  1.00  0.00     0.074 A 
ATOM     58  C   UNL A   1      42.358  30.852  36.536  1.00  0.00     0.031 C 
ATOM     59  C   UNL A   1      42.640  29.344  34.586  1.00  0.00     0.037 A 
BRANCH  46  60
ATOM     60  C   UNL A   1      40.372  28.052  28.980  1.00  0.00     0.064 A 
ATOM     61  C   UNL A   1      41.125  28.374  27.840  1.00  0.00     0.173 A 
ATOM     62  C   UNL A   1      39.658  26.844  28.972  1.00  0.00     0.173 A 
ATOM     63  F   UNL A   1      41.820  29.520  27.791  1.00  0.00    -0.203 F 
ATOM     64  C   UNL A   1      41.128  27.542  26.723  1.00  0.00     0.198 A 
ATOM     65  C   UNL A   1      39.692  25.997  27.867  1.00  0.00     0.198 A 
ATOM     66  F   UNL A   1      38.929  26.481  30.038  1.00  0.00    -0.203 F 
ATOM     67  F   UNL A   1      41.805  27.901  25.624  1.00  0.00    -0.200 F 
ATOM     68  C   UNL A   1      40.417  26.352  26.739  1.00  0.00     0.200 A 
ATOM     69  F   UNL A   1      39.018  24.839  27.892  1.00  0.00    -0.200 F 
ATOM     70  F   UNL A   1      40.423  25.551  25.666  1.00  0.00    -0.200 F 
ENDBRANCH  46  60
BRANCH  47  71
ATOM     71  C   UNL A   1      39.641  34.060  36.923  1.00  0.00     0.064 A 
ATOM     72  C   UNL A   1      38.834  33.692  38.009  1.00  0.00     0.173 A 
ATOM     73  C   UNL A   1      40.336  35.276  37.010  1.00  0.00     0.173 A 
ATOM     74  F   UNL A   1      38.133  32.550  37.964  1.00  0.00    -0.203 F 
ATOM     75  C   UNL A   1      38.718  34.511  39.130  1.00  0.00     0.198 A 
ATOM     76  C   UNL A   1      40.243  36.079  38.144  1.00  0.00     0.198 A 
ATOM     77  F   UNL A   1      41.123  35.674  36.000  1.00  0.00    -0.203 F 
ATOM     78  F   UNL A   1      37.910  34.154  40.136  1.00  0.00    -0.200 F 
ATOM     79  C   UNL A   1      39.430  35.700  39.201  1.00  0.00     0.200 A 
ATOM     80  F   UNL A   1      40.946  37.219  38.215  1.00  0.00    -0.200 F 
ATOM     81  F   UNL A   1      39.326  36.482  40.283  1.00  0.00    -0.200 F 
ENDBRANCH  47  71
BRANCH  59  82
ATOM     82  C   UNL A   1      43.717  28.625  35.349  1.00  0.00     0.064 A 
ATOM     83  C   UNL A   1      43.425  27.526  36.170  1.00  0.00     0.173 A 
ATOM     84  C   UNL A   1      45.061  29.011  35.223  1.00  0.00     0.173 A 
ATOM     85  F   UNL A   1      42.154  27.129  36.340  1.00  0.00    -0.203 F 
ATOM     86  C   UNL A   1      44.435  26.852  36.852  1.00  0.00     0.198 A 
ATOM     87  C   UNL A   1      46.072  28.313  35.879  1.00  0.00     0.198 A 
ATOM     88  F   UNL A   1      45.396  30.052  34.447  1.00  0.00    -0.203 F 
ATOM     89  F   UNL A   1      44.127  25.834  37.667  1.00  0.00    -0.200 F 
ATOM     90  C   UNL A   1      45.757  27.240  36.697  1.00  0.00     0.200 A 
ATOM     91  F   UNL A   1      47.351  28.681  35.717  1.00  0.00    -0.200 F 
ATOM     92  F   UNL A   1      46.730  26.582  37.345  1.00  0.00    -0.200 F 
ENDBRANCH  59  82
ENDBRANCH  33  34
ENDBRANCH  25  28
ENDBRANCH  23  24
ENDBRANCH  22  23
ENDBRANCH   1  22
TORSDOF 13
ENDMDL
MODEL 3
REMARK VINA RESULT:     -12.4      0.909      2.002
REMARK SMILES Cn1ccnc(N[C@H]2C=C[C@H](C(=O)NCCCCNC(=O)c3ccc(-c4c5nc(c(-c6c(F)c(F)c(F)c(F)c6F)c6ccc([nH]6)c(-c6c(F)c(F)c(F)c(F)c6F)c6nc(c(-c7c(F)c(F)c(F)c(F)c7F)c7ccc4[nH]7)C=C6)C=C5)cc3)C2)c1=O
REMARK SMILES IDX 16 1 15 2 14 3 12 4 13 5 11 7 8 8 9 9 85 10 10 11 7 12 6 14
REMARK SMILES IDX 1 15 2 16 3 17 86 18 4 19 87 20 5 21 17 22 18 23 19 24 20 25
REMARK SMILES IDX 21 27 22 28 23 29 84 30 24 31 83 32 25 33 26 34 27 35 77 36
REMARK SMILES IDX 28 37 82 38 76 39 78 40 29 41 81 42 75 43 74 44 30 46 62 47
REMARK SMILES IDX 42 48 61 49 43 50 46 51 60 52 79 53 44 54 45 55 59 57 80 58
REMARK SMILES IDX 47 59 31 60 32 61 40 62 33 63 34 64 38 65 41 66 35 67 36 68
REMARK SMILES IDX 39 69 37 70 63 71 64 72 72 73 65 74 66 75 70 76 73 77 67 78
REMARK SMILES IDX 68 79 71 80 69 81 48 82 49 83 57 84 50 85 51 86 55 87 58 88
REMARK SMILES IDX 52 89 53 90 56 91 54 92
REMARK H PARENT 14 6 7 13 19 26 78 45 46 56
REMARK Flexibility Score: inf
ROOT
ATOM      1  C   UNL A   1      32.072  30.228  26.582  1.00  0.00     0.023 C 
ENDROOT
BRANCH   1   2
ATOM      2  C   UNL A   1      31.748  29.686  25.195  1.00  0.00     0.116 C 
BRANCH   2   3
ATOM      3  N   UNL A   1      32.896  29.688  24.304  1.00  0.00    -0.356 N 
ATOM      4  C   UNL A   1      33.490  28.614  23.691  1.00  0.00     0.227 C 
ATOM      5  O   UNL A   1      34.385  28.825  22.874  1.00  0.00    -0.274 OA
ATOM      6  H   UNL A   1      33.297  30.568  24.119  1.00  0.00     0.163 HD
BRANCH   4   7
ATOM      7  C   UNL A   1      33.002  27.219  24.068  1.00  0.00     0.103 C 
ATOM      8  C   UNL A   1      34.370  25.301  24.760  1.00  0.00     0.104 C 
ATOM      9  C   UNL A   1      33.991  25.203  23.329  1.00  0.00    -0.006 C 
ATOM     10  C   UNL A   1      33.725  26.589  25.273  1.00  0.00     0.046 C 
ATOM     11  C   UNL A   1      33.272  26.259  22.938  1.00  0.00    -0.016 C 
BRANCH   8  12
ATOM     12  N   UNL A   1      34.009  24.114  25.485  1.00  0.00    -0.359 N 
ATOM     13  H   UNL A   1      33.553  24.304  26.337  1.00  0.00     0.162 HD
BRANCH  12  14
ATOM     14  C   UNL A   1      34.165  22.768  25.241  1.00  0.00     0.193 A 
ATOM     15  C   UNL A   1      32.435  19.522  24.127  1.00  0.00     0.153 C 
ATOM     16  N   UNL A   1      33.423  20.474  24.593  1.00  0.00    -0.314 N 
ATOM     17  C   UNL A   1      34.695  20.079  24.915  1.00  0.00     0.109 A 
ATOM     18  C   UNL A   1      33.050  21.812  24.698  1.00  0.00     0.293 A 
ATOM     19  C   UNL A   1      35.597  20.969  25.339  1.00  0.00     0.131 A 
ATOM     20  O   UNL A   1      31.933  22.209  24.395  1.00  0.00    -0.265 OA
ATOM     21  N   UNL A   1      35.366  22.306  25.512  1.00  0.00    -0.233 NA
ENDBRANCH  12  14
ENDBRANCH   8  12
ENDBRANCH   4   7
ENDBRANCH   2   3
ENDBRANCH   1   2
BRANCH   1  22
ATOM     22  C   UNL A   1      31.748  31.707  26.789  1.00  0.00     0.023 C 
BRANCH  22  23
ATOM     23  C   UNL A   1      32.888  32.549  27.353  1.00  0.00     0.116 C 
BRANCH  23  24
ATOM     24  N   UNL A   1      32.496  33.924  27.627  1.00  0.00    -0.352 N 
ATOM     25  C   UNL A   1      32.993  34.809  28.554  1.00  0.00     0.251 C 
ATOM     26  H   UNL A   1      31.766  34.271  27.065  1.00  0.00     0.163 HD
ATOM     27  O   UNL A   1      32.433  35.883  28.745  1.00  0.00    -0.269 OA
BRANCH  25  28
ATOM     28  C   UNL A   1      34.182  34.447  29.354  1.00  0.00     0.039 A 
ATOM     29  C   UNL A   1      33.996  33.914  30.633  1.00  0.00     0.014 A 
ATOM     30  C   UNL A   1      35.472  34.598  28.837  1.00  0.00     0.014 A 
ATOM     31  C   UNL A   1      35.095  33.437  31.349  1.00  0.00     0.010 A 
ATOM     32  C   UNL A   1      36.556  34.050  29.517  1.00  0.00     0.010 A 
ATOM     33  C   UNL A   1      36.375  33.444  30.770  1.00  0.00    -0.014 A 
BRANCH  33  34
ATOM     34  C   UNL A   1      37.521  32.766  31.429  1.00  0.00     0.031 A 
ATOM     35  C   UNL A   1      38.182  31.581  30.789  1.00  0.00     0.074 A 
ATOM     36  C   UNL A   1      37.911  33.175  32.653  1.00  0.00     0.049 A 
ATOM     37  N   UNL A   1      39.144  30.821  31.250  1.00  0.00    -0.248 NA
ATOM     38  C   UNL A   1      37.683  31.183  29.465  1.00  0.00     0.031 C 
ATOM     39  C   UNL A   1      37.318  34.286  33.398  1.00  0.00     0.029 A 
ATOM     40  N   UNL A   1      38.887  32.698  33.491  1.00  0.00    -0.354 N 
ATOM     41  C   UNL A   1      39.360  29.854  30.278  1.00  0.00     0.074 A 
ATOM     42  C   UNL A   1      38.392  30.088  29.228  1.00  0.00     0.031 C 
ATOM     43  C   UNL A   1      37.958  34.423  34.570  1.00  0.00     0.029 A 
ATOM     44  C   UNL A   1      38.972  33.378  34.682  1.00  0.00     0.049 A 
ATOM     45  H   UNL A   1      39.473  31.941  33.260  1.00  0.00     0.167 HD
ATOM     46  C   UNL A   1      40.295  28.872  30.256  1.00  0.00     0.037 A 
ATOM     47  C   UNL A   1      39.764  33.175  35.751  1.00  0.00     0.037 A 
ATOM     48  C   UNL A   1      41.255  28.645  31.305  1.00  0.00     0.049 A 
ATOM     49  C   UNL A   1      40.754  32.043  35.726  1.00  0.00     0.074 A 
ATOM     50  C   UNL A   1      42.284  27.719  31.348  1.00  0.00     0.029 A 
ATOM     51  N   UNL A   1      41.295  29.340  32.507  1.00  0.00    -0.354 N 
ATOM     52  N   UNL A   1      41.008  31.187  34.766  1.00  0.00    -0.248 NA
ATOM     53  C   UNL A   1      41.567  31.848  36.934  1.00  0.00     0.031 C 
ATOM     54  C   UNL A   1      42.901  27.807  32.601  1.00  0.00     0.029 A 
ATOM     55  C   UNL A   1      42.300  28.831  33.316  1.00  0.00     0.049 A 
ATOM     56  H   UNL A   1      40.698  30.084  32.748  1.00  0.00     0.167 HD
ATOM     57  C   UNL A   1      42.016  30.362  35.247  1.00  0.00     0.074 A 
ATOM     58  C   UNL A   1      42.346  30.838  36.575  1.00  0.00     0.031 C 
ATOM     59  C   UNL A   1      42.611  29.304  34.643  1.00  0.00     0.037 A 
BRANCH  46  60
ATOM     60  C   UNL A   1      40.314  27.961  29.060  1.00  0.00     0.064 A 
ATOM     61  C   UNL A   1      41.074  28.259  27.918  1.00  0.00     0.173 A 
ATOM     62  C   UNL A   1      39.583  26.764  29.065  1.00  0.00     0.173 A 
ATOM     63  F   UNL A   1      41.786  29.394  27.856  1.00  0.00    -0.203 F 
ATOM     64  C   UNL A   1      41.067  27.413  26.810  1.00  0.00     0.198 A 
ATOM     65  C   UNL A   1      39.607  25.904  27.970  1.00  0.00     0.198 A 
ATOM     66  F   UNL A   1      38.848  26.423  30.133  1.00  0.00    -0.203 F 
ATOM     67  F   UNL A   1      41.752  27.750  25.708  1.00  0.00    -0.200 F 
ATOM     68  C   UNL A   1      40.339  26.235  26.840  1.00  0.00     0.200 A 
ATOM     69  F   UNL A   1      38.917  24.755  28.007  1.00  0.00    -0.200 F 
ATOM     70  F   UNL A   1      40.336  25.420  25.776  1.00  0.00    -0.200 F 
ENDBRANCH  46  60
BRANCH  47  71
ATOM     71  C   UNL A   1      39.654  34.070  36.932  1.00  0.00     0.064 A 
ATOM     72  C   UNL A   1      38.858  33.715  38.030  1.00  0.00     0.173 A 
ATOM     73  C   UNL A   1      40.348  35.288  36.996  1.00  0.00     0.173 A 
ATOM     74  F   UNL A   1      38.158  32.572  38.007  1.00  0.00    -0.203 F 
ATOM     75  C   UNL A   1      38.751  34.549  39.141  1.00  0.00     0.198 A 
ATOM     76  C   UNL A   1      40.266  36.106  38.121  1.00  0.00     0.198 A 
ATOM     77  F   UNL A   1      41.125  35.673  35.974  1.00  0.00    -0.203 F 
ATOM     78  F   UNL A   1      37.953  34.204  40.160  1.00  0.00    -0.200 F 
ATOM     79  C   UNL A   1      39.463  35.739  39.190  1.00  0.00     0.200 A 
ATOM     80  F   UNL A   1      40.968  37.246  38.170  1.00  0.00    -0.200 F 
ATOM     81  F   UNL A   1      39.369  36.535  40.264  1.00  0.00    -0.200 F 
ENDBRANCH  47  71
BRANCH  59  82
ATOM     82  C   UNL A   1      43.684  28.587  35.411  1.00  0.00     0.064 A 
ATOM     83  C   UNL A   1      45.038  28.926  35.270  1.00  0.00     0.173 A 
ATOM     84  C   UNL A   1      43.353  27.580  36.331  1.00  0.00     0.173 A 
ATOM     85  F   UNL A   1      45.410  29.869  34.390  1.00  0.00    -0.203 F 
ATOM     86  C   UNL A   1      46.022  28.270  36.006  1.00  0.00     0.198 A 
ATOM     87  C   UNL A   1      44.336  26.950  37.090  1.00  0.00     0.198 A 
ATOM     88  F   UNL A   1      42.073  27.219  36.508  1.00  0.00    -0.203 F 
ATOM     89  F   UNL A   1      47.313  28.579  35.821  1.00  0.00    -0.200 F 
ATOM     90  C   UNL A   1      45.669  27.291  36.923  1.00  0.00     0.200 A 
ATOM     91  F   UNL A   1      43.991  26.013  37.985  1.00  0.00    -0.200 F 
ATOM     92  F   UNL A   1      46.616  26.670  37.640  1.00  0.00    -0.200 F 
ENDBRANCH  59  82
ENDBRANCH  33  34
ENDBRANCH  25  28
ENDBRANCH  23  24
ENDBRANCH  22  23
ENDBRANCH   1  22
TORSDOF 13
ENDMDL
