MODEL 1
REMARK VINA RESULT:     -12.7      0.000      0.000
REMARK SMILES O=C(C[C@H]1S/C(=[NH+]\N=C\c2cc(Br)ccc2OCc2ccccc2)NC1=O)NCCCCNC(=O)c1ccc(-c2c3nc(c(-c4c(F)c(F)c(F)c(F)c4F)c4ccc([nH]4)c(-c4c(F)c(F)c(F)c(F)c4F)c4nc(c(-c5c(F)c(F)c(F)c(F)c5F)c5ccc2[nH]5)C=C4)C=C3)cc1
REMARK SMILES IDX 1 1 2 2 28 3 3 5 4 6 5 7 26 8 6 9 25 10 27 11 7 12 8 15 9 16
REMARK SMILES IDX 10 17 11 18 16 19 12 20 15 21 13 22 14 23 17 24 18 25 19 26
REMARK SMILES IDX 20 27 24 28 21 29 23 30 22 31 29 32 30 33 31 34 32 35 33 36
REMARK SMILES IDX 34 37 35 39 36 40 37 41 98 42 38 43 97 44 39 45 40 46 41 47
REMARK SMILES IDX 91 48 42 49 96 50 90 51 92 52 43 53 95 54 89 55 88 56 44 58
REMARK SMILES IDX 76 59 56 60 75 61 57 62 60 63 74 64 93 65 58 66 59 67 73 69
REMARK SMILES IDX 94 70 61 71 45 72 46 73 54 74 47 75 48 76 52 77 55 78 49 79
REMARK SMILES IDX 50 80 53 81 51 82 77 83 78 84 86 85 79 86 80 87 84 88 87 89
REMARK SMILES IDX 81 90 82 91 85 92 83 93 62 94 63 95 71 96 64 97 65 98 69 99
REMARK SMILES IDX 72 100 66 101 67 102 70 103 68 104
REMARK H PARENT 28 4 25 13 7 14 33 38 92 57 60 68
REMARK Flexibility Score: inf
ROOT
ATOM      1  O   UNL A   1      32.439  27.340  26.533  1.00  0.00    -0.275 OA
ATOM      2  C   UNL A   1      32.353  28.399  25.922  1.00  0.00     0.221 C 
ATOM      3  N   UNL A   1      33.141  29.499  26.177  1.00  0.00    -0.356 N 
ATOM      4  H   UNL A   1      33.019  30.307  25.628  1.00  0.00     0.163 HD
ENDROOT
BRANCH   2   5
ATOM      5  C   UNL A   1      31.367  28.588  24.796  1.00  0.00     0.127 C 
BRANCH   5   6
ATOM      6  C   UNL A   1      32.075  28.570  23.448  1.00  0.00     0.183 C 
ATOM      7  S   UNL A   1      33.248  27.166  23.354  1.00  0.00    -0.020 SA
ATOM      8  C   UNL A   1      31.076  28.320  22.338  1.00  0.00     0.322 C 
ATOM      9  C   UNL A   1      32.244  26.304  22.228  1.00  0.00     0.337 C 
ATOM     10  N   UNL A   1      31.216  27.072  21.808  1.00  0.00    -0.202 N 
ATOM     11  O   UNL A   1      30.218  29.108  21.978  1.00  0.00    -0.246 OA
ATOM     12  N   UNL A   1      32.361  25.101  21.785  1.00  0.00    -0.142 N 
ATOM     13  H   UNL A   1      30.581  26.739  21.132  1.00  0.00     0.316 HD
ATOM     14  H   UNL A   1      31.727  24.714  21.139  1.00  0.00     0.343 HD
BRANCH  12  15
ATOM     15  N   UNL A   1      33.448  24.381  22.280  1.00  0.00    -0.093 NA
ATOM     16  C   UNL A   1      33.014  23.493  23.120  1.00  0.00     0.170 C 
BRANCH  16  17
ATOM     17  C   UNL A   1      33.896  22.552  23.814  1.00  0.00     0.040 A 
ATOM     18  C   UNL A   1      35.155  23.076  24.154  1.00  0.00     0.029 A 
ATOM     19  C   UNL A   1      33.546  21.247  24.189  1.00  0.00     0.128 A 
ATOM     20  C   UNL A   1      36.077  22.294  24.842  1.00  0.00     0.018 A 
ATOM     21  C   UNL A   1      34.525  20.460  24.823  1.00  0.00     0.048 A 
ATOM     22  Br  UNL A   1      37.725  23.045  25.376  1.00  0.00    -0.051 Br
ATOM     23  C   UNL A   1      35.778  20.976  25.157  1.00  0.00     0.019 A 
BRANCH  19  24
ATOM     24  O   UNL A   1      32.371  20.560  24.078  1.00  0.00    -0.488 OA
BRANCH  24  25
ATOM     25  C   UNL A   1      32.185  19.438  23.217  1.00  0.00     0.265 C 
BRANCH  25  26
ATOM     26  C   UNL A   1      32.633  18.089  23.755  1.00  0.00    -0.011 A 
ATOM     27  C   UNL A   1      32.155  17.680  25.012  1.00  0.00     0.007 A 
ATOM     28  C   UNL A   1      33.597  17.299  23.113  1.00  0.00     0.007 A 
ATOM     29  C   UNL A   1      32.716  16.579  25.659  1.00  0.00     0.000 A 
ATOM     30  C   UNL A   1      34.170  16.211  23.771  1.00  0.00     0.000 A 
ATOM     31  C   UNL A   1      33.745  15.864  25.051  1.00  0.00     0.000 A 
ENDBRANCH  25  26
ENDBRANCH  24  25
ENDBRANCH  19  24
ENDBRANCH  16  17
ENDBRANCH  12  15
ENDBRANCH   5   6
ENDBRANCH   2   5
BRANCH   3  32
ATOM     32  C   UNL A   1      34.143  29.506  27.223  1.00  0.00     0.116 C 
BRANCH  32  33
ATOM     33  C   UNL A   1      34.400  30.913  27.760  1.00  0.00     0.023 C 
BRANCH  33  34
ATOM     34  C   UNL A   1      33.157  31.800  27.869  1.00  0.00     0.023 C 
BRANCH  34  35
ATOM     35  C   UNL A   1      33.145  33.027  26.963  1.00  0.00     0.116 C 
BRANCH  35  36
ATOM     36  N   UNL A   1      32.639  34.219  27.624  1.00  0.00    -0.352 N 
ATOM     37  C   UNL A   1      33.037  34.805  28.802  1.00  0.00     0.251 C 
ATOM     38  H   UNL A   1      31.900  34.675  27.159  1.00  0.00     0.163 HD
ATOM     39  O   UNL A   1      32.391  35.736  29.273  1.00  0.00    -0.269 OA
BRANCH  37  40
ATOM     40  C   UNL A   1      34.225  34.299  29.527  1.00  0.00     0.039 A 
ATOM     41  C   UNL A   1      34.034  33.597  30.720  1.00  0.00     0.014 A 
ATOM     42  C   UNL A   1      35.518  34.513  29.044  1.00  0.00     0.014 A 
ATOM     43  C   UNL A   1      35.133  33.047  31.387  1.00  0.00     0.010 A 
ATOM     44  C   UNL A   1      36.603  33.899  29.666  1.00  0.00     0.010 A 
ATOM     45  C   UNL A   1      36.422  33.156  30.843  1.00  0.00    -0.014 A 
BRANCH  45  46
ATOM     46  C   UNL A   1      37.588  32.492  31.485  1.00  0.00     0.031 A 
ATOM     47  C   UNL A   1      38.255  31.316  30.825  1.00  0.00     0.074 A 
ATOM     48  C   UNL A   1      38.008  32.908  32.696  1.00  0.00     0.049 A 
ATOM     49  N   UNL A   1      39.238  30.568  31.261  1.00  0.00    -0.248 NA
ATOM     50  C   UNL A   1      37.732  30.913  29.510  1.00  0.00     0.031 C 
ATOM     51  C   UNL A   1      37.418  34.005  33.464  1.00  0.00     0.029 A 
ATOM     52  N   UNL A   1      39.023  32.450  33.499  1.00  0.00    -0.354 N 
ATOM     53  C   UNL A   1      39.442  29.604  30.282  1.00  0.00     0.074 A 
ATOM     54  C   UNL A   1      38.443  29.824  29.258  1.00  0.00     0.031 C 
ATOM     55  C   UNL A   1      38.093  34.150  34.615  1.00  0.00     0.029 A 
ATOM     56  C   UNL A   1      39.136  33.130  34.688  1.00  0.00     0.049 A 
ATOM     57  H   UNL A   1      39.615  31.704  33.247  1.00  0.00     0.167 HD
ATOM     58  C   UNL A   1      40.390  28.637  30.230  1.00  0.00     0.037 A 
ATOM     59  C   UNL A   1      39.975  32.946  35.726  1.00  0.00     0.037 A 
ATOM     60  C   UNL A   1      41.388  28.425  31.247  1.00  0.00     0.049 A 
ATOM     61  C   UNL A   1      41.001  31.848  35.656  1.00  0.00     0.074 A 
ATOM     62  C   UNL A   1      42.422  27.505  31.263  1.00  0.00     0.029 A 
ATOM     63  N   UNL A   1      41.473  29.140  32.433  1.00  0.00    -0.354 N 
ATOM     64  N   UNL A   1      41.226  30.983  34.697  1.00  0.00    -0.248 NA
ATOM     65  C   UNL A   1      41.895  31.705  36.814  1.00  0.00     0.031 C 
ATOM     66  C   UNL A   1      43.095  27.622  32.483  1.00  0.00     0.029 A 
ATOM     67  C   UNL A   1      42.524  28.661  33.201  1.00  0.00     0.049 A 
ATOM     68  H   UNL A   1      40.875  29.878  32.692  1.00  0.00     0.167 HD
ATOM     69  C   UNL A   1      42.302  30.215  35.120  1.00  0.00     0.074 A 
ATOM     70  C   UNL A   1      42.695  30.726  36.416  1.00  0.00     0.031 C 
ATOM     71  C   UNL A   1      42.910  29.179  34.489  1.00  0.00     0.037 A 
BRANCH  58  72
ATOM     72  C   UNL A   1      40.392  27.730  29.032  1.00  0.00     0.064 A 
ATOM     73  C   UNL A   1      41.145  28.025  27.885  1.00  0.00     0.173 A 
ATOM     74  C   UNL A   1      39.658  26.533  29.043  1.00  0.00     0.173 A 
ATOM     75  F   UNL A   1      41.858  29.158  27.819  1.00  0.00    -0.203 F 
ATOM     76  C   UNL A   1      41.135  27.174  26.782  1.00  0.00     0.198 A 
ATOM     77  C   UNL A   1      39.679  25.669  27.951  1.00  0.00     0.198 A 
ATOM     78  F   UNL A   1      38.926  26.196  30.115  1.00  0.00    -0.203 F 
ATOM     79  F   UNL A   1      41.818  27.506  25.677  1.00  0.00    -0.200 F 
ATOM     80  C   UNL A   1      40.409  25.994  26.818  1.00  0.00     0.200 A 
ATOM     81  F   UNL A   1      38.990  24.520  27.995  1.00  0.00    -0.200 F 
ATOM     82  F   UNL A   1      40.406  25.173  25.759  1.00  0.00    -0.200 F 
ENDBRANCH  58  72
BRANCH  59  83
ATOM     83  C   UNL A   1      39.883  33.827  36.919  1.00  0.00     0.064 A 
ATOM     84  C   UNL A   1      39.003  33.538  37.970  1.00  0.00     0.173 A 
ATOM     85  C   UNL A   1      40.667  34.985  37.028  1.00  0.00     0.173 A 
ATOM     86  F   UNL A   1      38.210  32.458  37.900  1.00  0.00    -0.203 F 
ATOM     87  C   UNL A   1      38.899  34.380  39.075  1.00  0.00     0.198 A 
ATOM     88  C   UNL A   1      40.589  35.809  38.148  1.00  0.00     0.198 A 
ATOM     89  F   UNL A   1      41.515  35.312  36.042  1.00  0.00    -0.203 F 
ATOM     90  F   UNL A   1      38.010  34.108  40.041  1.00  0.00    -0.200 F 
ATOM     91  C   UNL A   1      39.698  35.510  39.168  1.00  0.00     0.200 A 
ATOM     92  F   UNL A   1      41.372  36.892  38.238  1.00  0.00    -0.200 F 
ATOM     93  F   UNL A   1      39.600  36.317  40.233  1.00  0.00    -0.200 F 
ENDBRANCH  59  83
BRANCH  71  94
ATOM     94  C   UNL A   1      44.091  28.552  35.173  1.00  0.00     0.064 A 
ATOM     95  C   UNL A   1      45.401  29.006  34.955  1.00  0.00     0.173 A 
ATOM     96  C   UNL A   1      43.905  27.505  36.089  1.00  0.00     0.173 A 
ATOM     97  F   UNL A   1      45.636  29.994  34.078  1.00  0.00    -0.203 F 
ATOM     98  C   UNL A   1      46.481  28.417  35.607  1.00  0.00     0.198 A 
ATOM     99  C   UNL A   1      44.983  26.942  36.766  1.00  0.00     0.198 A 
ATOM    100  F   UNL A   1      42.673  27.036  36.341  1.00  0.00    -0.203 F 
ATOM    101  F   UNL A   1      47.728  28.831  35.343  1.00  0.00    -0.200 F 
ATOM    102  C   UNL A   1      46.271  27.392  36.517  1.00  0.00     0.200 A 
ATOM    103  F   UNL A   1      44.777  25.963  37.657  1.00  0.00    -0.200 F 
ATOM    104  F   UNL A   1      47.311  26.832  37.150  1.00  0.00    -0.200 F 
ENDBRANCH  71  94
ENDBRANCH  45  46
ENDBRANCH  37  40
ENDBRANCH  35  36
ENDBRANCH  34  35
ENDBRANCH  33  34
ENDBRANCH  32  33
ENDBRANCH   3  32
TORSDOF 17
ENDMDL
MODEL 2
REMARK VINA RESULT:     -12.6      0.592      6.982
REMARK SMILES O=C(C[C@H]1S/C(=[NH+]\N=C\c2cc(Br)ccc2OCc2ccccc2)NC1=O)NCCCCNC(=O)c1ccc(-c2c3nc(c(-c4c(F)c(F)c(F)c(F)c4F)c4ccc([nH]4)c(-c4c(F)c(F)c(F)c(F)c4F)c4nc(c(-c5c(F)c(F)c(F)c(F)c5F)c5ccc2[nH]5)C=C4)C=C3)cc1
REMARK SMILES IDX 1 1 2 2 28 3 3 5 4 6 5 7 26 8 6 9 25 10 27 11 7 12 8 15 9 16
REMARK SMILES IDX 10 17 11 18 16 19 12 20 15 21 13 22 14 23 17 24 18 25 19 26
REMARK SMILES IDX 20 27 24 28 21 29 23 30 22 31 29 32 30 33 31 34 32 35 33 36
REMARK SMILES IDX 34 37 35 39 36 40 37 41 98 42 38 43 97 44 39 45 40 46 41 47
REMARK SMILES IDX 91 48 42 49 96 50 90 51 92 52 43 53 95 54 89 55 88 56 44 58
REMARK SMILES IDX 76 59 56 60 75 61 57 62 60 63 74 64 93 65 58 66 59 67 73 69
REMARK SMILES IDX 94 70 61 71 45 72 46 73 54 74 47 75 48 76 52 77 55 78 49 79
REMARK SMILES IDX 50 80 53 81 51 82 77 83 78 84 86 85 79 86 80 87 84 88 87 89
REMARK SMILES IDX 81 90 82 91 85 92 83 93 62 94 63 95 71 96 64 97 65 98 69 99
REMARK SMILES IDX 72 100 66 101 67 102 70 103 68 104
REMARK H PARENT 28 4 25 13 7 14 33 38 92 57 60 68
REMARK Flexibility Score: inf
ROOT
ATOM      1  O   UNL A   1      32.213  27.361  26.831  1.00  0.00    -0.275 OA
ATOM      2  C   UNL A   1      32.222  28.307  26.053  1.00  0.00     0.221 C 
ATOM      3  N   UNL A   1      33.068  29.387  26.167  1.00  0.00    -0.356 N 
ATOM      4  H   UNL A   1      33.023  30.099  25.489  1.00  0.00     0.163 HD
ENDROOT
BRANCH   2   5
ATOM      5  C   UNL A   1      31.300  28.363  24.860  1.00  0.00     0.127 C 
BRANCH   5   6
ATOM      6  C   UNL A   1      32.096  28.432  23.563  1.00  0.00     0.183 C 
ATOM      7  S   UNL A   1      33.286  27.042  23.462  1.00  0.00    -0.020 SA
ATOM      8  C   UNL A   1      31.175  28.246  22.376  1.00  0.00     0.322 C 
ATOM      9  C   UNL A   1      32.367  26.246  22.221  1.00  0.00     0.337 C 
ATOM     10  N   UNL A   1      31.362  27.034  21.781  1.00  0.00    -0.202 N 
ATOM     11  O   UNL A   1      30.335  29.050  22.009  1.00  0.00    -0.246 OA
ATOM     12  N   UNL A   1      32.524  25.073  21.714  1.00  0.00    -0.142 N 
ATOM     13  H   UNL A   1      30.776  26.739  21.046  1.00  0.00     0.316 HD
ATOM     14  H   UNL A   1      31.937  24.724  21.005  1.00  0.00     0.343 HD
BRANCH  12  15
ATOM     15  N   UNL A   1      33.582  24.330  22.235  1.00  0.00    -0.093 NA
ATOM     16  C   UNL A   1      33.109  23.463  23.077  1.00  0.00     0.170 C 
BRANCH  16  17
ATOM     17  C   UNL A   1      33.954  22.507  23.796  1.00  0.00     0.040 A 
ATOM     18  C   UNL A   1      35.224  22.997  24.144  1.00  0.00     0.029 A 
ATOM     19  C   UNL A   1      33.559  21.218  24.186  1.00  0.00     0.128 A 
ATOM     20  C   UNL A   1      36.114  22.198  24.855  1.00  0.00     0.018 A 
ATOM     21  C   UNL A   1      34.506  20.412  24.844  1.00  0.00     0.048 A 
ATOM     22  Br  UNL A   1      37.777  22.906  25.399  1.00  0.00    -0.051 Br
ATOM     23  C   UNL A   1      35.770  20.894  25.187  1.00  0.00     0.019 A 
BRANCH  19  24
ATOM     24  O   UNL A   1      32.365  20.566  24.071  1.00  0.00    -0.488 OA
BRANCH  24  25
ATOM     25  C   UNL A   1      32.153  19.443  23.217  1.00  0.00     0.265 C 
BRANCH  25  26
ATOM     26  C   UNL A   1      32.616  18.095  23.743  1.00  0.00    -0.011 A 
ATOM     27  C   UNL A   1      32.153  17.675  25.002  1.00  0.00     0.007 A 
ATOM     28  C   UNL A   1      33.580  17.316  23.088  1.00  0.00     0.007 A 
ATOM     29  C   UNL A   1      32.729  16.575  25.638  1.00  0.00     0.000 A 
ATOM     30  C   UNL A   1      34.168  16.228  23.734  1.00  0.00     0.000 A 
ATOM     31  C   UNL A   1      33.757  15.871  25.016  1.00  0.00     0.000 A 
ENDBRANCH  25  26
ENDBRANCH  24  25
ENDBRANCH  19  24
ENDBRANCH  16  17
ENDBRANCH  12  15
ENDBRANCH   5   6
ENDBRANCH   2   5
BRANCH   3  32
ATOM     32  C   UNL A   1      34.022  29.510  27.250  1.00  0.00     0.116 C 
BRANCH  32  33
ATOM     33  C   UNL A   1      34.182  30.958  27.711  1.00  0.00     0.023 C 
BRANCH  33  34
ATOM     34  C   UNL A   1      32.908  31.805  27.634  1.00  0.00     0.023 C 
BRANCH  34  35
ATOM     35  C   UNL A   1      33.041  33.121  26.875  1.00  0.00     0.116 C 
BRANCH  35  36
ATOM     36  N   UNL A   1      32.552  34.265  27.628  1.00  0.00    -0.352 N 
ATOM     37  C   UNL A   1      32.981  34.772  28.831  1.00  0.00     0.251 C 
ATOM     38  H   UNL A   1      31.800  34.747  27.215  1.00  0.00     0.163 HD
ATOM     39  O   UNL A   1      32.347  35.667  29.381  1.00  0.00    -0.269 OA
BRANCH  37  40
ATOM     40  C   UNL A   1      34.190  34.222  29.487  1.00  0.00     0.039 A 
ATOM     41  C   UNL A   1      34.033  33.443  30.637  1.00  0.00     0.014 A 
ATOM     42  C   UNL A   1      35.468  34.471  28.983  1.00  0.00     0.014 A 
ATOM     43  C   UNL A   1      35.150  32.854  31.236  1.00  0.00     0.010 A 
ATOM     44  C   UNL A   1      36.571  33.820  29.533  1.00  0.00     0.010 A 
ATOM     45  C   UNL A   1      36.424  33.002  30.663  1.00  0.00    -0.014 A 
BRANCH  45  46
ATOM     46  C   UNL A   1      37.607  32.300  31.227  1.00  0.00     0.031 A 
ATOM     47  C   UNL A   1      38.264  32.801  32.484  1.00  0.00     0.074 A 
ATOM     48  C   UNL A   1      38.132  31.245  30.572  1.00  0.00     0.049 A 
ATOM     49  N   UNL A   1      39.341  32.364  33.090  1.00  0.00    -0.248 NA
ATOM     50  C   UNL A   1      37.642  33.964  33.136  1.00  0.00     0.031 C 
ATOM     51  C   UNL A   1      37.620  30.689  29.319  1.00  0.00     0.029 A 
ATOM     52  N   UNL A   1      39.220  30.459  30.863  1.00  0.00    -0.354 N 
ATOM     53  C   UNL A   1      39.527  33.202  34.181  1.00  0.00     0.074 A 
ATOM     54  C   UNL A   1      38.490  34.209  34.123  1.00  0.00     0.031 C 
ATOM     55  C   UNL A   1      38.377  29.640  28.961  1.00  0.00     0.029 A 
ATOM     56  C   UNL A   1      39.453  29.475  29.934  1.00  0.00     0.049 A 
ATOM     57  H   UNL A   1      39.779  30.588  31.664  1.00  0.00     0.167 HD
ATOM     58  C   UNL A   1      40.465  33.125  35.157  1.00  0.00     0.037 A 
ATOM     59  C   UNL A   1      40.431  28.550  29.864  1.00  0.00     0.037 A 
ATOM     60  C   UNL A   1      41.491  32.116  35.218  1.00  0.00     0.049 A 
ATOM     61  C   UNL A   1      41.477  28.504  30.945  1.00  0.00     0.074 A 
ATOM     62  C   UNL A   1      42.456  31.924  36.191  1.00  0.00     0.029 A 
ATOM     63  N   UNL A   1      41.690  31.132  34.259  1.00  0.00    -0.354 N 
ATOM     64  N   UNL A   1      41.607  29.262  32.006  1.00  0.00    -0.248 NA
ATOM     65  C   UNL A   1      42.510  27.466  30.819  1.00  0.00     0.031 C 
ATOM     66  C   UNL A   1      43.275  30.863  35.793  1.00  0.00     0.029 A 
ATOM     67  C   UNL A   1      42.782  30.349  34.605  1.00  0.00     0.049 A 
ATOM     68  H   UNL A   1      41.140  31.008  33.453  1.00  0.00     0.167 HD
ATOM     69  C   UNL A   1      42.713  28.777  32.690  1.00  0.00     0.074 A 
ATOM     70  C   UNL A   1      43.211  27.649  31.930  1.00  0.00     0.031 C 
ATOM     71  C   UNL A   1      43.266  29.226  33.843  1.00  0.00     0.037 A 
BRANCH  58  72
ATOM     72  C   UNL A   1      40.426  34.165  36.241  1.00  0.00     0.064 A 
ATOM     73  C   UNL A   1      41.275  35.283  36.221  1.00  0.00     0.173 A 
ATOM     74  C   UNL A   1      39.504  34.062  37.295  1.00  0.00     0.173 A 
ATOM     75  F   UNL A   1      42.179  35.426  35.242  1.00  0.00    -0.203 F 
ATOM     76  C   UNL A   1      41.227  36.238  37.234  1.00  0.00     0.198 A 
ATOM     77  C   UNL A   1      39.436  35.038  38.286  1.00  0.00     0.198 A 
ATOM     78  F   UNL A   1      38.662  33.020  37.360  1.00  0.00    -0.203 F 
ATOM     79  F   UNL A   1      42.087  37.266  37.222  1.00  0.00    -0.200 F 
ATOM     80  C   UNL A   1      40.304  36.120  38.261  1.00  0.00     0.200 A 
ATOM     81  F   UNL A   1      38.531  34.931  39.269  1.00  0.00    -0.200 F 
ATOM     82  F   UNL A   1      40.254  37.043  39.230  1.00  0.00    -0.200 F 
ENDBRANCH  58  72
BRANCH  59  83
ATOM     83  C   UNL A   1      40.465  27.590  28.730  1.00  0.00     0.064 A 
ATOM     84  C   UNL A   1      41.193  27.866  27.566  1.00  0.00     0.173 A 
ATOM     85  C   UNL A   1      39.758  26.380  28.784  1.00  0.00     0.173 A 
ATOM     86  F   UNL A   1      41.861  29.023  27.453  1.00  0.00    -0.203 F 
ATOM     87  C   UNL A   1      41.200  26.976  26.493  1.00  0.00     0.198 A 
ATOM     88  C   UNL A   1      39.794  25.474  27.727  1.00  0.00     0.198 A 
ATOM     89  F   UNL A   1      39.036  26.077  29.872  1.00  0.00    -0.203 F 
ATOM     90  F   UNL A   1      41.862  27.289  25.370  1.00  0.00    -0.200 F 
ATOM     91  C   UNL A   1      40.508  25.777  26.578  1.00  0.00     0.200 A 
ATOM     92  F   UNL A   1      39.133  24.312  27.819  1.00  0.00    -0.200 F 
ATOM     93  F   UNL A   1      40.519  24.920  25.548  1.00  0.00    -0.200 F 
ENDBRANCH  59  83
BRANCH  71  94
ATOM     94  C   UNL A   1      44.451  28.473  34.379  1.00  0.00     0.064 A 
ATOM     95  C   UNL A   1      45.768  28.845  34.069  1.00  0.00     0.173 A 
ATOM     96  C   UNL A   1      44.265  27.385  35.247  1.00  0.00     0.173 A 
ATOM     97  F   UNL A   1      46.002  29.868  33.233  1.00  0.00    -0.203 F 
ATOM     98  C   UNL A   1      46.852  28.139  34.585  1.00  0.00     0.198 A 
ATOM     99  C   UNL A   1      45.352  26.703  35.788  1.00  0.00     0.198 A 
ATOM    100  F   UNL A   1      43.028  26.990  35.582  1.00  0.00    -0.203 F 
ATOM    101  F   UNL A   1      48.099  28.480  34.232  1.00  0.00    -0.200 F 
ATOM    102  C   UNL A   1      46.644  27.075  35.449  1.00  0.00     0.200 A 
ATOM    103  F   UNL A   1      45.149  25.687  36.636  1.00  0.00    -0.200 F 
ATOM    104  F   UNL A   1      47.689  26.404  35.951  1.00  0.00    -0.200 F 
ENDBRANCH  71  94
ENDBRANCH  45  46
ENDBRANCH  37  40
ENDBRANCH  35  36
ENDBRANCH  34  35
ENDBRANCH  33  34
ENDBRANCH  32  33
ENDBRANCH   3  32
TORSDOF 17
ENDMDL
MODEL 3
REMARK VINA RESULT:     -12.2      5.631     11.799
REMARK SMILES O=C(C[C@H]1S/C(=[NH+]\N=C\c2cc(Br)ccc2OCc2ccccc2)NC1=O)NCCCCNC(=O)c1ccc(-c2c3nc(c(-c4c(F)c(F)c(F)c(F)c4F)c4ccc([nH]4)c(-c4c(F)c(F)c(F)c(F)c4F)c4nc(c(-c5c(F)c(F)c(F)c(F)c5F)c5ccc2[nH]5)C=C4)C=C3)cc1
REMARK SMILES IDX 1 1 2 2 28 3 3 5 4 6 5 7 26 8 6 9 25 10 27 11 7 12 8 15 9 16
REMARK SMILES IDX 10 17 11 18 16 19 12 20 15 21 13 22 14 23 17 24 18 25 19 26
REMARK SMILES IDX 20 27 24 28 21 29 23 30 22 31 29 32 30 33 31 34 32 35 33 36
REMARK SMILES IDX 34 37 35 39 36 40 37 41 98 42 38 43 97 44 39 45 40 46 41 47
REMARK SMILES IDX 91 48 42 49 96 50 90 51 92 52 43 53 95 54 89 55 88 56 44 58
REMARK SMILES IDX 76 59 56 60 75 61 57 62 60 63 74 64 93 65 58 66 59 67 73 69
REMARK SMILES IDX 94 70 61 71 45 72 46 73 54 74 47 75 48 76 52 77 55 78 49 79
REMARK SMILES IDX 50 80 53 81 51 82 77 83 78 84 86 85 79 86 80 87 84 88 87 89
REMARK SMILES IDX 81 90 82 91 85 92 83 93 62 94 63 95 71 96 64 97 65 98 69 99
REMARK SMILES IDX 72 100 66 101 67 102 70 103 68 104
REMARK H PARENT 28 4 25 13 7 14 33 38 92 57 60 68
REMARK Flexibility Score: inf
ROOT
ATOM      1  O   UNL A   1      36.839  34.664  32.165  1.00  0.00    -0.275 OA
ATOM      2  C   UNL A   1      37.867  33.999  32.104  1.00  0.00     0.221 C 
ATOM      3  N   UNL A   1      38.612  33.841  30.957  1.00  0.00    -0.356 N 
ATOM      4  H   UNL A   1      39.436  33.305  30.997  1.00  0.00     0.163 HD
ENDROOT
BRANCH   2   5
ATOM      5  C   UNL A   1      38.433  33.298  33.314  1.00  0.00     0.127 C 
BRANCH   5   6
ATOM      6  C   UNL A   1      38.789  31.854  32.987  1.00  0.00     0.183 C 
ATOM      7  S   UNL A   1      40.305  31.345  33.881  1.00  0.00    -0.020 SA
ATOM      8  C   UNL A   1      37.706  30.923  33.489  1.00  0.00     0.322 C 
ATOM      9  C   UNL A   1      39.414  30.311  34.956  1.00  0.00     0.337 C 
ATOM     10  N   UNL A   1      38.125  30.202  34.567  1.00  0.00    -0.202 N 
ATOM     11  O   UNL A   1      36.580  30.845  33.026  1.00  0.00    -0.246 OA
ATOM     12  N   UNL A   1      39.815  29.685  36.007  1.00  0.00    -0.142 N 
ATOM     13  H   UNL A   1      37.500  29.614  35.052  1.00  0.00     0.316 HD
ATOM     14  H   UNL A   1      39.215  29.118  36.543  1.00  0.00     0.343 HD
BRANCH  12  15
ATOM     15  N   UNL A   1      41.159  29.862  36.335  1.00  0.00    -0.093 NA
ATOM     16  C   UNL A   1      41.768  28.721  36.238  1.00  0.00     0.170 C 
BRANCH  16  17
ATOM     17  C   UNL A   1      43.199  28.555  36.498  1.00  0.00     0.040 A 
ATOM     18  C   UNL A   1      43.919  29.759  36.585  1.00  0.00     0.029 A 
ATOM     19  C   UNL A   1      43.842  27.327  36.713  1.00  0.00     0.128 A 
ATOM     20  C   UNL A   1      45.283  29.742  36.858  1.00  0.00     0.018 A 
ATOM     21  C   UNL A   1      45.233  27.340  36.919  1.00  0.00     0.048 A 
ATOM     22  Br  UNL A   1      46.214  31.371  37.069  1.00  0.00    -0.051 Br
ATOM     23  C   UNL A   1      45.952  28.534  37.001  1.00  0.00     0.019 A 
BRANCH  19  24
ATOM     24  O   UNL A   1      43.353  26.054  36.792  1.00  0.00    -0.488 OA
BRANCH  24  25
ATOM     25  C   UNL A   1      42.616  25.420  35.748  1.00  0.00     0.265 C 
BRANCH  25  26
ATOM     26  C   UNL A   1      43.417  24.935  34.551  1.00  0.00    -0.011 A 
ATOM     27  C   UNL A   1      43.940  25.893  33.666  1.00  0.00     0.007 A 
ATOM     28  C   UNL A   1      43.544  23.578  34.224  1.00  0.00     0.007 A 
ATOM     29  C   UNL A   1      44.467  25.506  32.433  1.00  0.00     0.000 A 
ATOM     30  C   UNL A   1      44.053  23.195  32.983  1.00  0.00     0.000 A 
ATOM     31  C   UNL A   1      44.494  24.159  32.080  1.00  0.00     0.000 A 
ENDBRANCH  25  26
ENDBRANCH  24  25
ENDBRANCH  19  24
ENDBRANCH  16  17
ENDBRANCH  12  15
ENDBRANCH   5   6
ENDBRANCH   2   5
BRANCH   3  32
ATOM     32  C   UNL A   1      38.225  34.439  29.695  1.00  0.00     0.116 C 
BRANCH  32  33
ATOM     33  C   UNL A   1      37.470  33.455  28.803  1.00  0.00     0.023 C 
BRANCH  33  34
ATOM     34  C   UNL A   1      35.946  33.598  28.828  1.00  0.00     0.023 C 
BRANCH  34  35
ATOM     35  C   UNL A   1      35.202  32.555  29.656  1.00  0.00     0.116 C 
BRANCH  35  36
ATOM     36  N   UNL A   1      34.436  31.624  28.844  1.00  0.00    -0.352 N 
ATOM     37  C   UNL A   1      34.840  30.474  28.209  1.00  0.00     0.251 C 
ATOM     38  H   UNL A   1      33.484  31.851  28.731  1.00  0.00     0.163 HD
ATOM     39  O   UNL A   1      34.074  29.892  27.448  1.00  0.00    -0.269 OA
BRANCH  37  40
ATOM     40  C   UNL A   1      36.210  29.949  28.412  1.00  0.00     0.039 A 
ATOM     41  C   UNL A   1      37.129  30.048  27.363  1.00  0.00     0.014 A 
ATOM     42  C   UNL A   1      36.591  29.359  29.619  1.00  0.00     0.014 A 
ATOM     43  C   UNL A   1      38.448  29.625  27.551  1.00  0.00     0.010 A 
ATOM     44  C   UNL A   1      37.924  29.010  29.832  1.00  0.00     0.010 A 
ATOM     45  C   UNL A   1      38.868  29.142  28.801  1.00  0.00    -0.014 A 
BRANCH  45  46
ATOM     46  C   UNL A   1      40.289  28.783  29.049  1.00  0.00     0.031 A 
ATOM     47  C   UNL A   1      41.219  29.762  29.712  1.00  0.00     0.074 A 
ATOM     48  C   UNL A   1      40.761  27.596  28.620  1.00  0.00     0.049 A 
ATOM     49  N   UNL A   1      42.503  29.655  29.952  1.00  0.00    -0.248 NA
ATOM     50  C   UNL A   1      40.634  31.041  30.142  1.00  0.00     0.031 C 
ATOM     51  C   UNL A   1      39.976  26.577  27.922  1.00  0.00     0.029 A 
ATOM     52  N   UNL A   1      42.018  27.049  28.698  1.00  0.00    -0.354 N 
ATOM     53  C   UNL A   1      42.877  30.852  30.548  1.00  0.00     0.074 A 
ATOM     54  C   UNL A   1      41.700  31.694  30.580  1.00  0.00     0.031 C 
ATOM     55  C   UNL A   1      40.761  25.522  27.655  1.00  0.00     0.029 A 
ATOM     56  C   UNL A   1      42.115  25.805  28.123  1.00  0.00     0.049 A 
ATOM     57  H   UNL A   1      42.779  27.505  29.126  1.00  0.00     0.167 HD
ATOM     58  C   UNL A   1      44.086  31.209  31.045  1.00  0.00     0.037 A 
ATOM     59  C   UNL A   1      43.177  24.988  27.978  1.00  0.00     0.037 A 
ATOM     60  C   UNL A   1      45.254  30.366  31.020  1.00  0.00     0.049 A 
ATOM     61  C   UNL A   1      44.515  25.419  28.513  1.00  0.00     0.074 A 
ATOM     62  C   UNL A   1      46.511  30.617  31.542  1.00  0.00     0.029 A 
ATOM     63  N   UNL A   1      45.309  29.109  30.435  1.00  0.00    -0.354 N 
ATOM     64  N   UNL A   1      44.843  26.527  29.132  1.00  0.00    -0.248 NA
ATOM     65  C   UNL A   1      45.632  24.480  28.334  1.00  0.00     0.031 C 
ATOM     66  C   UNL A   1      47.342  29.540  31.221  1.00  0.00     0.029 A 
ATOM     67  C   UNL A   1      46.588  28.586  30.557  1.00  0.00     0.049 A 
ATOM     68  H   UNL A   1      44.553  28.656  29.997  1.00  0.00     0.167 HD
ATOM     69  C   UNL A   1      46.190  26.408  29.442  1.00  0.00     0.074 A 
ATOM     70  C   UNL A   1      46.617  25.111  28.957  1.00  0.00     0.031 C 
ATOM     71  C   UNL A   1      47.001  27.293  30.074  1.00  0.00     0.037 A 
BRANCH  58  72
ATOM     72  C   UNL A   1      44.209  32.576  31.658  1.00  0.00     0.064 A 
ATOM     73  C   UNL A   1      44.057  32.781  33.038  1.00  0.00     0.173 A 
ATOM     74  C   UNL A   1      44.515  33.690  30.861  1.00  0.00     0.173 A 
ATOM     75  F   UNL A   1      43.756  31.753  33.845  1.00  0.00    -0.203 F 
ATOM     76  C   UNL A   1      44.172  34.054  33.592  1.00  0.00     0.198 A 
ATOM     77  C   UNL A   1      44.665  34.955  31.423  1.00  0.00     0.198 A 
ATOM     78  F   UNL A   1      44.680  33.551  29.537  1.00  0.00    -0.203 F 
ATOM     79  F   UNL A   1      43.968  34.233  34.904  1.00  0.00    -0.200 F 
ATOM     80  C   UNL A   1      44.483  35.139  32.786  1.00  0.00     0.200 A 
ATOM     81  F   UNL A   1      44.983  35.999  30.645  1.00  0.00    -0.200 F 
ATOM     82  F   UNL A   1      44.602  36.362  33.320  1.00  0.00    -0.200 F 
ENDBRANCH  58  72
BRANCH  59  83
ATOM     83  C   UNL A   1      43.015  23.676  27.298  1.00  0.00     0.064 A 
ATOM     84  C   UNL A   1      43.408  23.494  25.966  1.00  0.00     0.173 A 
ATOM     85  C   UNL A   1      42.454  22.577  27.966  1.00  0.00     0.173 A 
ATOM     86  F   UNL A   1      43.923  24.521  25.275  1.00  0.00    -0.203 F 
ATOM     87  C   UNL A   1      43.230  22.271  25.323  1.00  0.00     0.198 A 
ATOM     88  C   UNL A   1      42.308  21.345  27.335  1.00  0.00     0.198 A 
ATOM     89  F   UNL A   1      42.051  22.705  29.238  1.00  0.00    -0.203 F 
ATOM     90  F   UNL A   1      43.565  22.140  24.031  1.00  0.00    -0.200 F 
ATOM     91  C   UNL A   1      42.689  21.194  26.010  1.00  0.00     0.200 A 
ATOM     92  F   UNL A   1      41.796  20.305  28.008  1.00  0.00    -0.200 F 
ATOM     93  F   UNL A   1      42.522  20.017  25.392  1.00  0.00    -0.200 F 
ENDBRANCH  59  83
BRANCH  71  94
ATOM     94  C   UNL A   1      48.424  26.875  30.313  1.00  0.00     0.064 A 
ATOM     95  C   UNL A   1      48.787  26.068  31.402  1.00  0.00     0.173 A 
ATOM     96  C   UNL A   1      49.435  27.259  29.417  1.00  0.00     0.173 A 
ATOM     97  F   UNL A   1      47.863  25.685  32.297  1.00  0.00    -0.203 F 
ATOM     98  C   UNL A   1      50.112  25.685  31.599  1.00  0.00     0.198 A 
ATOM     99  C   UNL A   1      50.751  26.846  29.598  1.00  0.00     0.198 A 
ATOM    100  F   UNL A   1      49.143  28.026  28.355  1.00  0.00    -0.203 F 
ATOM    101  F   UNL A   1      50.443  24.958  32.675  1.00  0.00    -0.200 F 
ATOM    102  C   UNL A   1      51.090  26.067  30.695  1.00  0.00     0.200 A 
ATOM    103  F   UNL A   1      51.692  27.202  28.714  1.00  0.00    -0.200 F 
ATOM    104  F   UNL A   1      52.362  25.689  30.882  1.00  0.00    -0.200 F 
ENDBRANCH  71  94
ENDBRANCH  45  46
ENDBRANCH  37  40
ENDBRANCH  35  36
ENDBRANCH  34  35
ENDBRANCH  33  34
ENDBRANCH  32  33
ENDBRANCH   3  32
TORSDOF 17
ENDMDL
