MODEL 1
REMARK VINA RESULT:     -12.2      0.000      0.000
REMARK SMILES N#C/C(=C/c1cc(Br)ccc1OCC(=O)NCCCCNC(=O)c1ccc(-c2c3nc(c(-c4c(F)c(F)c(F)c(F)c4F)c4ccc([nH]4)c(-c4c(F)c(F)c(F)c(F)c4F)c4nc(c(-c5c(F)c(F)c(F)c(F)c5F)c5ccc2[nH]5)C=C4)C=C3)cc1)c1ccc(F)cc1
REMARK SMILES IDX 17 1 16 2 14 3 15 4 13 6 12 7 11 8 5 9 6 10 7 11 10 12 8 13
REMARK SMILES IDX 9 14 4 15 3 16 2 17 1 18 87 19 88 20 93 21 89 22 92 23 90 24
REMARK SMILES IDX 91 25 18 26 19 27 20 28 21 29 22 30 23 32 24 33 25 34 86 35
REMARK SMILES IDX 26 36 85 37 27 38 28 39 29 40 79 41 30 42 84 43 78 44 80 45
REMARK SMILES IDX 31 46 83 47 77 48 76 49 32 51 64 52 44 53 63 54 45 55 48 56
REMARK SMILES IDX 62 57 81 58 46 59 47 60 61 62 82 63 49 64 33 65 34 66 42 67
REMARK SMILES IDX 35 68 36 69 40 70 43 71 37 72 38 73 41 74 39 75 65 76 66 77
REMARK SMILES IDX 74 78 67 79 68 80 72 81 75 82 69 83 70 84 73 85 71 86 50 87
REMARK SMILES IDX 51 88 59 89 52 90 53 91 57 92 60 93 54 94 55 95 58 96 56 97
REMARK H PARENT 16 5 21 31 80 50 48 61
REMARK Flexibility Score: inf
ROOT
ATOM      1  C   UNL A   1      33.522  23.494  25.809  1.00  0.00     0.116 C 
ENDROOT
BRANCH   1   2
ATOM      2  N   UNL A   1      32.505  23.279  26.814  1.00  0.00    -0.353 N 
ATOM      3  C   UNL A   1      31.189  23.624  26.755  1.00  0.00     0.257 C 
ATOM      4  O   UNL A   1      30.422  23.117  27.577  1.00  0.00    -0.271 OA
ATOM      5  H   UNL A   1      32.799  22.831  27.641  1.00  0.00     0.163 HD
BRANCH   3   6
ATOM      6  C   UNL A   1      30.686  24.601  25.684  1.00  0.00     0.329 C 
BRANCH   6   7
ATOM      7  O   UNL A   1      30.433  25.944  26.043  1.00  0.00    -0.483 OA
BRANCH   7   8
ATOM      8  C   UNL A   1      31.399  26.904  26.148  1.00  0.00     0.127 A 
ATOM      9  C   UNL A   1      32.390  27.304  25.234  1.00  0.00     0.019 A 
ATOM     10  C   UNL A   1      33.259  28.360  25.582  1.00  0.00     0.027 A 
ATOM     11  C   UNL A   1      33.189  28.958  26.840  1.00  0.00     0.018 A 
ATOM     12  C   UNL A   1      31.337  27.540  27.401  1.00  0.00     0.048 A 
ATOM     13  Br  UNL A   1      34.438  30.291  27.321  1.00  0.00    -0.051 Br
ATOM     14  C   UNL A   1      32.230  28.550  27.755  1.00  0.00     0.019 A 
BRANCH   9  15
ATOM     15  C   UNL A   1      32.650  26.600  23.971  1.00  0.00     0.032 C 
ATOM     16  C   UNL A   1      32.115  26.911  22.775  1.00  0.00     0.060 C 
BRANCH  16  17
ATOM     17  C   UNL A   1      32.598  26.189  21.527  1.00  0.00     0.100 C 
ATOM     18  N   UNL A   1      32.999  25.591  20.492  1.00  0.00    -0.192 NA
ENDBRANCH  16  17
BRANCH  16  19
ATOM     19  C   UNL A   1      30.886  27.735  22.643  1.00  0.00    -0.008 A 
ATOM     20  C   UNL A   1      30.904  29.080  22.248  1.00  0.00     0.012 A 
ATOM     21  C   UNL A   1      29.666  27.174  23.075  1.00  0.00     0.012 A 
ATOM     22  C   UNL A   1      29.748  29.861  22.347  1.00  0.00     0.040 A 
ATOM     23  C   UNL A   1      28.510  27.951  23.158  1.00  0.00     0.040 A 
ATOM     24  C   UNL A   1      28.566  29.292  22.810  1.00  0.00     0.123 A 
ATOM     25  F   UNL A   1      27.470  30.051  22.936  1.00  0.00    -0.207 F 
ENDBRANCH  16  19
ENDBRANCH   9  15
ENDBRANCH   7   8
ENDBRANCH   6   7
ENDBRANCH   3   6
ENDBRANCH   1   2
BRANCH   1  26
ATOM     26  C   UNL A   1      34.912  23.041  26.244  1.00  0.00     0.023 C 
BRANCH  26  27
ATOM     27  C   UNL A   1      36.045  24.037  25.999  1.00  0.00     0.023 C 
BRANCH  27  28
ATOM     28  C   UNL A   1      37.078  23.624  24.958  1.00  0.00     0.116 C 
BRANCH  28  29
ATOM     29  N   UNL A   1      38.008  22.618  25.443  1.00  0.00    -0.352 N 
ATOM     30  C   UNL A   1      39.130  22.766  26.218  1.00  0.00     0.251 C 
ATOM     31  H   UNL A   1      37.801  21.693  25.174  1.00  0.00     0.163 HD
ATOM     32  O   UNL A   1      39.854  21.800  26.433  1.00  0.00    -0.269 OA
BRANCH  30  33
ATOM     33  C   UNL A   1      39.489  24.092  26.767  1.00  0.00     0.039 A 
ATOM     34  C   UNL A   1      39.138  24.381  28.089  1.00  0.00     0.014 A 
ATOM     35  C   UNL A   1      40.153  25.050  25.995  1.00  0.00     0.014 A 
ATOM     36  C   UNL A   1      39.496  25.608  28.649  1.00  0.00     0.010 A 
ATOM     37  C   UNL A   1      40.584  26.237  26.582  1.00  0.00     0.010 A 
ATOM     38  C   UNL A   1      40.249  26.536  27.911  1.00  0.00    -0.014 A 
BRANCH  38  39
ATOM     39  C   UNL A   1      40.671  27.826  28.515  1.00  0.00     0.031 A 
ATOM     40  C   UNL A   1      42.108  28.050  28.903  1.00  0.00     0.074 A 
ATOM     41  C   UNL A   1      39.753  28.785  28.746  1.00  0.00     0.049 A 
ATOM     42  N   UNL A   1      42.663  29.101  29.454  1.00  0.00    -0.248 NA
ATOM     43  C   UNL A   1      43.041  26.936  28.667  1.00  0.00     0.031 C 
ATOM     44  C   UNL A   1      38.321  28.669  28.468  1.00  0.00     0.029 A 
ATOM     45  N   UNL A   1      39.888  30.046  29.273  1.00  0.00    -0.354 N 
ATOM     46  C   UNL A   1      43.999  28.769  29.640  1.00  0.00     0.074 A 
ATOM     47  C   UNL A   1      44.161  27.401  29.200  1.00  0.00     0.031 C 
ATOM     48  C   UNL A   1      37.714  29.820  28.801  1.00  0.00     0.029 A 
ATOM     49  C   UNL A   1      38.704  30.741  29.348  1.00  0.00     0.049 A 
ATOM     50  H   UNL A   1      40.750  30.417  29.569  1.00  0.00     0.167 HD
ATOM     51  C   UNL A   1      45.006  29.543  30.112  1.00  0.00     0.037 A 
ATOM     52  C   UNL A   1      38.449  31.980  29.809  1.00  0.00     0.037 A 
ATOM     53  C   UNL A   1      44.846  30.913  30.527  1.00  0.00     0.049 A 
ATOM     54  C   UNL A   1      39.589  32.823  30.316  1.00  0.00     0.074 A 
ATOM     55  C   UNL A   1      45.815  31.801  30.960  1.00  0.00     0.029 A 
ATOM     56  N   UNL A   1      43.637  31.592  30.563  1.00  0.00    -0.354 N 
ATOM     57  N   UNL A   1      40.863  32.525  30.411  1.00  0.00    -0.248 NA
ATOM     58  C   UNL A   1      39.257  34.181  30.765  1.00  0.00     0.031 C 
ATOM     59  C   UNL A   1      45.185  32.998  31.314  1.00  0.00     0.029 A 
ATOM     60  C   UNL A   1      43.833  32.881  31.035  1.00  0.00     0.049 A 
ATOM     61  H   UNL A   1      42.768  31.214  30.295  1.00  0.00     0.167 HD
ATOM     62  C   UNL A   1      41.487  33.669  30.894  1.00  0.00     0.074 A 
ATOM     63  C   UNL A   1      40.454  34.670  31.053  1.00  0.00     0.031 C 
ATOM     64  C   UNL A   1      42.797  33.871  31.180  1.00  0.00     0.037 A 
BRANCH  51  65
ATOM     65  C   UNL A   1      46.375  28.930  30.207  1.00  0.00     0.064 A 
ATOM     66  C   UNL A   1      46.807  28.264  31.364  1.00  0.00     0.173 A 
ATOM     67  C   UNL A   1      47.248  28.966  29.108  1.00  0.00     0.173 A 
ATOM     68  F   UNL A   1      46.019  28.209  32.447  1.00  0.00    -0.203 F 
ATOM     69  C   UNL A   1      48.071  27.680  31.426  1.00  0.00     0.198 A 
ATOM     70  C   UNL A   1      48.496  28.353  29.162  1.00  0.00     0.198 A 
ATOM     71  F   UNL A   1      46.883  29.586  27.975  1.00  0.00    -0.203 F 
ATOM     72  F   UNL A   1      48.480  27.093  32.558  1.00  0.00    -0.200 F 
ATOM     73  C   UNL A   1      48.910  27.716  30.322  1.00  0.00     0.200 A 
ATOM     74  F   UNL A   1      49.298  28.374  28.088  1.00  0.00    -0.200 F 
ATOM     75  F   UNL A   1      50.119  27.143  30.379  1.00  0.00    -0.200 F 
ENDBRANCH  51  65
BRANCH  52  76
ATOM     76  C   UNL A   1      37.060  32.512  29.795  1.00  0.00     0.064 A 
ATOM     77  C   UNL A   1      36.568  33.225  28.692  1.00  0.00     0.173 A 
ATOM     78  C   UNL A   1      36.204  32.341  30.893  1.00  0.00     0.173 A 
ATOM     79  F   UNL A   1      37.351  33.431  27.624  1.00  0.00    -0.203 F 
ATOM     80  C   UNL A   1      35.288  33.777  28.704  1.00  0.00     0.198 A 
ATOM     81  C   UNL A   1      34.912  32.863  30.889  1.00  0.00     0.198 A 
ATOM     82  F   UNL A   1      36.621  31.660  31.970  1.00  0.00    -0.203 F 
ATOM     83  F   UNL A   1      34.867  34.508  27.661  1.00  0.00    -0.200 F 
ATOM     84  C   UNL A   1      34.459  33.592  29.799  1.00  0.00     0.200 A 
ATOM     85  F   UNL A   1      34.109  32.666  31.943  1.00  0.00    -0.200 F 
ATOM     86  F   UNL A   1      33.230  34.124  29.811  1.00  0.00    -0.200 F 
ENDBRANCH  52  76
BRANCH  64  87
ATOM     87  C   UNL A   1      43.195  35.246  31.641  1.00  0.00     0.064 A 
ATOM     88  C   UNL A   1      43.665  36.222  30.750  1.00  0.00     0.173 A 
ATOM     89  C   UNL A   1      43.091  35.593  32.997  1.00  0.00     0.173 A 
ATOM     90  F   UNL A   1      43.794  35.940  29.445  1.00  0.00    -0.203 F 
ATOM     91  C   UNL A   1      44.061  37.477  31.206  1.00  0.00     0.198 A 
ATOM     92  C   UNL A   1      43.450  36.862  33.444  1.00  0.00     0.198 A 
ATOM     93  F   UNL A   1      42.635  34.703  33.892  1.00  0.00    -0.203 F 
ATOM     94  F   UNL A   1      44.576  38.367  30.347  1.00  0.00    -0.200 F 
ATOM     95  C   UNL A   1      43.949  37.797  32.551  1.00  0.00     0.200 A 
ATOM     96  F   UNL A   1      43.322  37.176  34.740  1.00  0.00    -0.200 F 
ATOM     97  F   UNL A   1      44.331  39.005  32.988  1.00  0.00    -0.200 F 
ENDBRANCH  64  87
ENDBRANCH  38  39
ENDBRANCH  30  33
ENDBRANCH  28  29
ENDBRANCH  27  28
ENDBRANCH  26  27
ENDBRANCH   1  26
TORSDOF 16
ENDMDL
MODEL 2
REMARK VINA RESULT:     -11.9      4.398      8.959
REMARK SMILES N#C/C(=C/c1cc(Br)ccc1OCC(=O)NCCCCNC(=O)c1ccc(-c2c3nc(c(-c4c(F)c(F)c(F)c(F)c4F)c4ccc([nH]4)c(-c4c(F)c(F)c(F)c(F)c4F)c4nc(c(-c5c(F)c(F)c(F)c(F)c5F)c5ccc2[nH]5)C=C4)C=C3)cc1)c1ccc(F)cc1
REMARK SMILES IDX 17 1 16 2 14 3 15 4 13 6 12 7 11 8 5 9 6 10 7 11 10 12 8 13
REMARK SMILES IDX 9 14 4 15 3 16 2 17 1 18 87 19 88 20 93 21 89 22 92 23 90 24
REMARK SMILES IDX 91 25 18 26 19 27 20 28 21 29 22 30 23 32 24 33 25 34 86 35
REMARK SMILES IDX 26 36 85 37 27 38 28 39 29 40 79 41 30 42 84 43 78 44 80 45
REMARK SMILES IDX 31 46 83 47 77 48 76 49 32 51 64 52 44 53 63 54 45 55 48 56
REMARK SMILES IDX 62 57 81 58 46 59 47 60 61 62 82 63 49 64 33 65 34 66 42 67
REMARK SMILES IDX 35 68 36 69 40 70 43 71 37 72 38 73 41 74 39 75 65 76 66 77
REMARK SMILES IDX 74 78 67 79 68 80 72 81 75 82 69 83 70 84 73 85 71 86 50 87
REMARK SMILES IDX 51 88 59 89 52 90 53 91 57 92 60 93 54 94 55 95 58 96 56 97
REMARK H PARENT 16 5 21 31 80 50 48 61
REMARK Flexibility Score: inf
ROOT
ATOM      1  C   UNL A   1      31.211  25.971  25.686  1.00  0.00     0.116 C 
ENDROOT
BRANCH   1   2
ATOM      2  N   UNL A   1      30.347  25.182  26.535  1.00  0.00    -0.353 N 
ATOM      3  C   UNL A   1      30.279  23.824  26.622  1.00  0.00     0.257 C 
ATOM      4  O   UNL A   1      29.691  23.338  27.589  1.00  0.00    -0.271 OA
ATOM      5  H   UNL A   1      29.735  25.686  27.119  1.00  0.00     0.163 HD
BRANCH   3   6
ATOM      6  C   UNL A   1      30.931  22.941  25.550  1.00  0.00     0.329 C 
BRANCH   6   7
ATOM      7  O   UNL A   1      32.000  22.092  25.916  1.00  0.00    -0.483 OA
BRANCH   7   8
ATOM      8  C   UNL A   1      32.442  21.047  25.156  1.00  0.00     0.127 A 
ATOM      9  C   UNL A   1      32.788  20.992  23.793  1.00  0.00     0.019 A 
ATOM     10  C   UNL A   1      33.253  19.775  23.251  1.00  0.00     0.027 A 
ATOM     11  C   UNL A   1      33.306  18.620  24.030  1.00  0.00     0.018 A 
ATOM     12  C   UNL A   1      32.526  19.871  25.923  1.00  0.00     0.048 A 
ATOM     13  Br  UNL A   1      33.823  16.979  23.250  1.00  0.00    -0.051 Br
ATOM     14  C   UNL A   1      32.941  18.661  25.368  1.00  0.00     0.019 A 
BRANCH   9  15
ATOM     15  C   UNL A   1      32.580  22.112  22.867  1.00  0.00     0.032 C 
ATOM     16  C   UNL A   1      33.470  23.087  22.600  1.00  0.00     0.060 C 
BRANCH  16  17
ATOM     17  C   UNL A   1      33.175  24.094  21.501  1.00  0.00     0.100 C 
ATOM     18  N   UNL A   1      32.930  24.929  20.588  1.00  0.00    -0.192 NA
ENDBRANCH  16  17
BRANCH  16  19
ATOM     19  C   UNL A   1      34.608  23.392  23.506  1.00  0.00    -0.008 A 
ATOM     20  C   UNL A   1      35.863  22.775  23.394  1.00  0.00     0.012 A 
ATOM     21  C   UNL A   1      34.364  24.234  24.611  1.00  0.00     0.012 A 
ATOM     22  C   UNL A   1      36.823  22.942  24.397  1.00  0.00     0.040 A 
ATOM     23  C   UNL A   1      35.330  24.411  25.602  1.00  0.00     0.040 A 
ATOM     24  C   UNL A   1      36.544  23.749  25.495  1.00  0.00     0.123 A 
ATOM     25  F   UNL A   1      37.453  23.880  26.469  1.00  0.00    -0.207 F 
ENDBRANCH  16  19
ENDBRANCH   9  15
ENDBRANCH   7   8
ENDBRANCH   6   7
ENDBRANCH   3   6
ENDBRANCH   1   2
BRANCH   1  26
ATOM     26  C   UNL A   1      31.922  27.101  26.424  1.00  0.00     0.023 C 
BRANCH  26  27
ATOM     27  C   UNL A   1      31.822  28.485  25.782  1.00  0.00     0.023 C 
BRANCH  27  28
ATOM     28  C   UNL A   1      33.065  29.358  25.892  1.00  0.00     0.116 C 
BRANCH  28  29
ATOM     29  N   UNL A   1      32.774  30.720  26.304  1.00  0.00    -0.352 N 
ATOM     30  C   UNL A   1      33.422  31.516  27.216  1.00  0.00     0.251 C 
ATOM     31  H   UNL A   1      31.996  31.133  25.864  1.00  0.00     0.163 HD
ATOM     32  O   UNL A   1      32.954  32.610  27.510  1.00  0.00    -0.269 OA
BRANCH  30  33
ATOM     33  C   UNL A   1      34.662  31.044  27.870  1.00  0.00     0.039 A 
ATOM     34  C   UNL A   1      35.726  31.940  28.000  1.00  0.00     0.014 A 
ATOM     35  C   UNL A   1      34.788  29.735  28.344  1.00  0.00     0.014 A 
ATOM     36  C   UNL A   1      36.896  31.538  28.647  1.00  0.00     0.010 A 
ATOM     37  C   UNL A   1      35.921  29.363  29.064  1.00  0.00     0.010 A 
ATOM     38  C   UNL A   1      36.993  30.256  29.212  1.00  0.00    -0.014 A 
BRANCH  38  39
ATOM     39  C   UNL A   1      38.218  29.836  29.940  1.00  0.00     0.031 A 
ATOM     40  C   UNL A   1      38.494  30.353  31.326  1.00  0.00     0.074 A 
ATOM     41  C   UNL A   1      39.102  29.015  29.339  1.00  0.00     0.049 A 
ATOM     42  N   UNL A   1      39.513  30.111  32.113  1.00  0.00    -0.248 NA
ATOM     43  C   UNL A   1      37.508  31.286  31.895  1.00  0.00     0.031 C 
ATOM     44  C   UNL A   1      38.979  28.492  27.977  1.00  0.00     0.029 A 
ATOM     45  N   UNL A   1      40.282  28.481  29.794  1.00  0.00    -0.354 N 
ATOM     46  C   UNL A   1      39.296  30.870  33.256  1.00  0.00     0.074 A 
ATOM     47  C   UNL A   1      38.082  31.624  33.040  1.00  0.00     0.031 C 
ATOM     48  C   UNL A   1      40.026  27.690  27.718  1.00  0.00     0.029 A 
ATOM     49  C   UNL A   1      40.911  27.672  28.878  1.00  0.00     0.049 A 
ATOM     50  H   UNL A   1      40.644  28.661  30.691  1.00  0.00     0.167 HD
ATOM     51  C   UNL A   1      40.029  30.914  34.395  1.00  0.00     0.037 A 
ATOM     52  C   UNL A   1      42.072  26.994  28.964  1.00  0.00     0.037 A 
ATOM     53  C   UNL A   1      41.225  30.142  34.617  1.00  0.00     0.049 A 
ATOM     54  C   UNL A   1      42.860  27.052  30.245  1.00  0.00     0.074 A 
ATOM     55  C   UNL A   1      42.005  30.069  35.758  1.00  0.00     0.029 A 
ATOM     56  N   UNL A   1      41.817  29.313  33.675  1.00  0.00    -0.354 N 
ATOM     57  N   UNL A   1      42.601  27.709  31.351  1.00  0.00    -0.248 NA
ATOM     58  C   UNL A   1      44.094  26.258  30.297  1.00  0.00     0.031 C 
ATOM     59  C   UNL A   1      43.099  29.242  35.489  1.00  0.00     0.029 A 
ATOM     60  C   UNL A   1      42.965  28.742  34.203  1.00  0.00     0.049 A 
ATOM     61  H   UNL A   1      41.473  29.153  32.767  1.00  0.00     0.167 HD
ATOM     62  C   UNL A   1      43.618  27.380  32.238  1.00  0.00     0.074 A 
ATOM     63  C   UNL A   1      44.485  26.449  31.548  1.00  0.00     0.031 C 
ATOM     64  C   UNL A   1      43.815  27.810  33.509  1.00  0.00     0.037 A 
BRANCH  51  65
ATOM     65  C   UNL A   1      39.562  31.827  35.493  1.00  0.00     0.064 A 
ATOM     66  C   UNL A   1      40.010  33.153  35.592  1.00  0.00     0.173 A 
ATOM     67  C   UNL A   1      38.616  31.384  36.431  1.00  0.00     0.173 A 
ATOM     68  F   UNL A   1      40.922  33.625  34.730  1.00  0.00    -0.203 F 
ATOM     69  C   UNL A   1      39.548  33.993  36.603  1.00  0.00     0.198 A 
ATOM     70  C   UNL A   1      38.132  32.237  37.419  1.00  0.00     0.198 A 
ATOM     71  F   UNL A   1      38.151  30.127  36.381  1.00  0.00    -0.203 F 
ATOM     72  F   UNL A   1      40.027  35.240  36.706  1.00  0.00    -0.200 F 
ATOM     73  C   UNL A   1      38.602  33.538  37.510  1.00  0.00     0.200 A 
ATOM     74  F   UNL A   1      37.205  31.799  38.284  1.00  0.00    -0.200 F 
ATOM     75  F   UNL A   1      38.149  34.351  38.473  1.00  0.00    -0.200 F 
ENDBRANCH  51  65
BRANCH  52  76
ATOM     76  C   UNL A   1      42.552  26.184  27.813  1.00  0.00     0.064 A 
ATOM     77  C   UNL A   1      43.434  26.723  26.865  1.00  0.00     0.173 A 
ATOM     78  C   UNL A   1      42.119  24.864  27.621  1.00  0.00     0.173 A 
ATOM     79  F   UNL A   1      43.865  27.985  26.993  1.00  0.00    -0.203 F 
ATOM     80  C   UNL A   1      43.835  25.985  25.753  1.00  0.00     0.198 A 
ATOM     81  C   UNL A   1      42.548  24.115  26.527  1.00  0.00     0.198 A 
ATOM     82  F   UNL A   1      41.281  24.297  28.502  1.00  0.00    -0.203 F 
ATOM     83  F   UNL A   1      44.629  26.547  24.830  1.00  0.00    -0.200 F 
ATOM     84  C   UNL A   1      43.396  24.680  25.587  1.00  0.00     0.200 A 
ATOM     85  F   UNL A   1      42.135  22.849  26.381  1.00  0.00    -0.200 F 
ATOM     86  F   UNL A   1      43.780  23.972  24.516  1.00  0.00    -0.200 F 
ENDBRANCH  52  76
BRANCH  64  87
ATOM     87  C   UNL A   1      44.986  27.232  34.255  1.00  0.00     0.064 A 
ATOM     88  C   UNL A   1      46.243  27.855  34.262  1.00  0.00     0.173 A 
ATOM     89  C   UNL A   1      44.842  26.041  34.983  1.00  0.00     0.173 A 
ATOM     90  F   UNL A   1      46.439  28.990  33.574  1.00  0.00    -0.203 F 
ATOM     91  C   UNL A   1      47.322  27.283  34.932  1.00  0.00     0.198 A 
ATOM     92  C   UNL A   1      45.912  25.493  35.684  1.00  0.00     0.198 A 
ATOM     93  F   UNL A   1      43.658  25.409  35.021  1.00  0.00    -0.203 F 
ATOM     94  F   UNL A   1      48.531  27.858  34.864  1.00  0.00    -0.200 F 
ATOM     95  C   UNL A   1      47.155  26.105  35.645  1.00  0.00     0.200 A 
ATOM     96  F   UNL A   1      45.743  24.366  36.389  1.00  0.00    -0.200 F 
ATOM     97  F   UNL A   1      48.194  25.556  36.288  1.00  0.00    -0.200 F 
ENDBRANCH  64  87
ENDBRANCH  38  39
ENDBRANCH  30  33
ENDBRANCH  28  29
ENDBRANCH  27  28
ENDBRANCH  26  27
ENDBRANCH   1  26
TORSDOF 16
ENDMDL
MODEL 3
REMARK VINA RESULT:     -11.9      4.076      8.975
REMARK SMILES N#C/C(=C/c1cc(Br)ccc1OCC(=O)NCCCCNC(=O)c1ccc(-c2c3nc(c(-c4c(F)c(F)c(F)c(F)c4F)c4ccc([nH]4)c(-c4c(F)c(F)c(F)c(F)c4F)c4nc(c(-c5c(F)c(F)c(F)c(F)c5F)c5ccc2[nH]5)C=C4)C=C3)cc1)c1ccc(F)cc1
REMARK SMILES IDX 17 1 16 2 14 3 15 4 13 6 12 7 11 8 5 9 6 10 7 11 10 12 8 13
REMARK SMILES IDX 9 14 4 15 3 16 2 17 1 18 87 19 88 20 93 21 89 22 92 23 90 24
REMARK SMILES IDX 91 25 18 26 19 27 20 28 21 29 22 30 23 32 24 33 25 34 86 35
REMARK SMILES IDX 26 36 85 37 27 38 28 39 29 40 79 41 30 42 84 43 78 44 80 45
REMARK SMILES IDX 31 46 83 47 77 48 76 49 32 51 64 52 44 53 63 54 45 55 48 56
REMARK SMILES IDX 62 57 81 58 46 59 47 60 61 62 82 63 49 64 33 65 34 66 42 67
REMARK SMILES IDX 35 68 36 69 40 70 43 71 37 72 38 73 41 74 39 75 65 76 66 77
REMARK SMILES IDX 74 78 67 79 68 80 72 81 75 82 69 83 70 84 73 85 71 86 50 87
REMARK SMILES IDX 51 88 59 89 52 90 53 91 57 92 60 93 54 94 55 95 58 96 56 97
REMARK H PARENT 16 5 21 31 80 50 48 61
REMARK Flexibility Score: inf
ROOT
ATOM      1  C   UNL A   1      31.220  25.933  25.744  1.00  0.00     0.116 C 
ENDROOT
BRANCH   1   2
ATOM      2  N   UNL A   1      30.349  25.141  26.583  1.00  0.00    -0.353 N 
ATOM      3  C   UNL A   1      30.273  23.783  26.657  1.00  0.00     0.257 C 
ATOM      4  O   UNL A   1      29.678  23.290  27.617  1.00  0.00    -0.271 OA
ATOM      5  H   UNL A   1      29.736  25.642  27.169  1.00  0.00     0.163 HD
BRANCH   3   6
ATOM      6  C   UNL A   1      30.926  22.906  25.580  1.00  0.00     0.329 C 
BRANCH   6   7
ATOM      7  O   UNL A   1      31.998  22.059  25.939  1.00  0.00    -0.483 OA
BRANCH   7   8
ATOM      8  C   UNL A   1      32.440  21.017  25.174  1.00  0.00     0.127 A 
ATOM      9  C   UNL A   1      32.782  20.965  23.811  1.00  0.00     0.019 A 
ATOM     10  C   UNL A   1      33.247  19.751  23.265  1.00  0.00     0.027 A 
ATOM     11  C   UNL A   1      33.303  18.593  24.041  1.00  0.00     0.018 A 
ATOM     12  C   UNL A   1      32.527  19.839  25.939  1.00  0.00     0.048 A 
ATOM     13  Br  UNL A   1      33.820  16.955  23.255  1.00  0.00    -0.051 Br
ATOM     14  C   UNL A   1      32.942  18.631  25.380  1.00  0.00     0.019 A 
BRANCH   9  15
ATOM     15  C   UNL A   1      32.570  22.088  22.888  1.00  0.00     0.032 C 
ATOM     16  C   UNL A   1      33.458  23.065  22.623  1.00  0.00     0.060 C 
BRANCH  16  17
ATOM     17  C   UNL A   1      33.159  24.074  21.526  1.00  0.00     0.100 C 
ATOM     18  N   UNL A   1      32.910  24.911  20.616  1.00  0.00    -0.192 NA
ENDBRANCH  16  17
BRANCH  16  19
ATOM     19  C   UNL A   1      34.597  23.371  23.527  1.00  0.00    -0.008 A 
ATOM     20  C   UNL A   1      35.842  22.733  23.433  1.00  0.00     0.012 A 
ATOM     21  C   UNL A   1      34.361  24.237  24.614  1.00  0.00     0.012 A 
ATOM     22  C   UNL A   1      36.800  22.904  24.437  1.00  0.00     0.040 A 
ATOM     23  C   UNL A   1      35.325  24.419  25.606  1.00  0.00     0.040 A 
ATOM     24  C   UNL A   1      36.529  23.737  25.518  1.00  0.00     0.123 A 
ATOM     25  F   UNL A   1      37.436  23.872  26.494  1.00  0.00    -0.207 F 
ENDBRANCH  16  19
ENDBRANCH   9  15
ENDBRANCH   7   8
ENDBRANCH   6   7
ENDBRANCH   3   6
ENDBRANCH   1   2
BRANCH   1  26
ATOM     26  C   UNL A   1      32.008  26.989  26.514  1.00  0.00     0.023 C 
BRANCH  26  27
ATOM     27  C   UNL A   1      32.635  28.099  25.671  1.00  0.00     0.023 C 
BRANCH  27  28
ATOM     28  C   UNL A   1      33.937  28.682  26.206  1.00  0.00     0.116 C 
BRANCH  28  29
ATOM     29  N   UNL A   1      33.804  30.053  26.667  1.00  0.00    -0.352 N 
ATOM     30  C   UNL A   1      34.601  30.770  27.525  1.00  0.00     0.251 C 
ATOM     31  H   UNL A   1      33.026  30.541  26.310  1.00  0.00     0.163 HD
ATOM     32  O   UNL A   1      34.258  31.891  27.881  1.00  0.00    -0.269 OA
BRANCH  30  33
ATOM     33  C   UNL A   1      35.852  30.179  28.048  1.00  0.00     0.039 A 
ATOM     34  C   UNL A   1      36.998  30.237  27.250  1.00  0.00     0.014 A 
ATOM     35  C   UNL A   1      35.905  29.567  29.303  1.00  0.00     0.014 A 
ATOM     36  C   UNL A   1      38.204  29.725  27.731  1.00  0.00     0.010 A 
ATOM     37  C   UNL A   1      37.126  29.135  29.815  1.00  0.00     0.010 A 
ATOM     38  C   UNL A   1      38.287  29.196  29.030  1.00  0.00    -0.014 A 
BRANCH  38  39
ATOM     39  C   UNL A   1      39.577  28.689  29.564  1.00  0.00     0.031 A 
ATOM     40  C   UNL A   1      40.289  29.431  30.663  1.00  0.00     0.074 A 
ATOM     41  C   UNL A   1      40.127  27.578  29.035  1.00  0.00     0.049 A 
ATOM     42  N   UNL A   1      41.427  29.152  31.248  1.00  0.00    -0.248 NA
ATOM     43  C   UNL A   1      39.652  30.664  31.153  1.00  0.00     0.031 C 
ATOM     44  C   UNL A   1      39.565  26.802  27.928  1.00  0.00     0.029 A 
ATOM     45  N   UNL A   1      41.283  26.911  29.354  1.00  0.00    -0.354 N 
ATOM     46  C   UNL A   1      41.646  30.177  32.159  1.00  0.00     0.074 A 
ATOM     47  C   UNL A   1      40.555  31.115  32.011  1.00  0.00     0.031 C 
ATOM     48  C   UNL A   1      40.362  25.750  27.679  1.00  0.00     0.029 A 
ATOM     49  C   UNL A   1      41.508  25.797  28.582  1.00  0.00     0.049 A 
ATOM     50  H   UNL A   1      41.894  27.203  30.068  1.00  0.00     0.167 HD
ATOM     51  C   UNL A   1      42.651  30.312  33.057  1.00  0.00     0.037 A 
ATOM     52  C   UNL A   1      42.526  24.914  28.599  1.00  0.00     0.037 A 
ATOM     53  C   UNL A   1      43.723  29.363  33.220  1.00  0.00     0.049 A 
ATOM     54  C   UNL A   1      43.623  25.082  29.615  1.00  0.00     0.074 A 
ATOM     55  C   UNL A   1      44.755  29.377  34.142  1.00  0.00     0.029 A 
ATOM     56  N   UNL A   1      43.903  28.232  32.437  1.00  0.00    -0.354 N 
ATOM     57  N   UNL A   1      43.775  26.012  30.527  1.00  0.00    -0.248 NA
ATOM     58  C   UNL A   1      44.683  24.065  29.616  1.00  0.00     0.031 C 
ATOM     59  C   UNL A   1      45.591  28.288  33.881  1.00  0.00     0.029 A 
ATOM     60  C   UNL A   1      45.042  27.554  32.841  1.00  0.00     0.049 A 
ATOM     61  H   UNL A   1      43.310  27.953  31.702  1.00  0.00     0.167 HD
ATOM     62  C   UNL A   1      44.924  25.673  31.231  1.00  0.00     0.074 A 
ATOM     63  C   UNL A   1      45.417  24.441  30.653  1.00  0.00     0.031 C 
ATOM     64  C   UNL A   1      45.517  26.324  32.262  1.00  0.00     0.037 A 
BRANCH  51  65
ATOM     65  C   UNL A   1      42.645  31.530  33.938  1.00  0.00     0.064 A 
ATOM     66  C   UNL A   1      41.991  31.541  35.179  1.00  0.00     0.173 A 
ATOM     67  C   UNL A   1      43.344  32.686  33.557  1.00  0.00     0.173 A 
ATOM     68  F   UNL A   1      41.297  30.467  35.587  1.00  0.00    -0.203 F 
ATOM     69  C   UNL A   1      42.015  32.671  35.994  1.00  0.00     0.198 A 
ATOM     70  C   UNL A   1      43.395  33.801  34.389  1.00  0.00     0.198 A 
ATOM     71  F   UNL A   1      43.991  32.729  32.382  1.00  0.00    -0.203 F 
ATOM     72  F   UNL A   1      41.343  32.673  37.153  1.00  0.00    -0.200 F 
ATOM     73  C   UNL A   1      42.725  33.796  35.603  1.00  0.00     0.200 A 
ATOM     74  F   UNL A   1      44.096  34.881  34.016  1.00  0.00    -0.200 F 
ATOM     75  F   UNL A   1      42.759  34.877  36.394  1.00  0.00    -0.200 F 
ENDBRANCH  51  65
BRANCH  52  76
ATOM     76  C   UNL A   1      42.548  23.779  27.638  1.00  0.00     0.064 A 
ATOM     77  C   UNL A   1      42.071  22.512  28.002  1.00  0.00     0.173 A 
ATOM     78  C   UNL A   1      43.069  23.931  26.345  1.00  0.00     0.173 A 
ATOM     79  F   UNL A   1      41.578  22.309  29.232  1.00  0.00    -0.203 F 
ATOM     80  C   UNL A   1      42.149  21.432  27.124  1.00  0.00     0.198 A 
ATOM     81  C   UNL A   1      43.114  22.859  25.454  1.00  0.00     0.198 A 
ATOM     82  F   UNL A   1      43.531  25.124  25.942  1.00  0.00    -0.203 F 
ATOM     83  F   UNL A   1      41.744  20.218  27.521  1.00  0.00    -0.200 F 
ATOM     84  C   UNL A   1      42.666  21.608  25.849  1.00  0.00     0.200 A 
ATOM     85  F   UNL A   1      43.598  23.038  24.219  1.00  0.00    -0.200 F 
ATOM     86  F   UNL A   1      42.742  20.570  25.005  1.00  0.00    -0.200 F 
ENDBRANCH  52  76
BRANCH  64  87
ATOM     87  C   UNL A   1      46.735  25.683  32.869  1.00  0.00     0.064 A 
ATOM     88  C   UNL A   1      48.031  25.972  32.414  1.00  0.00     0.173 A 
ATOM     89  C   UNL A   1      46.601  24.774  33.929  1.00  0.00     0.173 A 
ATOM     90  F   UNL A   1      48.216  26.825  31.396  1.00  0.00    -0.203 F 
ATOM     91  C   UNL A   1      49.141  25.339  32.968  1.00  0.00     0.198 A 
ATOM     92  C   UNL A   1      47.716  24.174  34.507  1.00  0.00     0.198 A 
ATOM     93  F   UNL A   1      45.387  24.470  34.412  1.00  0.00    -0.203 F 
ATOM     94  F   UNL A   1      50.362  25.576  32.469  1.00  0.00    -0.200 F 
ATOM     95  C   UNL A   1      48.984  24.444  34.016  1.00  0.00     0.200 A 
ATOM     96  F   UNL A   1      47.564  23.325  35.532  1.00  0.00    -0.200 F 
ATOM     97  F   UNL A   1      50.054  23.836  34.547  1.00  0.00    -0.200 F 
ENDBRANCH  64  87
ENDBRANCH  38  39
ENDBRANCH  30  33
ENDBRANCH  28  29
ENDBRANCH  27  28
ENDBRANCH  26  27
ENDBRANCH   1  26
TORSDOF 16
ENDMDL
