MODEL 1
REMARK VINA RESULT:     -12.7      0.000      0.000
REMARK SMILES C[C@@H]1[C@@H](C(=O)NCCCCNC(=O)c2ccc(-c3c4nc(c(-c5c(F)c(F)c(F)c(F)c5F)c5ccc([nH]5)c(-c5c(F)c(F)c(F)c(F)c5F)c5nc(c(-c6c(F)c(F)c(F)c(F)c6F)c6ccc3[nH]6)C=C5)C=C4)cc2)CCN1C(=O)NC[C@@H]1COCCO1
REMARK SMILES IDX 8 1 7 2 6 3 4 4 5 5 3 7 1 8 2 9 79 10 77 11 78 12 80 13
REMARK SMILES IDX 81 14 82 15 83 17 84 18 85 19 89 20 86 21 88 22 87 23 9 24
REMARK SMILES IDX 10 25 11 26 12 27 13 29 14 30 15 31 76 32 16 33 75 34 17 35
REMARK SMILES IDX 18 36 19 37 69 38 20 39 74 40 68 41 70 42 21 43 73 44 67 45
REMARK SMILES IDX 66 46 22 48 54 49 34 50 53 51 35 52 38 53 52 54 71 55 36 56
REMARK SMILES IDX 37 57 51 59 72 60 39 61 23 62 24 63 32 64 25 65 26 66 30 67
REMARK SMILES IDX 33 68 27 69 28 70 31 71 29 72 55 73 56 74 64 75 57 76 58 77
REMARK SMILES IDX 62 78 65 79 59 80 60 81 63 82 61 83 40 84 41 85 49 86 42 87
REMARK SMILES IDX 43 88 47 89 50 90 44 91 45 92 48 93 46 94
REMARK H PARENT 6 6 82 16 11 28 70 47 38 58
REMARK Flexibility Score: inf
ROOT
ATOM      1  C   UNL A   1      31.647  30.737  26.144  1.00  0.00     0.023 C 
ENDROOT
BRANCH   1   2
ATOM      2  C   UNL A   1      32.387  29.872  27.154  1.00  0.00     0.116 C 
BRANCH   2   3
ATOM      3  N   UNL A   1      31.779  28.570  27.334  1.00  0.00    -0.356 N 
ATOM      4  C   UNL A   1      32.150  27.370  26.806  1.00  0.00     0.225 C 
ATOM      5  O   UNL A   1      31.468  26.389  27.099  1.00  0.00    -0.275 OA
ATOM      6  H   UNL A   1      30.986  28.549  27.918  1.00  0.00     0.163 HD
BRANCH   4   7
ATOM      7  C   UNL A   1      33.319  27.317  25.827  1.00  0.00     0.102 C 
ATOM      8  C   UNL A   1      34.083  28.442  23.707  1.00  0.00     0.032 C 
ATOM      9  C   UNL A   1      32.895  27.791  24.420  1.00  0.00     0.096 C 
ATOM     10  N   UNL A   1      32.461  26.569  23.730  1.00  0.00    -0.321 N 
ATOM     11  C   UNL A   1      33.829  25.903  25.549  1.00  0.00     0.037 C 
ATOM     12  C   UNL A   1      32.894  25.396  24.472  1.00  0.00     0.122 C 
BRANCH  10  13
ATOM     13  C   UNL A   1      31.654  26.344  22.660  1.00  0.00     0.317 C 
ATOM     14  O   UNL A   1      32.104  25.842  21.623  1.00  0.00    -0.249 OA
ATOM     15  N   UNL A   1      30.345  26.627  22.634  1.00  0.00    -0.335 N 
ATOM     16  H   UNL A   1      29.940  26.383  21.771  1.00  0.00     0.165 HD
BRANCH  15  17
ATOM     17  C   UNL A   1      29.361  27.199  23.538  1.00  0.00     0.152 C 
BRANCH  17  18
ATOM     18  C   UNL A   1      29.087  28.670  23.211  1.00  0.00     0.163 C 
ATOM     19  C   UNL A   1      27.582  28.900  23.010  1.00  0.00     0.194 C 
ATOM     20  O   UNL A   1      29.804  29.017  22.007  1.00  0.00    -0.372 OA
ATOM     21  O   UNL A   1      27.319  30.262  22.646  1.00  0.00    -0.376 OA
ATOM     22  C   UNL A   1      29.537  30.382  21.652  1.00  0.00     0.189 C 
ATOM     23  C   UNL A   1      28.038  30.594  21.449  1.00  0.00     0.188 C 
ENDBRANCH  17  18
ENDBRANCH  15  17
ENDBRANCH  10  13
ENDBRANCH   4   7
ENDBRANCH   2   3
ENDBRANCH   1   2
BRANCH   1  24
ATOM     24  C   UNL A   1      31.433  32.190  26.564  1.00  0.00     0.023 C 
BRANCH  24  25
ATOM     25  C   UNL A   1      32.564  32.806  27.379  1.00  0.00     0.116 C 
BRANCH  25  26
ATOM     26  N   UNL A   1      32.353  34.216  27.663  1.00  0.00    -0.352 N 
ATOM     27  C   UNL A   1      32.972  35.029  28.584  1.00  0.00     0.251 C 
ATOM     28  H   UNL A   1      31.665  34.656  27.114  1.00  0.00     0.163 HD
ATOM     29  O   UNL A   1      32.552  36.160  28.791  1.00  0.00    -0.269 OA
BRANCH  27  30
ATOM     30  C   UNL A   1      34.129  34.518  29.351  1.00  0.00     0.039 A 
ATOM     31  C   UNL A   1      33.910  33.953  30.609  1.00  0.00     0.014 A 
ATOM     32  C   UNL A   1      35.421  34.582  28.823  1.00  0.00     0.014 A 
ATOM     33  C   UNL A   1      34.979  33.385  31.305  1.00  0.00     0.010 A 
ATOM     34  C   UNL A   1      36.464  33.932  29.473  1.00  0.00     0.010 A 
ATOM     35  C   UNL A   1      36.257  33.333  30.725  1.00  0.00    -0.014 A 
BRANCH  35  36
ATOM     36  C   UNL A   1      37.397  32.678  31.416  1.00  0.00     0.031 A 
ATOM     37  C   UNL A   1      38.104  31.521  30.765  1.00  0.00     0.074 A 
ATOM     38  C   UNL A   1      37.755  33.080  32.651  1.00  0.00     0.049 A 
ATOM     39  N   UNL A   1      39.068  30.768  31.234  1.00  0.00    -0.248 NA
ATOM     40  C   UNL A   1      37.644  31.137  29.422  1.00  0.00     0.031 C 
ATOM     41  C   UNL A   1      37.120  34.159  33.408  1.00  0.00     0.029 A 
ATOM     42  N   UNL A   1      38.737  32.619  33.492  1.00  0.00    -0.354 N 
ATOM     43  C   UNL A   1      39.314  29.818  30.251  1.00  0.00     0.074 A 
ATOM     44  C   UNL A   1      38.356  30.046  29.191  1.00  0.00     0.031 C 
ATOM     45  C   UNL A   1      37.745  34.295  34.589  1.00  0.00     0.029 A 
ATOM     46  C   UNL A   1      38.795  33.288  34.691  1.00  0.00     0.049 A 
ATOM     47  H   UNL A   1      39.343  31.879  33.259  1.00  0.00     0.167 HD
ATOM     48  C   UNL A   1      40.270  28.859  30.220  1.00  0.00     0.037 A 
ATOM     49  C   UNL A   1      39.602  33.104  35.754  1.00  0.00     0.037 A 
ATOM     50  C   UNL A   1      41.234  28.649  31.267  1.00  0.00     0.049 A 
ATOM     51  C   UNL A   1      40.648  32.021  35.702  1.00  0.00     0.074 A 
ATOM     52  C   UNL A   1      42.275  27.739  31.312  1.00  0.00     0.029 A 
ATOM     53  N   UNL A   1      41.272  29.358  32.460  1.00  0.00    -0.354 N 
ATOM     54  N   UNL A   1      40.916  31.172  34.740  1.00  0.00    -0.248 NA
ATOM     55  C   UNL A   1      41.511  31.880  36.883  1.00  0.00     0.031 C 
ATOM     56  C   UNL A   1      42.910  27.861  32.552  1.00  0.00     0.029 A 
ATOM     57  C   UNL A   1      42.306  28.891  33.255  1.00  0.00     0.049 A 
ATOM     58  H   UNL A   1      40.655  30.085  32.704  1.00  0.00     0.167 HD
ATOM     59  C   UNL A   1      41.999  30.423  35.182  1.00  0.00     0.074 A 
ATOM     60  C   UNL A   1      42.345  30.927  36.495  1.00  0.00     0.031 C 
ATOM     61  C   UNL A   1      42.649  29.412  34.555  1.00  0.00     0.037 A 
BRANCH  48  62
ATOM     62  C   UNL A   1      40.317  27.965  29.013  1.00  0.00     0.064 A 
ATOM     63  C   UNL A   1      39.596  26.763  28.956  1.00  0.00     0.173 A 
ATOM     64  C   UNL A   1      41.077  28.324  27.890  1.00  0.00     0.173 A 
ATOM     65  F   UNL A   1      38.862  26.364  30.007  1.00  0.00    -0.203 F 
ATOM     66  C   UNL A   1      39.664  25.936  27.837  1.00  0.00     0.198 A 
ATOM     67  C   UNL A   1      41.115  27.513  26.758  1.00  0.00     0.198 A 
ATOM     68  F   UNL A   1      41.783  29.466  27.886  1.00  0.00    -0.203 F 
ATOM     69  F   UNL A   1      39.015  24.763  27.833  1.00  0.00    -0.200 F 
ATOM     70  C   UNL A   1      40.417  26.315  26.737  1.00  0.00     0.200 A 
ATOM     71  F   UNL A   1      41.831  27.888  25.689  1.00  0.00    -0.200 F 
ATOM     72  F   UNL A   1      40.478  25.521  25.659  1.00  0.00    -0.200 F 
ENDBRANCH  48  62
BRANCH  49  73
ATOM     73  C   UNL A   1      39.474  33.983  36.947  1.00  0.00     0.064 A 
ATOM     74  C   UNL A   1      40.122  35.225  36.997  1.00  0.00     0.173 A 
ATOM     75  C   UNL A   1      38.713  33.600  38.061  1.00  0.00     0.173 A 
ATOM     76  F   UNL A   1      40.878  35.627  35.965  1.00  0.00    -0.203 F 
ATOM     77  C   UNL A   1      40.033  36.040  38.124  1.00  0.00     0.198 A 
ATOM     78  C   UNL A   1      38.599  34.430  39.175  1.00  0.00     0.198 A 
ATOM     79  F   UNL A   1      38.067  32.425  38.062  1.00  0.00    -0.203 F 
ATOM     80  F   UNL A   1      40.704  37.200  38.164  1.00  0.00    -0.200 F 
ATOM     81  C   UNL A   1      39.267  35.644  39.210  1.00  0.00     0.200 A 
ATOM     82  F   UNL A   1      37.844  34.051  40.215  1.00  0.00    -0.200 F 
ATOM     83  F   UNL A   1      39.179  36.429  40.292  1.00  0.00    -0.200 F 
ENDBRANCH  49  73
BRANCH  61  84
ATOM     84  C   UNL A   1      43.838  28.817  35.254  1.00  0.00     0.064 A 
ATOM     85  C   UNL A   1      45.136  29.314  35.068  1.00  0.00     0.173 A 
ATOM     86  C   UNL A   1      43.666  27.755  36.155  1.00  0.00     0.173 A 
ATOM     87  F   UNL A   1      45.357  30.320  34.207  1.00  0.00    -0.203 F 
ATOM     88  C   UNL A   1      46.221  28.751  35.734  1.00  0.00     0.198 A 
ATOM     89  C   UNL A   1      44.748  27.217  36.846  1.00  0.00     0.198 A 
ATOM     90  F   UNL A   1      42.444  27.246  36.377  1.00  0.00    -0.203 F 
ATOM     91  F   UNL A   1      47.459  29.206  35.499  1.00  0.00    -0.200 F 
ATOM     92  C   UNL A   1      46.025  27.709  36.629  1.00  0.00     0.200 A 
ATOM     93  F   UNL A   1      44.553  26.222  37.723  1.00  0.00    -0.200 F 
ATOM     94  F   UNL A   1      47.069  27.173  37.275  1.00  0.00    -0.200 F 
ENDBRANCH  61  84
ENDBRANCH  35  36
ENDBRANCH  27  30
ENDBRANCH  25  26
ENDBRANCH  24  25
ENDBRANCH   1  24
TORSDOF 14
ENDMDL
MODEL 2
REMARK VINA RESULT:     -12.6      6.348     11.724
REMARK SMILES C[C@@H]1[C@@H](C(=O)NCCCCNC(=O)c2ccc(-c3c4nc(c(-c5c(F)c(F)c(F)c(F)c5F)c5ccc([nH]5)c(-c5c(F)c(F)c(F)c(F)c5F)c5nc(c(-c6c(F)c(F)c(F)c(F)c6F)c6ccc3[nH]6)C=C5)C=C4)cc2)CCN1C(=O)NC[C@@H]1COCCO1
REMARK SMILES IDX 8 1 7 2 6 3 4 4 5 5 3 7 1 8 2 9 79 10 77 11 78 12 80 13
REMARK SMILES IDX 81 14 82 15 83 17 84 18 85 19 89 20 86 21 88 22 87 23 9 24
REMARK SMILES IDX 10 25 11 26 12 27 13 29 14 30 15 31 76 32 16 33 75 34 17 35
REMARK SMILES IDX 18 36 19 37 69 38 20 39 74 40 68 41 70 42 21 43 73 44 67 45
REMARK SMILES IDX 66 46 22 48 54 49 34 50 53 51 35 52 38 53 52 54 71 55 36 56
REMARK SMILES IDX 37 57 51 59 72 60 39 61 23 62 24 63 32 64 25 65 26 66 30 67
REMARK SMILES IDX 33 68 27 69 28 70 31 71 29 72 55 73 56 74 64 75 57 76 58 77
REMARK SMILES IDX 62 78 65 79 59 80 60 81 63 82 61 83 40 84 41 85 49 86 42 87
REMARK SMILES IDX 43 88 47 89 50 90 44 91 45 92 48 93 46 94
REMARK H PARENT 6 6 82 16 11 28 70 47 38 58
REMARK Flexibility Score: inf
ROOT
ATOM      1  C   UNL A   1      36.989  20.576  24.987  1.00  0.00     0.023 C 
ENDROOT
BRANCH   1   2
ATOM      2  C   UNL A   1      37.366  22.019  24.681  1.00  0.00     0.116 C 
BRANCH   2   3
ATOM      3  N   UNL A   1      36.554  22.602  23.633  1.00  0.00    -0.356 N 
ATOM      4  C   UNL A   1      35.507  23.467  23.741  1.00  0.00     0.225 C 
ATOM      5  O   UNL A   1      34.960  23.825  22.698  1.00  0.00    -0.275 OA
ATOM      6  H   UNL A   1      36.793  22.337  22.715  1.00  0.00     0.163 HD
BRANCH   4   7
ATOM      7  C   UNL A   1      35.016  23.873  25.128  1.00  0.00     0.102 C 
ATOM      8  C   UNL A   1      34.484  22.810  27.348  1.00  0.00     0.032 C 
ATOM      9  C   UNL A   1      34.296  22.703  25.833  1.00  0.00     0.096 C 
ATOM     10  N   UNL A   1      32.883  22.854  25.457  1.00  0.00    -0.321 N 
ATOM     11  C   UNL A   1      33.934  24.952  25.110  1.00  0.00     0.037 C 
ATOM     12  C   UNL A   1      32.659  24.169  24.879  1.00  0.00     0.122 C 
BRANCH  10  13
ATOM     13  C   UNL A   1      31.834  21.990  25.422  1.00  0.00     0.317 C 
ATOM     14  O   UNL A   1      30.753  22.289  25.944  1.00  0.00    -0.249 OA
ATOM     15  N   UNL A   1      31.872  20.787  24.835  1.00  0.00    -0.335 N 
ATOM     16  H   UNL A   1      31.009  20.321  24.914  1.00  0.00     0.165 HD
BRANCH  15  17
ATOM     17  C   UNL A   1      32.845  19.985  24.113  1.00  0.00     0.152 C 
BRANCH  17  18
ATOM     18  C   UNL A   1      33.226  18.725  24.896  1.00  0.00     0.163 C 
ATOM     19  C   UNL A   1      34.386  17.997  24.203  1.00  0.00     0.194 C 
ATOM     20  O   UNL A   1      32.072  17.859  24.968  1.00  0.00    -0.372 OA
ATOM     21  O   UNL A   1      34.712  16.785  24.896  1.00  0.00    -0.376 OA
ATOM     22  C   UNL A   1      32.407  16.651  25.666  1.00  0.00     0.189 C 
ATOM     23  C   UNL A   1      33.558  15.934  24.962  1.00  0.00     0.188 C 
ENDBRANCH  17  18
ENDBRANCH  15  17
ENDBRANCH  10  13
ENDBRANCH   4   7
ENDBRANCH   2   3
ENDBRANCH   1   2
BRANCH   1  24
ATOM     24  C   UNL A   1      38.152  19.585  24.989  1.00  0.00     0.023 C 
BRANCH  24  25
ATOM     25  C   UNL A   1      39.394  20.041  25.743  1.00  0.00     0.116 C 
BRANCH  25  26
ATOM     26  N   UNL A   1      40.395  18.993  25.872  1.00  0.00    -0.352 N 
ATOM     27  C   UNL A   1      41.749  19.093  26.090  1.00  0.00     0.251 C 
ATOM     28  H   UNL A   1      40.052  18.075  25.791  1.00  0.00     0.163 HD
ATOM     29  O   UNL A   1      42.462  18.102  26.013  1.00  0.00    -0.269 OA
BRANCH  27  30
ATOM     30  C   UNL A   1      42.348  20.413  26.386  1.00  0.00     0.039 A 
ATOM     31  C   UNL A   1      42.924  21.144  25.345  1.00  0.00     0.014 A 
ATOM     32  C   UNL A   1      42.325  20.933  27.683  1.00  0.00     0.014 A 
ATOM     33  C   UNL A   1      43.412  22.429  25.592  1.00  0.00     0.010 A 
ATOM     34  C   UNL A   1      42.722  22.247  27.906  1.00  0.00     0.010 A 
ATOM     35  C   UNL A   1      43.278  23.007  26.865  1.00  0.00    -0.014 A 
BRANCH  35  36
ATOM     36  C   UNL A   1      43.730  24.395  27.138  1.00  0.00     0.031 A 
ATOM     37  C   UNL A   1      42.751  25.414  27.655  1.00  0.00     0.074 A 
ATOM     38  C   UNL A   1      44.997  24.756  26.861  1.00  0.00     0.049 A 
ATOM     39  N   UNL A   1      42.928  26.692  27.884  1.00  0.00    -0.248 NA
ATOM     40  C   UNL A   1      41.383  24.942  27.919  1.00  0.00     0.031 C 
ATOM     41  C   UNL A   1      46.029  23.874  26.314  1.00  0.00     0.029 A 
ATOM     42  N   UNL A   1      45.633  25.965  26.995  1.00  0.00    -0.354 N 
ATOM     43  C   UNL A   1      41.693  27.173  28.301  1.00  0.00     0.074 A 
ATOM     44  C   UNL A   1      40.762  26.068  28.230  1.00  0.00     0.031 C 
ATOM     45  C   UNL A   1      47.174  24.563  26.184  1.00  0.00     0.029 A 
ATOM     46  C   UNL A   1      46.948  25.944  26.597  1.00  0.00     0.049 A 
ATOM     47  H   UNL A   1      45.189  26.772  27.341  1.00  0.00     0.167 HD
ATOM     48  C   UNL A   1      41.370  28.415  28.731  1.00  0.00     0.037 A 
ATOM     49  C   UNL A   1      47.865  26.930  26.565  1.00  0.00     0.037 A 
ATOM     50  C   UNL A   1      42.305  29.506  28.821  1.00  0.00     0.049 A 
ATOM     51  C   UNL A   1      47.478  28.308  27.036  1.00  0.00     0.074 A 
ATOM     52  C   UNL A   1      42.091  30.789  29.291  1.00  0.00     0.029 A 
ATOM     53  N   UNL A   1      43.633  29.441  28.425  1.00  0.00    -0.354 N 
ATOM     54  N   UNL A   1      46.325  28.735  27.492  1.00  0.00    -0.248 NA
ATOM     55  C   UNL A   1      48.525  29.338  26.996  1.00  0.00     0.031 C 
ATOM     56  C   UNL A   1      43.275  31.516  29.131  1.00  0.00     0.029 A 
ATOM     57  C   UNL A   1      44.245  30.669  28.621  1.00  0.00     0.049 A 
ATOM     58  H   UNL A   1      44.075  28.641  28.059  1.00  0.00     0.167 HD
ATOM     59  C   UNL A   1      46.518  30.069  27.828  1.00  0.00     0.074 A 
ATOM     60  C   UNL A   1      47.902  30.377  27.533  1.00  0.00     0.031 C 
ATOM     61  C   UNL A   1      45.629  30.957  28.337  1.00  0.00     0.037 A 
BRANCH  48  62
ATOM     62  C   UNL A   1      39.944  28.659  29.140  1.00  0.00     0.064 A 
ATOM     63  C   UNL A   1      39.501  28.423  30.451  1.00  0.00     0.173 A 
ATOM     64  C   UNL A   1      39.012  29.152  28.214  1.00  0.00     0.173 A 
ATOM     65  F   UNL A   1      40.347  27.940  31.373  1.00  0.00    -0.203 F 
ATOM     66  C   UNL A   1      38.173  28.637  30.809  1.00  0.00     0.198 A 
ATOM     67  C   UNL A   1      37.692  29.399  28.586  1.00  0.00     0.198 A 
ATOM     68  F   UNL A   1      39.381  29.400  26.948  1.00  0.00    -0.203 F 
ATOM     69  F   UNL A   1      37.761  28.346  32.051  1.00  0.00    -0.200 F 
ATOM     70  C   UNL A   1      37.272  29.131  29.879  1.00  0.00     0.200 A 
ATOM     71  F   UNL A   1      36.826  29.891  27.689  1.00  0.00    -0.200 F 
ATOM     72  F   UNL A   1      35.994  29.341  30.227  1.00  0.00    -0.200 F 
ENDBRANCH  48  62
BRANCH  49  73
ATOM     73  C   UNL A   1      49.248  26.646  26.099  1.00  0.00     0.064 A 
ATOM     74  C   UNL A   1      49.630  26.914  24.777  1.00  0.00     0.173 A 
ATOM     75  C   UNL A   1      50.212  26.094  26.956  1.00  0.00     0.173 A 
ATOM     76  F   UNL A   1      48.740  27.423  23.913  1.00  0.00    -0.203 F 
ATOM     77  C   UNL A   1      50.915  26.619  24.324  1.00  0.00     0.198 A 
ATOM     78  C   UNL A   1      51.506  25.829  26.511  1.00  0.00     0.198 A 
ATOM     79  F   UNL A   1      49.901  25.824  28.232  1.00  0.00    -0.203 F 
ATOM     80  F   UNL A   1      51.238  26.841  23.042  1.00  0.00    -0.200 F 
ATOM     81  C   UNL A   1      51.853  26.083  25.193  1.00  0.00     0.200 A 
ATOM     82  F   UNL A   1      52.413  25.326  27.357  1.00  0.00    -0.200 F 
ATOM     83  F   UNL A   1      53.089  25.804  24.758  1.00  0.00    -0.200 F 
ENDBRANCH  49  73
BRANCH  61  84
ATOM     84  C   UNL A   1      46.136  32.333  28.663  1.00  0.00     0.064 A 
ATOM     85  C   UNL A   1      46.691  32.645  29.913  1.00  0.00     0.173 A 
ATOM     86  C   UNL A   1      46.101  33.345  27.691  1.00  0.00     0.173 A 
ATOM     87  F   UNL A   1      46.737  31.716  30.881  1.00  0.00    -0.203 F 
ATOM     88  C   UNL A   1      47.162  33.925  30.188  1.00  0.00     0.198 A 
ATOM     89  C   UNL A   1      46.605  34.615  27.957  1.00  0.00     0.198 A 
ATOM     90  F   UNL A   1      45.588  33.098  26.476  1.00  0.00    -0.203 F 
ATOM     91  F   UNL A   1      47.638  34.215  31.407  1.00  0.00    -0.200 F 
ATOM     92  C   UNL A   1      47.127  34.906  29.207  1.00  0.00     0.200 A 
ATOM     93  F   UNL A   1      46.585  35.555  27.002  1.00  0.00    -0.200 F 
ATOM     94  F   UNL A   1      47.588  36.136  29.471  1.00  0.00    -0.200 F 
ENDBRANCH  61  84
ENDBRANCH  35  36
ENDBRANCH  27  30
ENDBRANCH  25  26
ENDBRANCH  24  25
ENDBRANCH   1  24
TORSDOF 14
ENDMDL
MODEL 3
REMARK VINA RESULT:     -12.4      1.584      3.316
REMARK SMILES C[C@@H]1[C@@H](C(=O)NCCCCNC(=O)c2ccc(-c3c4nc(c(-c5c(F)c(F)c(F)c(F)c5F)c5ccc([nH]5)c(-c5c(F)c(F)c(F)c(F)c5F)c5nc(c(-c6c(F)c(F)c(F)c(F)c6F)c6ccc3[nH]6)C=C5)C=C4)cc2)CCN1C(=O)NC[C@@H]1COCCO1
REMARK SMILES IDX 8 1 7 2 6 3 4 4 5 5 3 7 1 8 2 9 79 10 77 11 78 12 80 13
REMARK SMILES IDX 81 14 82 15 83 17 84 18 85 19 89 20 86 21 88 22 87 23 9 24
REMARK SMILES IDX 10 25 11 26 12 27 13 29 14 30 15 31 76 32 16 33 75 34 17 35
REMARK SMILES IDX 18 36 19 37 69 38 20 39 74 40 68 41 70 42 21 43 73 44 67 45
REMARK SMILES IDX 66 46 22 48 54 49 34 50 53 51 35 52 38 53 52 54 71 55 36 56
REMARK SMILES IDX 37 57 51 59 72 60 39 61 23 62 24 63 32 64 25 65 26 66 30 67
REMARK SMILES IDX 33 68 27 69 28 70 31 71 29 72 55 73 56 74 64 75 57 76 58 77
REMARK SMILES IDX 62 78 65 79 59 80 60 81 63 82 61 83 40 84 41 85 49 86 42 87
REMARK SMILES IDX 43 88 47 89 50 90 44 91 45 92 48 93 46 94
REMARK H PARENT 6 6 82 16 11 28 70 47 38 58
REMARK Flexibility Score: inf
ROOT
ATOM      1  C   UNL A   1      31.613  30.702  26.184  1.00  0.00     0.023 C 
ENDROOT
BRANCH   1   2
ATOM      2  C   UNL A   1      32.980  30.074  26.421  1.00  0.00     0.116 C 
BRANCH   2   3
ATOM      3  N   UNL A   1      33.651  29.705  25.192  1.00  0.00    -0.356 N 
ATOM      4  C   UNL A   1      33.656  28.505  24.545  1.00  0.00     0.225 C 
ATOM      5  O   UNL A   1      34.312  28.428  23.506  1.00  0.00    -0.275 OA
ATOM      6  H   UNL A   1      34.176  30.420  24.765  1.00  0.00     0.163 HD
BRANCH   4   7
ATOM      7  C   UNL A   1      32.934  27.317  25.173  1.00  0.00     0.102 C 
ATOM      8  C   UNL A   1      33.382  24.911  25.766  1.00  0.00     0.032 C 
ATOM      9  C   UNL A   1      33.522  25.978  24.678  1.00  0.00     0.096 C 
ATOM     10  N   UNL A   1      32.727  25.638  23.489  1.00  0.00    -0.321 N 
ATOM     11  C   UNL A   1      31.467  27.197  24.759  1.00  0.00     0.037 C 
ATOM     12  C   UNL A   1      31.534  26.467  23.433  1.00  0.00     0.122 C 
BRANCH  10  13
ATOM     13  C   UNL A   1      32.957  24.835  22.417  1.00  0.00     0.317 C 
ATOM     14  O   UNL A   1      33.591  25.251  21.441  1.00  0.00    -0.249 OA
ATOM     15  N   UNL A   1      32.541  23.565  22.329  1.00  0.00    -0.335 N 
ATOM     16  H   UNL A   1      32.814  23.154  21.477  1.00  0.00     0.165 HD
BRANCH  15  17
ATOM     17  C   UNL A   1      31.792  22.630  23.152  1.00  0.00     0.152 C 
BRANCH  17  18
ATOM     18  C   UNL A   1      32.721  21.651  23.877  1.00  0.00     0.163 C 
ATOM     19  C   UNL A   1      32.217  21.396  25.305  1.00  0.00     0.194 C 
ATOM     20  O   UNL A   1      34.049  22.218  23.917  1.00  0.00    -0.372 OA
ATOM     21  O   UNL A   1      33.111  20.527  26.012  1.00  0.00    -0.376 OA
ATOM     22  C   UNL A   1      34.937  21.341  24.625  1.00  0.00     0.189 C 
ATOM     23  C   UNL A   1      34.426  21.101  26.044  1.00  0.00     0.188 C 
ENDBRANCH  17  18
ENDBRANCH  15  17
ENDBRANCH  10  13
ENDBRANCH   4   7
ENDBRANCH   2   3
ENDBRANCH   1   2
BRANCH   1  24
ATOM     24  C   UNL A   1      31.391  32.053  26.860  1.00  0.00     0.023 C 
BRANCH  24  25
ATOM     25  C   UNL A   1      32.658  32.782  27.291  1.00  0.00     0.116 C 
BRANCH  25  26
ATOM     26  N   UNL A   1      32.424  34.181  27.610  1.00  0.00    -0.352 N 
ATOM     27  C   UNL A   1      33.016  34.975  28.564  1.00  0.00     0.251 C 
ATOM     28  H   UNL A   1      31.741  34.628  27.060  1.00  0.00     0.163 HD
ATOM     29  O   UNL A   1      32.578  36.095  28.794  1.00  0.00    -0.269 OA
BRANCH  27  30
ATOM     30  C   UNL A   1      34.165  34.457  29.339  1.00  0.00     0.039 A 
ATOM     31  C   UNL A   1      33.925  33.807  30.551  1.00  0.00     0.014 A 
ATOM     32  C   UNL A   1      35.470  34.600  28.862  1.00  0.00     0.014 A 
ATOM     33  C   UNL A   1      34.991  33.233  31.248  1.00  0.00     0.010 A 
ATOM     34  C   UNL A   1      36.514  33.946  29.506  1.00  0.00     0.010 A 
ATOM     35  C   UNL A   1      36.288  33.263  30.711  1.00  0.00    -0.014 A 
BRANCH  35  36
ATOM     36  C   UNL A   1      37.428  32.605  31.400  1.00  0.00     0.031 A 
ATOM     37  C   UNL A   1      38.138  31.453  30.743  1.00  0.00     0.074 A 
ATOM     38  C   UNL A   1      37.782  32.999  32.638  1.00  0.00     0.049 A 
ATOM     39  N   UNL A   1      39.102  30.699  31.209  1.00  0.00    -0.248 NA
ATOM     40  C   UNL A   1      37.681  31.077  29.396  1.00  0.00     0.031 C 
ATOM     41  C   UNL A   1      37.144  34.073  33.401  1.00  0.00     0.029 A 
ATOM     42  N   UNL A   1      38.764  32.535  33.478  1.00  0.00    -0.354 N 
ATOM     43  C   UNL A   1      39.352  29.755  30.220  1.00  0.00     0.074 A 
ATOM     44  C   UNL A   1      38.395  29.988  29.160  1.00  0.00     0.031 C 
ATOM     45  C   UNL A   1      37.767  34.203  34.583  1.00  0.00     0.029 A 
ATOM     46  C   UNL A   1      38.818  33.197  34.682  1.00  0.00     0.049 A 
ATOM     47  H   UNL A   1      39.371  31.797  33.242  1.00  0.00     0.167 HD
ATOM     48  C   UNL A   1      40.309  28.798  30.186  1.00  0.00     0.037 A 
ATOM     49  C   UNL A   1      39.623  33.007  35.744  1.00  0.00     0.037 A 
ATOM     50  C   UNL A   1      41.272  28.583  31.233  1.00  0.00     0.049 A 
ATOM     51  C   UNL A   1      40.671  31.926  35.689  1.00  0.00     0.074 A 
ATOM     52  C   UNL A   1      42.314  27.674  31.274  1.00  0.00     0.029 A 
ATOM     53  N   UNL A   1      41.306  29.285  32.430  1.00  0.00    -0.354 N 
ATOM     54  N   UNL A   1      40.942  31.084  34.721  1.00  0.00    -0.248 NA
ATOM     55  C   UNL A   1      41.532  31.779  36.870  1.00  0.00     0.031 C 
ATOM     56  C   UNL A   1      42.946  27.790  32.517  1.00  0.00     0.029 A 
ATOM     57  C   UNL A   1      42.339  28.814  33.225  1.00  0.00     0.049 A 
ATOM     58  H   UNL A   1      40.688  30.009  32.678  1.00  0.00     0.167 HD
ATOM     59  C   UNL A   1      42.026  30.334  35.160  1.00  0.00     0.074 A 
ATOM     60  C   UNL A   1      42.368  30.829  36.477  1.00  0.00     0.031 C 
ATOM     61  C   UNL A   1      42.679  29.328  34.528  1.00  0.00     0.037 A 
BRANCH  48  62
ATOM     62  C   UNL A   1      40.360  27.912  28.973  1.00  0.00     0.064 A 
ATOM     63  C   UNL A   1      41.128  28.246  27.847  1.00  0.00     0.173 A 
ATOM     64  C   UNL A   1      39.649  26.703  28.943  1.00  0.00     0.173 A 
ATOM     65  F   UNL A   1      41.818  29.396  27.816  1.00  0.00    -0.203 F 
ATOM     66  C   UNL A   1      41.151  27.424  26.723  1.00  0.00     0.198 A 
ATOM     67  C   UNL A   1      39.703  25.865  27.831  1.00  0.00     0.198 A 
ATOM     68  F   UNL A   1      38.902  26.330  29.993  1.00  0.00    -0.203 F 
ATOM     69  F   UNL A   1      41.843  27.796  25.637  1.00  0.00    -0.200 F 
ATOM     70  C   UNL A   1      40.445  26.231  26.719  1.00  0.00     0.200 A 
ATOM     71  F   UNL A   1      39.032  24.705  27.835  1.00  0.00    -0.200 F 
ATOM     72  F   UNL A   1      40.472  25.437  25.639  1.00  0.00    -0.200 F 
ENDBRANCH  48  62
BRANCH  49  73
ATOM     73  C   UNL A   1      39.492  33.878  36.943  1.00  0.00     0.064 A 
ATOM     74  C   UNL A   1      40.143  35.118  37.005  1.00  0.00     0.173 A 
ATOM     75  C   UNL A   1      38.724  33.490  38.050  1.00  0.00     0.173 A 
ATOM     76  F   UNL A   1      40.905  35.525  35.979  1.00  0.00    -0.203 F 
ATOM     77  C   UNL A   1      40.051  35.925  38.137  1.00  0.00     0.198 A 
ATOM     78  C   UNL A   1      38.607  34.312  39.170  1.00  0.00     0.198 A 
ATOM     79  F   UNL A   1      38.075  32.316  38.041  1.00  0.00    -0.203 F 
ATOM     80  F   UNL A   1      40.724  37.083  38.188  1.00  0.00    -0.200 F 
ATOM     81  C   UNL A   1      39.278  35.524  39.216  1.00  0.00     0.200 A 
ATOM     82  F   UNL A   1      37.846  33.928  40.203  1.00  0.00    -0.200 F 
ATOM     83  F   UNL A   1      39.186  36.303  40.303  1.00  0.00    -0.200 F 
ENDBRANCH  49  73
BRANCH  61  84
ATOM     84  C   UNL A   1      43.868  28.730  35.226  1.00  0.00     0.064 A 
ATOM     85  C   UNL A   1      43.751  27.623  36.079  1.00  0.00     0.173 A 
ATOM     86  C   UNL A   1      45.151  29.253  35.004  1.00  0.00     0.173 A 
ATOM     87  F   UNL A   1      42.544  27.093  36.335  1.00  0.00    -0.203 F 
ATOM     88  C   UNL A   1      44.868  27.082  36.707  1.00  0.00     0.198 A 
ATOM     89  C   UNL A   1      46.272  28.688  35.606  1.00  0.00     0.198 A 
ATOM     90  F   UNL A   1      45.321  30.307  34.190  1.00  0.00    -0.203 F 
ATOM     91  F   UNL A   1      44.725  26.059  37.561  1.00  0.00    -0.200 F 
ATOM     92  C   UNL A   1      46.129  27.609  36.463  1.00  0.00     0.200 A 
ATOM     93  F   UNL A   1      47.490  29.189  35.355  1.00  0.00    -0.200 F 
ATOM     94  F   UNL A   1      47.205  27.082  37.063  1.00  0.00    -0.200 F 
ENDBRANCH  61  84
ENDBRANCH  35  36
ENDBRANCH  27  30
ENDBRANCH  25  26
ENDBRANCH  24  25
ENDBRANCH   1  24
TORSDOF 14
ENDMDL
