MODEL 1
REMARK VINA RESULT:     -14.7      0.000      0.000
REMARK SMILES Cc1ccc(C(=O)NC2CC2)cc1NC(=O)[C@@H]1[C@@H](C(=O)NCCCCNC(=O)c2ccc(-c3c4nc(c(-c5c(F)c(F)c(F)c(F)c5F)c5ccc([nH]5)c(-c5c(F)c(F)c(F)c(F)c5F)c5nc(c(-c6c(F)c(F)c(F)c(F)c6F)c6ccc3[nH]6)C=C5)C=C4)cc2)[C@H]2C=C[C@@H]1C2
REMARK SMILES IDX 22 1 21 2 19 3 20 4 18 6 17 7 95 8 92 9 94 10 96 11 93 12
REMARK SMILES IDX 15 13 14 14 16 16 13 17 1 18 2 19 3 20 4 21 12 22 5 23 6 24
REMARK SMILES IDX 7 25 8 26 9 28 10 29 11 30 23 31 24 32 25 33 26 34 27 35
REMARK SMILES IDX 28 37 29 38 30 39 91 40 31 41 90 42 32 43 33 44 34 45 84 46
REMARK SMILES IDX 35 47 89 48 83 49 85 50 36 51 88 52 82 53 81 54 37 56 69 57
REMARK SMILES IDX 49 58 68 59 50 60 53 61 67 62 86 63 51 64 52 65 66 67 87 68
REMARK SMILES IDX 54 69 38 70 39 71 47 72 40 73 41 74 45 75 48 76 42 77 43 78
REMARK SMILES IDX 46 79 44 80 70 81 71 82 79 83 72 84 73 85 77 86 80 87 74 88
REMARK SMILES IDX 75 89 78 90 76 91 55 92 56 93 64 94 57 95 58 96 62 97 65 98
REMARK SMILES IDX 59 99 60 100 63 101 61 102
REMARK H PARENT 21 5 14 15 8 27 26 36 85 55 53 66
REMARK Flexibility Score: inf
ROOT
ATOM      1  C   UNL A   1      32.025  28.778  27.196  1.00  0.00     0.116 C 
ENDROOT
BRANCH   1   2
ATOM      2  N   UNL A   1      32.974  27.847  26.618  1.00  0.00    -0.356 N 
ATOM      3  C   UNL A   1      32.855  26.689  25.929  1.00  0.00     0.224 C 
ATOM      4  O   UNL A   1      33.927  26.123  25.683  1.00  0.00    -0.275 OA
ATOM      5  H   UNL A   1      33.911  28.117  26.758  1.00  0.00     0.163 HD
BRANCH   3   6
ATOM      6  C   UNL A   1      31.535  26.023  25.545  1.00  0.00     0.098 C 
ATOM      7  C   UNL A   1      31.795  24.468  25.339  1.00  0.00     0.099 C 
ATOM      8  C   UNL A   1      31.097  24.175  23.986  1.00  0.00     0.025 C 
ATOM      9  C   UNL A   1      30.836  26.386  24.217  1.00  0.00     0.025 C 
ATOM     10  C   UNL A   1      31.904  24.841  22.893  1.00  0.00    -0.027 C 
ATOM     11  C   UNL A   1      29.932  25.160  24.020  1.00  0.00     0.017 C 
ATOM     12  C   UNL A   1      31.769  26.165  23.047  1.00  0.00    -0.027 C 
BRANCH   7  13
ATOM     13  C   UNL A   1      31.278  23.572  26.452  1.00  0.00     0.228 C 
ATOM     14  N   UNL A   1      31.663  22.258  26.564  1.00  0.00    -0.326 N 
ATOM     15  H   UNL A   1      31.211  21.779  27.295  1.00  0.00     0.169 HD
ATOM     16  O   UNL A   1      30.426  23.977  27.251  1.00  0.00    -0.274 OA
BRANCH  14  17
ATOM     17  C   UNL A   1      32.575  21.450  25.844  1.00  0.00     0.044 A 
ATOM     18  C   UNL A   1      34.572  22.795  26.782  1.00  0.00     0.046 C 
ATOM     19  C   UNL A   1      33.959  21.657  26.008  1.00  0.00    -0.027 A 
ATOM     20  C   UNL A   1      34.855  20.768  25.389  1.00  0.00     0.006 A 
ATOM     21  C   UNL A   1      34.395  19.699  24.621  1.00  0.00     0.014 A 
ATOM     22  C   UNL A   1      32.149  20.450  24.952  1.00  0.00     0.040 A 
ATOM     23  C   UNL A   1      33.028  19.526  24.375  1.00  0.00     0.041 A 
BRANCH  23  24
ATOM     24  C   UNL A   1      32.641  18.365  23.506  1.00  0.00     0.251 C 
ATOM     25  O   UNL A   1      32.374  18.580  22.319  1.00  0.00    -0.269 OA
ATOM     26  N   UNL A   1      32.592  17.051  23.920  1.00  0.00    -0.349 N 
ATOM     27  H   UNL A   1      32.343  16.412  23.214  1.00  0.00     0.164 HD
BRANCH  26  28
ATOM     28  C   UNL A   1      32.835  16.456  25.183  1.00  0.00     0.082 C 
ATOM     29  C   UNL A   1      32.578  14.988  25.376  1.00  0.00     0.027 C 
ATOM     30  C   UNL A   1      33.981  15.514  25.427  1.00  0.00     0.027 C 
ENDBRANCH  26  28
ENDBRANCH  23  24
ENDBRANCH  14  17
ENDBRANCH   7  13
ENDBRANCH   3   6
ENDBRANCH   1   2
BRANCH   1  31
ATOM     31  C   UNL A   1      32.054  30.148  26.511  1.00  0.00     0.023 C 
BRANCH  31  32
ATOM     32  C   UNL A   1      32.875  31.217  27.235  1.00  0.00     0.023 C 
BRANCH  32  33
ATOM     33  C   UNL A   1      34.284  30.785  27.627  1.00  0.00     0.116 C 
BRANCH  33  34
ATOM     34  N   UNL A   1      34.868  31.543  28.726  1.00  0.00    -0.352 N 
ATOM     35  C   UNL A   1      35.957  31.239  29.534  1.00  0.00     0.251 C 
ATOM     36  H   UNL A   1      34.426  32.399  28.925  1.00  0.00     0.163 HD
ATOM     37  O   UNL A   1      36.269  31.974  30.446  1.00  0.00    -0.269 OA
BRANCH  35  38
ATOM     38  C   UNL A   1      36.817  30.076  29.187  1.00  0.00     0.039 A 
ATOM     39  C   UNL A   1      37.018  29.094  30.167  1.00  0.00     0.014 A 
ATOM     40  C   UNL A   1      37.562  30.051  28.012  1.00  0.00     0.014 A 
ATOM     41  C   UNL A   1      38.133  28.262  30.082  1.00  0.00     0.010 A 
ATOM     42  C   UNL A   1      38.719  29.301  27.972  1.00  0.00     0.010 A 
ATOM     43  C   UNL A   1      39.042  28.463  29.044  1.00  0.00    -0.014 A 
BRANCH  43  44
ATOM     44  C   UNL A   1      40.413  27.966  29.080  1.00  0.00     0.031 A 
ATOM     45  C   UNL A   1      40.753  26.622  28.577  1.00  0.00     0.074 A 
ATOM     46  C   UNL A   1      41.393  28.809  29.476  1.00  0.00     0.049 A 
ATOM     47  N   UNL A   1      41.794  25.951  28.940  1.00  0.00    -0.248 NA
ATOM     48  C   UNL A   1      39.910  25.908  27.629  1.00  0.00     0.031 C 
ATOM     49  C   UNL A   1      42.834  28.638  29.315  1.00  0.00     0.029 A 
ATOM     50  N   UNL A   1      41.265  29.946  30.294  1.00  0.00    -0.354 N 
ATOM     51  C   UNL A   1      41.914  24.871  28.093  1.00  0.00     0.074 A 
ATOM     52  C   UNL A   1      40.678  24.851  27.344  1.00  0.00     0.031 C 
ATOM     53  C   UNL A   1      43.463  29.415  30.212  1.00  0.00     0.029 A 
ATOM     54  C   UNL A   1      42.444  29.986  31.073  1.00  0.00     0.049 A 
ATOM     55  H   UNL A   1      40.514  30.581  30.318  1.00  0.00     0.167 HD
ATOM     56  C   UNL A   1      43.106  24.205  28.022  1.00  0.00     0.037 A 
ATOM     57  C   UNL A   1      42.401  29.848  32.430  1.00  0.00     0.037 A 
ATOM     58  C   UNL A   1      44.069  24.750  28.979  1.00  0.00     0.049 A 
ATOM     59  C   UNL A   1      43.197  28.676  32.954  1.00  0.00     0.074 A 
ATOM     60  C   UNL A   1      45.104  25.660  28.839  1.00  0.00     0.029 A 
ATOM     61  N   UNL A   1      43.850  24.609  30.345  1.00  0.00    -0.354 N 
ATOM     62  N   UNL A   1      43.560  27.663  32.219  1.00  0.00    -0.248 NA
ATOM     63  C   UNL A   1      43.594  28.528  34.351  1.00  0.00     0.031 C 
ATOM     64  C   UNL A   1      45.472  26.112  30.128  1.00  0.00     0.029 A 
ATOM     65  C   UNL A   1      44.673  25.464  31.055  1.00  0.00     0.049 A 
ATOM     66  H   UNL A   1      43.202  23.989  30.750  1.00  0.00     0.167 HD
ATOM     67  C   UNL A   1      44.184  26.733  33.007  1.00  0.00     0.074 A 
ATOM     68  C   UNL A   1      44.201  27.329  34.330  1.00  0.00     0.031 C 
ATOM     69  C   UNL A   1      44.615  25.540  32.505  1.00  0.00     0.037 A 
BRANCH  56  70
ATOM     70  C   UNL A   1      43.503  23.300  26.870  1.00  0.00     0.064 A 
ATOM     71  C   UNL A   1      43.020  21.973  26.791  1.00  0.00     0.173 A 
ATOM     72  C   UNL A   1      44.408  23.649  25.852  1.00  0.00     0.173 A 
ATOM     73  F   UNL A   1      42.045  21.531  27.595  1.00  0.00    -0.203 F 
ATOM     74  C   UNL A   1      43.518  21.042  25.874  1.00  0.00     0.198 A 
ATOM     75  C   UNL A   1      44.949  22.706  24.970  1.00  0.00     0.198 A 
ATOM     76  F   UNL A   1      44.752  24.924  25.635  1.00  0.00    -0.203 F 
ATOM     77  F   UNL A   1      43.032  19.793  25.865  1.00  0.00    -0.200 F 
ATOM     78  C   UNL A   1      44.518  21.397  24.993  1.00  0.00     0.200 A 
ATOM     79  F   UNL A   1      45.893  23.081  24.095  1.00  0.00    -0.200 F 
ATOM     80  F   UNL A   1      45.035  20.492  24.152  1.00  0.00    -0.200 F 
ENDBRANCH  56  70
BRANCH  57  81
ATOM     81  C   UNL A   1      41.132  30.335  33.034  1.00  0.00     0.064 A 
ATOM     82  C   UNL A   1      40.929  31.725  33.142  1.00  0.00     0.173 A 
ATOM     83  C   UNL A   1      40.011  29.506  33.153  1.00  0.00     0.173 A 
ATOM     84  F   UNL A   1      41.971  32.565  33.027  1.00  0.00    -0.203 F 
ATOM     85  C   UNL A   1      39.650  32.265  33.247  1.00  0.00     0.198 A 
ATOM     86  C   UNL A   1      38.731  30.051  33.273  1.00  0.00     0.198 A 
ATOM     87  F   UNL A   1      40.134  28.176  33.038  1.00  0.00    -0.203 F 
ATOM     88  F   UNL A   1      39.483  33.594  33.229  1.00  0.00    -0.200 F 
ATOM     89  C   UNL A   1      38.549  31.426  33.287  1.00  0.00     0.200 A 
ATOM     90  F   UNL A   1      37.662  29.242  33.278  1.00  0.00    -0.200 F 
ATOM     91  F   UNL A   1      37.312  31.942  33.292  1.00  0.00    -0.200 F 
ENDBRANCH  57  81
BRANCH  69  92
ATOM     92  C   UNL A   1      45.111  24.378  33.323  1.00  0.00     0.064 A 
ATOM     93  C   UNL A   1      44.372  23.202  33.530  1.00  0.00     0.173 A 
ATOM     94  C   UNL A   1      46.438  24.364  33.812  1.00  0.00     0.173 A 
ATOM     95  F   UNL A   1      43.144  23.053  33.013  1.00  0.00    -0.203 F 
ATOM     96  C   UNL A   1      44.898  22.115  34.232  1.00  0.00     0.198 A 
ATOM     97  C   UNL A   1      46.978  23.258  34.466  1.00  0.00     0.198 A 
ATOM     98  F   UNL A   1      47.253  25.417  33.649  1.00  0.00    -0.203 F 
ATOM     99  F   UNL A   1      44.140  21.030  34.440  1.00  0.00    -0.200 F 
ATOM    100  C   UNL A   1      46.203  22.139  34.690  1.00  0.00     0.200 A 
ATOM    101  F   UNL A   1      48.259  23.277  34.860  1.00  0.00    -0.200 F 
ATOM    102  F   UNL A   1      46.717  21.078  35.327  1.00  0.00    -0.200 F 
ENDBRANCH  69  92
ENDBRANCH  43  44
ENDBRANCH  35  38
ENDBRANCH  33  34
ENDBRANCH  32  33
ENDBRANCH  31  32
ENDBRANCH   1  31
TORSDOF 15
ENDMDL
MODEL 2
REMARK VINA RESULT:     -14.3      1.994      3.155
REMARK SMILES Cc1ccc(C(=O)NC2CC2)cc1NC(=O)[C@@H]1[C@@H](C(=O)NCCCCNC(=O)c2ccc(-c3c4nc(c(-c5c(F)c(F)c(F)c(F)c5F)c5ccc([nH]5)c(-c5c(F)c(F)c(F)c(F)c5F)c5nc(c(-c6c(F)c(F)c(F)c(F)c6F)c6ccc3[nH]6)C=C5)C=C4)cc2)[C@H]2C=C[C@@H]1C2
REMARK SMILES IDX 22 1 21 2 19 3 20 4 18 6 17 7 95 8 92 9 94 10 96 11 93 12
REMARK SMILES IDX 15 13 14 14 16 16 13 17 1 18 2 19 3 20 4 21 12 22 5 23 6 24
REMARK SMILES IDX 7 25 8 26 9 28 10 29 11 30 23 31 24 32 25 33 26 34 27 35
REMARK SMILES IDX 28 37 29 38 30 39 91 40 31 41 90 42 32 43 33 44 34 45 84 46
REMARK SMILES IDX 35 47 89 48 83 49 85 50 36 51 88 52 82 53 81 54 37 56 69 57
REMARK SMILES IDX 49 58 68 59 50 60 53 61 67 62 86 63 51 64 52 65 66 67 87 68
REMARK SMILES IDX 54 69 38 70 39 71 47 72 40 73 41 74 45 75 48 76 42 77 43 78
REMARK SMILES IDX 46 79 44 80 70 81 71 82 79 83 72 84 73 85 77 86 80 87 74 88
REMARK SMILES IDX 75 89 78 90 76 91 55 92 56 93 64 94 57 95 58 96 62 97 65 98
REMARK SMILES IDX 59 99 60 100 63 101 61 102
REMARK H PARENT 21 5 14 15 8 27 26 36 85 55 53 66
REMARK Flexibility Score: inf
ROOT
ATOM      1  C   UNL A   1      32.833  29.276  25.262  1.00  0.00     0.116 C 
ENDROOT
BRANCH   1   2
ATOM      2  N   UNL A   1      33.592  28.041  25.261  1.00  0.00    -0.356 N 
ATOM      3  C   UNL A   1      33.257  26.731  25.218  1.00  0.00     0.224 C 
ATOM      4  O   UNL A   1      34.211  25.950  25.334  1.00  0.00    -0.275 OA
ATOM      5  H   UNL A   1      34.565  28.189  25.300  1.00  0.00     0.163 HD
BRANCH   3   6
ATOM      6  C   UNL A   1      31.831  26.187  25.138  1.00  0.00     0.098 C 
ATOM      7  C   UNL A   1      31.900  24.602  25.050  1.00  0.00     0.099 C 
ATOM      8  C   UNL A   1      30.942  24.276  23.875  1.00  0.00     0.025 C 
ATOM      9  C   UNL A   1      30.939  26.514  23.921  1.00  0.00     0.025 C 
ATOM     10  C   UNL A   1      31.595  24.755  22.596  1.00  0.00    -0.027 C 
ATOM     11  C   UNL A   1      29.902  25.385  24.010  1.00  0.00     0.017 C 
ATOM     12  C   UNL A   1      31.618  26.094  22.636  1.00  0.00    -0.027 C 
BRANCH   7  13
ATOM     13  C   UNL A   1      31.513  23.865  26.321  1.00  0.00     0.228 C 
ATOM     14  N   UNL A   1      31.907  22.570  26.559  1.00  0.00    -0.326 N 
ATOM     15  H   UNL A   1      31.540  22.197  27.392  1.00  0.00     0.169 HD
ATOM     16  O   UNL A   1      30.758  24.383  27.151  1.00  0.00    -0.274 OA
BRANCH  14  17
ATOM     17  C   UNL A   1      32.731  21.662  25.852  1.00  0.00     0.044 A 
ATOM     18  C   UNL A   1      34.856  22.858  26.707  1.00  0.00     0.046 C 
ATOM     19  C   UNL A   1      34.130  21.753  25.985  1.00  0.00    -0.027 A 
ATOM     20  C   UNL A   1      34.934  20.769  25.382  1.00  0.00     0.006 A 
ATOM     21  C   UNL A   1      34.367  19.719  24.660  1.00  0.00     0.014 A 
ATOM     22  C   UNL A   1      32.202  20.674  25.004  1.00  0.00     0.040 A 
ATOM     23  C   UNL A   1      32.986  19.658  24.445  1.00  0.00     0.041 A 
BRANCH  23  24
ATOM     24  C   UNL A   1      32.482  18.506  23.624  1.00  0.00     0.251 C 
ATOM     25  O   UNL A   1      32.120  18.723  22.463  1.00  0.00    -0.269 OA
ATOM     26  N   UNL A   1      32.421  17.197  24.054  1.00  0.00    -0.349 N 
ATOM     27  H   UNL A   1      32.088  16.564  23.378  1.00  0.00     0.164 HD
BRANCH  26  28
ATOM     28  C   UNL A   1      32.752  16.603  25.296  1.00  0.00     0.082 C 
ATOM     29  C   UNL A   1      32.514  15.133  25.505  1.00  0.00     0.027 C 
ATOM     30  C   UNL A   1      33.915  15.664  25.461  1.00  0.00     0.027 C 
ENDBRANCH  26  28
ENDBRANCH  23  24
ENDBRANCH  14  17
ENDBRANCH   7  13
ENDBRANCH   3   6
ENDBRANCH   1   2
BRANCH   1  31
ATOM     31  C   UNL A   1      32.825  29.960  26.632  1.00  0.00     0.023 C 
BRANCH  31  32
ATOM     32  C   UNL A   1      34.108  29.790  27.449  1.00  0.00     0.023 C 
BRANCH  32  33
ATOM     33  C   UNL A   1      34.903  31.073  27.666  1.00  0.00     0.116 C 
BRANCH  33  34
ATOM     34  N   UNL A   1      34.133  32.178  28.223  1.00  0.00    -0.352 N 
ATOM     35  C   UNL A   1      34.451  33.048  29.258  1.00  0.00     0.251 C 
ATOM     36  H   UNL A   1      33.257  32.331  27.801  1.00  0.00     0.163 HD
ATOM     37  O   UNL A   1      33.653  33.884  29.625  1.00  0.00    -0.269 OA
BRANCH  35  38
ATOM     38  C   UNL A   1      35.827  33.035  29.822  1.00  0.00     0.039 A 
ATOM     39  C   UNL A   1      36.847  33.646  29.079  1.00  0.00     0.014 A 
ATOM     40  C   UNL A   1      36.142  32.277  30.946  1.00  0.00     0.014 A 
ATOM     41  C   UNL A   1      38.172  33.279  29.306  1.00  0.00     0.010 A 
ATOM     42  C   UNL A   1      37.439  31.835  31.109  1.00  0.00     0.010 A 
ATOM     43  C   UNL A   1      38.440  32.278  30.240  1.00  0.00    -0.014 A 
BRANCH  43  44
ATOM     44  C   UNL A   1      39.690  31.529  30.265  1.00  0.00     0.031 A 
ATOM     45  C   UNL A   1      39.805  30.210  29.615  1.00  0.00     0.074 A 
ATOM     46  C   UNL A   1      40.785  32.120  30.795  1.00  0.00     0.049 A 
ATOM     47  N   UNL A   1      40.681  29.316  29.931  1.00  0.00    -0.248 NA
ATOM     48  C   UNL A   1      38.901  29.781  28.557  1.00  0.00     0.031 C 
ATOM     49  C   UNL A   1      42.176  31.696  30.666  1.00  0.00     0.029 A 
ATOM     50  N   UNL A   1      40.823  33.161  31.739  1.00  0.00    -0.354 N 
ATOM     51  C   UNL A   1      40.647  28.335  28.964  1.00  0.00     0.074 A 
ATOM     52  C   UNL A   1      39.475  28.636  28.174  1.00  0.00     0.031 C 
ATOM     53  C   UNL A   1      42.885  32.233  31.672  1.00  0.00     0.029 A 
ATOM     54  C   UNL A   1      41.941  32.888  32.560  1.00  0.00     0.049 A 
ATOM     55  H   UNL A   1      40.202  33.921  31.813  1.00  0.00     0.167 HD
ATOM     56  C   UNL A   1      41.698  27.467  28.856  1.00  0.00     0.037 A 
ATOM     57  C   UNL A   1      41.795  32.609  33.888  1.00  0.00     0.037 A 
ATOM     58  C   UNL A   1      42.688  27.707  29.905  1.00  0.00     0.049 A 
ATOM     59  C   UNL A   1      42.328  31.256  34.293  1.00  0.00     0.074 A 
ATOM     60  C   UNL A   1      43.880  28.413  29.914  1.00  0.00     0.029 A 
ATOM     61  N   UNL A   1      42.368  27.458  31.236  1.00  0.00    -0.354 N 
ATOM     62  N   UNL A   1      42.540  30.281  33.454  1.00  0.00    -0.248 NA
ATOM     63  C   UNL A   1      42.609  30.879  35.675  1.00  0.00     0.031 C 
ATOM     64  C   UNL A   1      44.249  28.639  31.261  1.00  0.00     0.029 A 
ATOM     65  C   UNL A   1      43.292  28.055  32.073  1.00  0.00     0.049 A 
ATOM     66  H   UNL A   1      41.594  26.932  31.538  1.00  0.00     0.167 HD
ATOM     67  C   UNL A   1      42.933  29.167  34.146  1.00  0.00     0.074 A 
ATOM     68  C   UNL A   1      42.983  29.595  35.531  1.00  0.00     0.031 C 
ATOM     69  C   UNL A   1      43.165  27.977  33.518  1.00  0.00     0.037 A 
BRANCH  56  70
ATOM     70  C   UNL A   1      41.987  26.637  27.617  1.00  0.00     0.064 A 
ATOM     71  C   UNL A   1      41.337  25.400  27.405  1.00  0.00     0.173 A 
ATOM     72  C   UNL A   1      42.941  26.966  26.637  1.00  0.00     0.173 A 
ATOM     73  F   UNL A   1      40.305  25.009  28.163  1.00  0.00    -0.203 F 
ATOM     74  C   UNL A   1      41.720  24.508  26.399  1.00  0.00     0.198 A 
ATOM     75  C   UNL A   1      43.364  26.054  25.664  1.00  0.00     0.198 A 
ATOM     76  F   UNL A   1      43.449  28.201  26.550  1.00  0.00    -0.203 F 
ATOM     77  F   UNL A   1      41.077  23.340  26.265  1.00  0.00    -0.200 F 
ATOM     78  C   UNL A   1      42.767  24.816  25.556  1.00  0.00     0.200 A 
ATOM     79  F   UNL A   1      44.358  26.389  24.828  1.00  0.00    -0.200 F 
ATOM     80  F   UNL A   1      43.172  23.941  24.626  1.00  0.00    -0.200 F 
ENDBRANCH  56  70
BRANCH  57  81
ATOM     81  C   UNL A   1      40.604  33.258  34.500  1.00  0.00     0.064 A 
ATOM     82  C   UNL A   1      39.420  32.506  34.628  1.00  0.00     0.173 A 
ATOM     83  C   UNL A   1      40.718  34.423  35.267  1.00  0.00     0.173 A 
ATOM     84  F   UNL A   1      39.265  31.375  33.920  1.00  0.00    -0.203 F 
ATOM     85  C   UNL A   1      38.448  32.841  35.566  1.00  0.00     0.198 A 
ATOM     86  C   UNL A   1      39.733  34.764  36.196  1.00  0.00     0.198 A 
ATOM     87  F   UNL A   1      41.829  35.171  35.206  1.00  0.00    -0.203 F 
ATOM     88  F   UNL A   1      37.389  32.038  35.746  1.00  0.00    -0.200 F 
ATOM     89  C   UNL A   1      38.618  33.957  36.368  1.00  0.00     0.200 A 
ATOM     90  F   UNL A   1      39.912  35.825  36.995  1.00  0.00    -0.200 F 
ATOM     91  F   UNL A   1      37.732  34.230  37.335  1.00  0.00    -0.200 F 
ENDBRANCH  57  81
BRANCH  69  92
ATOM     92  C   UNL A   1      43.389  26.657  34.207  1.00  0.00     0.064 A 
ATOM     93  C   UNL A   1      42.359  25.900  34.789  1.00  0.00     0.173 A 
ATOM     94  C   UNL A   1      44.661  26.039  34.169  1.00  0.00     0.173 A 
ATOM     95  F   UNL A   1      41.090  26.332  34.781  1.00  0.00    -0.203 F 
ATOM     96  C   UNL A   1      42.596  24.644  35.352  1.00  0.00     0.198 A 
ATOM     97  C   UNL A   1      44.883  24.763  34.683  1.00  0.00     0.198 A 
ATOM     98  F   UNL A   1      45.717  26.650  33.610  1.00  0.00    -0.203 F 
ATOM     99  F   UNL A   1      41.590  23.977  35.933  1.00  0.00    -0.200 F 
ATOM    100  C   UNL A   1      43.854  24.072  35.289  1.00  0.00     0.200 A 
ATOM    101  F   UNL A   1      46.095  24.202  34.570  1.00  0.00    -0.200 F 
ATOM    102  F   UNL A   1      44.068  22.849  35.794  1.00  0.00    -0.200 F 
ENDBRANCH  69  92
ENDBRANCH  43  44
ENDBRANCH  35  38
ENDBRANCH  33  34
ENDBRANCH  32  33
ENDBRANCH  31  32
ENDBRANCH   1  31
TORSDOF 15
ENDMDL
MODEL 3
REMARK VINA RESULT:     -14.2      2.018      4.592
REMARK SMILES Cc1ccc(C(=O)NC2CC2)cc1NC(=O)[C@@H]1[C@@H](C(=O)NCCCCNC(=O)c2ccc(-c3c4nc(c(-c5c(F)c(F)c(F)c(F)c5F)c5ccc([nH]5)c(-c5c(F)c(F)c(F)c(F)c5F)c5nc(c(-c6c(F)c(F)c(F)c(F)c6F)c6ccc3[nH]6)C=C5)C=C4)cc2)[C@H]2C=C[C@@H]1C2
REMARK SMILES IDX 22 1 21 2 19 3 20 4 18 6 17 7 95 8 92 9 94 10 96 11 93 12
REMARK SMILES IDX 15 13 14 14 16 16 13 17 1 18 2 19 3 20 4 21 12 22 5 23 6 24
REMARK SMILES IDX 7 25 8 26 9 28 10 29 11 30 23 31 24 32 25 33 26 34 27 35
REMARK SMILES IDX 28 37 29 38 30 39 91 40 31 41 90 42 32 43 33 44 34 45 84 46
REMARK SMILES IDX 35 47 89 48 83 49 85 50 36 51 88 52 82 53 81 54 37 56 69 57
REMARK SMILES IDX 49 58 68 59 50 60 53 61 67 62 86 63 51 64 52 65 66 67 87 68
REMARK SMILES IDX 54 69 38 70 39 71 47 72 40 73 41 74 45 75 48 76 42 77 43 78
REMARK SMILES IDX 46 79 44 80 70 81 71 82 79 83 72 84 73 85 77 86 80 87 74 88
REMARK SMILES IDX 75 89 78 90 76 91 55 92 56 93 64 94 57 95 58 96 62 97 65 98
REMARK SMILES IDX 59 99 60 100 63 101 61 102
REMARK H PARENT 21 5 14 15 8 27 26 36 85 55 53 66
REMARK Flexibility Score: inf
ROOT
ATOM      1  C   UNL A   1      33.441  27.743  26.831  1.00  0.00     0.116 C 
ENDROOT
BRANCH   1   2
ATOM      2  N   UNL A   1      32.082  27.334  26.535  1.00  0.00    -0.356 N 
ATOM      3  C   UNL A   1      31.531  26.220  26.001  1.00  0.00     0.224 C 
ATOM      4  O   UNL A   1      30.308  26.288  25.816  1.00  0.00    -0.275 OA
ATOM      5  H   UNL A   1      31.415  28.017  26.776  1.00  0.00     0.163 HD
BRANCH   3   6
ATOM      6  C   UNL A   1      32.304  24.985  25.543  1.00  0.00     0.098 C 
ATOM      7  C   UNL A   1      31.474  24.267  24.394  1.00  0.00     0.099 C 
ATOM      8  C   UNL A   1      31.478  22.780  24.838  1.00  0.00     0.025 C 
ATOM      9  C   UNL A   1      32.542  23.809  26.517  1.00  0.00     0.025 C 
ATOM     10  C   UNL A   1      30.604  22.660  26.067  1.00  0.00    -0.027 C 
ATOM     11  C   UNL A   1      32.834  22.670  25.529  1.00  0.00     0.017 C 
ATOM     12  C   UNL A   1      31.228  23.299  27.065  1.00  0.00    -0.027 C 
BRANCH   7  13
ATOM     13  C   UNL A   1      32.027  24.443  22.989  1.00  0.00     0.228 C 
ATOM     14  N   UNL A   1      31.938  25.639  22.319  1.00  0.00    -0.326 N 
ATOM     15  H   UNL A   1      32.286  25.597  21.399  1.00  0.00     0.169 HD
ATOM     16  O   UNL A   1      32.506  23.487  22.370  1.00  0.00    -0.274 OA
BRANCH  14  17
ATOM     17  C   UNL A   1      31.449  26.918  22.677  1.00  0.00     0.044 A 
ATOM     18  C   UNL A   1      33.832  27.702  23.296  1.00  0.00     0.046 C 
ATOM     19  C   UNL A   1      32.359  27.919  23.068  1.00  0.00    -0.027 A 
ATOM     20  C   UNL A   1      31.877  29.220  23.298  1.00  0.00     0.006 A 
ATOM     21  C   UNL A   1      30.524  29.524  23.148  1.00  0.00     0.014 A 
ATOM     22  C   UNL A   1      30.077  27.223  22.672  1.00  0.00     0.040 A 
ATOM     23  C   UNL A   1      29.592  28.526  22.844  1.00  0.00     0.041 A 
BRANCH  23  24
ATOM     24  C   UNL A   1      28.156  28.952  22.742  1.00  0.00     0.251 C 
ATOM     25  O   UNL A   1      27.299  28.282  23.326  1.00  0.00    -0.269 OA
ATOM     26  N   UNL A   1      27.711  30.070  22.067  1.00  0.00    -0.349 N 
ATOM     27  H   UNL A   1      26.740  30.215  22.123  1.00  0.00     0.164 HD
BRANCH  26  28
ATOM     28  C   UNL A   1      28.405  31.044  21.308  1.00  0.00     0.082 C 
ATOM     29  C   UNL A   1      27.650  32.204  20.720  1.00  0.00     0.027 C 
ATOM     30  C   UNL A   1      28.650  32.439  21.812  1.00  0.00     0.027 C 
ENDBRANCH  26  28
ENDBRANCH  23  24
ENDBRANCH  14  17
ENDBRANCH   7  13
ENDBRANCH   3   6
ENDBRANCH   1   2
BRANCH   1  31
ATOM     31  C   UNL A   1      33.706  29.207  26.469  1.00  0.00     0.023 C 
BRANCH  31  32
ATOM     32  C   UNL A   1      33.568  30.197  27.628  1.00  0.00     0.023 C 
BRANCH  32  33
ATOM     33  C   UNL A   1      34.587  31.331  27.626  1.00  0.00     0.116 C 
BRANCH  33  34
ATOM     34  N   UNL A   1      34.950  31.824  28.948  1.00  0.00    -0.352 N 
ATOM     35  C   UNL A   1      35.818  31.285  29.889  1.00  0.00     0.251 C 
ATOM     36  H   UNL A   1      34.516  32.667  29.214  1.00  0.00     0.163 HD
ATOM     37  O   UNL A   1      35.956  31.814  30.972  1.00  0.00    -0.269 OA
BRANCH  35  38
ATOM     38  C   UNL A   1      36.677  30.132  29.509  1.00  0.00     0.039 A 
ATOM     39  C   UNL A   1      36.913  29.143  30.475  1.00  0.00     0.014 A 
ATOM     40  C   UNL A   1      37.388  30.121  28.313  1.00  0.00     0.014 A 
ATOM     41  C   UNL A   1      38.031  28.321  30.351  1.00  0.00     0.010 A 
ATOM     42  C   UNL A   1      38.549  29.380  28.235  1.00  0.00     0.010 A 
ATOM     43  C   UNL A   1      38.909  28.536  29.290  1.00  0.00    -0.014 A 
BRANCH  43  44
ATOM     44  C   UNL A   1      40.283  28.050  29.283  1.00  0.00     0.031 A 
ATOM     45  C   UNL A   1      40.619  26.713  28.759  1.00  0.00     0.074 A 
ATOM     46  C   UNL A   1      41.268  28.898  29.659  1.00  0.00     0.049 A 
ATOM     47  N   UNL A   1      41.675  26.047  29.087  1.00  0.00    -0.248 NA
ATOM     48  C   UNL A   1      39.755  26.001  27.829  1.00  0.00     0.031 C 
ATOM     49  C   UNL A   1      42.705  28.739  29.456  1.00  0.00     0.029 A 
ATOM     50  N   UNL A   1      41.155  30.026  30.489  1.00  0.00    -0.354 N 
ATOM     51  C   UNL A   1      41.779  24.975  28.228  1.00  0.00     0.074 A 
ATOM     52  C   UNL A   1      40.523  24.952  27.513  1.00  0.00     0.031 C 
ATOM     53  C   UNL A   1      43.354  29.513  30.341  1.00  0.00     0.029 A 
ATOM     54  C   UNL A   1      42.355  30.069  31.236  1.00  0.00     0.049 A 
ATOM     55  H   UNL A   1      40.400  30.655  30.540  1.00  0.00     0.167 HD
ATOM     56  C   UNL A   1      42.974  24.320  28.118  1.00  0.00     0.037 A 
ATOM     57  C   UNL A   1      42.351  29.919  32.593  1.00  0.00     0.037 A 
ATOM     58  C   UNL A   1      43.960  24.863  29.051  1.00  0.00     0.049 A 
ATOM     59  C   UNL A   1      43.170  28.749  33.083  1.00  0.00     0.074 A 
ATOM     60  C   UNL A   1      44.984  25.783  28.890  1.00  0.00     0.029 A 
ATOM     61  N   UNL A   1      43.780  24.709  30.422  1.00  0.00    -0.354 N 
ATOM     62  N   UNL A   1      43.520  27.745  32.330  1.00  0.00    -0.248 NA
ATOM     63  C   UNL A   1      43.607  28.592  34.468  1.00  0.00     0.031 C 
ATOM     64  C   UNL A   1      45.384  26.227  30.173  1.00  0.00     0.029 A 
ATOM     65  C   UNL A   1      44.616  25.564  31.116  1.00  0.00     0.049 A 
ATOM     66  H   UNL A   1      43.148  24.081  30.839  1.00  0.00     0.167 HD
ATOM     67  C   UNL A   1      44.172  26.813  33.092  1.00  0.00     0.074 A 
ATOM     68  C   UNL A   1      44.222  27.397  34.419  1.00  0.00     0.031 C 
ATOM     69  C   UNL A   1      44.599  25.627  32.568  1.00  0.00     0.037 A 
BRANCH  56  70
ATOM     70  C   UNL A   1      43.345  23.427  26.947  1.00  0.00     0.064 A 
ATOM     71  C   UNL A   1      42.942  22.072  26.911  1.00  0.00     0.173 A 
ATOM     72  C   UNL A   1      44.153  23.820  25.864  1.00  0.00     0.173 A 
ATOM     73  F   UNL A   1      42.056  21.580  27.786  1.00  0.00    -0.203 F 
ATOM     74  C   UNL A   1      43.432  21.163  25.969  1.00  0.00     0.198 A 
ATOM     75  C   UNL A   1      44.689  22.902  24.954  1.00  0.00     0.198 A 
ATOM     76  F   UNL A   1      44.400  25.111  25.615  1.00  0.00    -0.203 F 
ATOM     77  F   UNL A   1      43.026  19.886  26.003  1.00  0.00    -0.200 F 
ATOM     78  C   UNL A   1      44.343  21.568  25.017  1.00  0.00     0.200 A 
ATOM     79  F   UNL A   1      45.544  23.324  24.011  1.00  0.00    -0.200 F 
ATOM     80  F   UNL A   1      44.856  20.688  24.148  1.00  0.00    -0.200 F 
ENDBRANCH  56  70
BRANCH  57  81
ATOM     81  C   UNL A   1      41.096  30.391  33.236  1.00  0.00     0.064 A 
ATOM     82  C   UNL A   1      40.898  31.778  33.387  1.00  0.00     0.173 A 
ATOM     83  C   UNL A   1      39.976  29.561  33.355  1.00  0.00     0.173 A 
ATOM     84  F   UNL A   1      41.940  32.619  33.273  1.00  0.00    -0.203 F 
ATOM     85  C   UNL A   1      39.623  32.316  33.533  1.00  0.00     0.198 A 
ATOM     86  C   UNL A   1      38.699  30.104  33.517  1.00  0.00     0.198 A 
ATOM     87  F   UNL A   1      40.094  28.234  33.200  1.00  0.00    -0.203 F 
ATOM     88  F   UNL A   1      39.458  33.646  33.555  1.00  0.00    -0.200 F 
ATOM     89  C   UNL A   1      38.521  31.478  33.573  1.00  0.00     0.200 A 
ATOM     90  F   UNL A   1      37.629  29.297  33.521  1.00  0.00    -0.200 F 
ATOM     91  F   UNL A   1      37.286  31.996  33.618  1.00  0.00    -0.200 F 
ENDBRANCH  57  81
BRANCH  69  92
ATOM     92  C   UNL A   1      45.126  24.462  33.361  1.00  0.00     0.064 A 
ATOM     93  C   UNL A   1      44.375  23.308  33.639  1.00  0.00     0.173 A 
ATOM     94  C   UNL A   1      46.486  24.420  33.749  1.00  0.00     0.173 A 
ATOM     95  F   UNL A   1      43.108  23.186  33.219  1.00  0.00    -0.203 F 
ATOM     96  C   UNL A   1      44.926  22.217  34.314  1.00  0.00     0.198 A 
ATOM     97  C   UNL A   1      47.046  23.307  34.374  1.00  0.00     0.198 A 
ATOM     98  F   UNL A   1      47.312  25.449  33.510  1.00  0.00    -0.203 F 
ATOM     99  F   UNL A   1      44.159  21.154  34.594  1.00  0.00    -0.200 F 
ATOM    100  C   UNL A   1      46.262  22.212  34.672  1.00  0.00     0.200 A 
ATOM    101  F   UNL A   1      48.353  23.298  34.670  1.00  0.00    -0.200 F 
ATOM    102  F   UNL A   1      46.796  21.145  35.282  1.00  0.00    -0.200 F 
ENDBRANCH  69  92
ENDBRANCH  43  44
ENDBRANCH  35  38
ENDBRANCH  33  34
ENDBRANCH  32  33
ENDBRANCH  31  32
ENDBRANCH   1  31
TORSDOF 15
ENDMDL
