MODEL 1
REMARK VINA RESULT:     -10.2      0.000      0.000
REMARK SMILES CC[NH+](CC)C[C@H](F)C(=O)NCCCCNC(=O)c1ccc(-c2c3nc(c(-c4c(F)c(F)c(F)c(F)c4F)c4ccc([nH]4)c(-c4c(F)c(F)c(F)c(F)c4F)c4nc(c(-c5c(F)c(F)c(F)c(F)c5F)c5ccc2[nH]5)C=C4)C=C3)cc1
REMARK SMILES IDX 13 1 12 2 11 3 9 4 10 5 7 7 8 8 6 9 3 10 2 12 1 13 4 14 5 15
REMARK SMILES IDX 14 16 15 17 16 18 17 19 18 21 19 22 20 23 81 24 21 25 80 26
REMARK SMILES IDX 22 27 23 28 24 29 74 30 25 31 79 32 73 33 75 34 26 35 78 36
REMARK SMILES IDX 72 37 71 38 27 40 59 41 39 42 58 43 40 44 43 45 57 46 76 47
REMARK SMILES IDX 41 48 42 49 56 51 77 52 44 53 28 54 29 55 37 56 30 57 31 58
REMARK SMILES IDX 35 59 38 60 32 61 33 62 36 63 34 64 60 65 61 66 69 67 62 68
REMARK SMILES IDX 63 69 67 70 70 71 64 72 65 73 68 74 66 75 45 76 46 77 54 78
REMARK SMILES IDX 47 79 48 80 52 81 55 82 49 83 50 84 53 85 51 86
REMARK H PARENT 11 6 3 11 16 20 75 39 43 50
REMARK Flexibility Score: inf
ROOT
ATOM      1  C   UNL A   1      31.730  30.800  25.983  1.00  0.00     0.023 C 
ENDROOT
BRANCH   1   2
ATOM      2  C   UNL A   1      32.977  30.027  26.402  1.00  0.00     0.116 C 
BRANCH   2   3
ATOM      3  N   UNL A   1      33.566  29.306  25.295  1.00  0.00    -0.353 N 
ATOM      4  C   UNL A   1      33.346  28.022  24.890  1.00  0.00     0.260 C 
ATOM      5  O   UNL A   1      33.991  27.628  23.912  1.00  0.00    -0.271 OA
ATOM      6  H   UNL A   1      34.218  29.813  24.758  1.00  0.00     0.163 HD
BRANCH   4   7
ATOM      7  C   UNL A   1      32.343  27.120  25.601  1.00  0.00     0.309 C 
ATOM      8  F   UNL A   1      31.055  27.521  25.338  1.00  0.00    -0.230 F 
BRANCH   7   9
ATOM      9  C   UNL A   1      32.427  25.616  25.273  1.00  0.00     0.310 C 
BRANCH   9  10
ATOM     10  N   UNL A   1      32.778  24.576  26.254  1.00  0.00    -0.333 N 
ATOM     11  H   UNL A   1      33.090  25.158  27.031  1.00  0.00     0.348 HD
BRANCH  10  12
ATOM     12  C   UNL A   1      31.667  23.822  26.829  1.00  0.00     0.258 C 
ATOM     13  C   UNL A   1      30.847  23.090  25.769  1.00  0.00     0.071 C 
ENDBRANCH  10  12
BRANCH  10  14
ATOM     14  C   UNL A   1      33.956  23.765  25.939  1.00  0.00     0.258 C 
ATOM     15  C   UNL A   1      35.163  24.472  25.335  1.00  0.00     0.071 C 
ENDBRANCH  10  14
ENDBRANCH   9  10
ENDBRANCH   7   9
ENDBRANCH   4   7
ENDBRANCH   2   3
ENDBRANCH   1   2
BRANCH   1  16
ATOM     16  C   UNL A   1      31.466  32.090  26.767  1.00  0.00     0.023 C 
BRANCH  16  17
ATOM     17  C   UNL A   1      32.710  32.842  27.235  1.00  0.00     0.116 C 
BRANCH  17  18
ATOM     18  N   UNL A   1      32.426  34.219  27.607  1.00  0.00    -0.352 N 
ATOM     19  C   UNL A   1      32.975  34.994  28.602  1.00  0.00     0.251 C 
ATOM     20  H   UNL A   1      31.734  34.663  27.065  1.00  0.00     0.163 HD
ATOM     21  O   UNL A   1      32.484  36.081  28.877  1.00  0.00    -0.269 OA
BRANCH  19  22
ATOM     22  C   UNL A   1      34.146  34.503  29.361  1.00  0.00     0.039 A 
ATOM     23  C   UNL A   1      33.940  33.921  30.613  1.00  0.00     0.014 A 
ATOM     24  C   UNL A   1      35.438  34.617  28.843  1.00  0.00     0.014 A 
ATOM     25  C   UNL A   1      35.023  33.382  31.313  1.00  0.00     0.010 A 
ATOM     26  C   UNL A   1      36.505  34.014  29.506  1.00  0.00     0.010 A 
ATOM     27  C   UNL A   1      36.308  33.386  30.746  1.00  0.00    -0.014 A 
BRANCH  27  28
ATOM     28  C   UNL A   1      37.451  32.721  31.426  1.00  0.00     0.031 A 
ATOM     29  C   UNL A   1      38.150  31.558  30.780  1.00  0.00     0.074 A 
ATOM     30  C   UNL A   1      37.819  33.126  32.658  1.00  0.00     0.049 A 
ATOM     31  N   UNL A   1      39.122  30.813  31.244  1.00  0.00    -0.248 NA
ATOM     32  C   UNL A   1      37.678  31.162  29.444  1.00  0.00     0.031 C 
ATOM     33  C   UNL A   1      37.193  34.212  33.413  1.00  0.00     0.029 A 
ATOM     34  N   UNL A   1      38.802  32.664  33.498  1.00  0.00    -0.354 N 
ATOM     35  C   UNL A   1      39.368  29.858  30.266  1.00  0.00     0.074 A 
ATOM     36  C   UNL A   1      38.408  30.083  29.206  1.00  0.00     0.031 C 
ATOM     37  C   UNL A   1      37.821  34.349  34.591  1.00  0.00     0.029 A 
ATOM     38  C   UNL A   1      38.865  33.335  34.696  1.00  0.00     0.049 A 
ATOM     39  H   UNL A   1      39.405  31.922  33.264  1.00  0.00     0.167 HD
ATOM     40  C   UNL A   1      40.321  28.894  30.245  1.00  0.00     0.037 A 
ATOM     41  C   UNL A   1      39.667  33.148  35.761  1.00  0.00     0.037 A 
ATOM     42  C   UNL A   1      41.286  28.686  31.292  1.00  0.00     0.049 A 
ATOM     43  C   UNL A   1      40.705  32.057  35.717  1.00  0.00     0.074 A 
ATOM     44  C   UNL A   1      42.329  27.777  31.334  1.00  0.00     0.029 A 
ATOM     45  N   UNL A   1      41.323  29.392  32.486  1.00  0.00    -0.354 N 
ATOM     46  N   UNL A   1      40.977  31.209  34.756  1.00  0.00    -0.248 NA
ATOM     47  C   UNL A   1      41.552  31.902  36.910  1.00  0.00     0.031 C 
ATOM     48  C   UNL A   1      42.963  27.894  32.575  1.00  0.00     0.029 A 
ATOM     49  C   UNL A   1      42.355  28.918  33.282  1.00  0.00     0.049 A 
ATOM     50  H   UNL A   1      40.708  30.121  32.731  1.00  0.00     0.167 HD
ATOM     51  C   UNL A   1      42.044  30.446  35.209  1.00  0.00     0.074 A 
ATOM     52  C   UNL A   1      42.380  30.940  36.528  1.00  0.00     0.031 C 
ATOM     53  C   UNL A   1      42.687  29.426  34.589  1.00  0.00     0.037 A 
BRANCH  40  54
ATOM     54  C   UNL A   1      40.368  27.987  29.048  1.00  0.00     0.064 A 
ATOM     55  C   UNL A   1      39.649  26.783  29.008  1.00  0.00     0.173 A 
ATOM     56  C   UNL A   1      41.103  28.349  27.909  1.00  0.00     0.173 A 
ATOM     57  F   UNL A   1      38.937  26.384  30.074  1.00  0.00    -0.203 F 
ATOM     58  C   UNL A   1      39.686  25.962  27.884  1.00  0.00     0.198 A 
ATOM     59  C   UNL A   1      41.112  27.542  26.775  1.00  0.00     0.198 A 
ATOM     60  F   UNL A   1      41.803  29.493  27.891  1.00  0.00    -0.203 F 
ATOM     61  F   UNL A   1      39.030  24.793  27.887  1.00  0.00    -0.200 F 
ATOM     62  C   UNL A   1      40.411  26.347  26.765  1.00  0.00     0.200 A 
ATOM     63  F   UNL A   1      41.799  27.923  25.689  1.00  0.00    -0.200 F 
ATOM     64  F   UNL A   1      40.437  25.560  25.680  1.00  0.00    -0.200 F 
ENDBRANCH  40  54
BRANCH  41  65
ATOM     65  C   UNL A   1      39.537  34.022  36.957  1.00  0.00     0.064 A 
ATOM     66  C   UNL A   1      40.202  35.255  37.022  1.00  0.00     0.173 A 
ATOM     67  C   UNL A   1      38.766  33.639  38.064  1.00  0.00     0.173 A 
ATOM     68  F   UNL A   1      40.968  35.658  35.998  1.00  0.00    -0.203 F 
ATOM     69  C   UNL A   1      40.122  36.058  38.159  1.00  0.00     0.198 A 
ATOM     70  C   UNL A   1      38.661  34.457  39.188  1.00  0.00     0.198 A 
ATOM     71  F   UNL A   1      38.106  32.471  38.052  1.00  0.00    -0.203 F 
ATOM     72  F   UNL A   1      40.812  37.206  38.215  1.00  0.00    -0.200 F 
ATOM     73  C   UNL A   1      39.348  35.660  39.238  1.00  0.00     0.200 A 
ATOM     74  F   UNL A   1      37.899  34.077  40.222  1.00  0.00    -0.200 F 
ATOM     75  F   UNL A   1      39.270  36.433  40.330  1.00  0.00    -0.200 F 
ENDBRANCH  41  65
BRANCH  53  76
ATOM     76  C   UNL A   1      43.849  28.803  35.308  1.00  0.00     0.064 A 
ATOM     77  C   UNL A   1      45.164  29.257  35.123  1.00  0.00     0.173 A 
ATOM     78  C   UNL A   1      43.640  27.761  36.224  1.00  0.00     0.173 A 
ATOM     79  F   UNL A   1      45.422  30.241  34.248  1.00  0.00    -0.203 F 
ATOM     80  C   UNL A   1      46.227  28.673  35.808  1.00  0.00     0.198 A 
ATOM     81  C   UNL A   1      44.699  27.203  36.932  1.00  0.00     0.198 A 
ATOM     82  F   UNL A   1      42.401  27.293  36.444  1.00  0.00    -0.203 F 
ATOM     83  F   UNL A   1      47.479  29.088  35.577  1.00  0.00    -0.200 F 
ATOM     84  C   UNL A   1      45.992  27.652  36.718  1.00  0.00     0.200 A 
ATOM     85  F   UNL A   1      44.469  26.228  37.823  1.00  0.00    -0.200 F 
ATOM     86  F   UNL A   1      47.015  27.097  37.383  1.00  0.00    -0.200 F 
ENDBRANCH  53  76
ENDBRANCH  27  28
ENDBRANCH  19  22
ENDBRANCH  17  18
ENDBRANCH  16  17
ENDBRANCH   1  16
TORSDOF 15
ENDMDL
MODEL 2
REMARK VINA RESULT:     -10.2      1.640      2.916
REMARK SMILES CC[NH+](CC)C[C@H](F)C(=O)NCCCCNC(=O)c1ccc(-c2c3nc(c(-c4c(F)c(F)c(F)c(F)c4F)c4ccc([nH]4)c(-c4c(F)c(F)c(F)c(F)c4F)c4nc(c(-c5c(F)c(F)c(F)c(F)c5F)c5ccc2[nH]5)C=C4)C=C3)cc1
REMARK SMILES IDX 13 1 12 2 11 3 9 4 10 5 7 7 8 8 6 9 3 10 2 12 1 13 4 14 5 15
REMARK SMILES IDX 14 16 15 17 16 18 17 19 18 21 19 22 20 23 81 24 21 25 80 26
REMARK SMILES IDX 22 27 23 28 24 29 74 30 25 31 79 32 73 33 75 34 26 35 78 36
REMARK SMILES IDX 72 37 71 38 27 40 59 41 39 42 58 43 40 44 43 45 57 46 76 47
REMARK SMILES IDX 41 48 42 49 56 51 77 52 44 53 28 54 29 55 37 56 30 57 31 58
REMARK SMILES IDX 35 59 38 60 32 61 33 62 36 63 34 64 60 65 61 66 69 67 62 68
REMARK SMILES IDX 63 69 67 70 70 71 64 72 65 73 68 74 66 75 45 76 46 77 54 78
REMARK SMILES IDX 47 79 48 80 52 81 55 82 49 83 50 84 53 85 51 86
REMARK H PARENT 11 6 3 11 16 20 75 39 43 50
REMARK Flexibility Score: inf
ROOT
ATOM      1  C   UNL A   1      31.379  30.677  26.700  1.00  0.00     0.023 C 
ENDROOT
BRANCH   1   2
ATOM      2  C   UNL A   1      32.415  29.835  25.960  1.00  0.00     0.116 C 
BRANCH   2   3
ATOM      3  N   UNL A   1      31.848  28.609  25.442  1.00  0.00    -0.353 N 
ATOM      4  C   UNL A   1      31.284  28.370  24.224  1.00  0.00     0.260 C 
ATOM      5  O   UNL A   1      30.854  27.229  24.023  1.00  0.00    -0.271 OA
ATOM      6  H   UNL A   1      31.875  27.839  26.055  1.00  0.00     0.163 HD
BRANCH   4   7
ATOM      7  C   UNL A   1      31.199  29.454  23.155  1.00  0.00     0.309 C 
ATOM      8  F   UNL A   1      32.115  29.228  22.156  1.00  0.00    -0.230 F 
BRANCH   7   9
ATOM      9  C   UNL A   1      29.826  29.640  22.480  1.00  0.00     0.310 C 
BRANCH   9  10
ATOM     10  N   UNL A   1      29.283  30.941  22.057  1.00  0.00    -0.333 N 
ATOM     11  H   UNL A   1      30.137  31.399  21.740  1.00  0.00     0.348 HD
BRANCH  10  12
ATOM     12  C   UNL A   1      28.445  30.939  20.860  1.00  0.00     0.258 C 
ATOM     13  C   UNL A   1      28.033  32.346  20.434  1.00  0.00     0.071 C 
ENDBRANCH  10  12
BRANCH  10  14
ATOM     14  C   UNL A   1      28.801  31.817  23.127  1.00  0.00     0.258 C 
ATOM     15  C   UNL A   1      27.525  31.411  23.854  1.00  0.00     0.071 C 
ENDBRANCH  10  14
ENDBRANCH   9  10
ENDBRANCH   7   9
ENDBRANCH   4   7
ENDBRANCH   2   3
ENDBRANCH   1   2
BRANCH   1  16
ATOM     16  C   UNL A   1      31.529  32.193  26.536  1.00  0.00     0.023 C 
BRANCH  16  17
ATOM     17  C   UNL A   1      32.681  32.828  27.311  1.00  0.00     0.116 C 
BRANCH  17  18
ATOM     18  N   UNL A   1      32.427  34.218  27.653  1.00  0.00    -0.352 N 
ATOM     19  C   UNL A   1      33.010  35.010  28.615  1.00  0.00     0.251 C 
ATOM     20  H   UNL A   1      31.731  34.660  27.115  1.00  0.00     0.163 HD
ATOM     21  O   UNL A   1      32.543  36.111  28.873  1.00  0.00    -0.269 OA
BRANCH  19  22
ATOM     22  C   UNL A   1      34.189  34.519  29.361  1.00  0.00     0.039 A 
ATOM     23  C   UNL A   1      33.999  33.943  30.619  1.00  0.00     0.014 A 
ATOM     24  C   UNL A   1      35.475  34.627  28.826  1.00  0.00     0.014 A 
ATOM     25  C   UNL A   1      35.089  33.404  31.307  1.00  0.00     0.010 A 
ATOM     26  C   UNL A   1      36.549  34.024  29.478  1.00  0.00     0.010 A 
ATOM     27  C   UNL A   1      36.367  33.402  30.723  1.00  0.00    -0.014 A 
BRANCH  27  28
ATOM     28  C   UNL A   1      37.517  32.738  31.391  1.00  0.00     0.031 A 
ATOM     29  C   UNL A   1      38.227  31.594  30.725  1.00  0.00     0.074 A 
ATOM     30  C   UNL A   1      37.880  33.125  32.630  1.00  0.00     0.049 A 
ATOM     31  N   UNL A   1      39.207  30.851  31.176  1.00  0.00    -0.248 NA
ATOM     32  C   UNL A   1      37.759  31.217  29.382  1.00  0.00     0.031 C 
ATOM     33  C   UNL A   1      37.243  34.191  33.404  1.00  0.00     0.029 A 
ATOM     34  N   UNL A   1      38.869  32.658  33.463  1.00  0.00    -0.354 N 
ATOM     35  C   UNL A   1      39.463  29.916  30.181  1.00  0.00     0.074 A 
ATOM     36  C   UNL A   1      38.501  30.150  29.125  1.00  0.00     0.031 C 
ATOM     37  C   UNL A   1      37.870  34.313  34.585  1.00  0.00     0.029 A 
ATOM     38  C   UNL A   1      38.924  33.309  34.672  1.00  0.00     0.049 A 
ATOM     39  H   UNL A   1      39.479  31.927  33.215  1.00  0.00     0.167 HD
ATOM     40  C   UNL A   1      40.426  28.963  30.143  1.00  0.00     0.037 A 
ATOM     41  C   UNL A   1      39.729  33.111  35.734  1.00  0.00     0.037 A 
ATOM     42  C   UNL A   1      41.394  28.746  31.187  1.00  0.00     0.049 A 
ATOM     43  C   UNL A   1      40.778  32.032  35.670  1.00  0.00     0.074 A 
ATOM     44  C   UNL A   1      42.446  27.848  31.212  1.00  0.00     0.029 A 
ATOM     45  N   UNL A   1      41.424  29.431  32.393  1.00  0.00    -0.354 N 
ATOM     46  N   UNL A   1      41.059  31.205  34.694  1.00  0.00    -0.248 NA
ATOM     47  C   UNL A   1      41.627  31.864  36.860  1.00  0.00     0.031 C 
ATOM     48  C   UNL A   1      43.079  27.949  32.455  1.00  0.00     0.029 A 
ATOM     49  C   UNL A   1      42.460  28.955  33.180  1.00  0.00     0.049 A 
ATOM     50  H   UNL A   1      40.802  30.149  32.650  1.00  0.00     0.167 HD
ATOM     51  C   UNL A   1      42.134  30.444  35.134  1.00  0.00     0.074 A 
ATOM     52  C   UNL A   1      42.464  30.918  36.461  1.00  0.00     0.031 C 
ATOM     53  C   UNL A   1      42.788  29.443  34.496  1.00  0.00     0.037 A 
BRANCH  40  54
ATOM     54  C   UNL A   1      40.483  28.077  28.930  1.00  0.00     0.064 A 
ATOM     55  C   UNL A   1      39.773  26.869  28.867  1.00  0.00     0.173 A 
ATOM     56  C   UNL A   1      41.218  28.465  27.800  1.00  0.00     0.173 A 
ATOM     57  F   UNL A   1      39.061  26.447  29.924  1.00  0.00    -0.203 F 
ATOM     58  C   UNL A   1      39.819  26.069  27.728  1.00  0.00     0.198 A 
ATOM     59  C   UNL A   1      41.236  27.678  26.651  1.00  0.00     0.198 A 
ATOM     60  F   UNL A   1      41.910  29.614  27.804  1.00  0.00    -0.203 F 
ATOM     61  F   UNL A   1      39.171  24.896  27.708  1.00  0.00    -0.200 F 
ATOM     62  C   UNL A   1      40.543  26.479  26.618  1.00  0.00     0.200 A 
ATOM     63  F   UNL A   1      41.923  28.084  25.574  1.00  0.00    -0.200 F 
ATOM     64  F   UNL A   1      40.577  25.712  25.519  1.00  0.00    -0.200 F 
ENDBRANCH  40  54
BRANCH  41  65
ATOM     65  C   UNL A   1      39.590  33.963  36.944  1.00  0.00     0.064 A 
ATOM     66  C   UNL A   1      38.822  33.539  38.038  1.00  0.00     0.173 A 
ATOM     67  C   UNL A   1      40.202  35.222  37.028  1.00  0.00     0.173 A 
ATOM     68  F   UNL A   1      38.199  32.353  38.000  1.00  0.00    -0.203 F 
ATOM     69  C   UNL A   1      38.650  34.353  39.157  1.00  0.00     0.198 A 
ATOM     70  C   UNL A   1      40.056  36.022  38.160  1.00  0.00     0.198 A 
ATOM     71  F   UNL A   1      40.951  35.673  36.010  1.00  0.00    -0.203 F 
ATOM     72  F   UNL A   1      37.865  33.946  40.164  1.00  0.00    -0.200 F 
ATOM     73  C   UNL A   1      39.271  35.591  39.218  1.00  0.00     0.200 A 
ATOM     74  F   UNL A   1      40.670  37.210  38.222  1.00  0.00    -0.200 F 
ATOM     75  F   UNL A   1      39.106  36.373  40.294  1.00  0.00    -0.200 F 
ENDBRANCH  41  65
BRANCH  53  76
ATOM     76  C   UNL A   1      43.957  28.819  35.204  1.00  0.00     0.064 A 
ATOM     77  C   UNL A   1      45.252  29.347  35.100  1.00  0.00     0.173 A 
ATOM     78  C   UNL A   1      43.770  27.699  36.028  1.00  0.00     0.173 A 
ATOM     79  F   UNL A   1      45.488  30.408  34.313  1.00  0.00    -0.203 F 
ATOM     80  C   UNL A   1      46.321  28.761  35.773  1.00  0.00     0.198 A 
ATOM     81  C   UNL A   1      44.833  27.136  36.727  1.00  0.00     0.198 A 
ATOM     82  F   UNL A   1      42.550  27.158  36.168  1.00  0.00    -0.203 F 
ATOM     83  F   UNL A   1      47.558  29.251  35.618  1.00  0.00    -0.200 F 
ATOM     84  C   UNL A   1      46.109  27.661  36.593  1.00  0.00     0.200 A 
ATOM     85  F   UNL A   1      44.624  26.084  37.530  1.00  0.00    -0.200 F 
ATOM     86  F   UNL A   1      47.137  27.103  37.247  1.00  0.00    -0.200 F 
ENDBRANCH  53  76
ENDBRANCH  27  28
ENDBRANCH  19  22
ENDBRANCH  17  18
ENDBRANCH  16  17
ENDBRANCH   1  16
TORSDOF 15
ENDMDL
MODEL 3
REMARK VINA RESULT:     -10.2      6.172     11.635
REMARK SMILES CC[NH+](CC)C[C@H](F)C(=O)NCCCCNC(=O)c1ccc(-c2c3nc(c(-c4c(F)c(F)c(F)c(F)c4F)c4ccc([nH]4)c(-c4c(F)c(F)c(F)c(F)c4F)c4nc(c(-c5c(F)c(F)c(F)c(F)c5F)c5ccc2[nH]5)C=C4)C=C3)cc1
REMARK SMILES IDX 13 1 12 2 11 3 9 4 10 5 7 7 8 8 6 9 3 10 2 12 1 13 4 14 5 15
REMARK SMILES IDX 14 16 15 17 16 18 17 19 18 21 19 22 20 23 81 24 21 25 80 26
REMARK SMILES IDX 22 27 23 28 24 29 74 30 25 31 79 32 73 33 75 34 26 35 78 36
REMARK SMILES IDX 72 37 71 38 27 40 59 41 39 42 58 43 40 44 43 45 57 46 76 47
REMARK SMILES IDX 41 48 42 49 56 51 77 52 44 53 28 54 29 55 37 56 30 57 31 58
REMARK SMILES IDX 35 59 38 60 32 61 33 62 36 63 34 64 60 65 61 66 69 67 62 68
REMARK SMILES IDX 63 69 67 70 70 71 64 72 65 73 68 74 66 75 45 76 46 77 54 78
REMARK SMILES IDX 47 79 48 80 52 81 55 82 49 83 50 84 53 85 51 86
REMARK H PARENT 11 6 3 11 16 20 75 39 43 50
REMARK Flexibility Score: inf
ROOT
ATOM      1  C   UNL A   1      37.024  20.896  24.898  1.00  0.00     0.023 C 
ENDROOT
BRANCH   1   2
ATOM      2  C   UNL A   1      35.611  20.328  24.996  1.00  0.00     0.116 C 
BRANCH   2   3
ATOM      3  N   UNL A   1      34.918  20.799  26.176  1.00  0.00    -0.353 N 
ATOM      4  C   UNL A   1      33.708  21.422  26.272  1.00  0.00     0.260 C 
ATOM      5  O   UNL A   1      33.336  21.743  27.406  1.00  0.00    -0.271 OA
ATOM      6  H   UNL A   1      35.385  20.648  27.030  1.00  0.00     0.163 HD
BRANCH   4   7
ATOM      7  C   UNL A   1      32.851  21.697  25.042  1.00  0.00     0.309 C 
ATOM      8  F   UNL A   1      31.778  20.839  24.993  1.00  0.00    -0.230 F 
BRANCH   7   9
ATOM      9  C   UNL A   1      32.295  23.128  24.904  1.00  0.00     0.310 C 
BRANCH   9  10
ATOM     10  N   UNL A   1      32.048  24.031  26.039  1.00  0.00    -0.333 N 
ATOM     11  H   UNL A   1      32.444  23.478  26.799  1.00  0.00     0.348 HD
BRANCH  10  12
ATOM     12  C   UNL A   1      32.838  25.260  26.078  1.00  0.00     0.258 C 
ATOM     13  C   UNL A   1      33.737  25.414  24.854  1.00  0.00     0.071 C 
ENDBRANCH  10  12
BRANCH  10  14
ATOM     14  C   UNL A   1      30.648  24.203  26.433  1.00  0.00     0.258 C 
ATOM     15  C   UNL A   1      29.887  22.969  26.899  1.00  0.00     0.071 C 
ENDBRANCH  10  14
ENDBRANCH   9  10
ENDBRANCH   7   9
ENDBRANCH   4   7
ENDBRANCH   2   3
ENDBRANCH   1   2
BRANCH   1  16
ATOM     16  C   UNL A   1      38.152  19.864  25.001  1.00  0.00     0.023 C 
BRANCH  16  17
ATOM     17  C   UNL A   1      39.291  20.227  25.951  1.00  0.00     0.116 C 
BRANCH  17  18
ATOM     18  N   UNL A   1      40.302  19.185  26.037  1.00  0.00    -0.352 N 
ATOM     19  C   UNL A   1      41.667  19.290  26.173  1.00  0.00     0.251 C 
ATOM     20  H   UNL A   1      39.957  18.264  25.991  1.00  0.00     0.163 HD
ATOM     21  O   UNL A   1      42.376  18.300  26.054  1.00  0.00    -0.269 OA
BRANCH  19  22
ATOM     22  C   UNL A   1      42.284  20.608  26.436  1.00  0.00     0.039 A 
ATOM     23  C   UNL A   1      42.645  21.412  25.353  1.00  0.00     0.014 A 
ATOM     24  C   UNL A   1      42.508  21.049  27.743  1.00  0.00     0.014 A 
ATOM     25  C   UNL A   1      43.159  22.691  25.579  1.00  0.00     0.010 A 
ATOM     26  C   UNL A   1      42.950  22.352  27.967  1.00  0.00     0.010 A 
ATOM     27  C   UNL A   1      43.276  23.188  26.888  1.00  0.00    -0.014 A 
BRANCH  27  28
ATOM     28  C   UNL A   1      43.718  24.584  27.143  1.00  0.00     0.031 A 
ATOM     29  C   UNL A   1      42.741  25.613  27.639  1.00  0.00     0.074 A 
ATOM     30  C   UNL A   1      44.988  24.941  26.867  1.00  0.00     0.049 A 
ATOM     31  N   UNL A   1      42.924  26.892  27.859  1.00  0.00    -0.248 NA
ATOM     32  C   UNL A   1      41.369  25.151  27.899  1.00  0.00     0.031 C 
ATOM     33  C   UNL A   1      46.021  24.050  26.339  1.00  0.00     0.029 A 
ATOM     34  N   UNL A   1      45.625  26.153  26.980  1.00  0.00    -0.354 N 
ATOM     35  C   UNL A   1      41.693  27.385  28.270  1.00  0.00     0.074 A 
ATOM     36  C   UNL A   1      40.757  26.282  28.218  1.00  0.00     0.031 C 
ATOM     37  C   UNL A   1      47.166  24.736  26.197  1.00  0.00     0.029 A 
ATOM     38  C   UNL A   1      46.940  26.125  26.583  1.00  0.00     0.049 A 
ATOM     39  H   UNL A   1      45.180  26.966  27.315  1.00  0.00     0.167 HD
ATOM     40  C   UNL A   1      41.376  28.639  28.675  1.00  0.00     0.037 A 
ATOM     41  C   UNL A   1      47.856  27.110  26.526  1.00  0.00     0.037 A 
ATOM     42  C   UNL A   1      42.314  29.729  28.745  1.00  0.00     0.049 A 
ATOM     43  C   UNL A   1      47.471  28.499  26.965  1.00  0.00     0.074 A 
ATOM     44  C   UNL A   1      42.103  31.019  29.201  1.00  0.00     0.029 A 
ATOM     45  N   UNL A   1      43.640  29.660  28.342  1.00  0.00    -0.354 N 
ATOM     46  N   UNL A   1      46.324  28.936  27.423  1.00  0.00    -0.248 NA
ATOM     47  C   UNL A   1      48.515  29.532  26.882  1.00  0.00     0.031 C 
ATOM     48  C   UNL A   1      43.285  31.746  29.022  1.00  0.00     0.029 A 
ATOM     49  C   UNL A   1      44.250  30.892  28.513  1.00  0.00     0.049 A 
ATOM     50  H   UNL A   1      44.081  28.854  27.988  1.00  0.00     0.167 HD
ATOM     51  C   UNL A   1      46.515  30.279  27.715  1.00  0.00     0.074 A 
ATOM     52  C   UNL A   1      47.894  30.584  27.395  1.00  0.00     0.031 C 
ATOM     53  C   UNL A   1      45.628  31.181  28.203  1.00  0.00     0.037 A 
BRANCH  40  54
ATOM     54  C   UNL A   1      39.952  28.904  29.075  1.00  0.00     0.064 A 
ATOM     55  C   UNL A   1      38.992  29.328  28.144  1.00  0.00     0.173 A 
ATOM     56  C   UNL A   1      39.532  28.687  30.396  1.00  0.00     0.173 A 
ATOM     57  F   UNL A   1      39.343  29.561  26.869  1.00  0.00    -0.203 F 
ATOM     58  C   UNL A   1      37.671  29.549  28.525  1.00  0.00     0.198 A 
ATOM     59  C   UNL A   1      38.203  28.878  30.767  1.00  0.00     0.198 A 
ATOM     60  F   UNL A   1      40.407  28.275  31.325  1.00  0.00    -0.203 F 
ATOM     61  F   UNL A   1      36.783  30.000  27.628  1.00  0.00    -0.200 F 
ATOM     62  C   UNL A   1      37.276  29.316  29.834  1.00  0.00     0.200 A 
ATOM     63  F   UNL A   1      37.820  28.636  32.028  1.00  0.00    -0.200 F 
ATOM     64  F   UNL A   1      36.002  29.520  30.197  1.00  0.00    -0.200 F 
ENDBRANCH  40  54
BRANCH  41  65
ATOM     65  C   UNL A   1      49.236  26.820  26.054  1.00  0.00     0.064 A 
ATOM     66  C   UNL A   1      49.594  27.018  24.713  1.00  0.00     0.173 A 
ATOM     67  C   UNL A   1      50.218  26.322  26.923  1.00  0.00     0.173 A 
ATOM     68  F   UNL A   1      48.686  27.473  23.838  1.00  0.00    -0.203 F 
ATOM     69  C   UNL A   1      50.872  26.704  24.254  1.00  0.00     0.198 A 
ATOM     70  C   UNL A   1      51.505  26.038  26.470  1.00  0.00     0.198 A 
ATOM     71  F   UNL A   1      49.929  26.118  28.217  1.00  0.00    -0.203 F 
ATOM     72  F   UNL A   1      51.170  26.851  22.955  1.00  0.00    -0.200 F 
ATOM     73  C   UNL A   1      51.827  26.219  25.134  1.00  0.00     0.200 A 
ATOM     74  F   UNL A   1      52.430  25.585  27.327  1.00  0.00    -0.200 F 
ATOM     75  F   UNL A   1      53.056  25.918  24.693  1.00  0.00    -0.200 F 
ENDBRANCH  41  65
BRANCH  53  76
ATOM     76  C   UNL A   1      46.129  32.572  28.465  1.00  0.00     0.064 A 
ATOM     77  C   UNL A   1      46.044  33.584  27.498  1.00  0.00     0.173 A 
ATOM     78  C   UNL A   1      46.667  32.907  29.718  1.00  0.00     0.173 A 
ATOM     79  F   UNL A   1      45.552  33.314  26.279  1.00  0.00    -0.203 F 
ATOM     80  C   UNL A   1      46.505  34.871  27.765  1.00  0.00     0.198 A 
ATOM     81  C   UNL A   1      47.095  34.201  29.993  1.00  0.00     0.198 A 
ATOM     82  F   UNL A   1      46.765  31.978  30.682  1.00  0.00    -0.203 F 
ATOM     83  F   UNL A   1      46.462  35.808  26.808  1.00  0.00    -0.200 F 
ATOM     84  C   UNL A   1      47.022  35.180  29.015  1.00  0.00     0.200 A 
ATOM     85  F   UNL A   1      47.579  34.503  31.206  1.00  0.00    -0.200 F 
ATOM     86  F   UNL A   1      47.456  36.422  29.273  1.00  0.00    -0.200 F 
ENDBRANCH  53  76
ENDBRANCH  27  28
ENDBRANCH  19  22
ENDBRANCH  17  18
ENDBRANCH  16  17
ENDBRANCH   1  16
TORSDOF 15
ENDMDL
