MODEL 1
REMARK VINA RESULT:     -10.1      0.000      0.000
REMARK SMILES CC(C)n1ccc(Cn2cc(C(=O)NCCCCNC(=O)c3ccc(-c4c5nc(c(-c6c(F)c(F)c(F)c(F)c6F)c6ccc([nH]6)c(-c6c(F)c(F)c(F)c(F)c6F)c6nc(c(-c7c(F)c(F)c(F)c(F)c7F)c7ccc4[nH]7)C=C6)C=C5)cc3)cc2Br)n1
REMARK SMILES IDX 16 1 15 2 14 3 12 4 13 5 11 7 9 8 10 9 86 10 85 11 87 12
REMARK SMILES IDX 8 13 7 14 4 15 5 16 88 17 6 18 2 19 1 20 3 21 17 22 18 23
REMARK SMILES IDX 19 24 20 25 21 27 22 28 23 29 84 30 24 31 83 32 25 33 26 34
REMARK SMILES IDX 27 35 77 36 28 37 82 38 76 39 78 40 29 41 81 42 75 43 74 44
REMARK SMILES IDX 30 46 62 47 42 48 61 49 43 50 46 51 60 52 79 53 44 54 45 55
REMARK SMILES IDX 59 57 80 58 47 59 31 60 32 61 40 62 33 63 34 64 38 65 41 66
REMARK SMILES IDX 35 67 36 68 39 69 37 70 63 71 64 72 72 73 65 74 66 75 70 76
REMARK SMILES IDX 73 77 67 78 68 79 71 80 69 81 48 82 49 83 57 84 50 85 51 86
REMARK SMILES IDX 55 87 58 88 52 89 53 90 56 91 54 92
REMARK H PARENT 14 6 19 26 78 45 46 56
REMARK Flexibility Score: inf
ROOT
ATOM      1  C   UNL A   1      44.545  24.416  25.112  1.00  0.00     0.023 C 
ENDROOT
BRANCH   1   2
ATOM      2  C   UNL A   1      44.125  25.854  25.431  1.00  0.00     0.116 C 
BRANCH   2   3
ATOM      3  N   UNL A   1      44.852  26.818  24.630  1.00  0.00    -0.352 N 
ATOM      4  C   UNL A   1      45.994  27.545  24.861  1.00  0.00     0.252 C 
ATOM      5  O   UNL A   1      46.403  28.237  23.927  1.00  0.00    -0.269 OA
ATOM      6  H   UNL A   1      44.448  26.984  23.747  1.00  0.00     0.163 HD
BRANCH   4   7
ATOM      7  C   UNL A   1      46.734  27.467  26.120  1.00  0.00     0.058 A 
ATOM      8  N   UNL A   1      47.880  26.764  27.927  1.00  0.00    -0.335 N 
ATOM      9  C   UNL A   1      46.928  26.405  26.988  1.00  0.00     0.101 A 
ATOM     10  C   UNL A   1      48.058  28.117  27.857  1.00  0.00     0.086 A 
ATOM     11  C   UNL A   1      47.390  28.578  26.747  1.00  0.00     0.049 A 
ATOM     12  Br  UNL A   1      49.053  29.201  29.007  1.00  0.00    -0.031 Br
BRANCH   8  13
ATOM     13  C   UNL A   1      48.542  25.821  28.827  1.00  0.00     0.180 C 
BRANCH  13  14
ATOM     14  C   UNL A   1      47.939  25.867  30.202  1.00  0.00     0.082 A 
ATOM     15  N   UNL A   1      46.453  25.774  31.729  1.00  0.00    -0.270 N 
ATOM     16  C   UNL A   1      47.618  26.028  32.394  1.00  0.00     0.109 A 
ATOM     17  N   UNL A   1      46.624  25.671  30.393  1.00  0.00    -0.176 NA
ATOM     18  C   UNL A   1      48.603  26.056  31.441  1.00  0.00     0.047 A 
BRANCH  15  19
ATOM     19  C   UNL A   1      45.116  25.611  32.296  1.00  0.00     0.101 C 
ATOM     20  C   UNL A   1      44.938  26.309  33.648  1.00  0.00     0.033 C 
ATOM     21  C   UNL A   1      44.048  26.079  31.308  1.00  0.00     0.033 C 
ENDBRANCH  15  19
ENDBRANCH  13  14
ENDBRANCH   8  13
ENDBRANCH   4   7
ENDBRANCH   2   3
ENDBRANCH   1   2
BRANCH   1  22
ATOM     22  C   UNL A   1      43.405  23.496  24.640  1.00  0.00     0.023 C 
BRANCH  22  23
ATOM     23  C   UNL A   1      43.124  22.304  25.550  1.00  0.00     0.116 C 
BRANCH  23  24
ATOM     24  N   UNL A   1      41.701  21.975  25.649  1.00  0.00    -0.352 N 
ATOM     25  C   UNL A   1      40.742  22.597  26.434  1.00  0.00     0.251 C 
ATOM     26  H   UNL A   1      41.389  21.224  25.095  1.00  0.00     0.163 HD
ATOM     27  O   UNL A   1      39.711  22.036  26.756  1.00  0.00    -0.269 OA
BRANCH  25  28
ATOM     28  C   UNL A   1      40.994  23.988  26.846  1.00  0.00     0.039 A 
ATOM     29  C   UNL A   1      40.402  25.077  26.198  1.00  0.00     0.014 A 
ATOM     30  C   UNL A   1      41.813  24.168  27.956  1.00  0.00     0.014 A 
ATOM     31  C   UNL A   1      40.574  26.351  26.737  1.00  0.00     0.010 A 
ATOM     32  C   UNL A   1      41.849  25.388  28.571  1.00  0.00     0.010 A 
ATOM     33  C   UNL A   1      41.286  26.492  27.937  1.00  0.00    -0.014 A 
BRANCH  33  34
ATOM     34  C   UNL A   1      41.364  27.768  28.639  1.00  0.00     0.031 A 
ATOM     35  C   UNL A   1      42.496  28.646  28.230  1.00  0.00     0.074 A 
ATOM     36  C   UNL A   1      40.330  28.214  29.387  1.00  0.00     0.049 A 
ATOM     37  N   UNL A   1      43.449  29.100  28.975  1.00  0.00    -0.248 NA
ATOM     38  C   UNL A   1      42.659  28.972  26.802  1.00  0.00     0.031 C 
ATOM     39  C   UNL A   1      39.033  27.567  29.627  1.00  0.00     0.029 A 
ATOM     40  N   UNL A   1      40.168  29.419  29.995  1.00  0.00    -0.354 N 
ATOM     41  C   UNL A   1      44.230  29.917  28.160  1.00  0.00     0.074 A 
ATOM     42  C   UNL A   1      43.798  29.667  26.809  1.00  0.00     0.031 C 
ATOM     43  C   UNL A   1      38.152  28.472  30.107  1.00  0.00     0.029 A 
ATOM     44  C   UNL A   1      38.859  29.712  30.363  1.00  0.00     0.049 A 
ATOM     45  H   UNL A   1      40.918  30.034  30.162  1.00  0.00     0.167 HD
ATOM     46  C   UNL A   1      45.007  30.902  28.692  1.00  0.00     0.037 A 
ATOM     47  C   UNL A   1      38.392  30.903  30.819  1.00  0.00     0.037 A 
ATOM     48  C   UNL A   1      45.183  30.707  30.110  1.00  0.00     0.049 A 
ATOM     49  C   UNL A   1      39.570  31.674  31.294  1.00  0.00     0.074 A 
ATOM     50  C   UNL A   1      45.721  29.697  30.885  1.00  0.00     0.029 A 
ATOM     51  N   UNL A   1      44.410  31.457  30.964  1.00  0.00    -0.354 N 
ATOM     52  N   UNL A   1      40.266  31.341  32.345  1.00  0.00    -0.248 NA
ATOM     53  C   UNL A   1      40.263  32.510  30.323  1.00  0.00     0.031 C 
ATOM     54  C   UNL A   1      44.847  29.593  32.007  1.00  0.00     0.029 A 
ATOM     55  C   UNL A   1      43.887  30.599  31.898  1.00  0.00     0.049 A 
ATOM     56  H   UNL A   1      44.259  32.428  30.915  1.00  0.00     0.167 HD
ATOM     57  C   UNL A   1      41.586  31.535  31.966  1.00  0.00     0.074 A 
ATOM     58  C   UNL A   1      41.520  32.331  30.741  1.00  0.00     0.031 C 
ATOM     59  C   UNL A   1      42.588  30.779  32.502  1.00  0.00     0.037 A 
BRANCH  46  60
ATOM     60  C   UNL A   1      45.300  32.231  28.035  1.00  0.00     0.064 A 
ATOM     61  C   UNL A   1      44.230  33.111  27.765  1.00  0.00     0.173 A 
ATOM     62  C   UNL A   1      46.513  32.536  27.384  1.00  0.00     0.173 A 
ATOM     63  F   UNL A   1      43.027  32.915  28.325  1.00  0.00    -0.203 F 
ATOM     64  C   UNL A   1      44.343  34.150  26.839  1.00  0.00     0.198 A 
ATOM     65  C   UNL A   1      46.637  33.607  26.500  1.00  0.00     0.198 A 
ATOM     66  F   UNL A   1      47.593  31.753  27.480  1.00  0.00    -0.203 F 
ATOM     67  F   UNL A   1      43.261  34.870  26.513  1.00  0.00    -0.200 F 
ATOM     68  C   UNL A   1      45.543  34.391  26.198  1.00  0.00     0.200 A 
ATOM     69  F   UNL A   1      47.806  33.816  25.878  1.00  0.00    -0.200 F 
ATOM     70  F   UNL A   1      45.636  35.341  25.259  1.00  0.00    -0.200 F 
ENDBRANCH  46  60
BRANCH  47  71
ATOM     71  C   UNL A   1      37.055  31.517  30.641  1.00  0.00     0.064 A 
ATOM     72  C   UNL A   1      36.184  31.692  31.731  1.00  0.00     0.173 A 
ATOM     73  C   UNL A   1      36.709  32.194  29.454  1.00  0.00     0.173 A 
ATOM     74  F   UNL A   1      36.455  31.116  32.910  1.00  0.00    -0.203 F 
ATOM     75  C   UNL A   1      35.057  32.518  31.647  1.00  0.00     0.198 A 
ATOM     76  C   UNL A   1      35.581  33.013  29.370  1.00  0.00     0.198 A 
ATOM     77  F   UNL A   1      37.510  32.148  28.380  1.00  0.00    -0.203 F 
ATOM     78  F   UNL A   1      34.286  32.709  32.727  1.00  0.00    -0.200 F 
ATOM     79  C   UNL A   1      34.763  33.187  30.471  1.00  0.00     0.200 A 
ATOM     80  F   UNL A   1      35.328  33.680  28.235  1.00  0.00    -0.200 F 
ATOM     81  F   UNL A   1      33.721  34.027  30.410  1.00  0.00    -0.200 F 
ENDBRANCH  47  71
BRANCH  59  82
ATOM     82  C   UNL A   1      42.254  29.888  33.668  1.00  0.00     0.064 A 
ATOM     83  C   UNL A   1      41.802  28.561  33.544  1.00  0.00     0.173 A 
ATOM     84  C   UNL A   1      42.542  30.346  34.960  1.00  0.00     0.173 A 
ATOM     85  F   UNL A   1      41.610  28.007  32.344  1.00  0.00    -0.203 F 
ATOM     86  C   UNL A   1      41.599  27.754  34.662  1.00  0.00     0.198 A 
ATOM     87  C   UNL A   1      42.375  29.526  36.072  1.00  0.00     0.198 A 
ATOM     88  F   UNL A   1      43.034  31.582  35.139  1.00  0.00    -0.203 F 
ATOM     89  F   UNL A   1      41.155  26.497  34.512  1.00  0.00    -0.200 F 
ATOM     90  C   UNL A   1      41.891  28.236  35.925  1.00  0.00     0.200 A 
ATOM     91  F   UNL A   1      42.711  29.979  37.287  1.00  0.00    -0.200 F 
ATOM     92  F   UNL A   1      41.736  27.448  36.998  1.00  0.00    -0.200 F 
ENDBRANCH  59  82
ENDBRANCH  33  34
ENDBRANCH  25  28
ENDBRANCH  23  24
ENDBRANCH  22  23
ENDBRANCH   1  22
TORSDOF 14
ENDMDL
MODEL 2
REMARK VINA RESULT:     -10.0      4.128      7.278
REMARK SMILES CC(C)n1ccc(Cn2cc(C(=O)NCCCCNC(=O)c3ccc(-c4c5nc(c(-c6c(F)c(F)c(F)c(F)c6F)c6ccc([nH]6)c(-c6c(F)c(F)c(F)c(F)c6F)c6nc(c(-c7c(F)c(F)c(F)c(F)c7F)c7ccc4[nH]7)C=C6)C=C5)cc3)cc2Br)n1
REMARK SMILES IDX 16 1 15 2 14 3 12 4 13 5 11 7 9 8 10 9 86 10 85 11 87 12
REMARK SMILES IDX 8 13 7 14 4 15 5 16 88 17 6 18 2 19 1 20 3 21 17 22 18 23
REMARK SMILES IDX 19 24 20 25 21 27 22 28 23 29 84 30 24 31 83 32 25 33 26 34
REMARK SMILES IDX 27 35 77 36 28 37 82 38 76 39 78 40 29 41 81 42 75 43 74 44
REMARK SMILES IDX 30 46 62 47 42 48 61 49 43 50 46 51 60 52 79 53 44 54 45 55
REMARK SMILES IDX 59 57 80 58 47 59 31 60 32 61 40 62 33 63 34 64 38 65 41 66
REMARK SMILES IDX 35 67 36 68 39 69 37 70 63 71 64 72 72 73 65 74 66 75 70 76
REMARK SMILES IDX 73 77 67 78 68 79 71 80 69 81 48 82 49 83 57 84 50 85 51 86
REMARK SMILES IDX 55 87 58 88 52 89 53 90 56 91 54 92
REMARK H PARENT 14 6 19 26 78 45 46 56
REMARK Flexibility Score: inf
ROOT
ATOM      1  C   UNL A   1      37.747  22.531  25.561  1.00  0.00     0.023 C 
ENDROOT
BRANCH   1   2
ATOM      2  C   UNL A   1      36.601  22.406  24.552  1.00  0.00     0.116 C 
BRANCH   2   3
ATOM      3  N   UNL A   1      35.919  21.133  24.668  1.00  0.00    -0.352 N 
ATOM      4  C   UNL A   1      34.596  20.799  24.833  1.00  0.00     0.252 C 
ATOM      5  O   UNL A   1      34.328  19.598  24.820  1.00  0.00    -0.269 OA
ATOM      6  H   UNL A   1      36.521  20.355  24.619  1.00  0.00     0.163 HD
BRANCH   4   7
ATOM      7  C   UNL A   1      33.542  21.805  24.956  1.00  0.00     0.058 A 
ATOM      8  N   UNL A   1      32.236  23.513  25.624  1.00  0.00    -0.335 N 
ATOM      9  C   UNL A   1      33.111  22.531  26.054  1.00  0.00     0.101 A 
ATOM     10  C   UNL A   1      31.872  23.226  24.339  1.00  0.00     0.086 A 
ATOM     11  C   UNL A   1      32.669  22.200  23.889  1.00  0.00     0.049 A 
ATOM     12  Br  UNL A   1      30.563  24.067  23.305  1.00  0.00    -0.031 Br
BRANCH   8  13
ATOM     13  C   UNL A   1      31.795  24.638  26.448  1.00  0.00     0.180 C 
BRANCH  13  14
ATOM     14  C   UNL A   1      32.362  25.935  25.947  1.00  0.00     0.082 A 
ATOM     15  N   UNL A   1      32.410  27.909  25.142  1.00  0.00    -0.270 N 
ATOM     16  C   UNL A   1      33.719  27.596  25.367  1.00  0.00     0.109 A 
ATOM     17  N   UNL A   1      31.565  26.914  25.489  1.00  0.00    -0.176 NA
ATOM     18  C   UNL A   1      33.721  26.342  25.923  1.00  0.00     0.047 A 
BRANCH  15  19
ATOM     19  C   UNL A   1      31.868  29.151  24.593  1.00  0.00     0.101 C 
ATOM     20  C   UNL A   1      30.493  28.980  23.940  1.00  0.00     0.033 C 
ATOM     21  C   UNL A   1      31.820  30.240  25.664  1.00  0.00     0.033 C 
ENDBRANCH  15  19
ENDBRANCH  13  14
ENDBRANCH   8  13
ENDBRANCH   4   7
ENDBRANCH   2   3
ENDBRANCH   1   2
BRANCH   1  22
ATOM     22  C   UNL A   1      38.734  21.351  25.573  1.00  0.00     0.023 C 
BRANCH  22  23
ATOM     23  C   UNL A   1      39.886  21.489  26.563  1.00  0.00     0.116 C 
BRANCH  23  24
ATOM     24  N   UNL A   1      41.202  21.517  25.921  1.00  0.00    -0.352 N 
ATOM     25  C   UNL A   1      42.031  22.613  25.739  1.00  0.00     0.251 C 
ATOM     26  H   UNL A   1      41.536  20.657  25.577  1.00  0.00     0.163 HD
ATOM     27  O   UNL A   1      42.890  22.635  24.877  1.00  0.00    -0.269 OA
BRANCH  25  28
ATOM     28  C   UNL A   1      41.863  23.755  26.653  1.00  0.00     0.039 A 
ATOM     29  C   UNL A   1      42.497  23.812  27.899  1.00  0.00     0.014 A 
ATOM     30  C   UNL A   1      41.081  24.809  26.193  1.00  0.00     0.014 A 
ATOM     31  C   UNL A   1      42.406  24.987  28.643  1.00  0.00     0.010 A 
ATOM     32  C   UNL A   1      41.125  26.010  26.846  1.00  0.00     0.010 A 
ATOM     33  C   UNL A   1      41.731  26.088  28.097  1.00  0.00    -0.014 A 
BRANCH  33  34
ATOM     34  C   UNL A   1      41.738  27.394  28.745  1.00  0.00     0.031 A 
ATOM     35  C   UNL A   1      42.852  28.297  28.335  1.00  0.00     0.074 A 
ATOM     36  C   UNL A   1      40.664  27.833  29.438  1.00  0.00     0.049 A 
ATOM     37  N   UNL A   1      43.761  28.818  29.091  1.00  0.00    -0.248 NA
ATOM     38  C   UNL A   1      43.052  28.567  26.901  1.00  0.00     0.031 C 
ATOM     39  C   UNL A   1      39.384  27.148  29.663  1.00  0.00     0.029 A 
ATOM     40  N   UNL A   1      40.437  29.056  29.987  1.00  0.00    -0.354 N 
ATOM     41  C   UNL A   1      44.540  29.628  28.267  1.00  0.00     0.074 A 
ATOM     42  C   UNL A   1      44.165  29.304  26.915  1.00  0.00     0.031 C 
ATOM     43  C   UNL A   1      38.455  28.039  30.074  1.00  0.00     0.029 A 
ATOM     44  C   UNL A   1      39.106  29.315  30.298  1.00  0.00     0.049 A 
ATOM     45  H   UNL A   1      41.159  29.705  30.152  1.00  0.00     0.167 HD
ATOM     46  C   UNL A   1      45.262  30.663  28.781  1.00  0.00     0.037 A 
ATOM     47  C   UNL A   1      38.582  30.506  30.685  1.00  0.00     0.037 A 
ATOM     48  C   UNL A   1      45.395  30.535  30.212  1.00  0.00     0.049 A 
ATOM     49  C   UNL A   1      39.714  31.340  31.165  1.00  0.00     0.074 A 
ATOM     50  C   UNL A   1      45.943  29.580  31.047  1.00  0.00     0.029 A 
ATOM     51  N   UNL A   1      44.566  31.291  31.005  1.00  0.00    -0.354 N 
ATOM     52  N   UNL A   1      40.385  31.079  32.253  1.00  0.00    -0.248 NA
ATOM     53  C   UNL A   1      40.409  32.159  30.182  1.00  0.00     0.031 C 
ATOM     54  C   UNL A   1      45.035  29.491  32.144  1.00  0.00     0.029 A 
ATOM     55  C   UNL A   1      44.042  30.455  31.958  1.00  0.00     0.049 A 
ATOM     56  H   UNL A   1      44.383  32.254  30.909  1.00  0.00     0.167 HD
ATOM     57  C   UNL A   1      41.709  31.306  31.910  1.00  0.00     0.074 A 
ATOM     58  C   UNL A   1      41.657  32.046  30.649  1.00  0.00     0.031 C 
ATOM     59  C   UNL A   1      42.719  30.611  32.511  1.00  0.00     0.037 A 
BRANCH  46  60
ATOM     60  C   UNL A   1      45.529  31.973  28.076  1.00  0.00     0.064 A 
ATOM     61  C   UNL A   1      44.435  32.782  27.699  1.00  0.00     0.173 A 
ATOM     62  C   UNL A   1      46.764  32.310  27.485  1.00  0.00     0.173 A 
ATOM     63  F   UNL A   1      43.211  32.550  28.195  1.00  0.00    -0.203 F 
ATOM     64  C   UNL A   1      44.555  33.780  26.729  1.00  0.00     0.198 A 
ATOM     65  C   UNL A   1      46.890  33.344  26.557  1.00  0.00     0.198 A 
ATOM     66  F   UNL A   1      47.873  31.590  27.686  1.00  0.00    -0.203 F 
ATOM     67  F   UNL A   1      43.461  34.426  26.303  1.00  0.00    -0.200 F 
ATOM     68  C   UNL A   1      45.780  34.053  26.150  1.00  0.00     0.200 A 
ATOM     69  F   UNL A   1      48.084  33.583  25.997  1.00  0.00    -0.200 F 
ATOM     70  F   UNL A   1      45.884  34.961  25.172  1.00  0.00    -0.200 F 
ENDBRANCH  46  60
BRANCH  47  71
ATOM     71  C   UNL A   1      37.229  31.061  30.437  1.00  0.00     0.064 A 
ATOM     72  C   UNL A   1      36.372  31.394  31.501  1.00  0.00     0.173 A 
ATOM     73  C   UNL A   1      36.852  31.532  29.164  1.00  0.00     0.173 A 
ATOM     74  F   UNL A   1      36.674  31.019  32.752  1.00  0.00    -0.203 F 
ATOM     75  C   UNL A   1      35.228  32.177  31.307  1.00  0.00     0.198 A 
ATOM     76  C   UNL A   1      35.706  32.308  28.971  1.00  0.00     0.198 A 
ATOM     77  F   UNL A   1      37.636  31.328  28.096  1.00  0.00    -0.203 F 
ATOM     78  F   UNL A   1      34.471  32.525  32.356  1.00  0.00    -0.200 F 
ATOM     79  C   UNL A   1      34.903  32.643  30.045  1.00  0.00     0.200 A 
ATOM     80  F   UNL A   1      35.423  32.780  27.749  1.00  0.00    -0.200 F 
ATOM     81  F   UNL A   1      33.844  33.445  29.869  1.00  0.00    -0.200 F 
ENDBRANCH  47  71
BRANCH  59  82
ATOM     82  C   UNL A   1      42.376  29.759  33.703  1.00  0.00     0.064 A 
ATOM     83  C   UNL A   1      41.963  28.417  33.622  1.00  0.00     0.173 A 
ATOM     84  C   UNL A   1      42.617  30.276  34.982  1.00  0.00     0.173 A 
ATOM     85  F   UNL A   1      41.818  27.809  32.441  1.00  0.00    -0.203 F 
ATOM     86  C   UNL A   1      41.751  27.649  34.766  1.00  0.00     0.198 A 
ATOM     87  C   UNL A   1      42.442  29.496  36.122  1.00  0.00     0.198 A 
ATOM     88  F   UNL A   1      43.071  31.531  35.123  1.00  0.00    -0.203 F 
ATOM     89  F   UNL A   1      41.345  26.376  34.655  1.00  0.00    -0.200 F 
ATOM     90  C   UNL A   1      41.997  28.189  36.015  1.00  0.00     0.200 A 
ATOM     91  F   UNL A   1      42.733  30.007  37.326  1.00  0.00    -0.200 F 
ATOM     92  F   UNL A   1      41.833  27.441  37.115  1.00  0.00    -0.200 F 
ENDBRANCH  59  82
ENDBRANCH  33  34
ENDBRANCH  25  28
ENDBRANCH  23  24
ENDBRANCH  22  23
ENDBRANCH   1  22
TORSDOF 14
ENDMDL
MODEL 3
REMARK VINA RESULT:      -9.9      4.664      7.831
REMARK SMILES CC(C)n1ccc(Cn2cc(C(=O)NCCCCNC(=O)c3ccc(-c4c5nc(c(-c6c(F)c(F)c(F)c(F)c6F)c6ccc([nH]6)c(-c6c(F)c(F)c(F)c(F)c6F)c6nc(c(-c7c(F)c(F)c(F)c(F)c7F)c7ccc4[nH]7)C=C6)C=C5)cc3)cc2Br)n1
REMARK SMILES IDX 16 1 15 2 14 3 12 4 13 5 11 7 9 8 10 9 86 10 85 11 87 12
REMARK SMILES IDX 8 13 7 14 4 15 5 16 88 17 6 18 2 19 1 20 3 21 17 22 18 23
REMARK SMILES IDX 19 24 20 25 21 27 22 28 23 29 84 30 24 31 83 32 25 33 26 34
REMARK SMILES IDX 27 35 77 36 28 37 82 38 76 39 78 40 29 41 81 42 75 43 74 44
REMARK SMILES IDX 30 46 62 47 42 48 61 49 43 50 46 51 60 52 79 53 44 54 45 55
REMARK SMILES IDX 59 57 80 58 47 59 31 60 32 61 40 62 33 63 34 64 38 65 41 66
REMARK SMILES IDX 35 67 36 68 39 69 37 70 63 71 64 72 72 73 65 74 66 75 70 76
REMARK SMILES IDX 73 77 67 78 68 79 71 80 69 81 48 82 49 83 57 84 50 85 51 86
REMARK SMILES IDX 55 87 58 88 52 89 53 90 56 91 54 92
REMARK H PARENT 14 6 19 26 78 45 46 56
REMARK Flexibility Score: inf
ROOT
ATOM      1  C   UNL A   1      35.650  21.530  26.139  1.00  0.00     0.023 C 
ENDROOT
BRANCH   1   2
ATOM      2  C   UNL A   1      35.494  20.580  24.947  1.00  0.00     0.116 C 
BRANCH   2   3
ATOM      3  N   UNL A   1      34.385  19.665  25.129  1.00  0.00    -0.352 N 
ATOM      4  C   UNL A   1      33.023  19.846  25.135  1.00  0.00     0.252 C 
ATOM      5  O   UNL A   1      32.335  18.830  25.244  1.00  0.00    -0.269 OA
ATOM      6  H   UNL A   1      34.662  18.732  25.279  1.00  0.00     0.163 HD
BRANCH   4   7
ATOM      7  C   UNL A   1      32.404  21.158  24.958  1.00  0.00     0.058 A 
ATOM      8  N   UNL A   1      31.415  22.999  24.118  1.00  0.00    -0.335 N 
ATOM      9  C   UNL A   1      32.261  21.944  23.826  1.00  0.00     0.101 A 
ATOM     10  C   UNL A   1      31.272  23.067  25.475  1.00  0.00     0.086 A 
ATOM     11  C   UNL A   1      31.845  21.943  26.022  1.00  0.00     0.049 A 
ATOM     12  Br  UNL A   1      30.424  24.400  26.471  1.00  0.00    -0.031 Br
BRANCH   8  13
ATOM     13  C   UNL A   1      30.813  23.872  23.111  1.00  0.00     0.180 C 
BRANCH  13  14
ATOM     14  C   UNL A   1      31.717  25.025  22.780  1.00  0.00     0.082 A 
ATOM     15  N   UNL A   1      32.698  26.907  22.981  1.00  0.00    -0.270 N 
ATOM     16  C   UNL A   1      33.192  26.381  21.823  1.00  0.00     0.109 A 
ATOM     17  N   UNL A   1      31.798  26.099  23.583  1.00  0.00    -0.176 NA
ATOM     18  C   UNL A   1      32.607  25.149  21.683  1.00  0.00     0.047 A 
BRANCH  15  19
ATOM     19  C   UNL A   1      33.034  28.190  23.596  1.00  0.00     0.101 C 
ATOM     20  C   UNL A   1      33.502  28.064  25.050  1.00  0.00     0.033 C 
ATOM     21  C   UNL A   1      34.074  28.936  22.762  1.00  0.00     0.033 C 
ENDBRANCH  15  19
ENDBRANCH  13  14
ENDBRANCH   8  13
ENDBRANCH   4   7
ENDBRANCH   2   3
ENDBRANCH   1   2
BRANCH   1  22
ATOM     22  C   UNL A   1      36.146  22.942  25.784  1.00  0.00     0.023 C 
BRANCH  22  23
ATOM     23  C   UNL A   1      37.639  23.042  25.486  1.00  0.00     0.116 C 
BRANCH  23  24
ATOM     24  N   UNL A   1      38.452  22.130  26.292  1.00  0.00    -0.352 N 
ATOM     25  C   UNL A   1      39.639  22.413  26.951  1.00  0.00     0.251 C 
ATOM     26  H   UNL A   1      38.117  21.208  26.376  1.00  0.00     0.163 HD
ATOM     27  O   UNL A   1      40.432  21.540  27.252  1.00  0.00    -0.269 OA
BRANCH  25  28
ATOM     28  C   UNL A   1      39.903  23.816  27.310  1.00  0.00     0.039 A 
ATOM     29  C   UNL A   1      38.930  24.813  27.186  1.00  0.00     0.014 A 
ATOM     30  C   UNL A   1      41.160  24.097  27.835  1.00  0.00     0.014 A 
ATOM     31  C   UNL A   1      39.208  26.085  27.682  1.00  0.00     0.010 A 
ATOM     32  C   UNL A   1      41.372  25.293  28.461  1.00  0.00     0.010 A 
ATOM     33  C   UNL A   1      40.428  26.310  28.336  1.00  0.00    -0.014 A 
BRANCH  33  34
ATOM     34  C   UNL A   1      40.716  27.565  29.020  1.00  0.00     0.031 A 
ATOM     35  C   UNL A   1      41.799  28.385  28.407  1.00  0.00     0.074 A 
ATOM     36  C   UNL A   1      39.873  28.055  29.956  1.00  0.00     0.049 A 
ATOM     37  N   UNL A   1      42.902  28.769  28.958  1.00  0.00    -0.248 NA
ATOM     38  C   UNL A   1      41.704  28.728  26.977  1.00  0.00     0.031 C 
ATOM     39  C   UNL A   1      38.610  27.479  30.436  1.00  0.00     0.029 A 
ATOM     40  N   UNL A   1      39.903  29.256  30.594  1.00  0.00    -0.354 N 
ATOM     41  C   UNL A   1      43.560  29.556  28.014  1.00  0.00     0.074 A 
ATOM     42  C   UNL A   1      42.863  29.356  26.770  1.00  0.00     0.031 C 
ATOM     43  C   UNL A   1      37.893  28.424  31.084  1.00  0.00     0.029 A 
ATOM     44  C   UNL A   1      38.708  29.616  31.209  1.00  0.00     0.049 A 
ATOM     45  H   UNL A   1      40.707  29.824  30.618  1.00  0.00     0.167 HD
ATOM     46  C   UNL A   1      44.482  30.484  28.394  1.00  0.00     0.037 A 
ATOM     47  C   UNL A   1      38.410  30.823  31.755  1.00  0.00     0.037 A 
ATOM     48  C   UNL A   1      44.914  30.252  29.751  1.00  0.00     0.049 A 
ATOM     49  C   UNL A   1      39.701  31.517  32.000  1.00  0.00     0.074 A 
ATOM     50  C   UNL A   1      45.530  29.198  30.399  1.00  0.00     0.029 A 
ATOM     51  N   UNL A   1      44.366  31.029  30.742  1.00  0.00    -0.354 N 
ATOM     52  N   UNL A   1      40.565  31.124  32.895  1.00  0.00    -0.248 NA
ATOM     53  C   UNL A   1      40.244  32.330  30.920  1.00  0.00     0.031 C 
ATOM     54  C   UNL A   1      44.883  29.123  31.668  1.00  0.00     0.029 A 
ATOM     55  C   UNL A   1      43.981  30.184  31.753  1.00  0.00     0.049 A 
ATOM     56  H   UNL A   1      44.267  32.008  30.731  1.00  0.00     0.167 HD
ATOM     57  C   UNL A   1      41.797  31.249  32.271  1.00  0.00     0.074 A 
ATOM     58  C   UNL A   1      41.545  32.071  31.087  1.00  0.00     0.031 C 
ATOM     59  C   UNL A   1      42.836  30.427  32.597  1.00  0.00     0.037 A 
BRANCH  46  60
ATOM     60  C   UNL A   1      44.723  31.806  27.703  1.00  0.00     0.064 A 
ATOM     61  C   UNL A   1      45.916  31.986  26.970  1.00  0.00     0.173 A 
ATOM     62  C   UNL A   1      44.002  32.985  27.985  1.00  0.00     0.173 A 
ATOM     63  F   UNL A   1      46.687  30.936  26.650  1.00  0.00    -0.203 F 
ATOM     64  C   UNL A   1      46.395  33.256  26.640  1.00  0.00     0.198 A 
ATOM     65  C   UNL A   1      44.457  34.247  27.605  1.00  0.00     0.198 A 
ATOM     66  F   UNL A   1      42.894  32.982  28.734  1.00  0.00    -0.203 F 
ATOM     67  F   UNL A   1      47.600  33.384  26.068  1.00  0.00    -0.200 F 
ATOM     68  C   UNL A   1      45.671  34.387  26.966  1.00  0.00     0.200 A 
ATOM     69  F   UNL A   1      43.746  35.331  27.944  1.00  0.00    -0.200 F 
ATOM     70  F   UNL A   1      46.159  35.607  26.713  1.00  0.00    -0.200 F 
ENDBRANCH  46  60
BRANCH  47  71
ATOM     71  C   UNL A   1      37.102  31.516  31.843  1.00  0.00     0.064 A 
ATOM     72  C   UNL A   1      36.585  31.939  33.080  1.00  0.00     0.173 A 
ATOM     73  C   UNL A   1      36.460  32.021  30.695  1.00  0.00     0.173 A 
ATOM     74  F   UNL A   1      37.158  31.538  34.223  1.00  0.00    -0.203 F 
ATOM     75  C   UNL A   1      35.514  32.837  33.161  1.00  0.00     0.198 A 
ATOM     76  C   UNL A   1      35.388  32.912  30.778  1.00  0.00     0.198 A 
ATOM     77  F   UNL A   1      36.921  31.734  29.468  1.00  0.00    -0.203 F 
ATOM     78  F   UNL A   1      35.090  33.265  34.358  1.00  0.00    -0.200 F 
ATOM     79  C   UNL A   1      34.925  33.331  32.010  1.00  0.00     0.200 A 
ATOM     80  F   UNL A   1      34.849  33.408  29.655  1.00  0.00    -0.200 F 
ATOM     81  F   UNL A   1      33.941  34.240  32.087  1.00  0.00    -0.200 F 
ENDBRANCH  47  71
BRANCH  59  82
ATOM     82  C   UNL A   1      42.679  29.535  33.799  1.00  0.00     0.064 A 
ATOM     83  C   UNL A   1      42.091  28.257  33.763  1.00  0.00     0.173 A 
ATOM     84  C   UNL A   1      43.278  29.927  35.002  1.00  0.00     0.173 A 
ATOM     85  F   UNL A   1      41.595  27.757  32.627  1.00  0.00    -0.203 F 
ATOM     86  C   UNL A   1      42.058  27.438  34.890  1.00  0.00     0.198 A 
ATOM     87  C   UNL A   1      43.279  29.092  36.116  1.00  0.00     0.198 A 
ATOM     88  F   UNL A   1      43.909  31.109  35.083  1.00  0.00    -0.203 F 
ATOM     89  F   UNL A   1      41.478  26.230  34.826  1.00  0.00    -0.200 F 
ATOM     90  C   UNL A   1      42.658  27.855  36.065  1.00  0.00     0.200 A 
ATOM     91  F   UNL A   1      43.909  29.477  37.235  1.00  0.00    -0.200 F 
ATOM     92  F   UNL A   1      42.665  27.052  37.138  1.00  0.00    -0.200 F 
ENDBRANCH  59  82
ENDBRANCH  33  34
ENDBRANCH  25  28
ENDBRANCH  23  24
ENDBRANCH  22  23
ENDBRANCH   1  22
TORSDOF 14
ENDMDL
