MODEL 1
REMARK VINA RESULT:     -12.9      0.000      0.000
REMARK SMILES COc1ccccc1[C@@H]1CN(C(=O)Cc2csc(C)n2)C[C@H]1C(=O)NCCCCNC(=O)c1ccc(-c2c3nc(c(-c4c(F)c(F)c(F)c(F)c4F)c4ccc([nH]4)c(-c4c(F)c(F)c(F)c(F)c4F)c4nc(c(-c5c(F)c(F)c(F)c(F)c5F)c5ccc2[nH]5)C=C4)C=C3)cc1
REMARK SMILES IDX 27 1 26 2 25 3 23 4 24 5 22 7 9 8 10 9 11 10 21 11 8 12 3 13
REMARK SMILES IDX 4 14 5 15 7 16 6 17 2 18 1 19 12 20 13 21 14 22 15 23 16 24
REMARK SMILES IDX 20 25 17 26 18 27 19 28 28 29 29 30 30 31 31 32 32 34 33 35
REMARK SMILES IDX 34 36 95 37 35 38 94 39 36 40 37 41 38 42 88 43 39 44 93 45
REMARK SMILES IDX 87 46 89 47 40 48 92 49 86 50 85 51 41 53 73 54 53 55 72 56
REMARK SMILES IDX 54 57 57 58 71 59 90 60 55 61 56 62 70 64 91 65 58 66 42 67
REMARK SMILES IDX 43 68 51 69 44 70 45 71 49 72 52 73 46 74 47 75 50 76 48 77
REMARK SMILES IDX 74 78 75 79 83 80 76 81 77 82 81 83 84 84 78 85 79 86 82 87
REMARK SMILES IDX 80 88 59 89 60 90 68 91 61 92 62 93 66 94 69 95 63 96 64 97
REMARK SMILES IDX 67 98 65 99
REMARK H PARENT 25 6 30 33 89 52 57 63
REMARK Flexibility Score: inf
ROOT
ATOM      1  C   UNL A   1      39.067  22.937  26.464  1.00  0.00     0.023 C 
ENDROOT
BRANCH   1   2
ATOM      2  C   UNL A   1      37.784  23.589  25.955  1.00  0.00     0.116 C 
BRANCH   2   3
ATOM      3  N   UNL A   1      37.590  23.352  24.537  1.00  0.00    -0.356 N 
ATOM      4  C   UNL A   1      36.462  23.133  23.812  1.00  0.00     0.225 C 
ATOM      5  O   UNL A   1      36.600  22.953  22.599  1.00  0.00    -0.275 OA
ATOM      6  H   UNL A   1      38.420  23.349  24.008  1.00  0.00     0.163 HD
BRANCH   4   7
ATOM      7  C   UNL A   1      35.075  23.130  24.429  1.00  0.00     0.107 C 
ATOM      8  C   UNL A   1      34.002  23.869  23.606  1.00  0.00     0.057 C 
ATOM      9  C   UNL A   1      32.740  23.015  23.750  1.00  0.00     0.128 C 
ATOM     10  N   UNL A   1      33.238  21.675  24.017  1.00  0.00    -0.341 N 
ATOM     11  C   UNL A   1      34.549  21.714  24.641  1.00  0.00     0.133 C 
BRANCH   8  12
ATOM     12  C   UNL A   1      33.857  25.342  23.923  1.00  0.00    -0.000 A 
ATOM     13  C   UNL A   1      33.648  26.341  22.960  1.00  0.00     0.122 A 
ATOM     14  C   UNL A   1      33.561  27.687  23.326  1.00  0.00     0.047 A 
ATOM     15  C   UNL A   1      33.657  28.056  24.667  1.00  0.00     0.004 A 
ATOM     16  C   UNL A   1      33.935  25.737  25.274  1.00  0.00     0.008 A 
ATOM     17  C   UNL A   1      33.843  27.081  25.642  1.00  0.00     0.001 A 
BRANCH  13  18
ATOM     18  O   UNL A   1      33.653  26.036  21.626  1.00  0.00    -0.496 OA
ATOM     19  C   UNL A   1      32.339  25.916  21.086  1.00  0.00     0.278 C 
ENDBRANCH  13  18
ENDBRANCH   8  12
BRANCH  10  20
ATOM     20  C   UNL A   1      32.568  20.482  23.845  1.00  0.00     0.228 C 
ATOM     21  O   UNL A   1      32.152  20.138  22.736  1.00  0.00    -0.274 OA
BRANCH  20  22
ATOM     22  C   UNL A   1      32.335  19.611  25.065  1.00  0.00     0.157 C 
BRANCH  22  23
ATOM     23  C   UNL A   1      32.997  18.275  24.975  1.00  0.00     0.061 A 
ATOM     24  C   UNL A   1      34.258  17.978  24.488  1.00  0.00     0.091 A 
ATOM     25  N   UNL A   1      32.286  17.171  25.428  1.00  0.00    -0.246 NA
ATOM     26  S   UNL A   1      34.571  16.302  24.626  1.00  0.00    -0.127 S 
ATOM     27  C   UNL A   1      32.999  16.076  25.277  1.00  0.00     0.090 A 
ATOM     28  C   UNL A   1      32.527  14.710  25.630  1.00  0.00     0.079 C 
ENDBRANCH  22  23
ENDBRANCH  20  22
ENDBRANCH  10  20
ENDBRANCH   4   7
ENDBRANCH   2   3
ENDBRANCH   1   2
BRANCH   1  29
ATOM     29  C   UNL A   1      39.358  21.562  25.867  1.00  0.00     0.023 C 
BRANCH  29  30
ATOM     30  C   UNL A   1      39.798  20.510  26.875  1.00  0.00     0.116 C 
BRANCH  30  31
ATOM     31  N   UNL A   1      40.640  19.475  26.294  1.00  0.00    -0.352 N 
ATOM     32  C   UNL A   1      41.966  19.566  25.939  1.00  0.00     0.251 C 
ATOM     33  H   UNL A   1      40.209  18.604  26.137  1.00  0.00     0.163 HD
ATOM     34  O   UNL A   1      42.539  18.651  25.370  1.00  0.00    -0.269 OA
BRANCH  32  35
ATOM     35  C   UNL A   1      42.670  20.830  26.226  1.00  0.00     0.039 A 
ATOM     36  C   UNL A   1      42.975  21.688  25.168  1.00  0.00     0.014 A 
ATOM     37  C   UNL A   1      42.916  21.201  27.550  1.00  0.00     0.014 A 
ATOM     38  C   UNL A   1      43.460  22.965  25.446  1.00  0.00     0.010 A 
ATOM     39  C   UNL A   1      43.330  22.495  27.826  1.00  0.00     0.010 A 
ATOM     40  C   UNL A   1      43.599  23.391  26.776  1.00  0.00    -0.014 A 
BRANCH  40  41
ATOM     41  C   UNL A   1      44.018  24.773  27.111  1.00  0.00     0.031 A 
ATOM     42  C   UNL A   1      43.006  25.746  27.639  1.00  0.00     0.074 A 
ATOM     43  C   UNL A   1      45.271  25.177  26.830  1.00  0.00     0.049 A 
ATOM     44  N   UNL A   1      43.124  27.031  27.854  1.00  0.00    -0.248 NA
ATOM     45  C   UNL A   1      41.668  25.206  27.925  1.00  0.00     0.031 C 
ATOM     46  C   UNL A   1      46.324  24.338  26.258  1.00  0.00     0.029 A 
ATOM     47  N   UNL A   1      45.862  26.409  26.965  1.00  0.00    -0.354 N 
ATOM     48  C   UNL A   1      41.869  27.458  28.265  1.00  0.00     0.074 A 
ATOM     49  C   UNL A   1      40.994  26.305  28.226  1.00  0.00     0.031 C 
ATOM     50  C   UNL A   1      47.433  25.077  26.095  1.00  0.00     0.029 A 
ATOM     51  C   UNL A   1      47.159  26.447  26.518  1.00  0.00     0.049 A 
ATOM     52  H   UNL A   1      45.399  27.190  27.346  1.00  0.00     0.167 HD
ATOM     53  C   UNL A   1      41.487  28.696  28.655  1.00  0.00     0.037 A 
ATOM     54  C   UNL A   1      48.024  27.476  26.443  1.00  0.00     0.037 A 
ATOM     55  C   UNL A   1      42.374  29.826  28.730  1.00  0.00     0.049 A 
ATOM     56  C   UNL A   1      47.591  28.834  26.921  1.00  0.00     0.074 A 
ATOM     57  C   UNL A   1      42.111  31.102  29.196  1.00  0.00     0.029 A 
ATOM     58  N   UNL A   1      43.701  29.813  28.323  1.00  0.00    -0.354 N 
ATOM     59  N   UNL A   1      46.423  29.215  27.378  1.00  0.00    -0.248 NA
ATOM     60  C   UNL A   1      48.597  29.904  26.879  1.00  0.00     0.031 C 
ATOM     61  C   UNL A   1      43.268  31.872  29.037  1.00  0.00     0.029 A 
ATOM     62  C   UNL A   1      44.265  31.065  28.512  1.00  0.00     0.049 A 
ATOM     63  H   UNL A   1      44.172  29.031  27.955  1.00  0.00     0.167 HD
ATOM     64  C   UNL A   1      46.557  30.558  27.700  1.00  0.00     0.074 A 
ATOM     65  C   UNL A   1      47.924  30.924  27.394  1.00  0.00     0.031 C 
ATOM     66  C   UNL A   1      45.630  31.409  28.205  1.00  0.00     0.037 A 
BRANCH  53  67
ATOM     67  C   UNL A   1      40.045  28.886  29.022  1.00  0.00     0.064 A 
ATOM     68  C   UNL A   1      39.595  28.745  30.344  1.00  0.00     0.173 A 
ATOM     69  C   UNL A   1      39.098  29.210  28.039  1.00  0.00     0.173 A 
ATOM     70  F   UNL A   1      40.458  28.423  31.320  1.00  0.00    -0.203 F 
ATOM     71  C   UNL A   1      38.246  28.882  30.661  1.00  0.00     0.198 A 
ATOM     72  C   UNL A   1      37.755  29.376  28.365  1.00  0.00     0.198 A 
ATOM     73  F   UNL A   1      39.476  29.360  26.760  1.00  0.00    -0.203 F 
ATOM     74  F   UNL A   1      37.832  28.679  31.919  1.00  0.00    -0.200 F 
ATOM     75  C   UNL A   1      37.328  29.201  29.672  1.00  0.00     0.200 A 
ATOM     76  F   UNL A   1      36.871  29.696  27.410  1.00  0.00    -0.200 F 
ATOM     77  F   UNL A   1      36.030  29.328  29.978  1.00  0.00    -0.200 F 
ENDBRANCH  53  67
BRANCH  54  78
ATOM     78  C   UNL A   1      49.394  27.244  25.921  1.00  0.00     0.064 A 
ATOM     79  C   UNL A   1      50.448  26.924  26.787  1.00  0.00     0.173 A 
ATOM     80  C   UNL A   1      49.671  27.303  24.548  1.00  0.00     0.173 A 
ATOM     81  F   UNL A   1      50.234  26.875  28.110  1.00  0.00    -0.203 F 
ATOM     82  C   UNL A   1      51.730  26.679  26.301  1.00  0.00     0.198 A 
ATOM     83  C   UNL A   1      50.948  27.034  24.059  1.00  0.00     0.198 A 
ATOM     84  F   UNL A   1      48.693  27.597  23.677  1.00  0.00    -0.203 F 
ATOM     85  F   UNL A   1      52.725  26.401  27.153  1.00  0.00    -0.200 F 
ATOM     86  C   UNL A   1      51.977  26.726  24.936  1.00  0.00     0.200 A 
ATOM     87  F   UNL A   1      51.180  27.066  22.741  1.00  0.00    -0.200 F 
ATOM     88  F   UNL A   1      53.207  26.477  24.468  1.00  0.00    -0.200 F 
ENDBRANCH  54  78
BRANCH  66  89
ATOM     89  C   UNL A   1      46.071  32.814  28.488  1.00  0.00     0.064 A 
ATOM     90  C   UNL A   1      46.645  33.171  29.717  1.00  0.00     0.173 A 
ATOM     91  C   UNL A   1      45.967  33.803  27.497  1.00  0.00     0.173 A 
ATOM     92  F   UNL A   1      46.752  32.265  30.700  1.00  0.00    -0.203 F 
ATOM     93  C   UNL A   1      47.084  34.471  29.949  1.00  0.00     0.198 A 
ATOM     94  C   UNL A   1      46.430  35.095  27.724  1.00  0.00     0.198 A 
ATOM     95  F   UNL A   1      45.430  33.509  26.303  1.00  0.00    -0.203 F 
ATOM     96  F   UNL A   1      47.595  34.801  31.143  1.00  0.00    -0.200 F 
ATOM     97  C   UNL A   1      46.983  35.430  28.950  1.00  0.00     0.200 A 
ATOM     98  F   UNL A   1      46.343  36.016  26.754  1.00  0.00    -0.200 F 
ATOM     99  F   UNL A   1      47.415  36.679  29.173  1.00  0.00    -0.200 F 
ENDBRANCH  66  89
ENDBRANCH  40  41
ENDBRANCH  32  35
ENDBRANCH  30  31
ENDBRANCH  29  30
ENDBRANCH   1  29
TORSDOF 16
ENDMDL
MODEL 2
REMARK VINA RESULT:     -12.9      6.290     11.529
REMARK SMILES COc1ccccc1[C@@H]1CN(C(=O)Cc2csc(C)n2)C[C@H]1C(=O)NCCCCNC(=O)c1ccc(-c2c3nc(c(-c4c(F)c(F)c(F)c(F)c4F)c4ccc([nH]4)c(-c4c(F)c(F)c(F)c(F)c4F)c4nc(c(-c5c(F)c(F)c(F)c(F)c5F)c5ccc2[nH]5)C=C4)C=C3)cc1
REMARK SMILES IDX 27 1 26 2 25 3 23 4 24 5 22 7 9 8 10 9 11 10 21 11 8 12 3 13
REMARK SMILES IDX 4 14 5 15 7 16 6 17 2 18 1 19 12 20 13 21 14 22 15 23 16 24
REMARK SMILES IDX 20 25 17 26 18 27 19 28 28 29 29 30 30 31 31 32 32 34 33 35
REMARK SMILES IDX 34 36 95 37 35 38 94 39 36 40 37 41 38 42 88 43 39 44 93 45
REMARK SMILES IDX 87 46 89 47 40 48 92 49 86 50 85 51 41 53 73 54 53 55 72 56
REMARK SMILES IDX 54 57 57 58 71 59 90 60 55 61 56 62 70 64 91 65 58 66 42 67
REMARK SMILES IDX 43 68 51 69 44 70 45 71 49 72 52 73 46 74 47 75 50 76 48 77
REMARK SMILES IDX 74 78 75 79 83 80 76 81 77 82 81 83 84 84 78 85 79 86 82 87
REMARK SMILES IDX 80 88 59 89 60 90 68 91 61 92 62 93 66 94 69 95 63 96 64 97
REMARK SMILES IDX 67 98 65 99
REMARK H PARENT 25 6 30 33 89 52 57 63
REMARK Flexibility Score: inf
ROOT
ATOM      1  C   UNL A   1      34.837  30.640  27.912  1.00  0.00     0.023 C 
ENDROOT
BRANCH   1   2
ATOM      2  C   UNL A   1      34.400  29.356  27.211  1.00  0.00     0.116 C 
BRANCH   2   3
ATOM      3  N   UNL A   1      33.109  28.899  27.690  1.00  0.00    -0.356 N 
ATOM      4  C   UNL A   1      32.197  28.055  27.140  1.00  0.00     0.225 C 
ATOM      5  O   UNL A   1      31.164  27.848  27.782  1.00  0.00    -0.275 OA
ATOM      6  H   UNL A   1      32.848  29.263  28.566  1.00  0.00     0.163 HD
BRANCH   4   7
ATOM      7  C   UNL A   1      32.419  27.359  25.809  1.00  0.00     0.107 C 
ATOM      8  C   UNL A   1      31.741  25.981  25.682  1.00  0.00     0.057 C 
ATOM      9  C   UNL A   1      31.228  25.928  24.240  1.00  0.00     0.128 C 
ATOM     10  N   UNL A   1      31.038  27.322  23.871  1.00  0.00    -0.341 N 
ATOM     11  C   UNL A   1      31.910  28.194  24.638  1.00  0.00     0.133 C 
BRANCH   8  12
ATOM     12  C   UNL A   1      32.584  24.810  26.140  1.00  0.00    -0.000 A 
ATOM     13  C   UNL A   1      32.098  23.737  26.902  1.00  0.00     0.122 A 
ATOM     14  C   UNL A   1      32.947  22.709  27.319  1.00  0.00     0.047 A 
ATOM     15  C   UNL A   1      34.294  22.722  26.960  1.00  0.00     0.004 A 
ATOM     16  C   UNL A   1      33.945  24.795  25.775  1.00  0.00     0.008 A 
ATOM     17  C   UNL A   1      34.794  23.765  26.187  1.00  0.00     0.001 A 
BRANCH  13  18
ATOM     18  O   UNL A   1      30.811  23.736  27.364  1.00  0.00    -0.496 OA
ATOM     19  C   UNL A   1      30.019  22.703  26.782  1.00  0.00     0.278 C 
ENDBRANCH  13  18
ENDBRANCH   8  12
BRANCH  10  20
ATOM     20  C   UNL A   1      30.247  27.821  22.858  1.00  0.00     0.228 C 
ATOM     21  O   UNL A   1      30.624  27.799  21.684  1.00  0.00    -0.274 OA
BRANCH  20  22
ATOM     22  C   UNL A   1      28.903  28.418  23.230  1.00  0.00     0.157 C 
BRANCH  22  23
ATOM     23  C   UNL A   1      28.757  29.849  22.825  1.00  0.00     0.061 A 
ATOM     24  C   UNL A   1      28.976  30.980  23.592  1.00  0.00     0.091 A 
ATOM     25  N   UNL A   1      28.352  30.112  21.523  1.00  0.00    -0.246 NA
ATOM     26  S   UNL A   1      28.703  32.391  22.665  1.00  0.00    -0.127 S 
ATOM     27  C   UNL A   1      28.266  31.410  21.326  1.00  0.00     0.090 A 
ATOM     28  C   UNL A   1      27.830  32.039  20.050  1.00  0.00     0.079 C 
ENDBRANCH  22  23
ENDBRANCH  20  22
ENDBRANCH  10  20
ENDBRANCH   4   7
ENDBRANCH   2   3
ENDBRANCH   1   2
BRANCH   1  29
ATOM     29  C   UNL A   1      34.228  31.915  27.333  1.00  0.00     0.023 C 
BRANCH  29  30
ATOM     30  C   UNL A   1      32.844  32.257  27.865  1.00  0.00     0.116 C 
BRANCH  30  31
ATOM     31  N   UNL A   1      32.551  33.682  27.830  1.00  0.00    -0.352 N 
ATOM     32  C   UNL A   1      33.179  34.690  28.525  1.00  0.00     0.251 C 
ATOM     33  H   UNL A   1      31.816  33.959  27.236  1.00  0.00     0.163 HD
ATOM     34  O   UNL A   1      32.778  35.842  28.481  1.00  0.00    -0.269 OA
BRANCH  32  35
ATOM     35  C   UNL A   1      34.334  34.329  29.368  1.00  0.00     0.039 A 
ATOM     36  C   UNL A   1      34.112  33.609  30.543  1.00  0.00     0.014 A 
ATOM     37  C   UNL A   1      35.629  34.608  28.926  1.00  0.00     0.014 A 
ATOM     38  C   UNL A   1      35.203  33.095  31.243  1.00  0.00     0.010 A 
ATOM     39  C   UNL A   1      36.708  34.034  29.583  1.00  0.00     0.010 A 
ATOM     40  C   UNL A   1      36.503  33.268  30.743  1.00  0.00    -0.014 A 
BRANCH  40  41
ATOM     41  C   UNL A   1      37.679  32.653  31.405  1.00  0.00     0.031 A 
ATOM     42  C   UNL A   1      38.378  31.499  30.750  1.00  0.00     0.074 A 
ATOM     43  C   UNL A   1      38.038  33.057  32.638  1.00  0.00     0.049 A 
ATOM     44  N   UNL A   1      39.324  30.727  31.220  1.00  0.00    -0.248 NA
ATOM     45  C   UNL A   1      37.921  31.140  29.399  1.00  0.00     0.031 C 
ATOM     46  C   UNL A   1      37.394  34.128  33.400  1.00  0.00     0.029 A 
ATOM     47  N   UNL A   1      39.019  32.593  33.478  1.00  0.00    -0.354 N 
ATOM     48  C   UNL A   1      39.549  29.772  30.239  1.00  0.00     0.074 A 
ATOM     49  C   UNL A   1      38.611  30.034  29.168  1.00  0.00     0.031 C 
ATOM     50  C   UNL A   1      37.999  34.241  34.593  1.00  0.00     0.029 A 
ATOM     51  C   UNL A   1      39.048  33.231  34.693  1.00  0.00     0.049 A 
ATOM     52  H   UNL A   1      39.642  31.870  33.233  1.00  0.00     0.167 HD
ATOM     53  C   UNL A   1      40.466  28.778  30.227  1.00  0.00     0.037 A 
ATOM     54  C   UNL A   1      39.825  33.015  35.772  1.00  0.00     0.037 A 
ATOM     55  C   UNL A   1      41.422  28.551  31.277  1.00  0.00     0.049 A 
ATOM     56  C   UNL A   1      40.866  31.931  35.720  1.00  0.00     0.074 A 
ATOM     57  C   UNL A   1      42.453  27.629  31.324  1.00  0.00     0.029 A 
ATOM     58  N   UNL A   1      41.461  29.258  32.471  1.00  0.00    -0.354 N 
ATOM     59  N   UNL A   1      41.123  31.078  34.758  1.00  0.00    -0.248 NA
ATOM     60  C   UNL A   1      41.729  31.784  36.899  1.00  0.00     0.031 C 
ATOM     61  C   UNL A   1      43.092  27.752  32.562  1.00  0.00     0.029 A 
ATOM     62  C   UNL A   1      42.488  28.780  33.269  1.00  0.00     0.049 A 
ATOM     63  H   UNL A   1      40.851  29.990  32.715  1.00  0.00     0.167 HD
ATOM     64  C   UNL A   1      42.189  30.309  35.203  1.00  0.00     0.074 A 
ATOM     65  C   UNL A   1      42.538  30.804  36.519  1.00  0.00     0.031 C 
ATOM     66  C   UNL A   1      42.822  29.288  34.576  1.00  0.00     0.037 A 
BRANCH  53  67
ATOM     67  C   UNL A   1      40.469  27.860  29.039  1.00  0.00     0.064 A 
ATOM     68  C   UNL A   1      41.241  28.132  27.898  1.00  0.00     0.173 A 
ATOM     69  C   UNL A   1      39.689  26.695  29.040  1.00  0.00     0.173 A 
ATOM     70  F   UNL A   1      41.995  29.240  27.842  1.00  0.00    -0.203 F 
ATOM     71  C   UNL A   1      41.199  27.293  26.788  1.00  0.00     0.198 A 
ATOM     72  C   UNL A   1      39.672  25.843  27.939  1.00  0.00     0.198 A 
ATOM     73  F   UNL A   1      38.935  26.387  30.106  1.00  0.00    -0.203 F 
ATOM     74  F   UNL A   1      41.894  27.608  25.686  1.00  0.00    -0.200 F 
ATOM     75  C   UNL A   1      40.417  26.148  26.811  1.00  0.00     0.200 A 
ATOM     76  F   UNL A   1      38.926  24.730  27.967  1.00  0.00    -0.200 F 
ATOM     77  F   UNL A   1      40.375  25.344  25.740  1.00  0.00    -0.200 F 
ENDBRANCH  53  67
BRANCH  54  78
ATOM     78  C   UNL A   1      39.659  33.867  36.976  1.00  0.00     0.064 A 
ATOM     79  C   UNL A   1      40.269  35.127  37.053  1.00  0.00     0.173 A 
ATOM     80  C   UNL A   1      38.864  33.458  38.055  1.00  0.00     0.173 A 
ATOM     81  F   UNL A   1      41.054  35.551  36.052  1.00  0.00    -0.203 F 
ATOM     82  C   UNL A   1      40.096  35.942  38.168  1.00  0.00     0.198 A 
ATOM     83  C   UNL A   1      38.672  34.284  39.160  1.00  0.00     0.198 A 
ATOM     84  F   UNL A   1      38.252  32.264  38.024  1.00  0.00    -0.203 F 
ATOM     85  F   UNL A   1      40.710  37.130  38.229  1.00  0.00    -0.200 F 
ATOM     86  C   UNL A   1      39.290  35.524  39.218  1.00  0.00     0.200 A 
ATOM     87  F   UNL A   1      37.882  33.883  40.166  1.00  0.00    -0.200 F 
ATOM     88  F   UNL A   1      39.113  36.315  40.284  1.00  0.00    -0.200 F 
ENDBRANCH  54  78
BRANCH  66  89
ATOM     89  C   UNL A   1      43.978  28.654  35.292  1.00  0.00     0.064 A 
ATOM     90  C   UNL A   1      43.802  27.551  36.139  1.00  0.00     0.173 A 
ATOM     91  C   UNL A   1      45.284  29.123  35.082  1.00  0.00     0.173 A 
ATOM     92  F   UNL A   1      42.571  27.075  36.382  1.00  0.00    -0.203 F 
ATOM     93  C   UNL A   1      44.891  26.950  36.765  1.00  0.00     0.198 A 
ATOM     94  C   UNL A   1      46.372  28.505  35.689  1.00  0.00     0.198 A 
ATOM     95  F   UNL A   1      45.504  30.173  34.276  1.00  0.00    -0.203 F 
ATOM     96  F   UNL A   1      44.697  25.921  37.600  1.00  0.00    -0.200 F 
ATOM     97  C   UNL A   1      46.175  27.423  36.534  1.00  0.00     0.200 A 
ATOM     98  F   UNL A   1      47.613  28.954  35.455  1.00  0.00    -0.200 F 
ATOM     99  F   UNL A   1      47.223  26.837  37.129  1.00  0.00    -0.200 F 
ENDBRANCH  66  89
ENDBRANCH  40  41
ENDBRANCH  32  35
ENDBRANCH  30  31
ENDBRANCH  29  30
ENDBRANCH   1  29
TORSDOF 16
ENDMDL
MODEL 3
REMARK VINA RESULT:     -12.6      6.155     10.511
REMARK SMILES COc1ccccc1[C@@H]1CN(C(=O)Cc2csc(C)n2)C[C@H]1C(=O)NCCCCNC(=O)c1ccc(-c2c3nc(c(-c4c(F)c(F)c(F)c(F)c4F)c4ccc([nH]4)c(-c4c(F)c(F)c(F)c(F)c4F)c4nc(c(-c5c(F)c(F)c(F)c(F)c5F)c5ccc2[nH]5)C=C4)C=C3)cc1
REMARK SMILES IDX 27 1 26 2 25 3 23 4 24 5 22 7 9 8 10 9 11 10 21 11 8 12 3 13
REMARK SMILES IDX 4 14 5 15 7 16 6 17 2 18 1 19 12 20 13 21 14 22 15 23 16 24
REMARK SMILES IDX 20 25 17 26 18 27 19 28 28 29 29 30 30 31 31 32 32 34 33 35
REMARK SMILES IDX 34 36 95 37 35 38 94 39 36 40 37 41 38 42 88 43 39 44 93 45
REMARK SMILES IDX 87 46 89 47 40 48 92 49 86 50 85 51 41 53 73 54 53 55 72 56
REMARK SMILES IDX 54 57 57 58 71 59 90 60 55 61 56 62 70 64 91 65 58 66 42 67
REMARK SMILES IDX 43 68 51 69 44 70 45 71 49 72 52 73 46 74 47 75 50 76 48 77
REMARK SMILES IDX 74 78 75 79 83 80 76 81 77 82 81 83 84 84 78 85 79 86 82 87
REMARK SMILES IDX 80 88 59 89 60 90 68 91 61 92 62 93 66 94 69 95 63 96 64 97
REMARK SMILES IDX 67 98 65 99
REMARK H PARENT 25 6 30 33 89 52 57 63
REMARK Flexibility Score: inf
ROOT
ATOM      1  C   UNL A   1      34.612  30.866  27.680  1.00  0.00     0.023 C 
ENDROOT
BRANCH   1   2
ATOM      2  C   UNL A   1      34.250  29.488  27.127  1.00  0.00     0.116 C 
BRANCH   2   3
ATOM      3  N   UNL A   1      33.051  28.961  27.750  1.00  0.00    -0.356 N 
ATOM      4  C   UNL A   1      32.106  28.100  27.289  1.00  0.00     0.225 C 
ATOM      5  O   UNL A   1      31.174  27.828  28.051  1.00  0.00    -0.275 OA
ATOM      6  H   UNL A   1      32.894  29.283  28.667  1.00  0.00     0.163 HD
BRANCH   4   7
ATOM      7  C   UNL A   1      32.177  27.461  25.914  1.00  0.00     0.107 C 
ATOM      8  C   UNL A   1      31.627  26.024  25.842  1.00  0.00     0.057 C 
ATOM      9  C   UNL A   1      30.896  25.951  24.499  1.00  0.00     0.128 C 
ATOM     10  N   UNL A   1      30.511  27.325  24.220  1.00  0.00    -0.341 N 
ATOM     11  C   UNL A   1      31.405  28.266  24.872  1.00  0.00     0.133 C 
BRANCH   8  12
ATOM     12  C   UNL A   1      32.644  24.937  26.114  1.00  0.00    -0.000 A 
ATOM     13  C   UNL A   1      32.378  23.770  26.845  1.00  0.00     0.122 A 
ATOM     14  C   UNL A   1      33.380  22.827  27.086  1.00  0.00     0.047 A 
ATOM     15  C   UNL A   1      34.664  23.022  26.579  1.00  0.00     0.004 A 
ATOM     16  C   UNL A   1      33.945  25.106  25.598  1.00  0.00     0.008 A 
ATOM     17  C   UNL A   1      34.947  24.163  25.833  1.00  0.00     0.001 A 
BRANCH  13  18
ATOM     18  O   UNL A   1      31.164  23.586  27.449  1.00  0.00    -0.496 OA
ATOM     19  C   UNL A   1      30.278  22.786  26.669  1.00  0.00     0.278 C 
ENDBRANCH  13  18
ENDBRANCH   8  12
BRANCH  10  20
ATOM     20  C   UNL A   1      29.521  27.762  23.366  1.00  0.00     0.228 C 
ATOM     21  O   UNL A   1      28.352  27.391  23.501  1.00  0.00    -0.274 OA
BRANCH  20  22
ATOM     22  C   UNL A   1      29.913  28.696  22.236  1.00  0.00     0.157 C 
BRANCH  22  23
ATOM     23  C   UNL A   1      29.299  30.053  22.349  1.00  0.00     0.061 A 
ATOM     24  C   UNL A   1      29.151  30.831  23.484  1.00  0.00     0.091 A 
ATOM     25  N   UNL A   1      28.805  30.635  21.189  1.00  0.00    -0.246 NA
ATOM     26  S   UNL A   1      28.412  32.324  23.090  1.00  0.00    -0.127 S 
ATOM     27  C   UNL A   1      28.296  31.819  21.454  1.00  0.00     0.090 A 
ATOM     28  C   UNL A   1      27.653  32.703  20.445  1.00  0.00     0.079 C 
ENDBRANCH  22  23
ENDBRANCH  20  22
ENDBRANCH  10  20
ENDBRANCH   4   7
ENDBRANCH   2   3
ENDBRANCH   1   2
BRANCH   1  29
ATOM     29  C   UNL A   1      33.449  31.852  27.731  1.00  0.00     0.023 C 
BRANCH  29  30
ATOM     30  C   UNL A   1      33.785  33.259  27.256  1.00  0.00     0.116 C 
BRANCH  30  31
ATOM     31  N   UNL A   1      33.061  34.296  27.976  1.00  0.00    -0.352 N 
ATOM     32  C   UNL A   1      33.267  34.730  29.265  1.00  0.00     0.251 C 
ATOM     33  H   UNL A   1      32.338  34.743  27.480  1.00  0.00     0.163 HD
ATOM     34  O   UNL A   1      32.528  35.546  29.790  1.00  0.00    -0.269 OA
BRANCH  32  35
ATOM     35  C   UNL A   1      34.389  34.139  30.019  1.00  0.00     0.039 A 
ATOM     36  C   UNL A   1      34.112  33.218  31.030  1.00  0.00     0.014 A 
ATOM     37  C   UNL A   1      35.703  34.419  29.637  1.00  0.00     0.014 A 
ATOM     38  C   UNL A   1      35.163  32.510  31.612  1.00  0.00     0.010 A 
ATOM     39  C   UNL A   1      36.739  33.663  30.166  1.00  0.00     0.010 A 
ATOM     40  C   UNL A   1      36.477  32.698  31.153  1.00  0.00    -0.014 A 
BRANCH  40  41
ATOM     41  C   UNL A   1      37.606  31.894  31.679  1.00  0.00     0.031 A 
ATOM     42  C   UNL A   1      38.189  32.225  33.022  1.00  0.00     0.074 A 
ATOM     43  C   UNL A   1      38.175  30.953  30.903  1.00  0.00     0.049 A 
ATOM     44  N   UNL A   1      39.262  31.751  33.600  1.00  0.00    -0.248 NA
ATOM     45  C   UNL A   1      37.490  33.260  33.799  1.00  0.00     0.031 C 
ATOM     46  C   UNL A   1      37.735  30.586  29.556  1.00  0.00     0.029 A 
ATOM     47  N   UNL A   1      39.266  30.151  31.127  1.00  0.00    -0.354 N 
ATOM     48  C   UNL A   1      39.386  32.454  34.790  1.00  0.00     0.074 A 
ATOM     49  C   UNL A   1      38.306  33.417  34.830  1.00  0.00     0.031 C 
ATOM     50  C   UNL A   1      38.546  29.629  29.076  1.00  0.00     0.029 A 
ATOM     51  C   UNL A   1      39.579  29.341  30.065  1.00  0.00     0.049 A 
ATOM     52  H   UNL A   1      39.776  30.158  31.970  1.00  0.00     0.167 HD
ATOM     53  C   UNL A   1      40.309  32.298  35.767  1.00  0.00     0.037 A 
ATOM     54  C   UNL A   1      40.597  28.473  29.902  1.00  0.00     0.037 A 
ATOM     55  C   UNL A   1      41.354  31.310  35.738  1.00  0.00     0.049 A 
ATOM     56  C   UNL A   1      41.586  28.286  31.018  1.00  0.00     0.074 A 
ATOM     57  C   UNL A   1      42.285  31.008  36.715  1.00  0.00     0.029 A 
ATOM     58  N   UNL A   1      41.606  30.463  34.668  1.00  0.00    -0.354 N 
ATOM     59  N   UNL A   1      41.655  28.902  32.173  1.00  0.00    -0.248 NA
ATOM     60  C   UNL A   1      42.636  27.279  30.813  1.00  0.00     0.031 C 
ATOM     61  C   UNL A   1      43.125  30.004  36.222  1.00  0.00     0.029 A 
ATOM     62  C   UNL A   1      42.690  29.649  34.954  1.00  0.00     0.049 A 
ATOM     63  H   UNL A   1      41.091  30.442  33.829  1.00  0.00     0.167 HD
ATOM     64  C   UNL A   1      42.736  28.345  32.842  1.00  0.00     0.074 A 
ATOM     65  C   UNL A   1      43.289  27.332  31.966  1.00  0.00     0.031 C 
ATOM     66  C   UNL A   1      43.224  28.644  34.070  1.00  0.00     0.037 A 
BRANCH  53  67
ATOM     67  C   UNL A   1      40.225  33.225  36.945  1.00  0.00     0.064 A 
ATOM     68  C   UNL A   1      41.075  34.334  37.074  1.00  0.00     0.173 A 
ATOM     69  C   UNL A   1      39.283  32.999  37.959  1.00  0.00     0.173 A 
ATOM     70  F   UNL A   1      42.002  34.586  36.137  1.00  0.00    -0.203 F 
ATOM     71  C   UNL A   1      41.013  35.158  38.194  1.00  0.00     0.198 A 
ATOM     72  C   UNL A   1      39.204  33.843  39.064  1.00  0.00     0.198 A 
ATOM     73  F   UNL A   1      38.444  31.955  37.884  1.00  0.00    -0.203 F 
ATOM     74  F   UNL A   1      41.879  36.173  38.325  1.00  0.00    -0.200 F 
ATOM     75  C   UNL A   1      40.075  34.914  39.186  1.00  0.00     0.200 A 
ATOM     76  F   UNL A   1      38.289  33.614  40.016  1.00  0.00    -0.200 F 
ATOM     77  F   UNL A   1      40.020  35.707  40.265  1.00  0.00    -0.200 F 
ENDBRANCH  53  67
BRANCH  54  78
ATOM     78  C   UNL A   1      40.704  27.699  28.640  1.00  0.00     0.064 A 
ATOM     79  C   UNL A   1      40.019  26.487  28.481  1.00  0.00     0.173 A 
ATOM     80  C   UNL A   1      41.462  28.169  27.558  1.00  0.00     0.173 A 
ATOM     81  F   UNL A   1      39.296  25.990  29.496  1.00  0.00    -0.203 F 
ATOM     82  C   UNL A   1      40.093  25.770  27.290  1.00  0.00     0.198 A 
ATOM     83  C   UNL A   1      41.517  27.463  26.358  1.00  0.00     0.198 A 
ATOM     84  F   UNL A   1      42.129  29.329  27.659  1.00  0.00    -0.203 F 
ATOM     85  F   UNL A   1      39.450  24.601  27.173  1.00  0.00    -0.200 F 
ATOM     86  C   UNL A   1      40.836  26.263  26.226  1.00  0.00     0.200 A 
ATOM     87  F   UNL A   1      42.223  27.948  25.329  1.00  0.00    -0.200 F 
ATOM     88  F   UNL A   1      40.896  25.579  25.076  1.00  0.00    -0.200 F 
ENDBRANCH  54  78
BRANCH  66  89
ATOM     89  C   UNL A   1      44.398  27.847  34.556  1.00  0.00     0.064 A 
ATOM     90  C   UNL A   1      45.715  28.291  34.371  1.00  0.00     0.173 A 
ATOM     91  C   UNL A   1      44.198  26.651  35.263  1.00  0.00     0.173 A 
ATOM     92  F   UNL A   1      45.957  29.420  33.689  1.00  0.00    -0.203 F 
ATOM     93  C   UNL A   1      46.791  27.557  34.862  1.00  0.00     0.198 A 
ATOM     94  C   UNL A   1      45.275  25.934  35.775  1.00  0.00     0.198 A 
ATOM     95  F   UNL A   1      42.956  26.187  35.470  1.00  0.00    -0.203 F 
ATOM     96  F   UNL A   1      48.043  27.980  34.642  1.00  0.00    -0.200 F 
ATOM     97  C   UNL A   1      46.570  26.385  35.570  1.00  0.00     0.200 A 
ATOM     98  F   UNL A   1      45.059  24.808  36.468  1.00  0.00    -0.200 F 
ATOM     99  F   UNL A   1      47.607  25.685  36.051  1.00  0.00    -0.200 F 
ENDBRANCH  66  89
ENDBRANCH  40  41
ENDBRANCH  32  35
ENDBRANCH  30  31
ENDBRANCH  29  30
ENDBRANCH   1  29
TORSDOF 16
ENDMDL
