MODEL 1
REMARK VINA RESULT:     -12.4      0.000      0.000
REMARK SMILES CN(C(=O)N1CCC(C(=O)NCCCCNC(=O)c2ccc(-c3c4nc(c(-c5c(F)c(F)c(F)c(F)c5F)c5ccc([nH]5)c(-c5c(F)c(F)c(F)c(F)c5F)c5nc(c(-c6c(F)c(F)c(F)c(F)c6F)c6ccc3[nH]6)C=C5)C=C4)cc2)CC1)[C@H]1CCSC1
REMARK SMILES IDX 13 1 12 2 11 3 9 4 10 5 8 7 3 8 4 9 5 10 6 11 83 12 7 13
REMARK SMILES IDX 82 14 2 15 1 16 84 17 85 18 88 19 86 20 87 21 14 22 15 23
REMARK SMILES IDX 16 24 17 25 18 27 19 28 20 29 81 30 21 31 80 32 22 33 23 34
REMARK SMILES IDX 24 35 74 36 25 37 79 38 73 39 75 40 26 41 78 42 72 43 71 44
REMARK SMILES IDX 27 46 59 47 39 48 58 49 40 50 43 51 57 52 76 53 41 54 42 55
REMARK SMILES IDX 56 57 77 58 44 59 28 60 29 61 37 62 30 63 31 64 35 65 38 66
REMARK SMILES IDX 32 67 33 68 36 69 34 70 60 71 61 72 69 73 62 74 63 75 67 76
REMARK SMILES IDX 70 77 64 78 65 79 68 80 66 81 45 82 46 83 54 84 47 85 48 86
REMARK SMILES IDX 52 87 55 88 49 89 50 90 53 91 51 92
REMARK H PARENT 11 6 16 26 75 45 43 56
REMARK Flexibility Score: inf
ROOT
ATOM      1  C   UNL A   1      31.792  30.483  26.819  1.00  0.00     0.023 C 
ENDROOT
BRANCH   1   2
ATOM      2  C   UNL A   1      33.237  29.995  26.764  1.00  0.00     0.116 C 
BRANCH   2   3
ATOM      3  N   UNL A   1      33.652  29.690  25.404  1.00  0.00    -0.356 N 
ATOM      4  C   UNL A   1      33.548  28.542  24.680  1.00  0.00     0.223 C 
ATOM      5  O   UNL A   1      34.002  28.543  23.533  1.00  0.00    -0.275 OA
ATOM      6  H   UNL A   1      34.078  30.440  24.927  1.00  0.00     0.163 HD
BRANCH   4   7
ATOM      7  C   UNL A   1      32.871  27.301  25.240  1.00  0.00     0.082 C 
ATOM      8  C   UNL A   1      32.562  23.409  24.103  1.00  0.00     0.320 C 
ATOM      9  O   UNL A   1      32.179  23.530  22.939  1.00  0.00    -0.248 OA
ATOM     10  N   UNL A   1      32.394  24.466  24.980  1.00  0.00    -0.325 N 
ATOM     11  C   UNL A   1      31.295  25.392  24.734  1.00  0.00     0.122 C 
ATOM     12  C   UNL A   1      33.337  24.899  26.008  1.00  0.00     0.122 C 
ATOM     13  C   UNL A   1      31.803  26.752  24.288  1.00  0.00     0.035 C 
ATOM     14  C   UNL A   1      33.914  26.280  25.716  1.00  0.00     0.035 C 
BRANCH   8  15
ATOM     15  N   UNL A   1      33.116  22.228  24.580  1.00  0.00    -0.324 N 
ATOM     16  C   UNL A   1      32.310  21.106  25.058  1.00  0.00     0.149 C 
BRANCH  15  17
ATOM     17  C   UNL A   1      34.557  21.910  24.406  1.00  0.00     0.097 C 
ATOM     18  C   UNL A   1      35.342  23.032  23.711  1.00  0.00     0.037 C 
ATOM     19  C   UNL A   1      35.414  21.563  25.635  1.00  0.00     0.094 C 
ATOM     20  C   UNL A   1      36.768  22.528  23.531  1.00  0.00     0.072 C 
ATOM     21  S   UNL A   1      37.121  21.512  24.989  1.00  0.00    -0.160 SA
ENDBRANCH  15  17
ENDBRANCH   8  15
ENDBRANCH   4   7
ENDBRANCH   2   3
ENDBRANCH   1   2
BRANCH   1  22
ATOM     22  C   UNL A   1      31.633  32.001  26.772  1.00  0.00     0.023 C 
BRANCH  22  23
ATOM     23  C   UNL A   1      32.806  32.792  27.339  1.00  0.00     0.116 C 
BRANCH  23  24
ATOM     24  N   UNL A   1      32.462  34.165  27.681  1.00  0.00    -0.352 N 
ATOM     25  C   UNL A   1      33.021  34.981  28.632  1.00  0.00     0.251 C 
ATOM     26  H   UNL A   1      31.729  34.562  27.158  1.00  0.00     0.163 HD
ATOM     27  O   UNL A   1      32.539  36.083  28.873  1.00  0.00    -0.269 OA
BRANCH  25  28
ATOM     28  C   UNL A   1      34.192  34.506  29.398  1.00  0.00     0.039 A 
ATOM     29  C   UNL A   1      33.983  33.886  30.632  1.00  0.00     0.014 A 
ATOM     30  C   UNL A   1      35.483  34.640  28.882  1.00  0.00     0.014 A 
ATOM     31  C   UNL A   1      35.066  33.334  31.316  1.00  0.00     0.010 A 
ATOM     32  C   UNL A   1      36.549  34.023  29.528  1.00  0.00     0.010 A 
ATOM     33  C   UNL A   1      36.352  33.362  30.751  1.00  0.00    -0.014 A 
BRANCH  33  34
ATOM     34  C   UNL A   1      37.502  32.709  31.423  1.00  0.00     0.031 A 
ATOM     35  C   UNL A   1      38.210  31.563  30.755  1.00  0.00     0.074 A 
ATOM     36  C   UNL A   1      37.871  33.106  32.656  1.00  0.00     0.049 A 
ATOM     37  N   UNL A   1      39.175  30.806  31.211  1.00  0.00    -0.248 NA
ATOM     38  C   UNL A   1      37.755  31.204  29.402  1.00  0.00     0.031 C 
ATOM     39  C   UNL A   1      37.235  34.178  33.426  1.00  0.00     0.029 A 
ATOM     40  N   UNL A   1      38.864  32.646  33.486  1.00  0.00    -0.354 N 
ATOM     41  C   UNL A   1      39.439  29.885  30.207  1.00  0.00     0.074 A 
ATOM     42  C   UNL A   1      38.492  30.134  29.143  1.00  0.00     0.031 C 
ATOM     43  C   UNL A   1      37.864  34.303  34.607  1.00  0.00     0.029 A 
ATOM     44  C   UNL A   1      38.919  33.299  34.694  1.00  0.00     0.049 A 
ATOM     45  H   UNL A   1      39.477  31.917  33.239  1.00  0.00     0.167 HD
ATOM     46  C   UNL A   1      40.405  28.937  30.161  1.00  0.00     0.037 A 
ATOM     47  C   UNL A   1      39.725  33.101  35.755  1.00  0.00     0.037 A 
ATOM     48  C   UNL A   1      41.357  28.699  31.214  1.00  0.00     0.049 A 
ATOM     49  C   UNL A   1      40.774  32.022  35.686  1.00  0.00     0.074 A 
ATOM     50  C   UNL A   1      42.386  27.776  31.256  1.00  0.00     0.029 A 
ATOM     51  N   UNL A   1      41.398  29.399  32.411  1.00  0.00    -0.354 N 
ATOM     52  N   UNL A   1      41.046  31.192  34.709  1.00  0.00    -0.248 NA
ATOM     53  C   UNL A   1      41.635  31.860  36.866  1.00  0.00     0.031 C 
ATOM     54  C   UNL A   1      43.029  27.893  32.492  1.00  0.00     0.029 A 
ATOM     55  C   UNL A   1      42.430  28.921  33.202  1.00  0.00     0.049 A 
ATOM     56  H   UNL A   1      40.785  30.128  32.663  1.00  0.00     0.167 HD
ATOM     57  C   UNL A   1      42.127  30.435  35.141  1.00  0.00     0.074 A 
ATOM     58  C   UNL A   1      42.472  30.916  36.462  1.00  0.00     0.031 C 
ATOM     59  C   UNL A   1      42.774  29.429  34.505  1.00  0.00     0.037 A 
BRANCH  46  60
ATOM     60  C   UNL A   1      40.497  28.099  28.920  1.00  0.00     0.064 A 
ATOM     61  C   UNL A   1      39.785  26.895  28.802  1.00  0.00     0.173 A 
ATOM     62  C   UNL A   1      41.259  28.521  27.822  1.00  0.00     0.173 A 
ATOM     63  F   UNL A   1      39.051  26.440  29.829  1.00  0.00    -0.203 F 
ATOM     64  C   UNL A   1      39.852  26.134  27.639  1.00  0.00     0.198 A 
ATOM     65  C   UNL A   1      41.301  27.772  26.649  1.00  0.00     0.198 A 
ATOM     66  F   UNL A   1      41.955  29.666  27.881  1.00  0.00    -0.203 F 
ATOM     67  F   UNL A   1      39.198  24.966  27.565  1.00  0.00    -0.200 F 
ATOM     68  C   UNL A   1      40.602  26.577  26.560  1.00  0.00     0.200 A 
ATOM     69  F   UNL A   1      42.016  28.208  25.603  1.00  0.00    -0.200 F 
ATOM     70  F   UNL A   1      40.657  25.849  25.436  1.00  0.00    -0.200 F 
ENDBRANCH  46  60
BRANCH  47  71
ATOM     71  C   UNL A   1      39.585  33.941  36.974  1.00  0.00     0.064 A 
ATOM     72  C   UNL A   1      38.824  33.504  38.067  1.00  0.00     0.173 A 
ATOM     73  C   UNL A   1      40.175  35.211  37.057  1.00  0.00     0.173 A 
ATOM     74  F   UNL A   1      38.224  32.306  38.027  1.00  0.00    -0.203 F 
ATOM     75  C   UNL A   1      38.627  34.319  39.180  1.00  0.00     0.198 A 
ATOM     76  C   UNL A   1      40.003  36.012  38.184  1.00  0.00     0.198 A 
ATOM     77  F   UNL A   1      40.917  35.676  36.042  1.00  0.00    -0.203 F 
ATOM     78  F   UNL A   1      37.842  33.901  40.182  1.00  0.00    -0.200 F 
ATOM     79  C   UNL A   1      39.219  35.571  39.239  1.00  0.00     0.200 A 
ATOM     80  F   UNL A   1      40.588  37.217  38.244  1.00  0.00    -0.200 F 
ATOM     81  F   UNL A   1      39.022  36.357  40.306  1.00  0.00    -0.200 F 
ENDBRANCH  47  71
BRANCH  59  82
ATOM     82  C   UNL A   1      43.951  28.816  35.205  1.00  0.00     0.064 A 
ATOM     83  C   UNL A   1      43.803  27.740  36.092  1.00  0.00     0.173 A 
ATOM     84  C   UNL A   1      45.248  29.290  34.954  1.00  0.00     0.173 A 
ATOM     85  F   UNL A   1      42.582  27.262  36.374  1.00  0.00    -0.203 F 
ATOM     86  C   UNL A   1      44.909  27.178  36.724  1.00  0.00     0.198 A 
ATOM     87  C   UNL A   1      46.354  28.705  35.566  1.00  0.00     0.198 A 
ATOM     88  F   UNL A   1      45.444  30.312  34.109  1.00  0.00    -0.203 F 
ATOM     89  F   UNL A   1      44.739  26.183  37.606  1.00  0.00    -0.200 F 
ATOM     90  C   UNL A   1      46.183  27.656  36.456  1.00  0.00     0.200 A 
ATOM     91  F   UNL A   1      47.585  29.159  35.294  1.00  0.00    -0.200 F 
ATOM     92  F   UNL A   1      47.246  27.109  37.061  1.00  0.00    -0.200 F 
ENDBRANCH  59  82
ENDBRANCH  33  34
ENDBRANCH  25  28
ENDBRANCH  23  24
ENDBRANCH  22  23
ENDBRANCH   1  22
TORSDOF 13
ENDMDL
MODEL 2
REMARK VINA RESULT:     -12.4      0.084      1.136
REMARK SMILES CN(C(=O)N1CCC(C(=O)NCCCCNC(=O)c2ccc(-c3c4nc(c(-c5c(F)c(F)c(F)c(F)c5F)c5ccc([nH]5)c(-c5c(F)c(F)c(F)c(F)c5F)c5nc(c(-c6c(F)c(F)c(F)c(F)c6F)c6ccc3[nH]6)C=C5)C=C4)cc2)CC1)[C@H]1CCSC1
REMARK SMILES IDX 13 1 12 2 11 3 9 4 10 5 8 7 3 8 4 9 5 10 6 11 83 12 7 13
REMARK SMILES IDX 82 14 2 15 1 16 84 17 85 18 88 19 86 20 87 21 14 22 15 23
REMARK SMILES IDX 16 24 17 25 18 27 19 28 20 29 81 30 21 31 80 32 22 33 23 34
REMARK SMILES IDX 24 35 74 36 25 37 79 38 73 39 75 40 26 41 78 42 72 43 71 44
REMARK SMILES IDX 27 46 59 47 39 48 58 49 40 50 43 51 57 52 76 53 41 54 42 55
REMARK SMILES IDX 56 57 77 58 44 59 28 60 29 61 37 62 30 63 31 64 35 65 38 66
REMARK SMILES IDX 32 67 33 68 36 69 34 70 60 71 61 72 69 73 62 74 63 75 67 76
REMARK SMILES IDX 70 77 64 78 65 79 68 80 66 81 45 82 46 83 54 84 47 85 48 86
REMARK SMILES IDX 52 87 55 88 49 89 50 90 53 91 51 92
REMARK H PARENT 11 6 16 26 75 45 43 56
REMARK Flexibility Score: inf
ROOT
ATOM      1  C   UNL A   1      31.776  30.532  26.835  1.00  0.00     0.023 C 
ENDROOT
BRANCH   1   2
ATOM      2  C   UNL A   1      33.214  30.025  26.799  1.00  0.00     0.116 C 
BRANCH   2   3
ATOM      3  N   UNL A   1      33.643  29.714  25.445  1.00  0.00    -0.356 N 
ATOM      4  C   UNL A   1      33.561  28.559  24.730  1.00  0.00     0.223 C 
ATOM      5  O   UNL A   1      34.023  28.557  23.586  1.00  0.00    -0.275 OA
ATOM      6  H   UNL A   1      34.061  30.466  24.965  1.00  0.00     0.163 HD
BRANCH   4   7
ATOM      7  C   UNL A   1      32.898  27.312  25.297  1.00  0.00     0.082 C 
ATOM      8  C   UNL A   1      32.498  23.447  24.098  1.00  0.00     0.320 C 
ATOM      9  O   UNL A   1      32.063  23.596  22.956  1.00  0.00    -0.248 OA
ATOM     10  N   UNL A   1      32.381  24.488  25.003  1.00  0.00    -0.325 N 
ATOM     11  C   UNL A   1      31.281  25.429  24.826  1.00  0.00     0.122 C 
ATOM     12  C   UNL A   1      33.374  24.891  25.994  1.00  0.00     0.122 C 
ATOM     13  C   UNL A   1      31.781  26.793  24.384  1.00  0.00     0.035 C 
ATOM     14  C   UNL A   1      33.951  26.272  25.703  1.00  0.00     0.035 C 
BRANCH   8  15
ATOM     15  N   UNL A   1      33.061  22.252  24.525  1.00  0.00    -0.324 N 
ATOM     16  C   UNL A   1      32.266  21.124  25.007  1.00  0.00     0.149 C 
BRANCH  15  17
ATOM     17  C   UNL A   1      34.492  21.929  24.288  1.00  0.00     0.097 C 
ATOM     18  C   UNL A   1      35.276  23.092  23.661  1.00  0.00     0.037 C 
ATOM     19  C   UNL A   1      35.375  21.476  25.463  1.00  0.00     0.094 C 
ATOM     20  C   UNL A   1      36.689  22.584  23.403  1.00  0.00     0.072 C 
ATOM     21  S   UNL A   1      37.064  21.453  24.768  1.00  0.00    -0.160 SA
ENDBRANCH  15  17
ENDBRANCH   8  15
ENDBRANCH   4   7
ENDBRANCH   2   3
ENDBRANCH   1   2
BRANCH   1  22
ATOM     22  C   UNL A   1      31.635  32.049  26.731  1.00  0.00     0.023 C 
BRANCH  22  23
ATOM     23  C   UNL A   1      32.804  32.847  27.295  1.00  0.00     0.116 C 
BRANCH  23  24
ATOM     24  N   UNL A   1      32.449  34.213  27.654  1.00  0.00    -0.352 N 
ATOM     25  C   UNL A   1      32.996  35.019  28.620  1.00  0.00     0.251 C 
ATOM     26  H   UNL A   1      31.716  34.612  27.133  1.00  0.00     0.163 HD
ATOM     27  O   UNL A   1      32.505  36.114  28.874  1.00  0.00    -0.269 OA
BRANCH  25  28
ATOM     28  C   UNL A   1      34.166  34.541  29.386  1.00  0.00     0.039 A 
ATOM     29  C   UNL A   1      33.957  33.940  30.629  1.00  0.00     0.014 A 
ATOM     30  C   UNL A   1      35.456  34.654  28.862  1.00  0.00     0.014 A 
ATOM     31  C   UNL A   1      35.038  33.386  31.315  1.00  0.00     0.010 A 
ATOM     32  C   UNL A   1      36.519  34.034  29.511  1.00  0.00     0.010 A 
ATOM     33  C   UNL A   1      36.321  33.392  30.743  1.00  0.00    -0.014 A 
BRANCH  33  34
ATOM     34  C   UNL A   1      37.468  32.735  31.418  1.00  0.00     0.031 A 
ATOM     35  C   UNL A   1      38.174  31.588  30.751  1.00  0.00     0.074 A 
ATOM     36  C   UNL A   1      37.834  33.131  32.652  1.00  0.00     0.049 A 
ATOM     37  N   UNL A   1      39.136  30.827  31.209  1.00  0.00    -0.248 NA
ATOM     38  C   UNL A   1      37.721  31.230  29.396  1.00  0.00     0.031 C 
ATOM     39  C   UNL A   1      37.200  34.204  33.421  1.00  0.00     0.029 A 
ATOM     40  N   UNL A   1      38.824  32.668  33.484  1.00  0.00    -0.354 N 
ATOM     41  C   UNL A   1      39.400  29.907  30.205  1.00  0.00     0.074 A 
ATOM     42  C   UNL A   1      38.456  30.159  29.139  1.00  0.00     0.031 C 
ATOM     43  C   UNL A   1      37.826  34.327  34.603  1.00  0.00     0.029 A 
ATOM     44  C   UNL A   1      38.878  33.320  34.693  1.00  0.00     0.049 A 
ATOM     45  H   UNL A   1      39.436  31.937  33.239  1.00  0.00     0.167 HD
ATOM     46  C   UNL A   1      40.363  28.956  30.162  1.00  0.00     0.037 A 
ATOM     47  C   UNL A   1      39.680  33.119  35.755  1.00  0.00     0.037 A 
ATOM     48  C   UNL A   1      41.312  28.715  31.216  1.00  0.00     0.049 A 
ATOM     49  C   UNL A   1      40.727  32.037  35.688  1.00  0.00     0.074 A 
ATOM     50  C   UNL A   1      42.338  27.788  31.261  1.00  0.00     0.029 A 
ATOM     51  N   UNL A   1      41.352  29.414  32.414  1.00  0.00    -0.354 N 
ATOM     52  N   UNL A   1      40.999  31.207  34.712  1.00  0.00    -0.248 NA
ATOM     53  C   UNL A   1      41.584  31.872  36.871  1.00  0.00     0.031 C 
ATOM     54  C   UNL A   1      42.978  27.903  32.499  1.00  0.00     0.029 A 
ATOM     55  C   UNL A   1      42.380  28.932  33.207  1.00  0.00     0.049 A 
ATOM     56  H   UNL A   1      40.739  30.144  32.664  1.00  0.00     0.167 HD
ATOM     57  C   UNL A   1      42.077  30.446  35.147  1.00  0.00     0.074 A 
ATOM     58  C   UNL A   1      42.420  30.926  36.469  1.00  0.00     0.031 C 
ATOM     59  C   UNL A   1      42.722  29.439  34.511  1.00  0.00     0.037 A 
BRANCH  46  60
ATOM     60  C   UNL A   1      40.455  28.118  28.921  1.00  0.00     0.064 A 
ATOM     61  C   UNL A   1      39.757  26.905  28.808  1.00  0.00     0.173 A 
ATOM     62  C   UNL A   1      41.205  28.549  27.817  1.00  0.00     0.173 A 
ATOM     63  F   UNL A   1      39.036  26.443  29.841  1.00  0.00    -0.203 F 
ATOM     64  C   UNL A   1      39.825  26.144  27.645  1.00  0.00     0.198 A 
ATOM     65  C   UNL A   1      41.247  27.799  26.643  1.00  0.00     0.198 A 
ATOM     66  F   UNL A   1      41.888  29.702  27.869  1.00  0.00    -0.203 F 
ATOM     67  F   UNL A   1      39.184  24.969  27.576  1.00  0.00    -0.200 F 
ATOM     68  C   UNL A   1      40.562  26.595  26.560  1.00  0.00     0.200 A 
ATOM     69  F   UNL A   1      41.949  28.243  25.592  1.00  0.00    -0.200 F 
ATOM     70  F   UNL A   1      40.617  25.868  25.437  1.00  0.00    -0.200 F 
ENDBRANCH  46  60
BRANCH  47  71
ATOM     71  C   UNL A   1      39.540  33.959  36.975  1.00  0.00     0.064 A 
ATOM     72  C   UNL A   1      38.771  33.525  38.064  1.00  0.00     0.173 A 
ATOM     73  C   UNL A   1      40.136  35.226  37.061  1.00  0.00     0.173 A 
ATOM     74  F   UNL A   1      38.165  32.330  38.021  1.00  0.00    -0.203 F 
ATOM     75  C   UNL A   1      38.574  34.340  39.177  1.00  0.00     0.198 A 
ATOM     76  C   UNL A   1      39.964  36.027  38.188  1.00  0.00     0.198 A 
ATOM     77  F   UNL A   1      40.886  35.687  36.050  1.00  0.00    -0.203 F 
ATOM     78  F   UNL A   1      37.782  33.925  40.175  1.00  0.00    -0.200 F 
ATOM     79  C   UNL A   1      39.173  35.589  39.239  1.00  0.00     0.200 A 
ATOM     80  F   UNL A   1      40.555  37.228  38.251  1.00  0.00    -0.200 F 
ATOM     81  F   UNL A   1      38.976  36.375  40.306  1.00  0.00    -0.200 F 
ENDBRANCH  47  71
BRANCH  59  82
ATOM     82  C   UNL A   1      43.895  28.822  35.214  1.00  0.00     0.064 A 
ATOM     83  C   UNL A   1      45.203  29.284  35.012  1.00  0.00     0.173 A 
ATOM     84  C   UNL A   1      43.700  27.777  36.132  1.00  0.00     0.173 A 
ATOM     85  F   UNL A   1      45.443  30.270  34.134  1.00  0.00    -0.203 F 
ATOM     86  C   UNL A   1      46.278  28.704  35.682  1.00  0.00     0.198 A 
ATOM     87  C   UNL A   1      44.774  27.221  36.822  1.00  0.00     0.198 A 
ATOM     88  F   UNL A   1      42.467  27.304  36.366  1.00  0.00    -0.203 F 
ATOM     89  F   UNL A   1      47.526  29.128  35.436  1.00  0.00    -0.200 F 
ATOM     90  C   UNL A   1      46.061  27.679  36.590  1.00  0.00     0.200 A 
ATOM     91  F   UNL A   1      44.560  26.241  37.710  1.00  0.00    -0.200 F 
ATOM     92  F   UNL A   1      47.096  27.127  37.239  1.00  0.00    -0.200 F 
ENDBRANCH  59  82
ENDBRANCH  33  34
ENDBRANCH  25  28
ENDBRANCH  23  24
ENDBRANCH  22  23
ENDBRANCH   1  22
TORSDOF 13
ENDMDL
MODEL 3
REMARK VINA RESULT:     -12.2      5.470      9.955
REMARK SMILES CN(C(=O)N1CCC(C(=O)NCCCCNC(=O)c2ccc(-c3c4nc(c(-c5c(F)c(F)c(F)c(F)c5F)c5ccc([nH]5)c(-c5c(F)c(F)c(F)c(F)c5F)c5nc(c(-c6c(F)c(F)c(F)c(F)c6F)c6ccc3[nH]6)C=C5)C=C4)cc2)CC1)[C@H]1CCSC1
REMARK SMILES IDX 13 1 12 2 11 3 9 4 10 5 8 7 3 8 4 9 5 10 6 11 83 12 7 13
REMARK SMILES IDX 82 14 2 15 1 16 84 17 85 18 88 19 86 20 87 21 14 22 15 23
REMARK SMILES IDX 16 24 17 25 18 27 19 28 20 29 81 30 21 31 80 32 22 33 23 34
REMARK SMILES IDX 24 35 74 36 25 37 79 38 73 39 75 40 26 41 78 42 72 43 71 44
REMARK SMILES IDX 27 46 59 47 39 48 58 49 40 50 43 51 57 52 76 53 41 54 42 55
REMARK SMILES IDX 56 57 77 58 44 59 28 60 29 61 37 62 30 63 31 64 35 65 38 66
REMARK SMILES IDX 32 67 33 68 36 69 34 70 60 71 61 72 69 73 62 74 63 75 67 76
REMARK SMILES IDX 70 77 64 78 65 79 68 80 66 81 45 82 46 83 54 84 47 85 48 86
REMARK SMILES IDX 52 87 55 88 49 89 50 90 53 91 51 92
REMARK H PARENT 11 6 16 26 75 45 43 56
REMARK Flexibility Score: inf
ROOT
ATOM      1  C   UNL A   1      36.945  21.029  24.915  1.00  0.00     0.023 C 
ENDROOT
BRANCH   1   2
ATOM      2  C   UNL A   1      35.517  20.500  25.002  1.00  0.00     0.116 C 
BRANCH   2   3
ATOM      3  N   UNL A   1      34.910  20.795  26.289  1.00  0.00    -0.356 N 
ATOM      4  C   UNL A   1      33.912  21.658  26.625  1.00  0.00     0.223 C 
ATOM      5  O   UNL A   1      33.590  21.731  27.814  1.00  0.00    -0.275 OA
ATOM      6  H   UNL A   1      35.282  20.284  27.045  1.00  0.00     0.163 HD
BRANCH   4   7
ATOM      7  C   UNL A   1      33.188  22.490  25.577  1.00  0.00     0.082 C 
ATOM      8  C   UNL A   1      30.959  25.891  25.615  1.00  0.00     0.320 C 
ATOM      9  O   UNL A   1      30.137  25.627  26.493  1.00  0.00    -0.248 OA
ATOM     10  N   UNL A   1      31.639  24.855  24.998  1.00  0.00    -0.325 N 
ATOM     11  C   UNL A   1      30.989  23.552  24.932  1.00  0.00     0.122 C 
ATOM     12  C   UNL A   1      33.044  24.857  24.600  1.00  0.00     0.122 C 
ATOM     13  C   UNL A   1      31.677  22.540  25.830  1.00  0.00     0.035 C 
ATOM     14  C   UNL A   1      33.870  23.854  25.399  1.00  0.00     0.035 C 
BRANCH   8  15
ATOM     15  N   UNL A   1      31.194  27.191  25.190  1.00  0.00    -0.324 N 
ATOM     16  C   UNL A   1      30.612  27.748  23.970  1.00  0.00     0.149 C 
BRANCH  15  17
ATOM     17  C   UNL A   1      31.846  28.199  26.066  1.00  0.00     0.097 C 
ATOM     18  C   UNL A   1      33.345  27.937  26.274  1.00  0.00     0.037 C 
ATOM     19  C   UNL A   1      31.778  29.690  25.693  1.00  0.00     0.094 C 
ATOM     20  C   UNL A   1      33.847  28.992  27.251  1.00  0.00     0.072 C 
ATOM     21  S   UNL A   1      32.910  30.497  26.876  1.00  0.00    -0.160 SA
ENDBRANCH  15  17
ENDBRANCH   8  15
ENDBRANCH   4   7
ENDBRANCH   2   3
ENDBRANCH   1   2
BRANCH   1  22
ATOM     22  C   UNL A   1      38.026  19.953  24.989  1.00  0.00     0.023 C 
BRANCH  22  23
ATOM     23  C   UNL A   1      39.139  20.221  25.995  1.00  0.00     0.116 C 
BRANCH  23  24
ATOM     24  N   UNL A   1      40.174  19.198  25.995  1.00  0.00    -0.352 N 
ATOM     25  C   UNL A   1      41.532  19.346  26.126  1.00  0.00     0.251 C 
ATOM     26  H   UNL A   1      39.857  18.272  25.885  1.00  0.00     0.163 HD
ATOM     27  O   UNL A   1      42.283  18.386  25.992  1.00  0.00    -0.269 OA
BRANCH  25  28
ATOM     28  C   UNL A   1      42.092  20.687  26.394  1.00  0.00     0.039 A 
ATOM     29  C   UNL A   1      42.385  21.523  25.314  1.00  0.00     0.014 A 
ATOM     30  C   UNL A   1      42.291  21.128  27.705  1.00  0.00     0.014 A 
ATOM     31  C   UNL A   1      42.810  22.830  25.550  1.00  0.00     0.010 A 
ATOM     32  C   UNL A   1      42.641  22.454  27.938  1.00  0.00     0.010 A 
ATOM     33  C   UNL A   1      42.902  23.320  26.864  1.00  0.00    -0.014 A 
BRANCH  33  34
ATOM     34  C   UNL A   1      43.273  24.730  27.135  1.00  0.00     0.031 A 
ATOM     35  C   UNL A   1      44.677  25.200  26.878  1.00  0.00     0.074 A 
ATOM     36  C   UNL A   1      42.364  25.570  27.668  1.00  0.00     0.049 A 
ATOM     37  N   UNL A   1      45.222  26.364  27.130  1.00  0.00    -0.248 NA
ATOM     38  C   UNL A   1      45.602  24.223  26.280  1.00  0.00     0.031 C 
ATOM     39  C   UNL A   1      40.981  25.222  28.002  1.00  0.00     0.029 A 
ATOM     40  N   UNL A   1      42.471  26.890  28.033  1.00  0.00    -0.354 N 
ATOM     41  C   UNL A   1      46.545  26.257  26.726  1.00  0.00     0.074 A 
ATOM     42  C   UNL A   1      46.742  24.898  26.270  1.00  0.00     0.031 C 
ATOM     43  C   UNL A   1      40.365  26.303  28.507  1.00  0.00     0.029 A 
ATOM     44  C   UNL A   1      41.316  27.408  28.569  1.00  0.00     0.049 A 
ATOM     45  H   UNL A   1      43.296  27.414  27.923  1.00  0.00     0.167 HD
ATOM     46  C   UNL A   1      47.502  27.215  26.704  1.00  0.00     0.037 A 
ATOM     47  C   UNL A   1      41.060  28.634  29.063  1.00  0.00     0.037 A 
ATOM     48  C   UNL A   1      47.302  28.570  27.143  1.00  0.00     0.049 A 
ATOM     49  C   UNL A   1      42.151  29.672  29.050  1.00  0.00     0.074 A 
ATOM     50  C   UNL A   1      48.203  29.620  27.145  1.00  0.00     0.029 A 
ATOM     51  N   UNL A   1      46.111  29.065  27.654  1.00  0.00    -0.354 N 
ATOM     52  N   UNL A   1      43.384  29.573  28.616  1.00  0.00    -0.248 NA
ATOM     53  C   UNL A   1      41.811  30.997  29.588  1.00  0.00     0.031 C 
ATOM     54  C   UNL A   1      47.568  30.741  27.688  1.00  0.00     0.029 A 
ATOM     55  C   UNL A   1      46.257  30.403  27.982  1.00  0.00     0.049 A 
ATOM     56  H   UNL A   1      45.283  28.542  27.768  1.00  0.00     0.167 HD
ATOM     57  C   UNL A   1      43.955  30.826  28.797  1.00  0.00     0.074 A 
ATOM     58  C   UNL A   1      42.928  31.674  29.363  1.00  0.00     0.031 C 
ATOM     59  C   UNL A   1      45.216  31.238  28.522  1.00  0.00     0.037 A 
BRANCH  46  60
ATOM     60  C   UNL A   1      48.851  26.835  26.167  1.00  0.00     0.064 A 
ATOM     61  C   UNL A   1      49.177  27.033  24.816  1.00  0.00     0.173 A 
ATOM     62  C   UNL A   1      49.841  26.316  27.013  1.00  0.00     0.173 A 
ATOM     63  F   UNL A   1      48.261  27.514  23.963  1.00  0.00    -0.203 F 
ATOM     64  C   UNL A   1      50.439  26.703  24.328  1.00  0.00     0.198 A 
ATOM     65  C   UNL A   1      51.112  26.015  26.527  1.00  0.00     0.198 A 
ATOM     66  F   UNL A   1      49.583  26.112  28.313  1.00  0.00    -0.203 F 
ATOM     67  F   UNL A   1      50.714  26.861  23.025  1.00  0.00    -0.200 F 
ATOM     68  C   UNL A   1      51.407  26.204  25.185  1.00  0.00     0.200 A 
ATOM     69  F   UNL A   1      52.051  25.544  27.359  1.00  0.00    -0.200 F 
ATOM     70  F   UNL A   1      52.625  25.898  24.717  1.00  0.00    -0.200 F 
ENDBRANCH  46  60
BRANCH  47  71
ATOM     71  C   UNL A   1      39.714  28.961  29.606  1.00  0.00     0.064 A 
ATOM     72  C   UNL A   1      39.402  28.722  30.952  1.00  0.00     0.173 A 
ATOM     73  C   UNL A   1      38.702  29.481  28.785  1.00  0.00     0.173 A 
ATOM     74  F   UNL A   1      40.331  28.207  31.771  1.00  0.00    -0.203 F 
ATOM     75  C   UNL A   1      38.121  28.955  31.447  1.00  0.00     0.198 A 
ATOM     76  C   UNL A   1      37.430  29.743  29.290  1.00  0.00     0.198 A 
ATOM     77  F   UNL A   1      38.947  29.733  27.492  1.00  0.00    -0.203 F 
ATOM     78  F   UNL A   1      37.835  28.656  32.722  1.00  0.00    -0.200 F 
ATOM     79  C   UNL A   1      37.137  29.467  30.617  1.00  0.00     0.200 A 
ATOM     80  F   UNL A   1      36.484  30.251  28.488  1.00  0.00    -0.200 F 
ATOM     81  F   UNL A   1      35.903  29.683  31.093  1.00  0.00    -0.200 F 
ENDBRANCH  47  71
BRANCH  59  82
ATOM     82  C   UNL A   1      45.541  32.679  28.783  1.00  0.00     0.064 A 
ATOM     83  C   UNL A   1      46.101  33.101  29.996  1.00  0.00     0.173 A 
ATOM     84  C   UNL A   1      45.323  33.644  27.787  1.00  0.00     0.173 A 
ATOM     85  F   UNL A   1      46.315  32.219  30.985  1.00  0.00    -0.203 F 
ATOM     86  C   UNL A   1      46.405  34.442  30.215  1.00  0.00     0.198 A 
ATOM     87  C   UNL A   1      45.657  34.979  27.999  1.00  0.00     0.198 A 
ATOM     88  F   UNL A   1      44.797  33.290  26.605  1.00  0.00    -0.203 F 
ATOM     89  F   UNL A   1      46.894  34.831  31.402  1.00  0.00    -0.200 F 
ATOM     90  C   UNL A   1      46.190  35.378  29.215  1.00  0.00     0.200 A 
ATOM     91  F   UNL A   1      45.461  35.878  27.025  1.00  0.00    -0.200 F 
ATOM     92  F   UNL A   1      46.490  36.667  29.425  1.00  0.00    -0.200 F 
ENDBRANCH  59  82
ENDBRANCH  33  34
ENDBRANCH  25  28
ENDBRANCH  23  24
ENDBRANCH  22  23
ENDBRANCH   1  22
TORSDOF 13
ENDMDL
