MODEL 1
REMARK VINA RESULT:     -13.8      0.000      0.000
REMARK SMILES Cc1ccc(C(=O)Nc2cccc(F)c2C(=O)NCCCCNC(=O)c2ccc(-c3c4nc(c(-c5c(F)c(F)c(F)c(F)c5F)c5ccc([nH]5)c(-c5c(F)c(F)c(F)c(F)c5F)c5nc(c(-c6c(F)c(F)c(F)c(F)c6F)c6ccc3[nH]6)C=C5)C=C4)cc2)c(F)c1
REMARK SMILES IDX 20 1 19 2 18 3 16 4 17 5 15 7 9 8 10 9 11 10 13 11 12 12
REMARK SMILES IDX 14 13 8 14 6 15 7 16 5 18 1 19 2 20 3 21 91 22 4 23 89 24
REMARK SMILES IDX 90 25 21 26 22 27 23 28 24 29 25 31 26 32 27 33 88 34 28 35
REMARK SMILES IDX 87 36 29 37 30 38 31 39 81 40 32 41 86 42 80 43 82 44 33 45
REMARK SMILES IDX 85 46 79 47 78 48 34 50 66 51 46 52 65 53 47 54 50 55 64 56
REMARK SMILES IDX 83 57 48 58 49 59 63 61 84 62 51 63 35 64 36 65 44 66 37 67
REMARK SMILES IDX 38 68 42 69 45 70 39 71 40 72 43 73 41 74 67 75 68 76 76 77
REMARK SMILES IDX 69 78 70 79 74 80 77 81 71 82 72 83 75 84 73 85 52 86 53 87
REMARK SMILES IDX 61 88 54 89 55 90 59 91 62 92 56 93 57 94 60 95 58 96
REMARK H PARENT 18 6 8 17 23 30 82 49 50 60
REMARK Flexibility Score: inf
ROOT
ATOM      1  C   UNL A   1      33.440  28.766  24.285  1.00  0.00     0.023 C 
ENDROOT
BRANCH   1   2
ATOM      2  C   UNL A   1      32.183  28.659  23.429  1.00  0.00     0.116 C 
BRANCH   2   3
ATOM      3  N   UNL A   1      32.251  27.607  22.434  1.00  0.00    -0.352 N 
ATOM      4  C   UNL A   1      32.235  26.237  22.549  1.00  0.00     0.256 C 
ATOM      5  O   UNL A   1      32.429  25.593  21.517  1.00  0.00    -0.269 OA
ATOM      6  H   UNL A   1      32.321  27.932  21.508  1.00  0.00     0.163 HD
BRANCH   4   7
ATOM      7  C   UNL A   1      32.099  25.529  23.853  1.00  0.00     0.099 A 
ATOM      8  C   UNL A   1      33.219  24.946  24.476  1.00  0.00     0.057 A 
ATOM      9  C   UNL A   1      33.136  24.484  25.800  1.00  0.00     0.027 A 
ATOM     10  C   UNL A   1      31.906  24.452  26.455  1.00  0.00     0.005 A 
ATOM     11  C   UNL A   1      30.862  25.276  24.447  1.00  0.00     0.138 A 
ATOM     12  C   UNL A   1      30.757  24.786  25.748  1.00  0.00     0.040 A 
ATOM     13  F   UNL A   1      29.722  25.385  23.745  1.00  0.00    -0.206 F 
BRANCH   8  14
ATOM     14  N   UNL A   1      34.367  24.652  23.713  1.00  0.00    -0.321 N 
ATOM     15  C   UNL A   1      34.899  23.403  23.409  1.00  0.00     0.258 C 
ATOM     16  O   UNL A   1      35.924  23.356  22.729  1.00  0.00    -0.269 OA
ATOM     17  H   UNL A   1      34.854  25.428  23.351  1.00  0.00     0.170 HD
BRANCH  15  18
ATOM     18  C   UNL A   1      34.212  22.126  23.782  1.00  0.00     0.075 A 
ATOM     19  C   UNL A   1      32.329  18.303  24.535  1.00  0.00     0.044 C 
ATOM     20  C   UNL A   1      32.954  19.646  24.313  1.00  0.00    -0.048 A 
ATOM     21  C   UNL A   1      34.101  20.018  25.010  1.00  0.00     0.004 A 
ATOM     22  C   UNL A   1      32.372  20.572  23.440  1.00  0.00     0.043 A 
ATOM     23  C   UNL A   1      34.689  21.266  24.782  1.00  0.00     0.017 A 
ATOM     24  C   UNL A   1      33.006  21.789  23.168  1.00  0.00     0.136 A 
ATOM     25  F   UNL A   1      32.416  22.610  22.288  1.00  0.00    -0.206 F 
ENDBRANCH  15  18
ENDBRANCH   8  14
ENDBRANCH   4   7
ENDBRANCH   2   3
ENDBRANCH   1   2
BRANCH   1  26
ATOM     26  C   UNL A   1      33.275  28.417  25.760  1.00  0.00     0.023 C 
BRANCH  26  27
ATOM     27  C   UNL A   1      34.466  28.818  26.600  1.00  0.00     0.116 C 
BRANCH  27  28
ATOM     28  N   UNL A   1      34.468  30.245  26.935  1.00  0.00    -0.352 N 
ATOM     29  C   UNL A   1      35.262  30.881  27.873  1.00  0.00     0.251 C 
ATOM     30  H   UNL A   1      33.835  30.814  26.439  1.00  0.00     0.163 HD
ATOM     31  O   UNL A   1      34.992  31.976  28.324  1.00  0.00    -0.269 OA
BRANCH  29  32
ATOM     32  C   UNL A   1      36.495  30.182  28.253  1.00  0.00     0.039 A 
ATOM     33  C   UNL A   1      36.627  29.437  29.429  1.00  0.00     0.014 A 
ATOM     34  C   UNL A   1      37.530  30.281  27.330  1.00  0.00     0.014 A 
ATOM     35  C   UNL A   1      37.824  28.766  29.654  1.00  0.00     0.010 A 
ATOM     36  C   UNL A   1      38.567  29.419  27.417  1.00  0.00     0.010 A 
ATOM     37  C   UNL A   1      38.778  28.778  28.634  1.00  0.00    -0.014 A 
BRANCH  37  38
ATOM     38  C   UNL A   1      40.127  28.269  28.730  1.00  0.00     0.031 A 
ATOM     39  C   UNL A   1      40.384  26.877  28.377  1.00  0.00     0.074 A 
ATOM     40  C   UNL A   1      41.053  29.236  28.935  1.00  0.00     0.049 A 
ATOM     41  N   UNL A   1      41.329  26.166  28.872  1.00  0.00    -0.248 NA
ATOM     42  C   UNL A   1      39.533  26.134  27.451  1.00  0.00     0.031 C 
ATOM     43  C   UNL A   1      42.492  29.250  28.765  1.00  0.00     0.029 A 
ATOM     44  N   UNL A   1      40.773  30.517  29.454  1.00  0.00    -0.354 N 
ATOM     45  C   UNL A   1      41.460  25.065  28.051  1.00  0.00     0.074 A 
ATOM     46  C   UNL A   1      40.211  24.986  27.336  1.00  0.00     0.031 C 
ATOM     47  C   UNL A   1      42.993  30.288  29.467  1.00  0.00     0.029 A 
ATOM     48  C   UNL A   1      41.891  30.898  30.200  1.00  0.00     0.049 A 
ATOM     49  H   UNL A   1      39.951  31.041  29.317  1.00  0.00     0.167 HD
ATOM     50  C   UNL A   1      42.705  24.519  27.912  1.00  0.00     0.037 A 
ATOM     51  C   UNL A   1      41.744  30.945  31.558  1.00  0.00     0.037 A 
ATOM     52  C   UNL A   1      43.658  25.303  28.705  1.00  0.00     0.049 A 
ATOM     53  C   UNL A   1      42.531  29.833  32.195  1.00  0.00     0.074 A 
ATOM     54  C   UNL A   1      44.518  26.328  28.342  1.00  0.00     0.029 A 
ATOM     55  N   UNL A   1      43.518  25.374  30.088  1.00  0.00    -0.354 N 
ATOM     56  N   UNL A   1      42.753  28.677  31.631  1.00  0.00    -0.248 NA
ATOM     57  C   UNL A   1      43.221  29.996  33.466  1.00  0.00     0.031 C 
ATOM     58  C   UNL A   1      44.836  27.062  29.515  1.00  0.00     0.029 A 
ATOM     59  C   UNL A   1      44.174  26.485  30.586  1.00  0.00     0.049 A 
ATOM     60  H   UNL A   1      43.022  24.724  30.635  1.00  0.00     0.167 HD
ATOM     61  C   UNL A   1      43.658  27.982  32.386  1.00  0.00     0.074 A 
ATOM     62  C   UNL A   1      43.907  28.843  33.531  1.00  0.00     0.031 C 
ATOM     63  C   UNL A   1      44.178  26.774  32.011  1.00  0.00     0.037 A 
BRANCH  50  64
ATOM     64  C   UNL A   1      43.156  23.547  26.836  1.00  0.00     0.064 A 
ATOM     65  C   UNL A   1      42.897  22.162  26.981  1.00  0.00     0.173 A 
ATOM     66  C   UNL A   1      43.856  23.882  25.660  1.00  0.00     0.173 A 
ATOM     67  F   UNL A   1      42.157  21.690  27.994  1.00  0.00    -0.203 F 
ATOM     68  C   UNL A   1      43.373  21.200  26.086  1.00  0.00     0.198 A 
ATOM     69  C   UNL A   1      44.352  22.916  24.774  1.00  0.00     0.198 A 
ATOM     70  F   UNL A   1      44.043  25.149  25.287  1.00  0.00    -0.203 F 
ATOM     71  F   UNL A   1      43.101  19.905  26.297  1.00  0.00    -0.200 F 
ATOM     72  C   UNL A   1      44.120  21.575  24.991  1.00  0.00     0.200 A 
ATOM     73  F   UNL A   1      45.052  23.303  23.697  1.00  0.00    -0.200 F 
ATOM     74  F   UNL A   1      44.585  20.655  24.136  1.00  0.00    -0.200 F 
ENDBRANCH  50  64
BRANCH  51  75
ATOM     75  C   UNL A   1      40.375  31.419  31.957  1.00  0.00     0.064 A 
ATOM     76  C   UNL A   1      39.496  30.450  32.488  1.00  0.00     0.173 A 
ATOM     77  C   UNL A   1      40.092  32.761  32.249  1.00  0.00     0.173 A 
ATOM     78  F   UNL A   1      39.704  29.147  32.232  1.00  0.00    -0.203 F 
ATOM     79  C   UNL A   1      38.496  30.788  33.399  1.00  0.00     0.198 A 
ATOM     80  C   UNL A   1      39.061  33.101  33.135  1.00  0.00     0.198 A 
ATOM     81  F   UNL A   1      40.872  33.740  31.770  1.00  0.00    -0.203 F 
ATOM     82  F   UNL A   1      37.788  29.823  34.004  1.00  0.00    -0.200 F 
ATOM     83  C   UNL A   1      38.299  32.112  33.745  1.00  0.00     0.200 A 
ATOM     84  F   UNL A   1      38.857  34.385  33.464  1.00  0.00    -0.200 F 
ATOM     85  F   UNL A   1      37.400  32.430  34.687  1.00  0.00    -0.200 F 
ENDBRANCH  51  75
BRANCH  63  86
ATOM     86  C   UNL A   1      44.879  25.817  32.941  1.00  0.00     0.064 A 
ATOM     87  C   UNL A   1      46.263  25.581  32.907  1.00  0.00     0.173 A 
ATOM     88  C   UNL A   1      44.186  25.202  34.014  1.00  0.00     0.173 A 
ATOM     89  F   UNL A   1      47.067  26.238  32.064  1.00  0.00    -0.203 F 
ATOM     90  C   UNL A   1      46.882  24.696  33.789  1.00  0.00     0.198 A 
ATOM     91  C   UNL A   1      44.824  24.390  34.946  1.00  0.00     0.198 A 
ATOM     92  F   UNL A   1      42.874  25.394  34.216  1.00  0.00    -0.203 F 
ATOM     93  F   UNL A   1      48.190  24.439  33.653  1.00  0.00    -0.200 F 
ATOM     94  C   UNL A   1      46.165  24.106  34.811  1.00  0.00     0.200 A 
ATOM     95  F   UNL A   1      44.131  23.898  35.982  1.00  0.00    -0.200 F 
ATOM     96  F   UNL A   1      46.773  23.289  35.680  1.00  0.00    -0.200 F 
ENDBRANCH  63  86
ENDBRANCH  37  38
ENDBRANCH  29  32
ENDBRANCH  27  28
ENDBRANCH  26  27
ENDBRANCH   1  26
TORSDOF 13
ENDMDL
MODEL 2
REMARK VINA RESULT:     -13.8      3.143      9.262
REMARK SMILES Cc1ccc(C(=O)Nc2cccc(F)c2C(=O)NCCCCNC(=O)c2ccc(-c3c4nc(c(-c5c(F)c(F)c(F)c(F)c5F)c5ccc([nH]5)c(-c5c(F)c(F)c(F)c(F)c5F)c5nc(c(-c6c(F)c(F)c(F)c(F)c6F)c6ccc3[nH]6)C=C5)C=C4)cc2)c(F)c1
REMARK SMILES IDX 20 1 19 2 18 3 16 4 17 5 15 7 9 8 10 9 11 10 13 11 12 12
REMARK SMILES IDX 14 13 8 14 6 15 7 16 5 18 1 19 2 20 3 21 91 22 4 23 89 24
REMARK SMILES IDX 90 25 21 26 22 27 23 28 24 29 25 31 26 32 27 33 88 34 28 35
REMARK SMILES IDX 87 36 29 37 30 38 31 39 81 40 32 41 86 42 80 43 82 44 33 45
REMARK SMILES IDX 85 46 79 47 78 48 34 50 66 51 46 52 65 53 47 54 50 55 64 56
REMARK SMILES IDX 83 57 48 58 49 59 63 61 84 62 51 63 35 64 36 65 44 66 37 67
REMARK SMILES IDX 38 68 42 69 45 70 39 71 40 72 43 73 41 74 67 75 68 76 76 77
REMARK SMILES IDX 69 78 70 79 74 80 77 81 71 82 72 83 75 84 73 85 52 86 53 87
REMARK SMILES IDX 61 88 54 89 55 90 59 91 62 92 56 93 57 94 60 95 58 96
REMARK H PARENT 18 6 8 17 23 30 82 49 50 60
REMARK Flexibility Score: inf
ROOT
ATOM      1  C   UNL A   1      34.930  22.547  26.606  1.00  0.00     0.023 C 
ENDROOT
BRANCH   1   2
ATOM      2  C   UNL A   1      33.956  21.460  26.166  1.00  0.00     0.116 C 
BRANCH   2   3
ATOM      3  N   UNL A   1      32.563  21.841  26.306  1.00  0.00    -0.352 N 
ATOM      4  C   UNL A   1      31.819  22.823  25.696  1.00  0.00     0.256 C 
ATOM      5  O   UNL A   1      30.671  22.984  26.113  1.00  0.00    -0.269 OA
ATOM      6  H   UNL A   1      32.060  21.299  26.955  1.00  0.00     0.163 HD
BRANCH   4   7
ATOM      7  C   UNL A   1      32.368  23.736  24.655  1.00  0.00     0.099 A 
ATOM      8  C   UNL A   1      32.824  25.024  24.996  1.00  0.00     0.057 A 
ATOM      9  C   UNL A   1      33.546  25.791  24.066  1.00  0.00     0.027 A 
ATOM     10  C   UNL A   1      33.680  25.352  22.750  1.00  0.00     0.005 A 
ATOM     11  C   UNL A   1      32.325  23.437  23.293  1.00  0.00     0.138 A 
ATOM     12  C   UNL A   1      33.008  24.205  22.350  1.00  0.00     0.040 A 
ATOM     13  F   UNL A   1      31.529  22.463  22.823  1.00  0.00    -0.206 F 
BRANCH   8  14
ATOM     14  N   UNL A   1      32.396  25.620  26.199  1.00  0.00    -0.321 N 
ATOM     15  C   UNL A   1      31.588  26.741  26.361  1.00  0.00     0.258 C 
ATOM     16  O   UNL A   1      31.331  27.114  27.505  1.00  0.00    -0.269 OA
ATOM     17  H   UNL A   1      32.708  25.190  27.028  1.00  0.00     0.170 HD
BRANCH  15  18
ATOM     18  C   UNL A   1      30.938  27.436  25.205  1.00  0.00     0.075 A 
ATOM     19  C   UNL A   1      28.761  29.484  22.074  1.00  0.00     0.044 C 
ATOM     20  C   UNL A   1      29.548  28.758  23.123  1.00  0.00    -0.048 A 
ATOM     21  C   UNL A   1      30.626  29.376  23.754  1.00  0.00     0.004 A 
ATOM     22  C   UNL A   1      29.248  27.432  23.455  1.00  0.00     0.043 A 
ATOM     23  C   UNL A   1      31.342  28.698  24.745  1.00  0.00     0.017 A 
ATOM     24  C   UNL A   1      29.926  26.788  24.495  1.00  0.00     0.136 A 
ATOM     25  F   UNL A   1      29.558  25.534  24.790  1.00  0.00    -0.206 F 
ENDBRANCH  15  18
ENDBRANCH   8  14
ENDBRANCH   4   7
ENDBRANCH   2   3
ENDBRANCH   1   2
BRANCH   1  26
ATOM     26  C   UNL A   1      35.924  23.018  25.551  1.00  0.00     0.023 C 
BRANCH  26  27
ATOM     27  C   UNL A   1      37.128  23.717  26.143  1.00  0.00     0.116 C 
BRANCH  27  28
ATOM     28  N   UNL A   1      38.272  22.817  26.324  1.00  0.00    -0.352 N 
ATOM     29  C   UNL A   1      39.590  23.179  26.539  1.00  0.00     0.251 C 
ATOM     30  H   UNL A   1      38.081  21.852  26.290  1.00  0.00     0.163 HD
ATOM     31  O   UNL A   1      40.515  22.413  26.357  1.00  0.00    -0.269 OA
BRANCH  29  32
ATOM     32  C   UNL A   1      39.811  24.531  27.065  1.00  0.00     0.039 A 
ATOM     33  C   UNL A   1      40.315  25.583  26.295  1.00  0.00     0.014 A 
ATOM     34  C   UNL A   1      39.442  24.707  28.393  1.00  0.00     0.014 A 
ATOM     35  C   UNL A   1      40.424  26.838  26.884  1.00  0.00     0.010 A 
ATOM     36  C   UNL A   1      39.290  25.964  28.867  1.00  0.00     0.010 A 
ATOM     37  C   UNL A   1      39.908  26.999  28.172  1.00  0.00    -0.014 A 
BRANCH  37  38
ATOM     38  C   UNL A   1      40.052  28.173  29.002  1.00  0.00     0.031 A 
ATOM     39  C   UNL A   1      39.049  29.229  28.913  1.00  0.00     0.074 A 
ATOM     40  C   UNL A   1      41.015  28.048  29.946  1.00  0.00     0.049 A 
ATOM     41  N   UNL A   1      39.279  30.468  29.150  1.00  0.00    -0.248 NA
ATOM     42  C   UNL A   1      37.677  28.972  28.481  1.00  0.00     0.031 C 
ATOM     43  C   UNL A   1      41.277  28.788  31.164  1.00  0.00     0.029 A 
ATOM     44  N   UNL A   1      42.076  27.121  29.892  1.00  0.00    -0.354 N 
ATOM     45  C   UNL A   1      38.047  31.069  29.307  1.00  0.00     0.074 A 
ATOM     46  C   UNL A   1      37.113  30.168  28.680  1.00  0.00     0.031 C 
ATOM     47  C   UNL A   1      42.552  28.548  31.541  1.00  0.00     0.029 A 
ATOM     48  C   UNL A   1      43.173  27.734  30.503  1.00  0.00     0.049 A 
ATOM     49  H   UNL A   1      42.050  26.218  29.500  1.00  0.00     0.167 HD
ATOM     50  C   UNL A   1      37.960  32.128  30.166  1.00  0.00     0.037 A 
ATOM     51  C   UNL A   1      44.211  28.100  29.694  1.00  0.00     0.037 A 
ATOM     52  C   UNL A   1      39.280  32.364  30.763  1.00  0.00     0.049 A 
ATOM     53  C   UNL A   1      44.276  29.600  29.597  1.00  0.00     0.074 A 
ATOM     54  C   UNL A   1      39.818  31.956  31.973  1.00  0.00     0.029 A 
ATOM     55  N   UNL A   1      40.353  32.726  29.953  1.00  0.00    -0.354 N 
ATOM     56  N   UNL A   1      43.236  30.385  29.672  1.00  0.00    -0.248 NA
ATOM     57  C   UNL A   1      45.538  30.321  29.525  1.00  0.00     0.031 C 
ATOM     58  C   UNL A   1      41.232  32.007  31.857  1.00  0.00     0.029 A 
ATOM     59  C   UNL A   1      41.552  32.445  30.582  1.00  0.00     0.049 A 
ATOM     60  H   UNL A   1      40.269  33.126  29.057  1.00  0.00     0.167 HD
ATOM     61  C   UNL A   1      43.664  31.682  29.746  1.00  0.00     0.074 A 
ATOM     62  C   UNL A   1      45.111  31.590  29.633  1.00  0.00     0.031 C 
ATOM     63  C   UNL A   1      42.821  32.741  29.938  1.00  0.00     0.037 A 
BRANCH  50  64
ATOM     64  C   UNL A   1      36.691  32.722  30.752  1.00  0.00     0.064 A 
ATOM     65  C   UNL A   1      35.922  33.636  29.990  1.00  0.00     0.173 A 
ATOM     66  C   UNL A   1      36.177  32.471  32.039  1.00  0.00     0.173 A 
ATOM     67  F   UNL A   1      36.220  33.907  28.712  1.00  0.00    -0.203 F 
ATOM     68  C   UNL A   1      34.804  34.301  30.501  1.00  0.00     0.198 A 
ATOM     69  C   UNL A   1      35.069  33.154  32.559  1.00  0.00     0.198 A 
ATOM     70  F   UNL A   1      36.684  31.521  32.828  1.00  0.00    -0.203 F 
ATOM     71  F   UNL A   1      34.134  35.165  29.725  1.00  0.00    -0.200 F 
ATOM     72  C   UNL A   1      34.388  34.076  31.794  1.00  0.00     0.200 A 
ATOM     73  F   UNL A   1      34.662  32.899  33.811  1.00  0.00    -0.200 F 
ATOM     74  F   UNL A   1      33.322  34.719  32.289  1.00  0.00    -0.200 F 
ENDBRANCH  50  64
BRANCH  51  75
ATOM     75  C   UNL A   1      44.423  27.118  28.577  1.00  0.00     0.064 A 
ATOM     76  C   UNL A   1      44.062  27.542  27.279  1.00  0.00     0.173 A 
ATOM     77  C   UNL A   1      45.327  26.050  28.668  1.00  0.00     0.173 A 
ATOM     78  F   UNL A   1      43.188  28.550  27.125  1.00  0.00    -0.203 F 
ATOM     79  C   UNL A   1      44.699  27.045  26.143  1.00  0.00     0.198 A 
ATOM     80  C   UNL A   1      45.938  25.527  27.520  1.00  0.00     0.198 A 
ATOM     81  F   UNL A   1      45.708  25.581  29.864  1.00  0.00    -0.203 F 
ATOM     82  F   UNL A   1      44.445  27.588  24.942  1.00  0.00    -0.200 F 
ATOM     83  C   UNL A   1      45.659  26.058  26.267  1.00  0.00     0.200 A 
ATOM     84  F   UNL A   1      46.860  24.560  27.635  1.00  0.00    -0.200 F 
ATOM     85  F   UNL A   1      46.336  25.645  25.187  1.00  0.00    -0.200 F 
ENDBRANCH  51  75
BRANCH  63  86
ATOM     86  C   UNL A   1      43.179  34.181  29.672  1.00  0.00     0.064 A 
ATOM     87  C   UNL A   1      43.374  35.129  30.690  1.00  0.00     0.173 A 
ATOM     88  C   UNL A   1      43.486  34.628  28.362  1.00  0.00     0.173 A 
ATOM     89  F   UNL A   1      43.299  34.796  31.984  1.00  0.00    -0.203 F 
ATOM     90  C   UNL A   1      43.715  36.452  30.411  1.00  0.00     0.198 A 
ATOM     91  C   UNL A   1      43.913  35.925  28.098  1.00  0.00     0.198 A 
ATOM     92  F   UNL A   1      43.415  33.814  27.299  1.00  0.00    -0.203 F 
ATOM     93  F   UNL A   1      43.799  37.335  31.413  1.00  0.00    -0.200 F 
ATOM     94  C   UNL A   1      43.991  36.848  29.116  1.00  0.00     0.200 A 
ATOM     95  F   UNL A   1      44.260  36.267  26.849  1.00  0.00    -0.200 F 
ATOM     96  F   UNL A   1      44.357  38.109  28.858  1.00  0.00    -0.200 F 
ENDBRANCH  63  86
ENDBRANCH  37  38
ENDBRANCH  29  32
ENDBRANCH  27  28
ENDBRANCH  26  27
ENDBRANCH   1  26
TORSDOF 13
ENDMDL
MODEL 3
REMARK VINA RESULT:     -13.8      1.559      2.085
REMARK SMILES Cc1ccc(C(=O)Nc2cccc(F)c2C(=O)NCCCCNC(=O)c2ccc(-c3c4nc(c(-c5c(F)c(F)c(F)c(F)c5F)c5ccc([nH]5)c(-c5c(F)c(F)c(F)c(F)c5F)c5nc(c(-c6c(F)c(F)c(F)c(F)c6F)c6ccc3[nH]6)C=C5)C=C4)cc2)c(F)c1
REMARK SMILES IDX 20 1 19 2 18 3 16 4 17 5 15 7 9 8 10 9 11 10 13 11 12 12
REMARK SMILES IDX 14 13 8 14 6 15 7 16 5 18 1 19 2 20 3 21 91 22 4 23 89 24
REMARK SMILES IDX 90 25 21 26 22 27 23 28 24 29 25 31 26 32 27 33 88 34 28 35
REMARK SMILES IDX 87 36 29 37 30 38 31 39 81 40 32 41 86 42 80 43 82 44 33 45
REMARK SMILES IDX 85 46 79 47 78 48 34 50 66 51 46 52 65 53 47 54 50 55 64 56
REMARK SMILES IDX 83 57 48 58 49 59 63 61 84 62 51 63 35 64 36 65 44 66 37 67
REMARK SMILES IDX 38 68 42 69 45 70 39 71 40 72 43 73 41 74 67 75 68 76 76 77
REMARK SMILES IDX 69 78 70 79 74 80 77 81 71 82 72 83 75 84 73 85 52 86 53 87
REMARK SMILES IDX 61 88 54 89 55 90 59 91 62 92 56 93 57 94 60 95 58 96
REMARK H PARENT 18 6 8 17 23 30 82 49 50 60
REMARK Flexibility Score: inf
ROOT
ATOM      1  C   UNL A   1      31.922  28.689  26.353  1.00  0.00     0.023 C 
ENDROOT
BRANCH   1   2
ATOM      2  C   UNL A   1      31.877  28.092  24.952  1.00  0.00     0.116 C 
BRANCH   2   3
ATOM      3  N   UNL A   1      30.547  27.680  24.543  1.00  0.00    -0.352 N 
ATOM      4  C   UNL A   1      30.113  26.622  23.780  1.00  0.00     0.256 C 
ATOM      5  O   UNL A   1      28.913  26.598  23.501  1.00  0.00    -0.269 OA
ATOM      6  H   UNL A   1      29.826  28.262  24.872  1.00  0.00     0.163 HD
BRANCH   4   7
ATOM      7  C   UNL A   1      31.029  25.595  23.210  1.00  0.00     0.099 A 
ATOM      8  C   UNL A   1      31.125  24.315  23.791  1.00  0.00     0.057 A 
ATOM      9  C   UNL A   1      31.808  23.283  23.126  1.00  0.00     0.027 A 
ATOM     10  C   UNL A   1      32.531  23.556  21.966  1.00  0.00     0.005 A 
ATOM     11  C   UNL A   1      31.936  25.878  22.189  1.00  0.00     0.138 A 
ATOM     12  C   UNL A   1      32.649  24.872  21.538  1.00  0.00     0.040 A 
ATOM     13  F   UNL A   1      32.244  27.146  21.868  1.00  0.00    -0.206 F 
BRANCH   8  14
ATOM     14  N   UNL A   1      30.702  24.119  25.121  1.00  0.00    -0.321 N 
ATOM     15  C   UNL A   1      31.483  23.836  26.237  1.00  0.00     0.258 C 
ATOM     16  O   UNL A   1      30.919  23.690  27.321  1.00  0.00    -0.269 OA
ATOM     17  H   UNL A   1      29.732  24.190  25.279  1.00  0.00     0.170 HD
BRANCH  15  18
ATOM     18  C   UNL A   1      32.979  23.815  26.185  1.00  0.00     0.075 A 
ATOM     19  C   UNL A   1      37.275  23.524  25.751  1.00  0.00     0.044 C 
ATOM     20  C   UNL A   1      35.795  23.644  25.948  1.00  0.00    -0.048 A 
ATOM     21  C   UNL A   1      35.131  24.826  25.628  1.00  0.00     0.004 A 
ATOM     22  C   UNL A   1      35.057  22.592  26.502  1.00  0.00     0.043 A 
ATOM     23  C   UNL A   1      33.746  24.923  25.797  1.00  0.00     0.017 A 
ATOM     24  C   UNL A   1      33.665  22.674  26.603  1.00  0.00     0.136 A 
ATOM     25  F   UNL A   1      33.017  21.612  27.101  1.00  0.00    -0.206 F 
ENDBRANCH  15  18
ENDBRANCH   8  14
ENDBRANCH   4   7
ENDBRANCH   2   3
ENDBRANCH   1   2
BRANCH   1  26
ATOM     26  C   UNL A   1      33.054  28.200  27.251  1.00  0.00     0.023 C 
BRANCH  26  27
ATOM     27  C   UNL A   1      34.409  28.721  26.831  1.00  0.00     0.116 C 
BRANCH  27  28
ATOM     28  N   UNL A   1      34.521  30.178  26.961  1.00  0.00    -0.352 N 
ATOM     29  C   UNL A   1      35.410  30.878  27.757  1.00  0.00     0.251 C 
ATOM     30  H   UNL A   1      33.895  30.716  26.423  1.00  0.00     0.163 HD
ATOM     31  O   UNL A   1      35.237  32.041  28.063  1.00  0.00    -0.269 OA
BRANCH  29  32
ATOM     32  C   UNL A   1      36.618  30.153  28.166  1.00  0.00     0.039 A 
ATOM     33  C   UNL A   1      36.711  29.419  29.353  1.00  0.00     0.014 A 
ATOM     34  C   UNL A   1      37.670  30.215  27.260  1.00  0.00     0.014 A 
ATOM     35  C   UNL A   1      37.887  28.720  29.606  1.00  0.00     0.010 A 
ATOM     36  C   UNL A   1      38.683  29.328  27.374  1.00  0.00     0.010 A 
ATOM     37  C   UNL A   1      38.858  28.695  28.602  1.00  0.00    -0.014 A 
BRANCH  37  38
ATOM     38  C   UNL A   1      40.191  28.153  28.726  1.00  0.00     0.031 A 
ATOM     39  C   UNL A   1      40.425  26.761  28.360  1.00  0.00     0.074 A 
ATOM     40  C   UNL A   1      41.133  29.095  28.971  1.00  0.00     0.049 A 
ATOM     41  N   UNL A   1      41.340  26.021  28.870  1.00  0.00    -0.248 NA
ATOM     42  C   UNL A   1      39.583  26.052  27.400  1.00  0.00     0.031 C 
ATOM     43  C   UNL A   1      42.576  29.078  28.840  1.00  0.00     0.029 A 
ATOM     44  N   UNL A   1      40.869  30.375  29.502  1.00  0.00    -0.354 N 
ATOM     45  C   UNL A   1      41.467  24.929  28.036  1.00  0.00     0.074 A 
ATOM     46  C   UNL A   1      40.237  24.890  27.286  1.00  0.00     0.031 C 
ATOM     47  C   UNL A   1      43.082  30.094  29.571  1.00  0.00     0.029 A 
ATOM     48  C   UNL A   1      41.974  30.719  30.284  1.00  0.00     0.049 A 
ATOM     49  H   UNL A   1      40.063  30.920  29.350  1.00  0.00     0.167 HD
ATOM     50  C   UNL A   1      42.702  24.356  27.923  1.00  0.00     0.037 A 
ATOM     51  C   UNL A   1      41.792  30.750  31.638  1.00  0.00     0.037 A 
ATOM     52  C   UNL A   1      43.652  25.106  28.753  1.00  0.00     0.049 A 
ATOM     53  C   UNL A   1      42.535  29.611  32.278  1.00  0.00     0.074 A 
ATOM     54  C   UNL A   1      44.545  26.116  28.429  1.00  0.00     0.029 A 
ATOM     55  N   UNL A   1      43.476  25.161  30.132  1.00  0.00    -0.354 N 
ATOM     56  N   UNL A   1      42.746  28.457  31.703  1.00  0.00    -0.248 NA
ATOM     57  C   UNL A   1      43.193  29.739  33.570  1.00  0.00     0.031 C 
ATOM     58  C   UNL A   1      44.848  26.825  29.620  1.00  0.00     0.029 A 
ATOM     59  C   UNL A   1      44.143  26.249  30.664  1.00  0.00     0.049 A 
ATOM     60  H   UNL A   1      42.949  24.514  30.656  1.00  0.00     0.167 HD
ATOM     61  C   UNL A   1      43.613  27.730  32.472  1.00  0.00     0.074 A 
ATOM     62  C   UNL A   1      43.850  28.569  33.637  1.00  0.00     0.031 C 
ATOM     63  C   UNL A   1      44.115  26.517  32.093  1.00  0.00     0.037 A 
BRANCH  50  64
ATOM     64  C   UNL A   1      43.161  23.390  26.844  1.00  0.00     0.064 A 
ATOM     65  C   UNL A   1      42.866  22.009  26.962  1.00  0.00     0.173 A 
ATOM     66  C   UNL A   1      43.899  23.725  25.693  1.00  0.00     0.173 A 
ATOM     67  F   UNL A   1      42.089  21.540  27.947  1.00  0.00    -0.203 F 
ATOM     68  C   UNL A   1      43.345  21.049  26.065  1.00  0.00     0.198 A 
ATOM     69  C   UNL A   1      44.398  22.761  24.805  1.00  0.00     0.198 A 
ATOM     70  F   UNL A   1      44.126  24.993  25.344  1.00  0.00    -0.203 F 
ATOM     71  F   UNL A   1      43.037  19.758  26.249  1.00  0.00    -0.200 F 
ATOM     72  C   UNL A   1      44.129  21.423  24.996  1.00  0.00     0.200 A 
ATOM     73  F   UNL A   1      45.135  23.146  23.754  1.00  0.00    -0.200 F 
ATOM     74  F   UNL A   1      44.596  20.504  24.141  1.00  0.00    -0.200 F 
ENDBRANCH  50  64
BRANCH  51  75
ATOM     75  C   UNL A   1      40.424  31.250  32.006  1.00  0.00     0.064 A 
ATOM     76  C   UNL A   1      39.516  30.299  32.522  1.00  0.00     0.173 A 
ATOM     77  C   UNL A   1      40.159  32.598  32.287  1.00  0.00     0.173 A 
ATOM     78  F   UNL A   1      39.706  28.992  32.275  1.00  0.00    -0.203 F 
ATOM     79  C   UNL A   1      38.504  30.660  33.411  1.00  0.00     0.198 A 
ATOM     80  C   UNL A   1      39.117  32.960  33.151  1.00  0.00     0.198 A 
ATOM     81  F   UNL A   1      40.966  33.561  31.821  1.00  0.00    -0.203 F 
ATOM     82  F   UNL A   1      37.766  29.709  34.005  1.00  0.00    -0.200 F 
ATOM     83  C   UNL A   1      38.324  31.988  33.749  1.00  0.00     0.200 A 
ATOM     84  F   UNL A   1      38.929  34.249  33.471  1.00  0.00    -0.200 F 
ATOM     85  F   UNL A   1      37.412  32.326  34.671  1.00  0.00    -0.200 F 
ENDBRANCH  51  75
BRANCH  63  86
ATOM     86  C   UNL A   1      44.768  25.530  33.027  1.00  0.00     0.064 A 
ATOM     87  C   UNL A   1      46.150  25.285  33.049  1.00  0.00     0.173 A 
ATOM     88  C   UNL A   1      44.024  24.891  34.050  1.00  0.00     0.173 A 
ATOM     89  F   UNL A   1      46.996  25.960  32.261  1.00  0.00    -0.203 F 
ATOM     90  C   UNL A   1      46.724  24.373  33.933  1.00  0.00     0.198 A 
ATOM     91  C   UNL A   1      44.615  24.049  34.987  1.00  0.00     0.198 A 
ATOM     92  F   UNL A   1      42.705  25.085  34.198  1.00  0.00    -0.203 F 
ATOM     93  F   UNL A   1      48.035  24.111  33.850  1.00  0.00    -0.200 F 
ATOM     94  C   UNL A   1      45.958  23.760  34.906  1.00  0.00     0.200 A 
ATOM     95  F   UNL A   1      43.872  23.534  35.977  1.00  0.00    -0.200 F 
ATOM     96  F   UNL A   1      46.521  22.916  35.778  1.00  0.00    -0.200 F 
ENDBRANCH  63  86
ENDBRANCH  37  38
ENDBRANCH  29  32
ENDBRANCH  27  28
ENDBRANCH  26  27
ENDBRANCH   1  26
TORSDOF 13
ENDMDL
