MODEL 1
REMARK VINA RESULT:     -12.1      0.000      0.000
REMARK SMILES C#Cc1cccc(NS(=O)(=O)c2cc(C)c(C(=O)NCCCCNC(=O)c3ccc(-c4c5nc(c(-c6c(F)c(F)c(F)c(F)c6F)c6ccc([nH]6)c(-c6c(F)c(F)c(F)c(F)c6F)c6nc(c(-c7c(F)c(F)c(F)c(F)c7F)c7ccc4[nH]7)C=C6)C=C5)cc3)s2)c1
REMARK SMILES IDX 20 1 19 2 17 3 18 4 16 6 12 7 13 8 90 9 14 10 15 11 9 12
REMARK SMILES IDX 10 13 11 14 8 15 7 17 3 18 4 19 91 20 5 21 6 22 2 23 1 24
REMARK SMILES IDX 21 25 22 26 23 27 24 28 25 29 26 31 27 32 28 33 89 34 29 35
REMARK SMILES IDX 88 36 30 37 31 38 32 39 82 40 33 41 87 42 81 43 83 44 34 45
REMARK SMILES IDX 86 46 80 47 79 48 35 50 67 51 47 52 66 53 48 54 51 55 65 56
REMARK SMILES IDX 84 57 49 58 50 59 64 61 85 62 52 63 36 64 37 65 45 66 38 67
REMARK SMILES IDX 39 68 43 69 46 70 40 71 41 72 44 73 42 74 68 75 69 76 77 77
REMARK SMILES IDX 70 78 71 79 75 80 78 81 72 82 73 83 76 84 74 85 53 86 54 87
REMARK SMILES IDX 62 88 55 89 56 90 60 91 63 92 57 93 58 94 61 95 59 96
REMARK H PARENT 19 5 8 16 24 30 83 49 51 60
REMARK Flexibility Score: inf
ROOT
ATOM      1  C   UNL A   1      35.753  20.705  25.289  1.00  0.00     0.116 C 
ENDROOT
BRANCH   1   2
ATOM      2  N   UNL A   1      34.631  19.867  24.980  1.00  0.00    -0.351 N 
ATOM      3  C   UNL A   1      33.330  20.123  24.644  1.00  0.00     0.261 C 
ATOM      4  O   UNL A   1      32.683  19.083  24.466  1.00  0.00    -0.268 OA
ATOM      5  H   UNL A   1      34.842  18.906  25.019  1.00  0.00     0.163 HD
BRANCH   3   6
ATOM      6  C   UNL A   1      32.752  21.464  24.460  1.00  0.00     0.096 A 
ATOM      7  C   UNL A   1      31.335  23.447  25.063  1.00  0.00     0.141 A 
ATOM      8  C   UNL A   1      31.810  23.490  23.775  1.00  0.00     0.038 A 
ATOM      9  S   UNL A   1      31.577  21.890  25.697  1.00  0.00    -0.116 S 
ATOM     10  C   UNL A   1      32.920  22.580  23.633  1.00  0.00    -0.026 A 
ATOM     11  C   UNL A   1      34.049  23.011  22.760  1.00  0.00     0.046 C 
BRANCH   7  12
ATOM     12  S   UNL A   1      30.555  24.659  26.097  1.00  0.00     0.271 S 
ATOM     13  O   UNL A   1      29.876  23.926  27.144  1.00  0.00    -0.200 OA
ATOM     14  O   UNL A   1      29.828  25.504  25.173  1.00  0.00    -0.200 OA
BRANCH  12  15
ATOM     15  N   UNL A   1      31.656  25.690  26.873  1.00  0.00    -0.279 N 
ATOM     16  H   UNL A   1      31.820  25.530  27.830  1.00  0.00     0.180 HD
BRANCH  15  17
ATOM     17  C   UNL A   1      32.365  26.769  26.260  1.00  0.00     0.050 A 
ATOM     18  C   UNL A   1      33.095  29.088  26.379  1.00  0.00     0.026 A 
ATOM     19  C   UNL A   1      33.695  28.970  25.128  1.00  0.00     0.017 A 
ATOM     20  C   UNL A   1      32.408  28.000  26.934  1.00  0.00     0.044 A 
ATOM     21  C   UNL A   1      33.759  27.725  24.519  1.00  0.00     0.003 A 
ATOM     22  C   UNL A   1      33.153  26.617  25.120  1.00  0.00     0.027 A 
BRANCH  18  23
ATOM     23  C   UNL A   1      33.320  30.302  27.105  1.00  0.00    -0.070 C 
ATOM     24  C   UNL A   1      33.682  31.318  27.629  1.00  0.00     0.010 C 
ENDBRANCH  18  23
ENDBRANCH  15  17
ENDBRANCH  12  15
ENDBRANCH   7  12
ENDBRANCH   3   6
ENDBRANCH   1   2
BRANCH   1  25
ATOM     25  C   UNL A   1      37.070  19.987  24.978  1.00  0.00     0.023 C 
BRANCH  25  26
ATOM     26  C   UNL A   1      38.269  20.928  24.980  1.00  0.00     0.023 C 
BRANCH  26  27
ATOM     27  C   UNL A   1      39.218  20.670  26.141  1.00  0.00     0.116 C 
BRANCH  27  28
ATOM     28  N   UNL A   1      40.061  19.497  25.960  1.00  0.00    -0.352 N 
ATOM     29  C   UNL A   1      41.432  19.434  26.070  1.00  0.00     0.251 C 
ATOM     30  H   UNL A   1      39.601  18.656  25.734  1.00  0.00     0.163 HD
ATOM     31  O   UNL A   1      42.043  18.405  25.806  1.00  0.00    -0.269 OA
BRANCH  29  32
ATOM     32  C   UNL A   1      42.158  20.662  26.459  1.00  0.00     0.039 A 
ATOM     33  C   UNL A   1      42.617  21.517  25.458  1.00  0.00     0.014 A 
ATOM     34  C   UNL A   1      42.269  21.017  27.805  1.00  0.00     0.014 A 
ATOM     35  C   UNL A   1      43.124  22.768  25.809  1.00  0.00     0.010 A 
ATOM     36  C   UNL A   1      42.676  22.301  28.144  1.00  0.00     0.010 A 
ATOM     37  C   UNL A   1      43.113  23.191  27.150  1.00  0.00    -0.014 A 
BRANCH  37  38
ATOM     38  C   UNL A   1      43.559  24.556  27.528  1.00  0.00     0.031 A 
ATOM     39  C   UNL A   1      42.544  25.608  27.881  1.00  0.00     0.074 A 
ATOM     40  C   UNL A   1      44.872  24.864  27.510  1.00  0.00     0.049 A 
ATOM     41  N   UNL A   1      42.729  26.865  28.197  1.00  0.00    -0.248 NA
ATOM     42  C   UNL A   1      41.129  25.202  27.852  1.00  0.00     0.031 C 
ATOM     43  C   UNL A   1      45.951  23.947  27.138  1.00  0.00     0.029 A 
ATOM     44  N   UNL A   1      45.523  26.035  27.808  1.00  0.00    -0.354 N 
ATOM     45  C   UNL A   1      41.461  27.395  28.400  1.00  0.00     0.074 A 
ATOM     46  C   UNL A   1      40.511  26.346  28.102  1.00  0.00     0.031 C 
ATOM     47  C   UNL A   1      47.129  24.578  27.264  1.00  0.00     0.029 A 
ATOM     48  C   UNL A   1      46.888  25.959  27.673  1.00  0.00     0.049 A 
ATOM     49  H   UNL A   1      45.055  26.853  28.093  1.00  0.00     0.167 HD
ATOM     50  C   UNL A   1      41.120  28.632  28.827  1.00  0.00     0.037 A 
ATOM     51  C   UNL A   1      47.838  26.899  27.845  1.00  0.00     0.037 A 
ATOM     52  C   UNL A   1      42.070  29.670  29.132  1.00  0.00     0.049 A 
ATOM     53  C   UNL A   1      47.426  28.283  28.279  1.00  0.00     0.074 A 
ATOM     54  C   UNL A   1      41.827  30.945  29.612  1.00  0.00     0.029 A 
ATOM     55  N   UNL A   1      43.444  29.556  28.977  1.00  0.00    -0.354 N 
ATOM     56  N   UNL A   1      46.229  28.748  28.539  1.00  0.00    -0.248 NA
ATOM     57  C   UNL A   1      48.501  29.269  28.451  1.00  0.00     0.031 C 
ATOM     58  C   UNL A   1      43.045  31.626  29.680  1.00  0.00     0.029 A 
ATOM     59  C   UNL A   1      44.057  30.751  29.322  1.00  0.00     0.049 A 
ATOM     60  H   UNL A   1      43.913  28.747  28.669  1.00  0.00     0.167 HD
ATOM     61  C   UNL A   1      46.409  30.066  28.937  1.00  0.00     0.074 A 
ATOM     62  C   UNL A   1      47.833  30.320  28.905  1.00  0.00     0.031 C 
ATOM     63  C   UNL A   1      45.479  30.986  29.295  1.00  0.00     0.037 A 
BRANCH  50  64
ATOM     64  C   UNL A   1      39.658  28.937  28.991  1.00  0.00     0.064 A 
ATOM     65  C   UNL A   1      38.862  29.340  27.907  1.00  0.00     0.173 A 
ATOM     66  C   UNL A   1      39.033  28.775  30.237  1.00  0.00     0.173 A 
ATOM     67  F   UNL A   1      39.411  29.521  26.696  1.00  0.00    -0.203 F 
ATOM     68  C   UNL A   1      37.504  29.597  28.071  1.00  0.00     0.198 A 
ATOM     69  C   UNL A   1      37.667  28.997  30.388  1.00  0.00     0.198 A 
ATOM     70  F   UNL A   1      39.745  28.387  31.306  1.00  0.00    -0.203 F 
ATOM     71  F   UNL A   1      36.777  30.033  27.033  1.00  0.00    -0.200 F 
ATOM     72  C   UNL A   1      36.906  29.416  29.308  1.00  0.00     0.200 A 
ATOM     73  F   UNL A   1      37.087  28.803  31.581  1.00  0.00    -0.200 F 
ATOM     74  F   UNL A   1      35.595  29.649  29.461  1.00  0.00    -0.200 F 
ENDBRANCH  50  64
BRANCH  51  75
ATOM     75  C   UNL A   1      49.272  26.573  27.609  1.00  0.00     0.064 A 
ATOM     76  C   UNL A   1      50.141  26.303  28.676  1.00  0.00     0.173 A 
ATOM     77  C   UNL A   1      49.813  26.562  26.314  1.00  0.00     0.173 A 
ATOM     78  F   UNL A   1      49.679  26.318  29.936  1.00  0.00    -0.203 F 
ATOM     79  C   UNL A   1      51.498  26.072  28.462  1.00  0.00     0.198 A 
ATOM     80  C   UNL A   1      51.162  26.292  26.098  1.00  0.00     0.198 A 
ATOM     81  F   UNL A   1      49.027  26.808  25.256  1.00  0.00    -0.203 F 
ATOM     82  F   UNL A   1      52.317  25.886  29.506  1.00  0.00    -0.200 F 
ATOM     83  C   UNL A   1      52.007  26.063  27.172  1.00  0.00     0.200 A 
ATOM     84  F   UNL A   1      51.644  26.265  24.848  1.00  0.00    -0.200 F 
ATOM     85  F   UNL A   1      53.313  25.844  26.966  1.00  0.00    -0.200 F 
ENDBRANCH  51  75
BRANCH  63  86
ATOM     86  C   UNL A   1      45.971  32.338  29.733  1.00  0.00     0.064 A 
ATOM     87  C   UNL A   1      46.321  32.608  31.064  1.00  0.00     0.173 A 
ATOM     88  C   UNL A   1      46.132  33.369  28.793  1.00  0.00     0.173 A 
ATOM     89  F   UNL A   1      46.177  31.661  32.005  1.00  0.00    -0.203 F 
ATOM     90  C   UNL A   1      46.779  33.866  31.444  1.00  0.00     0.198 A 
ATOM     91  C   UNL A   1      46.629  34.613  29.168  1.00  0.00     0.198 A 
ATOM     92  F   UNL A   1      45.822  33.164  27.504  1.00  0.00    -0.203 F 
ATOM     93  F   UNL A   1      47.048  34.118  32.733  1.00  0.00    -0.200 F 
ATOM     94  C   UNL A   1      46.942  34.865  30.495  1.00  0.00     0.200 A 
ATOM     95  F   UNL A   1      46.806  35.569  28.246  1.00  0.00    -0.200 F 
ATOM     96  F   UNL A   1      47.392  36.072  30.862  1.00  0.00    -0.200 F 
ENDBRANCH  63  86
ENDBRANCH  37  38
ENDBRANCH  29  32
ENDBRANCH  27  28
ENDBRANCH  26  27
ENDBRANCH  25  26
ENDBRANCH   1  25
TORSDOF 15
ENDMDL
MODEL 2
REMARK VINA RESULT:     -12.1      2.299      7.758
REMARK SMILES C#Cc1cccc(NS(=O)(=O)c2cc(C)c(C(=O)NCCCCNC(=O)c3ccc(-c4c5nc(c(-c6c(F)c(F)c(F)c(F)c6F)c6ccc([nH]6)c(-c6c(F)c(F)c(F)c(F)c6F)c6nc(c(-c7c(F)c(F)c(F)c(F)c7F)c7ccc4[nH]7)C=C6)C=C5)cc3)s2)c1
REMARK SMILES IDX 20 1 19 2 17 3 18 4 16 6 12 7 13 8 90 9 14 10 15 11 9 12
REMARK SMILES IDX 10 13 11 14 8 15 7 17 3 18 4 19 91 20 5 21 6 22 2 23 1 24
REMARK SMILES IDX 21 25 22 26 23 27 24 28 25 29 26 31 27 32 28 33 89 34 29 35
REMARK SMILES IDX 88 36 30 37 31 38 32 39 82 40 33 41 87 42 81 43 83 44 34 45
REMARK SMILES IDX 86 46 80 47 79 48 35 50 67 51 47 52 66 53 48 54 51 55 65 56
REMARK SMILES IDX 84 57 49 58 50 59 64 61 85 62 52 63 36 64 37 65 45 66 38 67
REMARK SMILES IDX 39 68 43 69 46 70 40 71 41 72 44 73 42 74 68 75 69 76 77 77
REMARK SMILES IDX 70 78 71 79 75 80 78 81 72 82 73 83 76 84 74 85 53 86 54 87
REMARK SMILES IDX 62 88 55 89 56 90 60 91 63 92 57 93 58 94 61 95 59 96
REMARK H PARENT 19 5 8 16 24 30 83 49 51 60
REMARK Flexibility Score: inf
ROOT
ATOM      1  C   UNL A   1      36.764  22.515  24.738  1.00  0.00     0.116 C 
ENDROOT
BRANCH   1   2
ATOM      2  N   UNL A   1      35.875  22.620  23.618  1.00  0.00    -0.351 N 
ATOM      3  C   UNL A   1      34.762  23.374  23.367  1.00  0.00     0.261 C 
ATOM      4  O   UNL A   1      34.282  23.139  22.251  1.00  0.00    -0.268 OA
ATOM      5  H   UNL A   1      36.115  22.021  22.874  1.00  0.00     0.163 HD
BRANCH   3   6
ATOM      6  C   UNL A   1      34.206  24.390  24.277  1.00  0.00     0.096 A 
ATOM      7  C   UNL A   1      33.125  26.575  24.879  1.00  0.00     0.141 A 
ATOM      8  C   UNL A   1      33.634  25.903  25.963  1.00  0.00     0.038 A 
ATOM      9  S   UNL A   1      33.715  25.865  23.453  1.00  0.00    -0.116 S 
ATOM     10  C   UNL A   1      33.848  24.518  25.623  1.00  0.00    -0.026 A 
ATOM     11  C   UNL A   1      33.562  23.502  26.677  1.00  0.00     0.046 C 
BRANCH   7  12
ATOM     12  S   UNL A   1      32.040  27.969  24.731  1.00  0.00     0.271 S 
ATOM     13  O   UNL A   1      32.830  29.045  24.171  1.00  0.00    -0.200 OA
ATOM     14  O   UNL A   1      31.425  28.086  26.037  1.00  0.00    -0.200 OA
BRANCH  12  15
ATOM     15  N   UNL A   1      30.755  27.712  23.655  1.00  0.00    -0.279 N 
ATOM     16  H   UNL A   1      30.790  26.898  23.102  1.00  0.00     0.180 HD
BRANCH  15  17
ATOM     17  C   UNL A   1      29.627  28.572  23.479  1.00  0.00     0.050 A 
ATOM     18  C   UNL A   1      28.773  30.846  23.321  1.00  0.00     0.026 A 
ATOM     19  C   UNL A   1      27.477  30.357  23.183  1.00  0.00     0.017 A 
ATOM     20  C   UNL A   1      29.844  29.959  23.495  1.00  0.00     0.044 A 
ATOM     21  C   UNL A   1      27.277  28.990  23.043  1.00  0.00     0.003 A 
ATOM     22  C   UNL A   1      28.361  28.110  23.124  1.00  0.00     0.027 A 
BRANCH  18  23
ATOM     23  C   UNL A   1      28.966  32.255  23.150  1.00  0.00    -0.070 C 
ATOM     24  C   UNL A   1      28.976  33.454  23.125  1.00  0.00     0.010 C 
ENDBRANCH  18  23
ENDBRANCH  15  17
ENDBRANCH  12  15
ENDBRANCH   7  12
ENDBRANCH   3   6
ENDBRANCH   1   2
BRANCH   1  25
ATOM     25  C   UNL A   1      36.687  21.120  25.366  1.00  0.00     0.023 C 
BRANCH  25  26
ATOM     26  C   UNL A   1      37.851  20.225  24.957  1.00  0.00     0.023 C 
BRANCH  26  27
ATOM     27  C   UNL A   1      39.104  20.475  25.783  1.00  0.00     0.116 C 
BRANCH  27  28
ATOM     28  N   UNL A   1      39.998  19.329  25.854  1.00  0.00    -0.352 N 
ATOM     29  C   UNL A   1      41.348  19.344  26.127  1.00  0.00     0.251 C 
ATOM     30  H   UNL A   1      39.594  18.446  25.690  1.00  0.00     0.163 HD
ATOM     31  O   UNL A   1      42.016  18.319  26.072  1.00  0.00    -0.269 OA
BRANCH  29  32
ATOM     32  C   UNL A   1      41.983  20.642  26.432  1.00  0.00     0.039 A 
ATOM     33  C   UNL A   1      42.326  21.488  25.378  1.00  0.00     0.014 A 
ATOM     34  C   UNL A   1      42.122  21.065  27.757  1.00  0.00     0.014 A 
ATOM     35  C   UNL A   1      42.740  22.790  25.654  1.00  0.00     0.010 A 
ATOM     36  C   UNL A   1      42.434  22.392  28.024  1.00  0.00     0.010 A 
ATOM     37  C   UNL A   1      42.752  23.269  26.976  1.00  0.00    -0.014 A 
BRANCH  37  38
ATOM     38  C   UNL A   1      43.097  24.682  27.277  1.00  0.00     0.031 A 
ATOM     39  C   UNL A   1      44.493  25.185  27.027  1.00  0.00     0.074 A 
ATOM     40  C   UNL A   1      42.171  25.501  27.815  1.00  0.00     0.049 A 
ATOM     41  N   UNL A   1      45.001  26.368  27.261  1.00  0.00    -0.248 NA
ATOM     42  C   UNL A   1      45.454  24.223  26.463  1.00  0.00     0.031 C 
ATOM     43  C   UNL A   1      40.797  25.121  28.150  1.00  0.00     0.029 A 
ATOM     44  N   UNL A   1      42.246  26.823  28.180  1.00  0.00    -0.354 N 
ATOM     45  C   UNL A   1      46.333  26.290  26.877  1.00  0.00     0.074 A 
ATOM     46  C   UNL A   1      46.576  24.926  26.463  1.00  0.00     0.031 C 
ATOM     47  C   UNL A   1      40.150  26.192  28.636  1.00  0.00     0.029 A 
ATOM     48  C   UNL A   1      41.074  27.320  28.700  1.00  0.00     0.049 A 
ATOM     49  H   UNL A   1      43.061  27.364  28.078  1.00  0.00     0.167 HD
ATOM     50  C   UNL A   1      47.262  27.273  26.841  1.00  0.00     0.037 A 
ATOM     51  C   UNL A   1      40.783  28.542  29.184  1.00  0.00     0.037 A 
ATOM     52  C   UNL A   1      47.015  28.632  27.245  1.00  0.00     0.049 A 
ATOM     53  C   UNL A   1      41.850  29.607  29.174  1.00  0.00     0.074 A 
ATOM     54  C   UNL A   1      47.878  29.713  27.207  1.00  0.00     0.029 A 
ATOM     55  N   UNL A   1      45.817  29.095  27.771  1.00  0.00    -0.354 N 
ATOM     56  N   UNL A   1      43.084  29.539  28.738  1.00  0.00    -0.248 NA
ATOM     57  C   UNL A   1      41.479  30.922  29.715  1.00  0.00     0.031 C 
ATOM     58  C   UNL A   1      47.228  30.811  27.774  1.00  0.00     0.029 A 
ATOM     59  C   UNL A   1      45.932  30.439  28.091  1.00  0.00     0.049 A 
ATOM     60  H   UNL A   1      45.007  28.550  27.897  1.00  0.00     0.167 HD
ATOM     61  C   UNL A   1      43.624  30.805  28.920  1.00  0.00     0.074 A 
ATOM     62  C   UNL A   1      42.577  31.627  29.486  1.00  0.00     0.031 C 
ATOM     63  C   UNL A   1      44.876  31.248  28.645  1.00  0.00     0.037 A 
BRANCH  50  64
ATOM     64  C   UNL A   1      48.637  26.918  26.348  1.00  0.00     0.064 A 
ATOM     65  C   UNL A   1      49.625  26.420  27.212  1.00  0.00     0.173 A 
ATOM     66  C   UNL A   1      48.955  27.028  24.986  1.00  0.00     0.173 A 
ATOM     67  F   UNL A   1      49.378  26.305  28.526  1.00  0.00    -0.203 F 
ATOM     68  C   UNL A   1      50.887  26.075  26.736  1.00  0.00     0.198 A 
ATOM     69  C   UNL A   1      50.205  26.647  24.508  1.00  0.00     0.198 A 
ATOM     70  F   UNL A   1      48.047  27.494  24.114  1.00  0.00    -0.203 F 
ATOM     71  F   UNL A   1      51.830  25.653  27.589  1.00  0.00    -0.200 F 
ATOM     72  C   UNL A   1      51.173  26.179  25.384  1.00  0.00     0.200 A 
ATOM     73  F   UNL A   1      50.474  26.731  23.197  1.00  0.00    -0.200 F 
ATOM     74  F   UNL A   1      52.383  25.832  24.924  1.00  0.00    -0.200 F 
ENDBRANCH  50  64
BRANCH  51  75
ATOM     75  C   UNL A   1      39.426  28.834  29.725  1.00  0.00     0.064 A 
ATOM     76  C   UNL A   1      38.421  29.377  28.910  1.00  0.00     0.173 A 
ATOM     77  C   UNL A   1      39.115  28.613  31.075  1.00  0.00     0.173 A 
ATOM     78  F   UNL A   1      38.670  29.625  27.615  1.00  0.00    -0.203 F 
ATOM     79  C   UNL A   1      37.175  29.721  29.431  1.00  0.00     0.198 A 
ATOM     80  C   UNL A   1      37.856  28.920  31.586  1.00  0.00     0.198 A 
ATOM     81  F   UNL A   1      40.036  28.090  31.899  1.00  0.00    -0.203 F 
ATOM     82  F   UNL A   1      36.259  30.302  28.645  1.00  0.00    -0.200 F 
ATOM     83  C   UNL A   1      36.892  29.487  30.769  1.00  0.00     0.200 A 
ATOM     84  F   UNL A   1      37.582  28.674  32.875  1.00  0.00    -0.200 F 
ATOM     85  F   UNL A   1      35.695  29.820  31.271  1.00  0.00    -0.200 F 
ENDBRANCH  51  75
BRANCH  63  86
ATOM     86  C   UNL A   1      45.171  32.700  28.903  1.00  0.00     0.064 A 
ATOM     87  C   UNL A   1      44.904  33.695  27.950  1.00  0.00     0.173 A 
ATOM     88  C   UNL A   1      45.695  33.105  30.141  1.00  0.00     0.173 A 
ATOM     89  F   UNL A   1      44.413  33.361  26.746  1.00  0.00    -0.203 F 
ATOM     90  C   UNL A   1      45.182  35.033  28.213  1.00  0.00     0.198 A 
ATOM     91  C   UNL A   1      45.933  34.448  30.416  1.00  0.00     0.198 A 
ATOM     92  F   UNL A   1      45.961  32.198  31.093  1.00  0.00    -0.203 F 
ATOM     93  F   UNL A   1      44.975  35.957  27.265  1.00  0.00    -0.200 F 
ATOM     94  C   UNL A   1      45.687  35.410  29.449  1.00  0.00     0.200 A 
ATOM     95  F   UNL A   1      46.400  34.812  31.619  1.00  0.00    -0.200 F 
ATOM     96  F   UNL A   1      45.944  36.700  29.704  1.00  0.00    -0.200 F 
ENDBRANCH  63  86
ENDBRANCH  37  38
ENDBRANCH  29  32
ENDBRANCH  27  28
ENDBRANCH  26  27
ENDBRANCH  25  26
ENDBRANCH   1  25
TORSDOF 15
ENDMDL
MODEL 3
REMARK VINA RESULT:     -12.0      0.407      7.246
REMARK SMILES C#Cc1cccc(NS(=O)(=O)c2cc(C)c(C(=O)NCCCCNC(=O)c3ccc(-c4c5nc(c(-c6c(F)c(F)c(F)c(F)c6F)c6ccc([nH]6)c(-c6c(F)c(F)c(F)c(F)c6F)c6nc(c(-c7c(F)c(F)c(F)c(F)c7F)c7ccc4[nH]7)C=C6)C=C5)cc3)s2)c1
REMARK SMILES IDX 20 1 19 2 17 3 18 4 16 6 12 7 13 8 90 9 14 10 15 11 9 12
REMARK SMILES IDX 10 13 11 14 8 15 7 17 3 18 4 19 91 20 5 21 6 22 2 23 1 24
REMARK SMILES IDX 21 25 22 26 23 27 24 28 25 29 26 31 27 32 28 33 89 34 29 35
REMARK SMILES IDX 88 36 30 37 31 38 32 39 82 40 33 41 87 42 81 43 83 44 34 45
REMARK SMILES IDX 86 46 80 47 79 48 35 50 67 51 47 52 66 53 48 54 51 55 65 56
REMARK SMILES IDX 84 57 49 58 50 59 64 61 85 62 52 63 36 64 37 65 45 66 38 67
REMARK SMILES IDX 39 68 43 69 46 70 40 71 41 72 44 73 42 74 68 75 69 76 77 77
REMARK SMILES IDX 70 78 71 79 75 80 78 81 72 82 73 83 76 84 74 85 53 86 54 87
REMARK SMILES IDX 62 88 55 89 56 90 60 91 63 92 57 93 58 94 61 95 59 96
REMARK H PARENT 19 5 8 16 24 30 83 49 51 60
REMARK Flexibility Score: inf
ROOT
ATOM      1  C   UNL A   1      35.670  20.738  25.107  1.00  0.00     0.116 C 
ENDROOT
BRANCH   1   2
ATOM      2  N   UNL A   1      34.507  19.905  25.016  1.00  0.00    -0.351 N 
ATOM      3  C   UNL A   1      33.177  20.162  24.825  1.00  0.00     0.261 C 
ATOM      4  O   UNL A   1      32.498  19.127  24.822  1.00  0.00    -0.268 OA
ATOM      5  H   UNL A   1      34.707  18.946  25.113  1.00  0.00     0.163 HD
BRANCH   3   6
ATOM      6  C   UNL A   1      32.598  21.497  24.597  1.00  0.00     0.096 A 
ATOM      7  C   UNL A   1      31.198  23.507  25.147  1.00  0.00     0.141 A 
ATOM      8  C   UNL A   1      31.647  23.496  23.849  1.00  0.00     0.038 A 
ATOM      9  S   UNL A   1      31.449  21.977  25.839  1.00  0.00    -0.116 S 
ATOM     10  C   UNL A   1      32.753  22.578  23.723  1.00  0.00    -0.026 A 
ATOM     11  C   UNL A   1      33.866  22.969  22.811  1.00  0.00     0.046 C 
BRANCH   7  12
ATOM     12  S   UNL A   1      30.442  24.762  26.145  1.00  0.00     0.271 S 
ATOM     13  O   UNL A   1      29.710  24.072  27.186  1.00  0.00    -0.200 OA
ATOM     14  O   UNL A   1      29.768  25.621  25.193  1.00  0.00    -0.200 OA
BRANCH  12  15
ATOM     15  N   UNL A   1      31.562  25.762  26.933  1.00  0.00    -0.279 N 
ATOM     16  H   UNL A   1      31.714  25.596  27.891  1.00  0.00     0.180 HD
BRANCH  15  17
ATOM     17  C   UNL A   1      32.304  26.824  26.329  1.00  0.00     0.050 A 
ATOM     18  C   UNL A   1      32.996  29.157  26.399  1.00  0.00     0.026 A 
ATOM     19  C   UNL A   1      33.694  28.992  25.205  1.00  0.00     0.017 A 
ATOM     20  C   UNL A   1      32.281  28.084  26.947  1.00  0.00     0.044 A 
ATOM     21  C   UNL A   1      33.821  27.722  24.661  1.00  0.00     0.003 A 
ATOM     22  C   UNL A   1      33.181  26.633  25.262  1.00  0.00     0.027 A 
BRANCH  18  23
ATOM     23  C   UNL A   1      33.150  30.405  27.085  1.00  0.00    -0.070 C 
ATOM     24  C   UNL A   1      33.467  31.426  27.627  1.00  0.00     0.010 C 
ENDBRANCH  18  23
ENDBRANCH  15  17
ENDBRANCH  12  15
ENDBRANCH   7  12
ENDBRANCH   3   6
ENDBRANCH   1   2
BRANCH   1  25
ATOM     25  C   UNL A   1      36.949  19.901  24.997  1.00  0.00     0.023 C 
BRANCH  25  26
ATOM     26  C   UNL A   1      38.207  20.757  24.908  1.00  0.00     0.023 C 
BRANCH  26  27
ATOM     27  C   UNL A   1      39.142  20.552  26.091  1.00  0.00     0.116 C 
BRANCH  27  28
ATOM     28  N   UNL A   1      40.047  19.423  25.935  1.00  0.00    -0.352 N 
ATOM     29  C   UNL A   1      41.418  19.434  26.053  1.00  0.00     0.251 C 
ATOM     30  H   UNL A   1      39.633  18.555  25.722  1.00  0.00     0.163 HD
ATOM     31  O   UNL A   1      42.084  18.435  25.811  1.00  0.00    -0.269 OA
BRANCH  29  32
ATOM     32  C   UNL A   1      42.076  20.705  26.424  1.00  0.00     0.039 A 
ATOM     33  C   UNL A   1      42.423  21.602  25.415  1.00  0.00     0.014 A 
ATOM     34  C   UNL A   1      42.230  21.051  27.769  1.00  0.00     0.014 A 
ATOM     35  C   UNL A   1      42.859  22.881  25.759  1.00  0.00     0.010 A 
ATOM     36  C   UNL A   1      42.564  22.357  28.106  1.00  0.00     0.010 A 
ATOM     37  C   UNL A   1      42.887  23.286  27.106  1.00  0.00    -0.014 A 
BRANCH  37  38
ATOM     38  C   UNL A   1      43.256  24.675  27.481  1.00  0.00     0.031 A 
ATOM     39  C   UNL A   1      44.703  25.080  27.538  1.00  0.00     0.074 A 
ATOM     40  C   UNL A   1      42.294  25.560  27.814  1.00  0.00     0.049 A 
ATOM     41  N   UNL A   1      45.230  26.228  27.881  1.00  0.00    -0.248 NA
ATOM     42  C   UNL A   1      45.695  24.050  27.187  1.00  0.00     0.031 C 
ATOM     43  C   UNL A   1      40.858  25.277  27.845  1.00  0.00     0.029 A 
ATOM     44  N   UNL A   1      42.379  26.877  28.193  1.00  0.00    -0.354 N 
ATOM     45  C   UNL A   1      46.605  26.056  27.790  1.00  0.00     0.074 A 
ATOM     46  C   UNL A   1      46.836  24.675  27.429  1.00  0.00     0.031 C 
ATOM     47  C   UNL A   1      40.197  26.393  28.188  1.00  0.00     0.029 A 
ATOM     48  C   UNL A   1      41.160  27.457  28.454  1.00  0.00     0.049 A 
ATOM     49  H   UNL A   1      43.233  27.360  28.271  1.00  0.00     0.167 HD
ATOM     50  C   UNL A   1      47.585  26.974  27.958  1.00  0.00     0.037 A 
ATOM     51  C   UNL A   1      40.856  28.700  28.872  1.00  0.00     0.037 A 
ATOM     52  C   UNL A   1      47.350  28.350  28.308  1.00  0.00     0.049 A 
ATOM     53  C   UNL A   1      41.971  29.690  29.095  1.00  0.00     0.074 A 
ATOM     54  C   UNL A   1      48.273  29.370  28.461  1.00  0.00     0.029 A 
ATOM     55  N   UNL A   1      46.102  28.898  28.569  1.00  0.00    -0.354 N 
ATOM     56  N   UNL A   1      43.263  29.535  28.933  1.00  0.00    -0.248 NA
ATOM     57  C   UNL A   1      41.583  31.032  29.552  1.00  0.00     0.031 C 
ATOM     58  C   UNL A   1      47.593  30.514  28.883  1.00  0.00     0.029 A 
ATOM     59  C   UNL A   1      46.237  30.234  28.914  1.00  0.00     0.049 A 
ATOM     60  H   UNL A   1      45.248  28.411  28.516  1.00  0.00     0.167 HD
ATOM     61  C   UNL A   1      43.836  30.763  29.233  1.00  0.00     0.074 A 
ATOM     62  C   UNL A   1      42.750  31.659  29.567  1.00  0.00     0.031 C 
ATOM     63  C   UNL A   1      45.145  31.118  29.233  1.00  0.00     0.037 A 
BRANCH  50  64
ATOM     64  C   UNL A   1      49.005  26.522  27.768  1.00  0.00     0.064 A 
ATOM     65  C   UNL A   1      49.573  26.390  26.490  1.00  0.00     0.173 A 
ATOM     66  C   UNL A   1      49.826  26.266  28.877  1.00  0.00     0.173 A 
ATOM     67  F   UNL A   1      48.830  26.612  25.395  1.00  0.00    -0.203 F 
ATOM     68  C   UNL A   1      50.897  25.992  26.332  1.00  0.00     0.198 A 
ATOM     69  C   UNL A   1      51.160  25.904  28.715  1.00  0.00     0.198 A 
ATOM     70  F   UNL A   1      49.336  26.380  30.122  1.00  0.00    -0.203 F 
ATOM     71  F   UNL A   1      51.400  25.822  25.102  1.00  0.00    -0.200 F 
ATOM     72  C   UNL A   1      51.692  25.759  27.443  1.00  0.00     0.200 A 
ATOM     73  F   UNL A   1      51.932  25.698  29.791  1.00  0.00    -0.200 F 
ATOM     74  F   UNL A   1      52.971  25.391  27.289  1.00  0.00    -0.200 F 
ENDBRANCH  50  64
BRANCH  51  75
ATOM     75  C   UNL A   1      39.438  29.089  29.112  1.00  0.00     0.064 A 
ATOM     76  C   UNL A   1      38.873  29.019  30.393  1.00  0.00     0.173 A 
ATOM     77  C   UNL A   1      38.608  29.501  28.059  1.00  0.00     0.173 A 
ATOM     78  F   UNL A   1      39.618  28.613  31.433  1.00  0.00    -0.203 F 
ATOM     79  C   UNL A   1      37.527  29.310  30.606  1.00  0.00     0.198 A 
ATOM     80  C   UNL A   1      37.272  29.830  28.280  1.00  0.00     0.198 A 
ATOM     81  F   UNL A   1      39.096  29.592  26.814  1.00  0.00    -0.203 F 
ATOM     82  F   UNL A   1      36.997  29.167  31.829  1.00  0.00    -0.200 F 
ATOM     83  C   UNL A   1      36.728  29.720  29.549  1.00  0.00     0.200 A 
ATOM     84  F   UNL A   1      36.510  30.244  27.258  1.00  0.00    -0.200 F 
ATOM     85  F   UNL A   1      35.433  29.996  29.753  1.00  0.00    -0.200 F 
ENDBRANCH  51  75
BRANCH  63  86
ATOM     86  C   UNL A   1      45.477  32.549  29.556  1.00  0.00     0.064 A 
ATOM     87  C   UNL A   1      45.532  33.542  28.567  1.00  0.00     0.173 A 
ATOM     88  C   UNL A   1      45.704  32.938  30.887  1.00  0.00     0.173 A 
ATOM     89  F   UNL A   1      45.333  33.222  27.279  1.00  0.00    -0.203 F 
ATOM     90  C   UNL A   1      45.837  34.861  28.891  1.00  0.00     0.198 A 
ATOM     91  C   UNL A   1      45.968  34.265  31.212  1.00  0.00     0.198 A 
ATOM     92  F   UNL A   1      45.655  32.033  31.875  1.00  0.00    -0.203 F 
ATOM     93  F   UNL A   1      45.945  35.779  27.920  1.00  0.00    -0.200 F 
ATOM     94  C   UNL A   1      46.045  35.223  30.214  1.00  0.00     0.200 A 
ATOM     95  F   UNL A   1      46.147  34.617  32.493  1.00  0.00    -0.200 F 
ATOM     96  F   UNL A   1      46.328  36.496  30.524  1.00  0.00    -0.200 F 
ENDBRANCH  63  86
ENDBRANCH  37  38
ENDBRANCH  29  32
ENDBRANCH  27  28
ENDBRANCH  26  27
ENDBRANCH  25  26
ENDBRANCH   1  25
TORSDOF 15
ENDMDL
