MODEL 1
REMARK VINA RESULT:     -13.7      0.000      0.000
REMARK SMILES Cc1cc(=O)n2nc(C)c(C(=O)NCCCCNC(=O)c3ccc(-c4c5nc(c(-c6c(F)c(F)c(F)c(F)c6F)c6ccc([nH]6)c(-c6c(F)c(F)c(F)c(F)c6F)c6nc(c(-c7c(F)c(F)c(F)c(F)c7F)c7ccc4[nH]7)C=C6)C=C5)cc3)c2[nH]1
REMARK SMILES IDX 16 1 15 2 14 3 13 4 11 5 12 6 10 8 1 9 2 10 3 11 85 12 4 13
REMARK SMILES IDX 84 14 5 16 6 17 7 18 8 19 9 20 17 21 18 22 19 23 20 25 21 26
REMARK SMILES IDX 22 27 83 28 23 29 82 30 24 31 25 32 26 33 76 34 27 35 81 36
REMARK SMILES IDX 75 37 77 38 28 39 80 40 74 41 73 42 29 44 61 45 41 46 60 47
REMARK SMILES IDX 42 48 45 49 59 50 78 51 43 52 44 53 58 55 79 56 46 57 30 58
REMARK SMILES IDX 31 59 39 60 32 61 33 62 37 63 40 64 34 65 35 66 38 67 36 68
REMARK SMILES IDX 62 69 63 70 71 71 64 72 65 73 69 74 72 75 66 76 67 77 70 78
REMARK SMILES IDX 68 79 47 80 48 81 56 82 49 83 50 84 54 85 57 86 51 87 52 88
REMARK SMILES IDX 55 89 53 90
REMARK H PARENT 13 7 85 15 18 24 77 43 45 54
REMARK Flexibility Score: inf
ROOT
ATOM      1  C   UNL A   1      39.189  21.334  26.019  1.00  0.00     0.023 C 
ENDROOT
BRANCH   1   2
ATOM      2  C   UNL A   1      38.128  22.416  25.760  1.00  0.00     0.023 C 
BRANCH   2   3
ATOM      3  C   UNL A   1      36.815  21.901  25.162  1.00  0.00     0.116 C 
BRANCH   3   4
ATOM      4  N   UNL A   1      35.790  21.733  26.160  1.00  0.00    -0.352 N 
ATOM      5  C   UNL A   1      34.532  21.196  26.159  1.00  0.00     0.256 C 
ATOM      6  O   UNL A   1      34.025  21.138  27.288  1.00  0.00    -0.269 OA
ATOM      7  H   UNL A   1      36.054  22.081  27.041  1.00  0.00     0.163 HD
BRANCH   5   8
ATOM      8  C   UNL A   1      33.783  20.717  24.991  1.00  0.00     0.105 A 
ATOM      9  C   UNL A   1      35.267  15.949  25.194  1.00  0.00     0.064 C 
ATOM     10  C   UNL A   1      34.448  17.046  24.574  1.00  0.00     0.019 A 
ATOM     11  C   UNL A   1      33.641  16.803  23.525  1.00  0.00     0.095 A 
ATOM     12  N   UNL A   1      34.555  18.313  25.124  1.00  0.00    -0.343 N 
ATOM     13  C   UNL A   1      32.853  17.914  22.920  1.00  0.00     0.274 A 
ATOM     14  C   UNL A   1      33.868  19.375  24.629  1.00  0.00     0.150 A 
ATOM     15  H   UNL A   1      35.148  18.448  25.898  1.00  0.00     0.168 HD
ATOM     16  O   UNL A   1      32.104  17.769  21.971  1.00  0.00    -0.267 OA
ATOM     17  N   UNL A   1      33.053  19.158  23.547  1.00  0.00    -0.179 N 
ATOM     18  N   UNL A   1      32.451  20.288  23.142  1.00  0.00    -0.168 NA
ATOM     19  C   UNL A   1      32.875  21.232  23.999  1.00  0.00     0.075 A 
ATOM     20  C   UNL A   1      32.313  22.581  23.730  1.00  0.00     0.070 C 
ENDBRANCH   5   8
ENDBRANCH   3   4
ENDBRANCH   2   3
ENDBRANCH   1   2
BRANCH   1  21
ATOM     21  C   UNL A   1      40.327  21.775  26.931  1.00  0.00     0.116 C 
BRANCH  21  22
ATOM     22  N   UNL A   1      41.591  21.976  26.227  1.00  0.00    -0.352 N 
ATOM     23  C   UNL A   1      42.197  23.185  25.943  1.00  0.00     0.251 C 
ATOM     24  H   UNL A   1      42.061  21.165  25.923  1.00  0.00     0.163 HD
ATOM     25  O   UNL A   1      43.023  23.295  25.048  1.00  0.00    -0.269 OA
BRANCH  23  26
ATOM     26  C   UNL A   1      41.824  24.349  26.760  1.00  0.00     0.039 A 
ATOM     27  C   UNL A   1      42.436  24.592  27.990  1.00  0.00     0.014 A 
ATOM     28  C   UNL A   1      40.890  25.239  26.227  1.00  0.00     0.014 A 
ATOM     29  C   UNL A   1      42.163  25.789  28.643  1.00  0.00     0.010 A 
ATOM     30  C   UNL A   1      40.714  26.470  26.812  1.00  0.00     0.010 A 
ATOM     31  C   UNL A   1      41.322  26.738  28.034  1.00  0.00    -0.014 A 
BRANCH  31  32
ATOM     32  C   UNL A   1      41.200  28.076  28.611  1.00  0.00     0.031 A 
ATOM     33  C   UNL A   1      42.248  29.027  28.150  1.00  0.00     0.074 A 
ATOM     34  C   UNL A   1      40.145  28.479  29.353  1.00  0.00     0.049 A 
ATOM     35  N   UNL A   1      43.210  29.525  28.853  1.00  0.00    -0.248 NA
ATOM     36  C   UNL A   1      42.334  29.360  26.718  1.00  0.00     0.031 C 
ATOM     37  C   UNL A   1      38.897  27.752  29.614  1.00  0.00     0.029 A 
ATOM     38  N   UNL A   1      39.924  29.679  29.968  1.00  0.00    -0.354 N 
ATOM     39  C   UNL A   1      43.890  30.404  28.013  1.00  0.00     0.074 A 
ATOM     40  C   UNL A   1      43.424  30.133  26.681  1.00  0.00     0.031 C 
ATOM     41  C   UNL A   1      37.970  28.599  30.114  1.00  0.00     0.029 A 
ATOM     42  C   UNL A   1      38.611  29.870  30.388  1.00  0.00     0.049 A 
ATOM     43  H   UNL A   1      40.633  30.349  30.104  1.00  0.00     0.167 HD
ATOM     44  C   UNL A   1      44.559  31.469  28.539  1.00  0.00     0.037 A 
ATOM     45  C   UNL A   1      38.090  30.998  30.927  1.00  0.00     0.037 A 
ATOM     46  C   UNL A   1      44.701  31.318  29.965  1.00  0.00     0.049 A 
ATOM     47  C   UNL A   1      39.215  31.763  31.509  1.00  0.00     0.074 A 
ATOM     48  C   UNL A   1      45.501  30.607  30.830  1.00  0.00     0.029 A 
ATOM     49  N   UNL A   1      43.584  31.696  30.658  1.00  0.00    -0.354 N 
ATOM     50  N   UNL A   1      39.914  31.348  32.529  1.00  0.00    -0.248 NA
ATOM     51  C   UNL A   1      39.804  32.857  30.746  1.00  0.00     0.031 C 
ATOM     52  C   UNL A   1      44.746  30.446  32.032  1.00  0.00     0.029 A 
ATOM     53  C   UNL A   1      43.528  31.107  31.891  1.00  0.00     0.049 A 
ATOM     54  H   UNL A   1      42.904  32.319  30.312  1.00  0.00     0.167 HD
ATOM     55  C   UNL A   1      41.187  31.811  32.273  1.00  0.00     0.074 A 
ATOM     56  C   UNL A   1      41.024  32.873  31.288  1.00  0.00     0.031 C 
ATOM     57  C   UNL A   1      42.279  31.071  32.617  1.00  0.00     0.037 A 
BRANCH  44  58
ATOM     58  C   UNL A   1      44.636  32.845  27.911  1.00  0.00     0.064 A 
ATOM     59  C   UNL A   1      45.854  33.278  27.342  1.00  0.00     0.173 A 
ATOM     60  C   UNL A   1      43.681  33.861  28.132  1.00  0.00     0.173 A 
ATOM     61  F   UNL A   1      46.851  32.408  27.122  1.00  0.00    -0.203 F 
ATOM     62  C   UNL A   1      46.108  34.627  27.067  1.00  0.00     0.198 A 
ATOM     63  C   UNL A   1      43.919  35.197  27.810  1.00  0.00     0.198 A 
ATOM     64  F   UNL A   1      42.531  33.627  28.774  1.00  0.00    -0.203 F 
ATOM     65  F   UNL A   1      47.318  35.003  26.631  1.00  0.00    -0.200 F 
ATOM     66  C   UNL A   1      45.140  35.585  27.302  1.00  0.00     0.200 A 
ATOM     67  F   UNL A   1      42.979  36.116  28.076  1.00  0.00    -0.200 F 
ATOM     68  F   UNL A   1      45.397  36.882  27.087  1.00  0.00    -0.200 F 
ENDBRANCH  44  58
BRANCH  45  69
ATOM     69  C   UNL A   1      36.760  31.617  30.704  1.00  0.00     0.064 A 
ATOM     70  C   UNL A   1      35.885  31.832  31.784  1.00  0.00     0.173 A 
ATOM     71  C   UNL A   1      36.469  32.310  29.514  1.00  0.00     0.173 A 
ATOM     72  F   UNL A   1      36.102  31.225  32.959  1.00  0.00    -0.203 F 
ATOM     73  C   UNL A   1      34.832  32.747  31.703  1.00  0.00     0.198 A 
ATOM     74  C   UNL A   1      35.414  33.220  29.434  1.00  0.00     0.198 A 
ATOM     75  F   UNL A   1      37.269  32.200  28.443  1.00  0.00    -0.203 F 
ATOM     76  F   UNL A   1      34.079  32.996  32.785  1.00  0.00    -0.200 F 
ATOM     77  C   UNL A   1      34.611  33.458  30.536  1.00  0.00     0.200 A 
ATOM     78  F   UNL A   1      35.229  33.925  28.309  1.00  0.00    -0.200 F 
ATOM     79  F   UNL A   1      33.661  34.401  30.485  1.00  0.00    -0.200 F 
ENDBRANCH  45  69
BRANCH  57  80
ATOM     80  C   UNL A   1      42.117  30.064  33.712  1.00  0.00     0.064 A 
ATOM     81  C   UNL A   1      41.730  28.727  33.524  1.00  0.00     0.173 A 
ATOM     82  C   UNL A   1      42.430  30.470  35.015  1.00  0.00     0.173 A 
ATOM     83  F   UNL A   1      41.485  28.244  32.300  1.00  0.00    -0.203 F 
ATOM     84  C   UNL A   1      41.624  27.851  34.605  1.00  0.00     0.198 A 
ATOM     85  C   UNL A   1      42.360  29.586  36.085  1.00  0.00     0.198 A 
ATOM     86  F   UNL A   1      42.838  31.728  35.247  1.00  0.00    -0.203 F 
ATOM     87  F   UNL A   1      41.231  26.584  34.408  1.00  0.00    -0.200 F 
ATOM     88  C   UNL A   1      41.946  28.280  35.883  1.00  0.00     0.200 A 
ATOM     89  F   UNL A   1      42.712  29.996  37.312  1.00  0.00    -0.200 F 
ATOM     90  F   UNL A   1      41.876  27.431  36.916  1.00  0.00    -0.200 F 
ENDBRANCH  57  80
ENDBRANCH  31  32
ENDBRANCH  23  26
ENDBRANCH  21  22
ENDBRANCH   1  21
TORSDOF 11
ENDMDL
MODEL 2
REMARK VINA RESULT:     -13.5      2.835      4.326
REMARK SMILES Cc1cc(=O)n2nc(C)c(C(=O)NCCCCNC(=O)c3ccc(-c4c5nc(c(-c6c(F)c(F)c(F)c(F)c6F)c6ccc([nH]6)c(-c6c(F)c(F)c(F)c(F)c6F)c6nc(c(-c7c(F)c(F)c(F)c(F)c7F)c7ccc4[nH]7)C=C6)C=C5)cc3)c2[nH]1
REMARK SMILES IDX 16 1 15 2 14 3 13 4 11 5 12 6 10 8 1 9 2 10 3 11 85 12 4 13
REMARK SMILES IDX 84 14 5 16 6 17 7 18 8 19 9 20 17 21 18 22 19 23 20 25 21 26
REMARK SMILES IDX 22 27 83 28 23 29 82 30 24 31 25 32 26 33 76 34 27 35 81 36
REMARK SMILES IDX 75 37 77 38 28 39 80 40 74 41 73 42 29 44 61 45 41 46 60 47
REMARK SMILES IDX 42 48 45 49 59 50 78 51 43 52 44 53 58 55 79 56 46 57 30 58
REMARK SMILES IDX 31 59 39 60 32 61 33 62 37 63 40 64 34 65 35 66 38 67 36 68
REMARK SMILES IDX 62 69 63 70 71 71 64 72 65 73 69 74 72 75 66 76 67 77 70 78
REMARK SMILES IDX 68 79 47 80 48 81 56 82 49 83 50 84 54 85 57 86 51 87 52 88
REMARK SMILES IDX 55 89 53 90
REMARK H PARENT 13 7 85 15 18 24 77 43 45 54
REMARK Flexibility Score: inf
ROOT
ATOM      1  C   UNL A   1      41.657  19.830  26.149  1.00  0.00     0.023 C 
ENDROOT
BRANCH   1   2
ATOM      2  C   UNL A   1      41.099  21.006  26.967  1.00  0.00     0.023 C 
BRANCH   2   3
ATOM      3  C   UNL A   1      39.775  21.577  26.453  1.00  0.00     0.116 C 
BRANCH   3   4
ATOM      4  N   UNL A   1      39.020  20.611  25.698  1.00  0.00    -0.352 N 
ATOM      5  C   UNL A   1      37.746  20.567  25.202  1.00  0.00     0.256 C 
ATOM      6  O   UNL A   1      37.534  19.578  24.486  1.00  0.00    -0.269 OA
ATOM      7  H   UNL A   1      39.536  19.799  25.492  1.00  0.00     0.163 HD
BRANCH   5   8
ATOM      8  C   UNL A   1      36.676  21.543  25.442  1.00  0.00     0.105 A 
ATOM      9  C   UNL A   1      32.818  18.457  24.689  1.00  0.00     0.064 C 
ATOM     10  C   UNL A   1      33.371  19.805  25.054  1.00  0.00     0.019 A 
ATOM     11  C   UNL A   1      32.556  20.828  25.371  1.00  0.00     0.095 A 
ATOM     12  N   UNL A   1      34.748  19.953  25.053  1.00  0.00    -0.343 N 
ATOM     13  C   UNL A   1      33.133  22.159  25.714  1.00  0.00     0.274 A 
ATOM     14  C   UNL A   1      35.347  21.135  25.355  1.00  0.00     0.150 A 
ATOM     15  H   UNL A   1      35.311  19.178  24.826  1.00  0.00     0.168 HD
ATOM     16  O   UNL A   1      32.458  23.128  26.010  1.00  0.00    -0.267 OA
ATOM     17  N   UNL A   1      34.538  22.198  25.663  1.00  0.00    -0.179 N 
ATOM     18  N   UNL A   1      35.250  23.308  25.919  1.00  0.00    -0.168 NA
ATOM     19  C   UNL A   1      36.534  22.932  25.794  1.00  0.00     0.075 A 
ATOM     20  C   UNL A   1      37.506  24.026  26.047  1.00  0.00     0.070 C 
ENDBRANCH   5   8
ENDBRANCH   3   4
ENDBRANCH   2   3
ENDBRANCH   1   2
BRANCH   1  21
ATOM     21  C   UNL A   1      43.034  19.350  26.595  1.00  0.00     0.116 C 
BRANCH  21  22
ATOM     22  N   UNL A   1      43.964  19.147  25.488  1.00  0.00    -0.352 N 
ATOM     23  C   UNL A   1      44.444  20.112  24.623  1.00  0.00     0.251 C 
ATOM     24  H   UNL A   1      44.283  18.227  25.343  1.00  0.00     0.163 HD
ATOM     25  O   UNL A   1      44.897  19.822  23.524  1.00  0.00    -0.269 OA
BRANCH  23  26
ATOM     26  C   UNL A   1      44.403  21.514  25.066  1.00  0.00     0.039 A 
ATOM     27  C   UNL A   1      43.511  22.423  24.497  1.00  0.00     0.014 A 
ATOM     28  C   UNL A   1      45.237  21.881  26.123  1.00  0.00     0.014 A 
ATOM     29  C   UNL A   1      43.403  23.689  25.062  1.00  0.00     0.010 A 
ATOM     30  C   UNL A   1      45.043  23.086  26.753  1.00  0.00     0.010 A 
ATOM     31  C   UNL A   1      44.152  24.006  26.210  1.00  0.00    -0.014 A 
BRANCH  31  32
ATOM     32  C   UNL A   1      43.888  25.251  26.928  1.00  0.00     0.031 A 
ATOM     33  C   UNL A   1      44.845  26.345  26.604  1.00  0.00     0.074 A 
ATOM     34  C   UNL A   1      42.786  25.465  27.679  1.00  0.00     0.049 A 
ATOM     35  N   UNL A   1      45.741  26.850  27.384  1.00  0.00    -0.248 NA
ATOM     36  C   UNL A   1      44.922  26.844  25.220  1.00  0.00     0.031 C 
ATOM     37  C   UNL A   1      41.611  24.597  27.823  1.00  0.00     0.029 A 
ATOM     38  N   UNL A   1      42.438  26.561  28.417  1.00  0.00    -0.354 N 
ATOM     39  C   UNL A   1      46.346  27.880  26.666  1.00  0.00     0.074 A 
ATOM     40  C   UNL A   1      45.931  27.717  25.300  1.00  0.00     0.031 C 
ATOM     41  C   UNL A   1      40.597  25.289  28.388  1.00  0.00     0.029 A 
ATOM     42  C   UNL A   1      41.105  26.577  28.818  1.00  0.00     0.049 A 
ATOM     43  H   UNL A   1      43.074  27.276  28.645  1.00  0.00     0.167 HD
ATOM     44  C   UNL A   1      46.897  28.938  27.325  1.00  0.00     0.037 A 
ATOM     45  C   UNL A   1      40.466  27.582  29.465  1.00  0.00     0.037 A 
ATOM     46  C   UNL A   1      47.029  28.641  28.729  1.00  0.00     0.049 A 
ATOM     47  C   UNL A   1      41.500  28.381  30.158  1.00  0.00     0.074 A 
ATOM     48  C   UNL A   1      47.880  27.917  29.531  1.00  0.00     0.029 A 
ATOM     49  N   UNL A   1      45.869  28.830  29.428  1.00  0.00    -0.354 N 
ATOM     50  N   UNL A   1      42.219  27.922  31.146  1.00  0.00    -0.248 NA
ATOM     51  C   UNL A   1      41.991  29.606  29.538  1.00  0.00     0.031 C 
ATOM     52  C   UNL A   1      47.124  27.550  30.687  1.00  0.00     0.029 A 
ATOM     53  C   UNL A   1      45.850  28.103  30.586  1.00  0.00     0.049 A 
ATOM     54  H   UNL A   1      45.136  29.419  29.134  1.00  0.00     0.167 HD
ATOM     55  C   UNL A   1      43.445  28.532  30.978  1.00  0.00     0.074 A 
ATOM     56  C   UNL A   1      43.194  29.677  30.112  1.00  0.00     0.031 C 
ATOM     57  C   UNL A   1      44.598  27.865  31.268  1.00  0.00     0.037 A 
BRANCH  44  58
ATOM     58  C   UNL A   1      46.848  30.377  26.855  1.00  0.00     0.064 A 
ATOM     59  C   UNL A   1      48.010  31.176  26.952  1.00  0.00     0.173 A 
ATOM     60  C   UNL A   1      45.649  31.086  26.626  1.00  0.00     0.173 A 
ATOM     61  F   UNL A   1      49.202  30.617  27.207  1.00  0.00    -0.203 F 
ATOM     62  C   UNL A   1      47.960  32.572  26.877  1.00  0.00     0.198 A 
ATOM     63  C   UNL A   1      45.610  32.474  26.501  1.00  0.00     0.198 A 
ATOM     64  F   UNL A   1      44.455  30.482  26.632  1.00  0.00    -0.203 F 
ATOM     65  F   UNL A   1      49.070  33.292  27.085  1.00  0.00    -0.200 F 
ATOM     66  C   UNL A   1      46.760  33.220  26.652  1.00  0.00     0.200 A 
ATOM     67  F   UNL A   1      44.432  33.086  26.316  1.00  0.00    -0.200 F 
ATOM     68  F   UNL A   1      46.700  34.558  26.628  1.00  0.00    -0.200 F 
ENDBRANCH  44  58
BRANCH  45  69
ATOM     69  C   UNL A   1      39.085  28.091  29.274  1.00  0.00     0.064 A 
ATOM     70  C   UNL A   1      38.235  28.272  30.379  1.00  0.00     0.173 A 
ATOM     71  C   UNL A   1      38.702  28.723  28.076  1.00  0.00     0.173 A 
ATOM     72  F   UNL A   1      38.539  27.718  31.562  1.00  0.00    -0.203 F 
ATOM     73  C   UNL A   1      37.112  29.102  30.312  1.00  0.00     0.198 A 
ATOM     74  C   UNL A   1      37.577  29.549  28.011  1.00  0.00     0.198 A 
ATOM     75  F   UNL A   1      39.469  28.642  26.980  1.00  0.00    -0.203 F 
ATOM     76  F   UNL A   1      36.381  29.326  31.414  1.00  0.00    -0.200 F 
ATOM     77  C   UNL A   1      36.797  29.758  29.135  1.00  0.00     0.200 A 
ATOM     78  F   UNL A   1      37.300  30.203  26.874  1.00  0.00    -0.200 F 
ATOM     79  F   UNL A   1      35.776  30.625  29.094  1.00  0.00    -0.200 F 
ENDBRANCH  45  69
BRANCH  57  80
ATOM     80  C   UNL A   1      44.517  26.731  32.241  1.00  0.00     0.064 A 
ATOM     81  C   UNL A   1      44.406  26.874  33.634  1.00  0.00     0.173 A 
ATOM     82  C   UNL A   1      44.493  25.432  31.719  1.00  0.00     0.173 A 
ATOM     83  F   UNL A   1      44.349  28.084  34.202  1.00  0.00    -0.203 F 
ATOM     84  C   UNL A   1      44.315  25.757  34.465  1.00  0.00     0.198 A 
ATOM     85  C   UNL A   1      44.364  24.322  32.546  1.00  0.00     0.198 A 
ATOM     86  F   UNL A   1      44.561  25.239  30.392  1.00  0.00    -0.203 F 
ATOM     87  F   UNL A   1      44.233  25.913  35.794  1.00  0.00    -0.200 F 
ATOM     88  C   UNL A   1      44.287  24.483  33.920  1.00  0.00     0.200 A 
ATOM     89  F   UNL A   1      44.296  23.096  32.009  1.00  0.00    -0.200 F 
ATOM     90  F   UNL A   1      44.167  23.412  34.715  1.00  0.00    -0.200 F 
ENDBRANCH  57  80
ENDBRANCH  31  32
ENDBRANCH  23  26
ENDBRANCH  21  22
ENDBRANCH   1  21
TORSDOF 11
ENDMDL
MODEL 3
REMARK VINA RESULT:     -13.4      4.809      9.929
REMARK SMILES Cc1cc(=O)n2nc(C)c(C(=O)NCCCCNC(=O)c3ccc(-c4c5nc(c(-c6c(F)c(F)c(F)c(F)c6F)c6ccc([nH]6)c(-c6c(F)c(F)c(F)c(F)c6F)c6nc(c(-c7c(F)c(F)c(F)c(F)c7F)c7ccc4[nH]7)C=C6)C=C5)cc3)c2[nH]1
REMARK SMILES IDX 16 1 15 2 14 3 13 4 11 5 12 6 10 8 1 9 2 10 3 11 85 12 4 13
REMARK SMILES IDX 84 14 5 16 6 17 7 18 8 19 9 20 17 21 18 22 19 23 20 25 21 26
REMARK SMILES IDX 22 27 83 28 23 29 82 30 24 31 25 32 26 33 76 34 27 35 81 36
REMARK SMILES IDX 75 37 77 38 28 39 80 40 74 41 73 42 29 44 61 45 41 46 60 47
REMARK SMILES IDX 42 48 45 49 59 50 78 51 43 52 44 53 58 55 79 56 46 57 30 58
REMARK SMILES IDX 31 59 39 60 32 61 33 62 37 63 40 64 34 65 35 66 38 67 36 68
REMARK SMILES IDX 62 69 63 70 71 71 64 72 65 73 69 74 72 75 66 76 67 77 70 78
REMARK SMILES IDX 68 79 47 80 48 81 56 82 49 83 50 84 54 85 57 86 51 87 52 88
REMARK SMILES IDX 55 89 53 90
REMARK H PARENT 13 7 85 15 18 24 77 43 45 54
REMARK Flexibility Score: inf
ROOT
ATOM      1  C   UNL A   1      33.376  30.684  27.411  1.00  0.00     0.023 C 
ENDROOT
BRANCH   1   2
ATOM      2  C   UNL A   1      33.919  29.290  27.058  1.00  0.00     0.023 C 
BRANCH   2   3
ATOM      3  C   UNL A   1      33.016  28.460  26.141  1.00  0.00     0.116 C 
BRANCH   3   4
ATOM      4  N   UNL A   1      33.201  28.788  24.751  1.00  0.00    -0.352 N 
ATOM      5  C   UNL A   1      32.376  28.837  23.661  1.00  0.00     0.256 C 
ATOM      6  O   UNL A   1      32.926  29.300  22.652  1.00  0.00    -0.269 OA
ATOM      7  H   UNL A   1      34.129  29.033  24.536  1.00  0.00     0.163 HD
BRANCH   5   8
ATOM      8  C   UNL A   1      30.974  28.405  23.600  1.00  0.00     0.105 A 
ATOM      9  C   UNL A   1      28.931  32.937  23.082  1.00  0.00     0.064 C 
ATOM     10  C   UNL A   1      28.809  31.441  23.164  1.00  0.00     0.019 A 
ATOM     11  C   UNL A   1      27.612  30.834  23.068  1.00  0.00     0.095 A 
ATOM     12  N   UNL A   1      29.975  30.714  23.340  1.00  0.00    -0.343 N 
ATOM     13  C   UNL A   1      27.520  29.350  23.169  1.00  0.00     0.274 A 
ATOM     14  C   UNL A   1      29.972  29.358  23.440  1.00  0.00     0.150 A 
ATOM     15  H   UNL A   1      30.833  31.193  23.395  1.00  0.00     0.168 HD
ATOM     16  O   UNL A   1      26.473  28.735  23.092  1.00  0.00    -0.267 OA
ATOM     17  N   UNL A   1      28.762  28.718  23.365  1.00  0.00    -0.179 N 
ATOM     18  N   UNL A   1      28.893  27.388  23.500  1.00  0.00    -0.168 NA
ATOM     19  C   UNL A   1      30.213  27.183  23.639  1.00  0.00     0.075 A 
ATOM     20  C   UNL A   1      30.584  25.753  23.797  1.00  0.00     0.070 C 
ENDBRANCH   5   8
ENDBRANCH   3   4
ENDBRANCH   2   3
ENDBRANCH   1   2
BRANCH   1  21
ATOM     21  C   UNL A   1      34.452  31.742  27.628  1.00  0.00     0.116 C 
BRANCH  21  22
ATOM     22  N   UNL A   1      34.434  32.320  28.969  1.00  0.00    -0.352 N 
ATOM     23  C   UNL A   1      35.235  31.958  30.036  1.00  0.00     0.251 C 
ATOM     24  H   UNL A   1      33.785  33.043  29.130  1.00  0.00     0.163 HD
ATOM     25  O   UNL A   1      34.916  32.204  31.191  1.00  0.00    -0.269 OA
BRANCH  23  26
ATOM     26  C   UNL A   1      36.501  31.268  29.743  1.00  0.00     0.039 A 
ATOM     27  C   UNL A   1      37.698  31.976  29.631  1.00  0.00     0.014 A 
ATOM     28  C   UNL A   1      36.470  29.876  29.655  1.00  0.00     0.014 A 
ATOM     29  C   UNL A   1      38.884  31.260  29.515  1.00  0.00     0.010 A 
ATOM     30  C   UNL A   1      37.649  29.169  29.661  1.00  0.00     0.010 A 
ATOM     31  C   UNL A   1      38.856  29.854  29.560  1.00  0.00    -0.014 A 
BRANCH  31  32
ATOM     32  C   UNL A   1      40.108  29.106  29.650  1.00  0.00     0.031 A 
ATOM     33  C   UNL A   1      40.587  28.901  31.045  1.00  0.00     0.074 A 
ATOM     34  C   UNL A   1      40.697  28.498  28.596  1.00  0.00     0.049 A 
ATOM     35  N   UNL A   1      41.626  29.433  31.596  1.00  0.00    -0.248 NA
ATOM     36  C   UNL A   1      39.749  28.137  31.984  1.00  0.00     0.031 C 
ATOM     37  C   UNL A   1      40.170  28.346  27.235  1.00  0.00     0.029 A 
ATOM     38  N   UNL A   1      41.870  27.800  28.541  1.00  0.00    -0.354 N 
ATOM     39  C   UNL A   1      41.700  28.899  32.881  1.00  0.00     0.074 A 
ATOM     40  C   UNL A   1      40.439  28.254  33.124  1.00  0.00     0.031 C 
ATOM     41  C   UNL A   1      40.887  27.414  26.568  1.00  0.00     0.029 A 
ATOM     42  C   UNL A   1      42.030  27.047  27.381  1.00  0.00     0.049 A 
ATOM     43  H   UNL A   1      42.543  27.827  29.258  1.00  0.00     0.167 HD
ATOM     44  C   UNL A   1      42.906  28.794  33.507  1.00  0.00     0.037 A 
ATOM     45  C   UNL A   1      43.039  26.185  27.108  1.00  0.00     0.037 A 
ATOM     46  C   UNL A   1      43.901  29.570  32.812  1.00  0.00     0.049 A 
ATOM     47  C   UNL A   1      44.191  26.583  27.946  1.00  0.00     0.074 A 
ATOM     48  C   UNL A   1      44.261  30.894  32.713  1.00  0.00     0.029 A 
ATOM     49  N   UNL A   1      44.425  28.921  31.727  1.00  0.00    -0.354 N 
ATOM     50  N   UNL A   1      44.833  27.709  27.796  1.00  0.00    -0.248 NA
ATOM     51  C   UNL A   1      44.440  25.880  29.199  1.00  0.00     0.031 C 
ATOM     52  C   UNL A   1      44.898  31.042  31.442  1.00  0.00     0.029 A 
ATOM     53  C   UNL A   1      44.958  29.796  30.822  1.00  0.00     0.049 A 
ATOM     54  H   UNL A   1      44.421  27.943  31.613  1.00  0.00     0.167 HD
ATOM     55  C   UNL A   1      45.201  28.058  29.078  1.00  0.00     0.074 A 
ATOM     56  C   UNL A   1      45.107  26.830  29.857  1.00  0.00     0.031 C 
ATOM     57  C   UNL A   1      45.215  29.365  29.466  1.00  0.00     0.037 A 
BRANCH  44  58
ATOM     58  C   UNL A   1      43.327  27.643  34.398  1.00  0.00     0.064 A 
ATOM     59  C   UNL A   1      43.493  26.359  33.835  1.00  0.00     0.173 A 
ATOM     60  C   UNL A   1      43.255  27.677  35.807  1.00  0.00     0.173 A 
ATOM     61  F   UNL A   1      43.536  26.198  32.503  1.00  0.00    -0.203 F 
ATOM     62  C   UNL A   1      43.531  25.201  34.621  1.00  0.00     0.198 A 
ATOM     63  C   UNL A   1      43.344  26.526  36.591  1.00  0.00     0.198 A 
ATOM     64  F   UNL A   1      42.977  28.801  36.478  1.00  0.00    -0.203 F 
ATOM     65  F   UNL A   1      43.579  23.998  34.035  1.00  0.00    -0.200 F 
ATOM     66  C   UNL A   1      43.456  25.286  35.998  1.00  0.00     0.200 A 
ATOM     67  F   UNL A   1      43.235  26.627  37.923  1.00  0.00    -0.200 F 
ATOM     68  F   UNL A   1      43.442  24.179  36.751  1.00  0.00    -0.200 F 
ENDBRANCH  44  58
BRANCH  45  69
ATOM     69  C   UNL A   1      42.987  24.867  26.428  1.00  0.00     0.064 A 
ATOM     70  C   UNL A   1      43.749  24.634  25.269  1.00  0.00     0.173 A 
ATOM     71  C   UNL A   1      42.476  23.730  27.082  1.00  0.00     0.173 A 
ATOM     72  F   UNL A   1      44.288  25.662  24.599  1.00  0.00    -0.203 F 
ATOM     73  C   UNL A   1      44.049  23.339  24.837  1.00  0.00     0.198 A 
ATOM     74  C   UNL A   1      42.774  22.438  26.645  1.00  0.00     0.198 A 
ATOM     75  F   UNL A   1      41.773  23.849  28.217  1.00  0.00    -0.203 F 
ATOM     76  F   UNL A   1      44.859  23.158  23.783  1.00  0.00    -0.200 F 
ATOM     77  C   UNL A   1      43.581  22.242  25.538  1.00  0.00     0.200 A 
ATOM     78  F   UNL A   1      42.341  21.383  27.351  1.00  0.00    -0.200 F 
ATOM     79  F   UNL A   1      43.943  21.003  25.180  1.00  0.00    -0.200 F 
ENDBRANCH  45  69
BRANCH  57  80
ATOM     80  C   UNL A   1      45.359  30.403  28.399  1.00  0.00     0.064 A 
ATOM     81  C   UNL A   1      44.291  30.998  27.707  1.00  0.00     0.173 A 
ATOM     82  C   UNL A   1      46.651  30.858  28.108  1.00  0.00     0.173 A 
ATOM     83  F   UNL A   1      43.022  30.670  27.981  1.00  0.00    -0.203 F 
ATOM     84  C   UNL A   1      44.518  31.976  26.739  1.00  0.00     0.198 A 
ATOM     85  C   UNL A   1      46.872  31.860  27.171  1.00  0.00     0.198 A 
ATOM     86  F   UNL A   1      47.706  30.348  28.765  1.00  0.00    -0.203 F 
ATOM     87  F   UNL A   1      43.486  32.516  26.073  1.00  0.00    -0.200 F 
ATOM     88  C   UNL A   1      45.808  32.411  26.477  1.00  0.00     0.200 A 
ATOM     89  F   UNL A   1      48.118  32.303  26.952  1.00  0.00    -0.200 F 
ATOM     90  F   UNL A   1      46.023  33.373  25.570  1.00  0.00    -0.200 F 
ENDBRANCH  57  80
ENDBRANCH  31  32
ENDBRANCH  23  26
ENDBRANCH  21  22
ENDBRANCH   1  21
TORSDOF 11
ENDMDL
