MODEL 1
REMARK VINA RESULT:     -13.2      0.000      0.000
REMARK SMILES CC(C)N(c1cc2c(cc1Cl)C=C(C(=O)NCCCCNC(=O)c1ccc(-c3c4nc(c(-c5c(F)c(F)c(F)c(F)c5F)c5ccc([nH]5)c(-c5c(F)c(F)c(F)c(F)c5F)c5nc(c(-c6c(F)c(F)c(F)c(F)c6F)c6ccc3[nH]6)C=C5)C=C4)cc1)[C@@H](C(F)(F)F)O2)C(C)C
REMARK SMILES IDX 18 1 17 2 16 3 14 4 15 5 13 7 5 8 6 9 10 10 7 11 9 12 11 13
REMARK SMILES IDX 8 14 92 15 12 16 87 17 4 18 2 19 1 20 3 21 93 22 94 23 95 24
REMARK SMILES IDX 88 25 89 26 90 27 91 28 19 29 20 30 21 31 22 32 23 34 24 35
REMARK SMILES IDX 25 36 86 37 26 38 85 39 27 40 28 41 29 42 79 43 30 44 84 45
REMARK SMILES IDX 78 46 80 47 31 48 83 49 77 50 76 51 32 53 64 54 44 55 63 56
REMARK SMILES IDX 45 57 48 58 62 59 81 60 46 61 47 62 61 64 82 65 49 66 33 67
REMARK SMILES IDX 34 68 42 69 35 70 36 71 40 72 43 73 37 74 38 75 41 76 39 77
REMARK SMILES IDX 65 78 66 79 74 80 67 81 68 82 72 83 75 84 69 85 70 86 73 87
REMARK SMILES IDX 71 88 50 89 51 90 59 91 52 92 53 93 57 94 60 95 54 96 55 97
REMARK SMILES IDX 58 98 56 99
REMARK H PARENT 16 6 21 33 80 52 48 63
REMARK Flexibility Score: inf
ROOT
ATOM      1  C   UNL A   1      32.300  30.413  26.857  1.00  0.00     0.023 C 
ENDROOT
BRANCH   1   2
ATOM      2  C   UNL A   1      32.511  30.026  25.396  1.00  0.00     0.116 C 
BRANCH   2   3
ATOM      3  N   UNL A   1      31.252  29.803  24.709  1.00  0.00    -0.352 N 
ATOM      4  C   UNL A   1      30.642  28.771  24.079  1.00  0.00     0.251 C 
ATOM      5  O   UNL A   1      29.534  29.033  23.603  1.00  0.00    -0.270 OA
ATOM      6  H   UNL A   1      30.695  30.615  24.699  1.00  0.00     0.163 HD
BRANCH   4   7
ATOM      7  C   UNL A   1      31.201  27.396  23.935  1.00  0.00     0.067 C 
ATOM      8  C   UNL A   1      32.820  22.665  24.765  1.00  0.00     0.060 A 
ATOM      9  C   UNL A   1      32.545  23.442  23.624  1.00  0.00     0.074 A 
ATOM     10  C   UNL A   1      32.493  23.238  26.018  1.00  0.00     0.065 A 
ATOM     11  C   UNL A   1      32.023  24.731  23.727  1.00  0.00     0.130 A 
ATOM     12  C   UNL A   1      31.908  24.513  26.111  1.00  0.00     0.034 A 
ATOM     13  Cl  UNL A   1      32.870  22.473  27.527  1.00  0.00    -0.082 Cl
ATOM     14  C   UNL A   1      31.684  25.269  24.964  1.00  0.00     0.019 A 
ATOM     15  O   UNL A   1      31.849  25.426  22.562  1.00  0.00    -0.475 OA
ATOM     16  C   UNL A   1      31.106  26.606  25.023  1.00  0.00     0.025 C 
ATOM     17  C   UNL A   1      31.888  26.875  22.703  1.00  0.00     0.314 C 
BRANCH   8  18
ATOM     18  N   UNL A   1      33.421  21.401  24.599  1.00  0.00    -0.365 N 
BRANCH  18  19
ATOM     19  C   UNL A   1      34.899  21.354  24.571  1.00  0.00     0.076 C 
ATOM     20  C   UNL A   1      35.515  22.508  23.782  1.00  0.00     0.030 C 
ATOM     21  C   UNL A   1      35.527  21.249  25.959  1.00  0.00     0.030 C 
ENDBRANCH  18  19
BRANCH  18  22
ATOM     22  C   UNL A   1      32.507  20.234  24.611  1.00  0.00     0.076 C 
ATOM     23  C   UNL A   1      32.336  19.607  23.231  1.00  0.00     0.030 C 
ATOM     24  C   UNL A   1      32.865  19.187  25.660  1.00  0.00     0.030 C 
ENDBRANCH  18  22
ENDBRANCH   8  18
BRANCH  17  25
ATOM     25  C   UNL A   1      33.343  27.376  22.584  1.00  0.00     0.429 C 
ATOM     26  F   UNL A   1      34.052  26.577  21.747  1.00  0.00    -0.167 F 
ATOM     27  F   UNL A   1      33.417  28.627  22.069  1.00  0.00    -0.167 F 
ATOM     28  F   UNL A   1      33.993  27.402  23.768  1.00  0.00    -0.167 F 
ENDBRANCH  17  25
ENDBRANCH   4   7
ENDBRANCH   2   3
ENDBRANCH   1   2
BRANCH   1  29
ATOM     29  C   UNL A   1      31.849  31.859  27.063  1.00  0.00     0.023 C 
BRANCH  29  30
ATOM     30  C   UNL A   1      32.920  32.809  27.593  1.00  0.00     0.116 C 
BRANCH  30  31
ATOM     31  N   UNL A   1      32.457  34.175  27.798  1.00  0.00    -0.352 N 
ATOM     32  C   UNL A   1      32.991  35.126  28.639  1.00  0.00     0.251 C 
ATOM     33  H   UNL A   1      31.671  34.451  27.275  1.00  0.00     0.163 HD
ATOM     34  O   UNL A   1      32.479  36.231  28.761  1.00  0.00    -0.269 OA
BRANCH  32  35
ATOM     35  C   UNL A   1      34.172  34.752  29.438  1.00  0.00     0.039 A 
ATOM     36  C   UNL A   1      35.440  34.769  28.852  1.00  0.00     0.014 A 
ATOM     37  C   UNL A   1      33.977  34.248  30.725  1.00  0.00     0.014 A 
ATOM     38  C   UNL A   1      36.492  34.132  29.498  1.00  0.00     0.010 A 
ATOM     39  C   UNL A   1      35.051  33.663  31.396  1.00  0.00     0.010 A 
ATOM     40  C   UNL A   1      36.299  33.552  30.763  1.00  0.00    -0.014 A 
BRANCH  40  41
ATOM     41  C   UNL A   1      37.401  32.792  31.397  1.00  0.00     0.031 A 
ATOM     42  C   UNL A   1      37.832  33.110  32.802  1.00  0.00     0.074 A 
ATOM     43  C   UNL A   1      37.973  31.778  30.725  1.00  0.00     0.049 A 
ATOM     44  N   UNL A   1      38.814  32.599  33.501  1.00  0.00    -0.248 NA
ATOM     45  C   UNL A   1      37.060  34.139  33.519  1.00  0.00     0.031 C 
ATOM     46  C   UNL A   1      37.605  31.350  29.376  1.00  0.00     0.029 A 
ATOM     47  N   UNL A   1      38.971  30.914  31.092  1.00  0.00    -0.354 N 
ATOM     48  C   UNL A   1      38.794  33.257  34.724  1.00  0.00     0.074 A 
ATOM     49  C   UNL A   1      37.708  34.213  34.674  1.00  0.00     0.031 C 
ATOM     50  C   UNL A   1      38.335  30.274  29.044  1.00  0.00     0.029 A 
ATOM     51  C   UNL A   1      39.263  29.979  30.131  1.00  0.00     0.049 A 
ATOM     52  H   UNL A   1      39.433  30.958  31.960  1.00  0.00     0.167 HD
ATOM     53  C   UNL A   1      39.609  33.075  35.790  1.00  0.00     0.037 A 
ATOM     54  C   UNL A   1      40.189  29.004  30.120  1.00  0.00     0.037 A 
ATOM     55  C   UNL A   1      40.676  32.110  35.841  1.00  0.00     0.049 A 
ATOM     56  C   UNL A   1      41.098  28.844  31.304  1.00  0.00     0.074 A 
ATOM     57  C   UNL A   1      41.583  31.876  36.860  1.00  0.00     0.029 A 
ATOM     58  N   UNL A   1      40.967  31.204  34.831  1.00  0.00    -0.354 N 
ATOM     59  N   UNL A   1      41.117  29.519  32.426  1.00  0.00    -0.248 NA
ATOM     60  C   UNL A   1      42.124  27.798  31.212  1.00  0.00     0.031 C 
ATOM     61  C   UNL A   1      42.435  30.840  36.459  1.00  0.00     0.029 A 
ATOM     62  C   UNL A   1      42.036  30.408  35.204  1.00  0.00     0.049 A 
ATOM     63  H   UNL A   1      40.484  31.139  33.976  1.00  0.00     0.167 HD
ATOM     64  C   UNL A   1      42.149  28.979  33.178  1.00  0.00     0.074 A 
ATOM     65  C   UNL A   1      42.721  27.905  32.392  1.00  0.00     0.031 C 
ATOM     66  C   UNL A   1      42.588  29.344  34.406  1.00  0.00     0.037 A 
BRANCH  53  67
ATOM     67  C   UNL A   1      39.395  33.949  36.989  1.00  0.00     0.064 A 
ATOM     68  C   UNL A   1      38.669  33.500  38.102  1.00  0.00     0.173 A 
ATOM     69  C   UNL A   1      39.974  35.226  37.050  1.00  0.00     0.173 A 
ATOM     70  F   UNL A   1      38.083  32.294  38.083  1.00  0.00    -0.203 F 
ATOM     71  C   UNL A   1      38.525  34.302  39.232  1.00  0.00     0.198 A 
ATOM     72  C   UNL A   1      39.844  36.016  38.189  1.00  0.00     0.198 A 
ATOM     73  F   UNL A   1      40.678  35.698  36.012  1.00  0.00    -0.203 F 
ATOM     74  F   UNL A   1      37.806  33.865  40.274  1.00  0.00    -0.200 F 
ATOM     75  C   UNL A   1      39.119  35.556  39.278  1.00  0.00     0.200 A 
ATOM     76  F   UNL A   1      40.424  37.224  38.235  1.00  0.00    -0.200 F 
ATOM     77  F   UNL A   1      38.989  36.321  40.370  1.00  0.00    -0.200 F 
ENDBRANCH  53  67
BRANCH  54  78
ATOM     78  C   UNL A   1      40.290  28.110  28.943  1.00  0.00     0.064 A 
ATOM     79  C   UNL A   1      39.593  26.895  28.905  1.00  0.00     0.173 A 
ATOM     80  C   UNL A   1      41.047  28.469  27.818  1.00  0.00     0.173 A 
ATOM     81  F   UNL A   1      38.874  26.503  29.966  1.00  0.00    -0.203 F 
ATOM     82  C   UNL A   1      39.648  26.073  27.782  1.00  0.00     0.198 A 
ATOM     83  C   UNL A   1      41.082  27.657  26.688  1.00  0.00     0.198 A 
ATOM     84  F   UNL A   1      41.727  29.625  27.808  1.00  0.00    -0.203 F 
ATOM     85  F   UNL A   1      38.989  24.906  27.777  1.00  0.00    -0.200 F 
ATOM     86  C   UNL A   1      40.384  26.458  26.671  1.00  0.00     0.200 A 
ATOM     87  F   UNL A   1      41.781  28.041  25.612  1.00  0.00    -0.200 F 
ATOM     88  F   UNL A   1      40.423  25.675  25.586  1.00  0.00    -0.200 F 
ENDBRANCH  54  78
BRANCH  66  89
ATOM     89  C   UNL A   1      43.729  28.564  34.980  1.00  0.00     0.064 A 
ATOM     90  C   UNL A   1      43.512  27.380  35.700  1.00  0.00     0.173 A 
ATOM     91  C   UNL A   1      45.051  28.984  34.780  1.00  0.00     0.173 A 
ATOM     92  F   UNL A   1      42.263  26.948  35.927  1.00  0.00    -0.203 F 
ATOM     93  C   UNL A   1      44.581  26.653  36.216  1.00  0.00     0.198 A 
ATOM     94  C   UNL A   1      46.118  28.246  35.280  1.00  0.00     0.198 A 
ATOM     95  F   UNL A   1      45.305  30.109  34.094  1.00  0.00    -0.203 F 
ATOM     96  F   UNL A   1      44.353  25.544  36.930  1.00  0.00    -0.200 F 
ATOM     97  C   UNL A   1      45.883  27.085  36.001  1.00  0.00     0.200 A 
ATOM     98  F   UNL A   1      47.375  28.659  35.067  1.00  0.00    -0.200 F 
ATOM     99  F   UNL A   1      46.912  26.384  36.498  1.00  0.00    -0.200 F 
ENDBRANCH  66  89
ENDBRANCH  40  41
ENDBRANCH  32  35
ENDBRANCH  30  31
ENDBRANCH  29  30
ENDBRANCH   1  29
TORSDOF 15
ENDMDL
MODEL 2
REMARK VINA RESULT:     -13.1      0.444      1.652
REMARK SMILES CC(C)N(c1cc2c(cc1Cl)C=C(C(=O)NCCCCNC(=O)c1ccc(-c3c4nc(c(-c5c(F)c(F)c(F)c(F)c5F)c5ccc([nH]5)c(-c5c(F)c(F)c(F)c(F)c5F)c5nc(c(-c6c(F)c(F)c(F)c(F)c6F)c6ccc3[nH]6)C=C5)C=C4)cc1)[C@@H](C(F)(F)F)O2)C(C)C
REMARK SMILES IDX 18 1 17 2 16 3 14 4 15 5 13 7 5 8 6 9 10 10 7 11 9 12 11 13
REMARK SMILES IDX 8 14 92 15 12 16 87 17 4 18 2 19 1 20 3 21 93 22 94 23 95 24
REMARK SMILES IDX 88 25 89 26 90 27 91 28 19 29 20 30 21 31 22 32 23 34 24 35
REMARK SMILES IDX 25 36 86 37 26 38 85 39 27 40 28 41 29 42 79 43 30 44 84 45
REMARK SMILES IDX 78 46 80 47 31 48 83 49 77 50 76 51 32 53 64 54 44 55 63 56
REMARK SMILES IDX 45 57 48 58 62 59 81 60 46 61 47 62 61 64 82 65 49 66 33 67
REMARK SMILES IDX 34 68 42 69 35 70 36 71 40 72 43 73 37 74 38 75 41 76 39 77
REMARK SMILES IDX 65 78 66 79 74 80 67 81 68 82 72 83 75 84 69 85 70 86 73 87
REMARK SMILES IDX 71 88 50 89 51 90 59 91 52 92 53 93 57 94 60 95 54 96 55 97
REMARK SMILES IDX 58 98 56 99
REMARK H PARENT 16 6 21 33 80 52 48 63
REMARK Flexibility Score: inf
ROOT
ATOM      1  C   UNL A   1      32.218  30.453  26.730  1.00  0.00     0.023 C 
ENDROOT
BRANCH   1   2
ATOM      2  C   UNL A   1      32.407  30.018  25.279  1.00  0.00     0.116 C 
BRANCH   2   3
ATOM      3  N   UNL A   1      31.155  29.610  24.670  1.00  0.00    -0.352 N 
ATOM      4  C   UNL A   1      30.655  28.487  24.102  1.00  0.00     0.251 C 
ATOM      5  O   UNL A   1      29.498  28.586  23.682  1.00  0.00    -0.270 OA
ATOM      6  H   UNL A   1      30.495  30.341  24.670  1.00  0.00     0.163 HD
BRANCH   4   7
ATOM      7  C   UNL A   1      31.384  27.193  23.962  1.00  0.00     0.067 C 
ATOM      8  C   UNL A   1      33.614  22.722  24.811  1.00  0.00     0.060 A 
ATOM      9  C   UNL A   1      33.218  23.440  23.667  1.00  0.00     0.074 A 
ATOM     10  C   UNL A   1      33.241  23.265  26.064  1.00  0.00     0.065 A 
ATOM     11  C   UNL A   1      32.537  24.653  23.767  1.00  0.00     0.130 A 
ATOM     12  C   UNL A   1      32.499  24.456  26.156  1.00  0.00     0.034 A 
ATOM     13  Cl  UNL A   1      33.743  22.577  27.574  1.00  0.00    -0.082 Cl
ATOM     14  C   UNL A   1      32.156  25.160  25.004  1.00  0.00     0.019 A 
ATOM     15  O   UNL A   1      32.252  25.303  22.598  1.00  0.00    -0.475 OA
ATOM     16  C   UNL A   1      31.413  26.413  25.060  1.00  0.00     0.025 C 
ATOM     17  C   UNL A   1      32.107  26.747  22.721  1.00  0.00     0.314 C 
BRANCH   8  18
ATOM     18  N   UNL A   1      34.369  21.543  24.647  1.00  0.00    -0.365 N 
BRANCH  18  19
ATOM     19  C   UNL A   1      35.826  21.696  24.444  1.00  0.00     0.076 C 
ATOM     20  C   UNL A   1      36.172  22.778  23.423  1.00  0.00     0.030 C 
ATOM     21  C   UNL A   1      36.597  21.910  25.744  1.00  0.00     0.030 C 
ENDBRANCH  18  19
BRANCH  18  22
ATOM     22  C   UNL A   1      33.640  20.266  24.836  1.00  0.00     0.076 C 
ATOM     23  C   UNL A   1      32.373  20.182  23.990  1.00  0.00     0.030 C 
ATOM     24  C   UNL A   1      34.514  19.030  24.656  1.00  0.00     0.030 C 
ENDBRANCH  18  22
ENDBRANCH   8  18
BRANCH  17  25
ATOM     25  C   UNL A   1      33.483  27.429  22.565  1.00  0.00     0.429 C 
ATOM     26  F   UNL A   1      34.089  27.555  23.772  1.00  0.00    -0.167 F 
ATOM     27  F   UNL A   1      34.329  26.709  21.788  1.00  0.00    -0.167 F 
ATOM     28  F   UNL A   1      33.404  28.662  22.019  1.00  0.00    -0.167 F 
ENDBRANCH  17  25
ENDBRANCH   4   7
ENDBRANCH   2   3
ENDBRANCH   1   2
BRANCH   1  29
ATOM     29  C   UNL A   1      31.818  31.919  26.897  1.00  0.00     0.023 C 
BRANCH  29  30
ATOM     30  C   UNL A   1      32.850  32.803  27.592  1.00  0.00     0.116 C 
BRANCH  30  31
ATOM     31  N   UNL A   1      32.417  34.180  27.795  1.00  0.00    -0.352 N 
ATOM     32  C   UNL A   1      32.987  35.128  28.614  1.00  0.00     0.251 C 
ATOM     33  H   UNL A   1      31.624  34.465  27.286  1.00  0.00     0.163 HD
ATOM     34  O   UNL A   1      32.498  36.244  28.737  1.00  0.00    -0.269 OA
BRANCH  32  35
ATOM     35  C   UNL A   1      34.178  34.740  29.391  1.00  0.00     0.039 A 
ATOM     36  C   UNL A   1      35.440  34.783  28.793  1.00  0.00     0.014 A 
ATOM     37  C   UNL A   1      34.000  34.197  30.664  1.00  0.00     0.014 A 
ATOM     38  C   UNL A   1      36.503  34.135  29.409  1.00  0.00     0.010 A 
ATOM     39  C   UNL A   1      35.084  33.601  31.307  1.00  0.00     0.010 A 
ATOM     40  C   UNL A   1      36.327  33.517  30.659  1.00  0.00    -0.014 A 
BRANCH  40  41
ATOM     41  C   UNL A   1      37.440  32.747  31.260  1.00  0.00     0.031 A 
ATOM     42  C   UNL A   1      37.901  33.046  32.660  1.00  0.00     0.074 A 
ATOM     43  C   UNL A   1      37.997  31.742  30.563  1.00  0.00     0.049 A 
ATOM     44  N   UNL A   1      38.896  32.523  33.332  1.00  0.00    -0.248 NA
ATOM     45  C   UNL A   1      37.146  34.065  33.407  1.00  0.00     0.031 C 
ATOM     46  C   UNL A   1      37.600  31.332  29.216  1.00  0.00     0.029 A 
ATOM     47  N   UNL A   1      39.001  30.871  30.898  1.00  0.00    -0.354 N 
ATOM     48  C   UNL A   1      38.902  33.165  34.564  1.00  0.00     0.074 A 
ATOM     49  C   UNL A   1      37.817  34.123  34.549  1.00  0.00     0.031 C 
ATOM     50  C   UNL A   1      38.321  30.260  28.855  1.00  0.00     0.029 A 
ATOM     51  C   UNL A   1      39.271  29.949  29.918  1.00  0.00     0.049 A 
ATOM     52  H   UNL A   1      39.480  30.903  31.756  1.00  0.00     0.167 HD
ATOM     53  C   UNL A   1      39.738  32.967  35.610  1.00  0.00     0.037 A 
ATOM     54  C   UNL A   1      40.195  28.973  29.876  1.00  0.00     0.037 A 
ATOM     55  C   UNL A   1      40.805  32.000  35.627  1.00  0.00     0.049 A 
ATOM     56  C   UNL A   1      41.128  28.795  31.038  1.00  0.00     0.074 A 
ATOM     57  C   UNL A   1      41.732  31.751  36.623  1.00  0.00     0.029 A 
ATOM     58  N   UNL A   1      41.073  31.108  34.599  1.00  0.00    -0.354 N 
ATOM     59  N   UNL A   1      41.171  29.455  32.169  1.00  0.00    -0.248 NA
ATOM     60  C   UNL A   1      42.150  27.749  30.911  1.00  0.00     0.031 C 
ATOM     61  C   UNL A   1      42.573  30.720  36.191  1.00  0.00     0.029 A 
ATOM     62  C   UNL A   1      42.148  30.305  34.939  1.00  0.00     0.049 A 
ATOM     63  H   UNL A   1      40.572  31.055  33.753  1.00  0.00     0.167 HD
ATOM     64  C   UNL A   1      42.217  28.904  32.892  1.00  0.00     0.074 A 
ATOM     65  C   UNL A   1      42.771  27.840  32.079  1.00  0.00     0.031 C 
ATOM     66  C   UNL A   1      42.682  29.251  34.115  1.00  0.00     0.037 A 
BRANCH  53  67
ATOM     67  C   UNL A   1      39.551  33.825  36.825  1.00  0.00     0.064 A 
ATOM     68  C   UNL A   1      40.063  35.129  36.887  1.00  0.00     0.173 A 
ATOM     69  C   UNL A   1      38.798  33.360  37.914  1.00  0.00     0.173 A 
ATOM     70  F   UNL A   1      40.803  35.611  35.878  1.00  0.00    -0.203 F 
ATOM     71  C   UNL A   1      39.834  35.935  38.000  1.00  0.00     0.198 A 
ATOM     72  C   UNL A   1      38.555  34.176  39.016  1.00  0.00     0.198 A 
ATOM     73  F   UNL A   1      38.287  32.121  37.902  1.00  0.00    -0.203 F 
ATOM     74  F   UNL A   1      40.354  37.169  38.050  1.00  0.00    -0.200 F 
ATOM     75  C   UNL A   1      39.074  35.461  39.060  1.00  0.00     0.200 A 
ATOM     76  F   UNL A   1      37.814  33.719  40.036  1.00  0.00    -0.200 F 
ATOM     77  F   UNL A   1      38.844  36.242  40.125  1.00  0.00    -0.200 F 
ENDBRANCH  53  67
BRANCH  54  78
ATOM     78  C   UNL A   1      40.270  28.094  28.685  1.00  0.00     0.064 A 
ATOM     79  C   UNL A   1      41.020  28.471  27.563  1.00  0.00     0.173 A 
ATOM     80  C   UNL A   1      39.634  26.844  28.660  1.00  0.00     0.173 A 
ATOM     81  F   UNL A   1      41.629  29.665  27.536  1.00  0.00    -0.203 F 
ATOM     82  C   UNL A   1      41.133  27.628  26.460  1.00  0.00     0.198 A 
ATOM     83  C   UNL A   1      39.766  25.993  27.567  1.00  0.00     0.198 A 
ATOM     84  F   UNL A   1      38.909  26.440  29.714  1.00  0.00    -0.203 F 
ATOM     85  F   UNL A   1      41.839  28.019  25.391  1.00  0.00    -0.200 F 
ATOM     86  C   UNL A   1      40.513  26.386  26.466  1.00  0.00     0.200 A 
ATOM     87  F   UNL A   1      39.179  24.789  27.583  1.00  0.00    -0.200 F 
ATOM     88  F   UNL A   1      40.635  25.570  25.412  1.00  0.00    -0.200 F 
ENDBRANCH  54  78
BRANCH  66  89
ATOM     89  C   UNL A   1      43.833  28.461  34.655  1.00  0.00     0.064 A 
ATOM     90  C   UNL A   1      43.627  27.282  35.386  1.00  0.00     0.173 A 
ATOM     91  C   UNL A   1      45.152  28.868  34.411  1.00  0.00     0.173 A 
ATOM     92  F   UNL A   1      42.383  26.863  35.655  1.00  0.00    -0.203 F 
ATOM     93  C   UNL A   1      44.706  26.547  35.870  1.00  0.00     0.198 A 
ATOM     94  C   UNL A   1      46.227  28.121  34.879  1.00  0.00     0.198 A 
ATOM     95  F   UNL A   1      45.395  29.988  33.712  1.00  0.00    -0.203 F 
ATOM     96  F   UNL A   1      44.490  25.443  36.596  1.00  0.00    -0.200 F 
ATOM     97  C   UNL A   1      46.004  26.965  35.612  1.00  0.00     0.200 A 
ATOM     98  F   UNL A   1      47.481  28.521  34.624  1.00  0.00    -0.200 F 
ATOM     99  F   UNL A   1      47.041  26.255  36.078  1.00  0.00    -0.200 F 
ENDBRANCH  66  89
ENDBRANCH  40  41
ENDBRANCH  32  35
ENDBRANCH  30  31
ENDBRANCH  29  30
ENDBRANCH   1  29
TORSDOF 15
ENDMDL
MODEL 3
REMARK VINA RESULT:     -13.0      5.547     11.176
REMARK SMILES CC(C)N(c1cc2c(cc1Cl)C=C(C(=O)NCCCCNC(=O)c1ccc(-c3c4nc(c(-c5c(F)c(F)c(F)c(F)c5F)c5ccc([nH]5)c(-c5c(F)c(F)c(F)c(F)c5F)c5nc(c(-c6c(F)c(F)c(F)c(F)c6F)c6ccc3[nH]6)C=C5)C=C4)cc1)[C@@H](C(F)(F)F)O2)C(C)C
REMARK SMILES IDX 18 1 17 2 16 3 14 4 15 5 13 7 5 8 6 9 10 10 7 11 9 12 11 13
REMARK SMILES IDX 8 14 92 15 12 16 87 17 4 18 2 19 1 20 3 21 93 22 94 23 95 24
REMARK SMILES IDX 88 25 89 26 90 27 91 28 19 29 20 30 21 31 22 32 23 34 24 35
REMARK SMILES IDX 25 36 86 37 26 38 85 39 27 40 28 41 29 42 79 43 30 44 84 45
REMARK SMILES IDX 78 46 80 47 31 48 83 49 77 50 76 51 32 53 64 54 44 55 63 56
REMARK SMILES IDX 45 57 48 58 62 59 81 60 46 61 47 62 61 64 82 65 49 66 33 67
REMARK SMILES IDX 34 68 42 69 35 70 36 71 40 72 43 73 37 74 38 75 41 76 39 77
REMARK SMILES IDX 65 78 66 79 74 80 67 81 68 82 72 83 75 84 69 85 70 86 73 87
REMARK SMILES IDX 71 88 50 89 51 90 59 91 52 92 53 93 57 94 60 95 54 96 55 97
REMARK SMILES IDX 58 98 56 99
REMARK H PARENT 16 6 21 33 80 52 48 63
REMARK Flexibility Score: inf
ROOT
ATOM      1  C   UNL A   1      37.378  19.788  24.800  1.00  0.00     0.023 C 
ENDROOT
BRANCH   1   2
ATOM      2  C   UNL A   1      36.091  20.362  25.384  1.00  0.00     0.116 C 
BRANCH   2   3
ATOM      3  N   UNL A   1      34.912  19.739  24.810  1.00  0.00    -0.352 N 
ATOM      4  C   UNL A   1      33.649  20.116  24.501  1.00  0.00     0.251 C 
ATOM      5  O   UNL A   1      32.941  19.225  24.023  1.00  0.00    -0.270 OA
ATOM      6  H   UNL A   1      35.074  18.793  24.585  1.00  0.00     0.163 HD
BRANCH   4   7
ATOM      7  C   UNL A   1      33.086  21.484  24.692  1.00  0.00     0.067 C 
ATOM      8  C   UNL A   1      31.862  26.379  24.209  1.00  0.00     0.060 A 
ATOM      9  C   UNL A   1      31.397  25.304  24.990  1.00  0.00     0.074 A 
ATOM     10  C   UNL A   1      32.832  26.074  23.223  1.00  0.00     0.065 A 
ATOM     11  C   UNL A   1      31.905  24.015  24.835  1.00  0.00     0.130 A 
ATOM     12  C   UNL A   1      33.294  24.761  23.029  1.00  0.00     0.034 A 
ATOM     13  Cl  UNL A   1      33.599  27.289  22.253  1.00  0.00    -0.082 Cl
ATOM     14  C   UNL A   1      32.840  23.729  23.846  1.00  0.00     0.019 A 
ATOM     15  O   UNL A   1      31.432  23.054  25.686  1.00  0.00    -0.475 OA
ATOM     16  C   UNL A   1      33.317  22.359  23.694  1.00  0.00     0.025 C 
ATOM     17  C   UNL A   1      32.343  21.941  25.917  1.00  0.00     0.314 C 
BRANCH   8  18
ATOM     18  N   UNL A   1      31.367  27.673  24.467  1.00  0.00    -0.365 N 
BRANCH  18  19
ATOM     19  C   UNL A   1      31.977  28.418  25.589  1.00  0.00     0.076 C 
ATOM     20  C   UNL A   1      31.404  28.018  26.948  1.00  0.00     0.030 C 
ATOM     21  C   UNL A   1      33.502  28.349  25.601  1.00  0.00     0.030 C 
ENDBRANCH  18  19
BRANCH  18  22
ATOM     22  C   UNL A   1      30.382  28.203  23.494  1.00  0.00     0.076 C 
ATOM     23  C   UNL A   1      29.077  27.413  23.488  1.00  0.00     0.030 C 
ATOM     24  C   UNL A   1      30.128  29.700  23.635  1.00  0.00     0.030 C 
ENDBRANCH  18  22
ENDBRANCH   8  18
BRANCH  17  25
ATOM     25  C   UNL A   1      33.289  22.270  27.091  1.00  0.00     0.429 C 
ATOM     26  F   UNL A   1      34.332  23.025  26.662  1.00  0.00    -0.167 F 
ATOM     27  F   UNL A   1      32.674  22.989  28.062  1.00  0.00    -0.167 F 
ATOM     28  F   UNL A   1      33.800  21.170  27.684  1.00  0.00    -0.167 F 
ENDBRANCH  17  25
ENDBRANCH   4   7
ENDBRANCH   2   3
ENDBRANCH   1   2
BRANCH   1  29
ATOM     29  C   UNL A   1      38.603  20.684  24.985  1.00  0.00     0.023 C 
BRANCH  29  30
ATOM     30  C   UNL A   1      39.487  20.345  26.182  1.00  0.00     0.116 C 
BRANCH  30  31
ATOM     31  N   UNL A   1      40.340  19.180  25.983  1.00  0.00    -0.352 N 
ATOM     32  C   UNL A   1      41.713  19.120  26.069  1.00  0.00     0.251 C 
ATOM     33  H   UNL A   1      39.882  18.338  25.761  1.00  0.00     0.163 HD
ATOM     34  O   UNL A   1      42.323  18.085  25.830  1.00  0.00    -0.269 OA
BRANCH  32  35
ATOM     35  C   UNL A   1      42.437  20.359  26.401  1.00  0.00     0.039 A 
ATOM     36  C   UNL A   1      42.468  20.812  27.723  1.00  0.00     0.014 A 
ATOM     37  C   UNL A   1      42.953  21.134  25.360  1.00  0.00     0.014 A 
ATOM     38  C   UNL A   1      42.875  22.114  27.983  1.00  0.00     0.010 A 
ATOM     39  C   UNL A   1      43.417  22.419  25.635  1.00  0.00     0.010 A 
ATOM     40  C   UNL A   1      43.329  22.936  26.938  1.00  0.00    -0.014 A 
BRANCH  40  41
ATOM     41  C   UNL A   1      43.667  24.352  27.212  1.00  0.00     0.031 A 
ATOM     42  C   UNL A   1      45.044  24.876  26.909  1.00  0.00     0.074 A 
ATOM     43  C   UNL A   1      42.716  25.177  27.681  1.00  0.00     0.049 A 
ATOM     44  N   UNL A   1      45.545  26.063  27.137  1.00  0.00    -0.248 NA
ATOM     45  C   UNL A   1      45.984  23.944  26.264  1.00  0.00     0.031 C 
ATOM     46  C   UNL A   1      41.334  24.790  27.968  1.00  0.00     0.029 A 
ATOM     47  N   UNL A   1      42.761  26.513  27.982  1.00  0.00    -0.354 N 
ATOM     48  C   UNL A   1      46.858  26.015  26.689  1.00  0.00     0.074 A 
ATOM     49  C   UNL A   1      47.085  24.678  26.182  1.00  0.00     0.031 C 
ATOM     50  C   UNL A   1      40.649  25.875  28.359  1.00  0.00     0.029 A 
ATOM     51  C   UNL A   1      41.559  27.015  28.411  1.00  0.00     0.049 A 
ATOM     52  H   UNL A   1      43.575  27.059  27.897  1.00  0.00     0.167 HD
ATOM     53  C   UNL A   1      47.787  27.000  26.701  1.00  0.00     0.037 A 
ATOM     54  C   UNL A   1      41.231  28.254  28.819  1.00  0.00     0.037 A 
ATOM     55  C   UNL A   1      47.552  28.333  27.189  1.00  0.00     0.049 A 
ATOM     56  C   UNL A   1      42.288  29.319  28.849  1.00  0.00     0.074 A 
ATOM     57  C   UNL A   1      48.439  29.392  27.281  1.00  0.00     0.029 A 
ATOM     58  N   UNL A   1      46.329  28.796  27.654  1.00  0.00    -0.354 N 
ATOM     59  N   UNL A   1      43.546  29.243  28.491  1.00  0.00    -0.248 NA
ATOM     60  C   UNL A   1      41.884  30.637  29.355  1.00  0.00     0.031 C 
ATOM     61  C   UNL A   1      47.757  30.490  27.817  1.00  0.00     0.029 A 
ATOM     62  C   UNL A   1      46.438  30.124  28.029  1.00  0.00     0.049 A 
ATOM     63  H   UNL A   1      45.506  28.258  27.708  1.00  0.00     0.167 HD
ATOM     64  C   UNL A   1      44.084  30.500  28.721  1.00  0.00     0.074 A 
ATOM     65  C   UNL A   1      43.010  31.327  29.231  1.00  0.00     0.031 C 
ATOM     66  C   UNL A   1      45.355  30.928  28.533  1.00  0.00     0.037 A 
BRANCH  53  67
ATOM     67  C   UNL A   1      49.157  26.674  26.186  1.00  0.00     0.064 A 
ATOM     68  C   UNL A   1      49.524  26.945  24.860  1.00  0.00     0.173 A 
ATOM     69  C   UNL A   1      50.131  26.141  27.044  1.00  0.00     0.173 A 
ATOM     70  F   UNL A   1      48.623  27.438  23.998  1.00  0.00    -0.203 F 
ATOM     71  C   UNL A   1      50.818  26.687  24.409  1.00  0.00     0.198 A 
ATOM     72  C   UNL A   1      51.428  25.904  26.595  1.00  0.00     0.198 A 
ATOM     73  F   UNL A   1      49.828  25.866  28.321  1.00  0.00    -0.203 F 
ATOM     74  F   UNL A   1      51.141  26.929  23.132  1.00  0.00    -0.200 F 
ATOM     75  C   UNL A   1      51.770  26.175  25.279  1.00  0.00     0.200 A 
ATOM     76  F   UNL A   1      52.349  25.415  27.438  1.00  0.00    -0.200 F 
ATOM     77  F   UNL A   1      53.016  25.939  24.847  1.00  0.00    -0.200 F 
ENDBRANCH  53  67
BRANCH  54  78
ATOM     78  C   UNL A   1      39.836  28.541  29.228  1.00  0.00     0.064 A 
ATOM     79  C   UNL A   1      39.419  28.330  30.549  1.00  0.00     0.173 A 
ATOM     80  C   UNL A   1      38.906  29.071  28.322  1.00  0.00     0.173 A 
ATOM     81  F   UNL A   1      40.269  27.806  31.443  1.00  0.00    -0.203 F 
ATOM     82  C   UNL A   1      38.122  28.641  30.949  1.00  0.00     0.198 A 
ATOM     83  C   UNL A   1      37.617  29.404  28.729  1.00  0.00     0.198 A 
ATOM     84  F   UNL A   1      39.262  29.294  27.048  1.00  0.00    -0.203 F 
ATOM     85  F   UNL A   1      37.740  28.412  32.212  1.00  0.00    -0.200 F 
ATOM     86  C   UNL A   1      37.224  29.186  30.041  1.00  0.00     0.200 A 
ATOM     87  F   UNL A   1      36.759  29.944  27.854  1.00  0.00    -0.200 F 
ATOM     88  F   UNL A   1      35.982  29.501  30.431  1.00  0.00    -0.200 F 
ENDBRANCH  54  78
BRANCH  66  89
ATOM     89  C   UNL A   1      45.646  32.359  28.863  1.00  0.00     0.064 A 
ATOM     90  C   UNL A   1      45.476  33.375  27.911  1.00  0.00     0.173 A 
ATOM     91  C   UNL A   1      46.065  32.721  30.151  1.00  0.00     0.173 A 
ATOM     92  F   UNL A   1      45.090  33.072  26.663  1.00  0.00    -0.203 F 
ATOM     93  C   UNL A   1      45.734  34.704  28.234  1.00  0.00     0.198 A 
ATOM     94  C   UNL A   1      46.304  34.052  30.475  1.00  0.00     0.198 A 
ATOM     95  F   UNL A   1      46.237  31.782  31.094  1.00  0.00    -0.203 F 
ATOM     96  F   UNL A   1      45.600  35.656  27.301  1.00  0.00    -0.200 F 
ATOM     97  C   UNL A   1      46.144  35.041  29.516  1.00  0.00     0.200 A 
ATOM     98  F   UNL A   1      46.693  34.379  31.715  1.00  0.00    -0.200 F 
ATOM     99  F   UNL A   1      46.392  36.322  29.825  1.00  0.00    -0.200 F 
ENDBRANCH  66  89
ENDBRANCH  40  41
ENDBRANCH  32  35
ENDBRANCH  30  31
ENDBRANCH  29  30
ENDBRANCH   1  29
TORSDOF 15
ENDMDL
