MODEL 1
REMARK VINA RESULT:     -13.3      0.000      0.000
REMARK SMILES O=C(NCCCCNC(=O)[C@H]1CC=CC[C@H]1C(=O)Nc1ccc(S(=O)(=O)N2CCc3ccccc32)cc1)c1ccc(-c2c3nc(c(-c4c(F)c(F)c(F)c(F)c4F)c4ccc([nH]4)c(-c4c(F)c(F)c(F)c(F)c4F)c4nc(c(-c5c(F)c(F)c(F)c(F)c5F)c5ccc2[nH]5)C=C4)C=C3)cc1
REMARK SMILES IDX 6 1 5 2 4 3 3 4 1 5 2 6 38 8 39 9 100 10 40 11 99 12 41 13
REMARK SMILES IDX 42 14 43 15 93 16 44 17 98 18 92 19 94 20 45 21 97 22 91 23
REMARK SMILES IDX 90 24 46 26 78 27 58 28 77 29 59 30 62 31 76 32 95 33 60 34
REMARK SMILES IDX 61 35 75 37 96 38 63 39 47 40 48 41 56 42 49 43 50 44 54 45
REMARK SMILES IDX 57 46 51 47 52 48 55 49 53 50 79 51 80 52 88 53 81 54 82 55
REMARK SMILES IDX 86 56 89 57 83 58 84 59 87 60 85 61 64 62 65 63 73 64 66 65
REMARK SMILES IDX 67 66 71 67 74 68 68 69 69 70 72 71 70 72 7 73 8 74 9 75
REMARK SMILES IDX 10 77 11 78 12 79 16 80 13 81 15 82 14 83 17 84 18 85 19 86
REMARK SMILES IDX 20 88 21 89 37 90 22 91 36 92 23 93 24 94 25 95 26 96 27 97
REMARK SMILES IDX 28 98 35 99 29 100 30 101 34 102 31 103 33 104 32 105
REMARK H PARENT 3 7 94 25 62 36 8 76 19 87
REMARK Flexibility Score: inf
ROOT
ATOM      1  C   UNL A   1      37.209  18.812  24.969  1.00  0.00     0.023 C 
ENDROOT
BRANCH   1   2
ATOM      2  C   UNL A   1      38.455  19.660  24.746  1.00  0.00     0.023 C 
BRANCH   2   3
ATOM      3  C   UNL A   1      39.287  19.855  26.001  1.00  0.00     0.116 C 
BRANCH   3   4
ATOM      4  N   UNL A   1      40.449  18.970  26.027  1.00  0.00    -0.352 N 
ATOM      5  O   UNL A   1      42.605  18.375  25.745  1.00  0.00    -0.269 OA
ATOM      6  C   UNL A   1      41.790  19.255  26.020  1.00  0.00     0.251 C 
ATOM      7  H   UNL A   1      40.233  18.009  26.052  1.00  0.00     0.163 HD
BRANCH   6   8
ATOM      8  C   UNL A   1      42.259  20.610  26.361  1.00  0.00     0.039 A 
ATOM      9  C   UNL A   1      42.470  21.542  25.346  1.00  0.00     0.014 A 
ATOM     10  C   UNL A   1      42.443  20.976  27.698  1.00  0.00     0.014 A 
ATOM     11  C   UNL A   1      43.029  22.771  25.641  1.00  0.00     0.010 A 
ATOM     12  C   UNL A   1      42.874  22.268  28.007  1.00  0.00     0.010 A 
ATOM     13  C   UNL A   1      43.188  23.167  26.976  1.00  0.00    -0.014 A 
BRANCH  13  14
ATOM     14  C   UNL A   1      43.585  24.567  27.249  1.00  0.00     0.031 A 
ATOM     15  C   UNL A   1      42.608  25.552  27.815  1.00  0.00     0.074 A 
ATOM     16  C   UNL A   1      44.863  24.918  27.009  1.00  0.00     0.049 A 
ATOM     17  N   UNL A   1      42.782  26.821  28.081  1.00  0.00    -0.248 NA
ATOM     18  C   UNL A   1      41.257  25.055  28.111  1.00  0.00     0.031 C 
ATOM     19  C   UNL A   1      45.891  24.024  26.462  1.00  0.00     0.029 A 
ATOM     20  N   UNL A   1      45.529  26.096  27.213  1.00  0.00    -0.354 N 
ATOM     21  C   UNL A   1      41.557  27.283  28.541  1.00  0.00     0.074 A 
ATOM     22  C   UNL A   1      40.642  26.161  28.507  1.00  0.00     0.031 C 
ATOM     23  C   UNL A   1      47.066  24.664  26.434  1.00  0.00     0.029 A 
ATOM     24  C   UNL A   1      46.856  26.040  26.863  1.00  0.00     0.049 A 
ATOM     25  H   UNL A   1      45.099  26.905  27.575  1.00  0.00     0.167 HD
ATOM     26  C   UNL A   1      41.236  28.533  28.951  1.00  0.00     0.037 A 
ATOM     27  C   UNL A   1      47.795  27.001  26.849  1.00  0.00     0.037 A 
ATOM     28  C   UNL A   1      42.174  29.627  28.990  1.00  0.00     0.049 A 
ATOM     29  C   UNL A   1      47.405  28.381  27.283  1.00  0.00     0.074 A 
ATOM     30  C   UNL A   1      41.965  30.931  29.404  1.00  0.00     0.029 A 
ATOM     31  N   UNL A   1      43.504  29.542  28.597  1.00  0.00    -0.354 N 
ATOM     32  N   UNL A   1      46.243  28.809  27.713  1.00  0.00    -0.248 NA
ATOM     33  C   UNL A   1      48.446  29.410  27.221  1.00  0.00     0.031 C 
ATOM     34  C   UNL A   1      43.153  31.646  29.215  1.00  0.00     0.029 A 
ATOM     35  C   UNL A   1      44.121  30.776  28.738  1.00  0.00     0.049 A 
ATOM     36  H   UNL A   1      43.943  28.726  28.266  1.00  0.00     0.167 HD
ATOM     37  C   UNL A   1      46.413  30.157  27.986  1.00  0.00     0.074 A 
ATOM     38  C   UNL A   1      47.798  30.467  27.690  1.00  0.00     0.031 C 
ATOM     39  C   UNL A   1      45.504  31.055  28.437  1.00  0.00     0.037 A 
BRANCH  26  40
ATOM     40  C   UNL A   1      39.809  28.793  29.345  1.00  0.00     0.064 A 
ATOM     41  C   UNL A   1      39.355  28.617  30.661  1.00  0.00     0.173 A 
ATOM     42  C   UNL A   1      38.883  29.243  28.390  1.00  0.00     0.173 A 
ATOM     43  F   UNL A   1      40.193  28.176  31.611  1.00  0.00    -0.203 F 
ATOM     44  C   UNL A   1      38.024  28.852  30.999  1.00  0.00     0.198 A 
ATOM     45  C   UNL A   1      37.560  29.506  28.738  1.00  0.00     0.198 A 
ATOM     46  F   UNL A   1      39.263  29.433  27.118  1.00  0.00    -0.203 F 
ATOM     47  F   UNL A   1      37.602  28.625  32.251  1.00  0.00    -0.200 F 
ATOM     48  C   UNL A   1      37.130  29.300  30.039  1.00  0.00     0.200 A 
ATOM     49  F   UNL A   1      36.701  29.951  27.810  1.00  0.00    -0.200 F 
ATOM     50  F   UNL A   1      35.849  29.527  30.366  1.00  0.00    -0.200 F 
ENDBRANCH  26  40
BRANCH  27  51
ATOM     51  C   UNL A   1      49.168  26.677  26.383  1.00  0.00     0.064 A 
ATOM     52  C   UNL A   1      49.547  26.879  25.050  1.00  0.00     0.173 A 
ATOM     53  C   UNL A   1      50.146  26.213  27.277  1.00  0.00     0.173 A 
ATOM     54  F   UNL A   1      48.645  27.310  24.156  1.00  0.00    -0.203 F 
ATOM     55  C   UNL A   1      50.851  26.626  24.629  1.00  0.00     0.198 A 
ATOM     56  C   UNL A   1      51.456  25.993  26.861  1.00  0.00     0.198 A 
ATOM     57  F   UNL A   1      49.837  26.014  28.568  1.00  0.00    -0.203 F 
ATOM     58  F   UNL A   1      51.182  26.802  23.342  1.00  0.00    -0.200 F 
ATOM     59  C   UNL A   1      51.807  26.194  25.535  1.00  0.00     0.200 A 
ATOM     60  F   UNL A   1      52.381  25.599  27.748  1.00  0.00    -0.200 F 
ATOM     61  F   UNL A   1      53.065  25.972  25.133  1.00  0.00    -0.200 F 
ENDBRANCH  27  51
BRANCH  39  62
ATOM     62  C   UNL A   1      45.997  32.451  28.674  1.00  0.00     0.064 A 
ATOM     63  C   UNL A   1      45.977  33.421  27.661  1.00  0.00     0.173 A 
ATOM     64  C   UNL A   1      46.469  32.827  29.940  1.00  0.00     0.173 A 
ATOM     65  F   UNL A   1      45.554  33.102  26.429  1.00  0.00    -0.203 F 
ATOM     66  C   UNL A   1      46.434  34.713  27.903  1.00  0.00     0.198 A 
ATOM     67  C   UNL A   1      46.895  34.127  30.187  1.00  0.00     0.198 A 
ATOM     68  F   UNL A   1      46.504  31.934  30.941  1.00  0.00    -0.203 F 
ATOM     69  F   UNL A   1      46.454  35.612  26.909  1.00  0.00    -0.200 F 
ATOM     70  C   UNL A   1      46.886  35.067  29.167  1.00  0.00     0.200 A 
ATOM     71  F   UNL A   1      47.320  34.471  31.410  1.00  0.00    -0.200 F 
ATOM     72  F   UNL A   1      47.319  36.314  29.399  1.00  0.00    -0.200 F 
ENDBRANCH  39  62
ENDBRANCH  13  14
ENDBRANCH   6   8
ENDBRANCH   3   4
ENDBRANCH   2   3
ENDBRANCH   1   2
BRANCH   1  73
ATOM     73  C   UNL A   1      35.870  19.549  24.991  1.00  0.00     0.116 C 
BRANCH  73  74
ATOM     74  N   UNL A   1      35.966  20.972  25.269  1.00  0.00    -0.356 N 
ATOM     75  C   UNL A   1      35.172  21.817  25.987  1.00  0.00     0.224 C 
ATOM     76  H   UNL A   1      36.751  21.407  24.865  1.00  0.00     0.163 HD
ATOM     77  O   UNL A   1      35.677  22.900  26.295  1.00  0.00    -0.275 OA
BRANCH  75  78
ATOM     78  C   UNL A   1      33.746  21.435  26.422  1.00  0.00     0.095 C 
ATOM     79  C   UNL A   1      33.345  22.169  27.731  1.00  0.00     0.041 C 
ATOM     80  C   UNL A   1      32.637  21.414  25.337  1.00  0.00     0.095 C 
ATOM     81  C   UNL A   1      32.107  23.010  27.721  1.00  0.00    -0.030 C 
ATOM     82  C   UNL A   1      31.412  22.339  25.430  1.00  0.00     0.041 C 
ATOM     83  C   UNL A   1      31.245  23.083  26.704  1.00  0.00    -0.030 C 
BRANCH  80  84
ATOM     84  C   UNL A   1      33.038  21.413  23.883  1.00  0.00     0.228 C 
ATOM     85  O   UNL A   1      32.820  20.382  23.228  1.00  0.00    -0.274 OA
ATOM     86  N   UNL A   1      33.549  22.454  23.190  1.00  0.00    -0.326 N 
ATOM     87  H   UNL A   1      33.974  22.162  22.352  1.00  0.00     0.169 HD
BRANCH  86  88
ATOM     88  C   UNL A   1      33.627  23.843  23.357  1.00  0.00     0.041 A 
ATOM     89  C   UNL A   1      33.103  24.587  22.304  1.00  0.00     0.027 A 
ATOM     90  C   UNL A   1      34.090  24.524  24.485  1.00  0.00     0.027 A 
ATOM     91  C   UNL A   1      33.005  25.965  22.411  1.00  0.00     0.024 A 
ATOM     92  C   UNL A   1      33.972  25.917  24.617  1.00  0.00     0.024 A 
ATOM     93  C   UNL A   1      33.429  26.634  23.571  1.00  0.00     0.088 A 
BRANCH  93  94
ATOM     94  S   UNL A   1      33.350  28.382  23.410  1.00  0.00     0.264 S 
ATOM     95  O   UNL A   1      34.055  28.858  24.586  1.00  0.00    -0.201 OA
ATOM     96  O   UNL A   1      33.885  28.624  22.079  1.00  0.00    -0.201 OA
BRANCH  94  97
ATOM     97  N   UNL A   1      31.735  29.087  23.416  1.00  0.00    -0.266 N 
ATOM     98  C   UNL A   1      30.785  28.585  22.350  1.00  0.00     0.140 C 
ATOM     99  C   UNL A   1      31.148  28.586  24.666  1.00  0.00     0.055 A 
ATOM    100  C   UNL A   1      29.820  27.573  22.987  1.00  0.00     0.060 C 
ATOM    101  C   UNL A   1      30.322  27.502  24.383  1.00  0.00    -0.022 A 
ATOM    102  C   UNL A   1      31.721  28.754  25.920  1.00  0.00     0.027 A 
ATOM    103  C   UNL A   1      30.241  26.437  25.263  1.00  0.00     0.006 A 
ATOM    104  C   UNL A   1      31.671  27.672  26.799  1.00  0.00     0.002 A 
ATOM    105  C   UNL A   1      30.975  26.505  26.451  1.00  0.00     0.000 A 
ENDBRANCH  94  97
ENDBRANCH  93  94
ENDBRANCH  86  88
ENDBRANCH  80  84
ENDBRANCH  75  78
ENDBRANCH  73  74
ENDBRANCH   1  73
TORSDOF 15
ENDMDL
MODEL 2
REMARK VINA RESULT:     -13.3      0.365      7.091
REMARK SMILES O=C(NCCCCNC(=O)[C@H]1CC=CC[C@H]1C(=O)Nc1ccc(S(=O)(=O)N2CCc3ccccc32)cc1)c1ccc(-c2c3nc(c(-c4c(F)c(F)c(F)c(F)c4F)c4ccc([nH]4)c(-c4c(F)c(F)c(F)c(F)c4F)c4nc(c(-c5c(F)c(F)c(F)c(F)c5F)c5ccc2[nH]5)C=C4)C=C3)cc1
REMARK SMILES IDX 6 1 5 2 4 3 3 4 1 5 2 6 38 8 39 9 100 10 40 11 99 12 41 13
REMARK SMILES IDX 42 14 43 15 93 16 44 17 98 18 92 19 94 20 45 21 97 22 91 23
REMARK SMILES IDX 90 24 46 26 78 27 58 28 77 29 59 30 62 31 76 32 95 33 60 34
REMARK SMILES IDX 61 35 75 37 96 38 63 39 47 40 48 41 56 42 49 43 50 44 54 45
REMARK SMILES IDX 57 46 51 47 52 48 55 49 53 50 79 51 80 52 88 53 81 54 82 55
REMARK SMILES IDX 86 56 89 57 83 58 84 59 87 60 85 61 64 62 65 63 73 64 66 65
REMARK SMILES IDX 67 66 71 67 74 68 68 69 69 70 72 71 70 72 7 73 8 74 9 75
REMARK SMILES IDX 10 77 11 78 12 79 16 80 13 81 15 82 14 83 17 84 18 85 19 86
REMARK SMILES IDX 20 88 21 89 37 90 22 91 36 92 23 93 24 94 25 95 26 96 27 97
REMARK SMILES IDX 28 98 35 99 29 100 30 101 34 102 31 103 33 104 32 105
REMARK H PARENT 3 7 94 25 62 36 8 76 19 87
REMARK Flexibility Score: inf
ROOT
ATOM      1  C   UNL A   1      37.170  18.755  24.994  1.00  0.00     0.023 C 
ENDROOT
BRANCH   1   2
ATOM      2  C   UNL A   1      38.425  19.588  24.762  1.00  0.00     0.023 C 
BRANCH   2   3
ATOM      3  C   UNL A   1      39.245  19.810  26.021  1.00  0.00     0.116 C 
BRANCH   3   4
ATOM      4  N   UNL A   1      40.415  18.938  26.069  1.00  0.00    -0.352 N 
ATOM      5  O   UNL A   1      42.580  18.362  25.818  1.00  0.00    -0.269 OA
ATOM      6  C   UNL A   1      41.753  19.236  26.075  1.00  0.00     0.251 C 
ATOM      7  H   UNL A   1      40.209  17.975  26.102  1.00  0.00     0.163 HD
BRANCH   6   8
ATOM      8  C   UNL A   1      42.204  20.599  26.407  1.00  0.00     0.039 A 
ATOM      9  C   UNL A   1      42.357  21.542  25.391  1.00  0.00     0.014 A 
ATOM     10  C   UNL A   1      42.429  20.963  27.739  1.00  0.00     0.014 A 
ATOM     11  C   UNL A   1      42.899  22.781  25.673  1.00  0.00     0.010 A 
ATOM     12  C   UNL A   1      42.843  22.262  28.040  1.00  0.00     0.010 A 
ATOM     13  C   UNL A   1      43.099  23.173  27.004  1.00  0.00    -0.014 A 
BRANCH  13  14
ATOM     14  C   UNL A   1      43.474  24.580  27.271  1.00  0.00     0.031 A 
ATOM     15  C   UNL A   1      44.843  25.093  26.943  1.00  0.00     0.074 A 
ATOM     16  C   UNL A   1      42.532  25.397  27.783  1.00  0.00     0.049 A 
ATOM     17  N   UNL A   1      45.344  26.284  27.143  1.00  0.00    -0.248 NA
ATOM     18  C   UNL A   1      45.777  24.144  26.320  1.00  0.00     0.031 C 
ATOM     19  C   UNL A   1      41.166  24.989  28.131  1.00  0.00     0.029 A 
ATOM     20  N   UNL A   1      42.560  26.733  28.077  1.00  0.00    -0.354 N 
ATOM     21  C   UNL A   1      46.659  26.220  26.705  1.00  0.00     0.074 A 
ATOM     22  C   UNL A   1      46.884  24.868  26.239  1.00  0.00     0.031 C 
ATOM     23  C   UNL A   1      40.471  26.061  28.528  1.00  0.00     0.029 A 
ATOM     24  C   UNL A   1      41.366  27.209  28.562  1.00  0.00     0.049 A 
ATOM     25  H   UNL A   1      43.357  27.298  27.953  1.00  0.00     0.167 HD
ATOM     26  C   UNL A   1      47.586  27.208  26.699  1.00  0.00     0.037 A 
ATOM     27  C   UNL A   1      41.036  28.427  29.022  1.00  0.00     0.037 A 
ATOM     28  C   UNL A   1      47.328  28.551  27.155  1.00  0.00     0.049 A 
ATOM     29  C   UNL A   1      42.089  29.494  29.027  1.00  0.00     0.074 A 
ATOM     30  C   UNL A   1      48.185  29.636  27.177  1.00  0.00     0.029 A 
ATOM     31  N   UNL A   1      46.114  28.990  27.670  1.00  0.00    -0.354 N 
ATOM     32  N   UNL A   1      43.332  29.423  28.615  1.00  0.00    -0.248 NA
ATOM     33  C   UNL A   1      41.703  30.799  29.569  1.00  0.00     0.031 C 
ATOM     34  C   UNL A   1      47.507  30.718  27.752  1.00  0.00     0.029 A 
ATOM     35  C   UNL A   1      46.208  30.324  28.035  1.00  0.00     0.049 A 
ATOM     36  H   UNL A   1      45.307  28.435  27.764  1.00  0.00     0.167 HD
ATOM     37  C   UNL A   1      43.876  30.678  28.835  1.00  0.00     0.074 A 
ATOM     38  C   UNL A   1      42.820  31.494  29.400  1.00  0.00     0.031 C 
ATOM     39  C   UNL A   1      45.137  31.113  28.593  1.00  0.00     0.037 A 
BRANCH  26  40
ATOM     40  C   UNL A   1      48.971  26.861  26.228  1.00  0.00     0.064 A 
ATOM     41  C   UNL A   1      49.378  27.060  24.901  1.00  0.00     0.173 A 
ATOM     42  C   UNL A   1      49.912  26.336  27.128  1.00  0.00     0.173 A 
ATOM     43  F   UNL A   1      48.516  27.546  23.995  1.00  0.00    -0.203 F 
ATOM     44  C   UNL A   1      50.663  26.718  24.485  1.00  0.00     0.198 A 
ATOM     45  C   UNL A   1      51.206  26.024  26.716  1.00  0.00     0.198 A 
ATOM     46  F   UNL A   1      49.580  26.129  28.411  1.00  0.00    -0.203 F 
ATOM     47  F   UNL A   1      51.012  26.866  23.199  1.00  0.00    -0.200 F 
ATOM     48  C   UNL A   1      51.577  26.205  25.393  1.00  0.00     0.200 A 
ATOM     49  F   UNL A   1      52.091  25.540  27.600  1.00  0.00    -0.200 F 
ATOM     50  F   UNL A   1      52.814  25.878  24.992  1.00  0.00    -0.200 F 
ENDBRANCH  26  40
BRANCH  27  51
ATOM     51  C   UNL A   1      39.663  28.671  29.531  1.00  0.00     0.064 A 
ATOM     52  C   UNL A   1      39.338  28.450  30.876  1.00  0.00     0.173 A 
ATOM     53  C   UNL A   1      38.660  29.187  28.694  1.00  0.00     0.173 A 
ATOM     54  F   UNL A   1      40.258  27.947  31.712  1.00  0.00    -0.203 F 
ATOM     55  C   UNL A   1      38.063  28.731  31.362  1.00  0.00     0.198 A 
ATOM     56  C   UNL A   1      37.397  29.499  29.190  1.00  0.00     0.198 A 
ATOM     57  F   UNL A   1      38.923  29.429  27.401  1.00  0.00    -0.203 F 
ATOM     58  F   UNL A   1      37.771  28.485  32.647  1.00  0.00    -0.200 F 
ATOM     59  C   UNL A   1      37.097  29.265  30.523  1.00  0.00     0.200 A 
ATOM     60  F   UNL A   1      36.476  30.038  28.379  1.00  0.00    -0.200 F 
ATOM     61  F   UNL A   1      35.878  29.556  30.998  1.00  0.00    -0.200 F 
ENDBRANCH  27  51
BRANCH  39  62
ATOM     62  C   UNL A   1      45.424  32.551  28.906  1.00  0.00     0.064 A 
ATOM     63  C   UNL A   1      45.954  32.944  30.144  1.00  0.00     0.173 A 
ATOM     64  C   UNL A   1      45.192  33.542  27.943  1.00  0.00     0.173 A 
ATOM     65  F   UNL A   1      46.173  32.033  31.105  1.00  0.00    -0.203 F 
ATOM     66  C   UNL A   1      46.219  34.283  30.413  1.00  0.00     0.198 A 
ATOM     67  C   UNL A   1      45.488  34.876  28.203  1.00  0.00     0.198 A 
ATOM     68  F   UNL A   1      44.689  33.214  26.742  1.00  0.00    -0.203 F 
ATOM     69  F   UNL A   1      46.678  34.644  31.619  1.00  0.00    -0.200 F 
ATOM     70  C   UNL A   1      45.993  35.247  29.440  1.00  0.00     0.200 A 
ATOM     71  F   UNL A   1      45.280  35.804  27.259  1.00  0.00    -0.200 F 
ATOM     72  F   UNL A   1      46.255  36.535  29.699  1.00  0.00    -0.200 F 
ENDBRANCH  39  62
ENDBRANCH  13  14
ENDBRANCH   6   8
ENDBRANCH   3   4
ENDBRANCH   2   3
ENDBRANCH   1   2
BRANCH   1  73
ATOM     73  C   UNL A   1      35.838  19.506  25.004  1.00  0.00     0.116 C 
BRANCH  73  74
ATOM     74  N   UNL A   1      35.946  20.929  25.277  1.00  0.00    -0.356 N 
ATOM     75  C   UNL A   1      35.154  21.786  25.982  1.00  0.00     0.224 C 
ATOM     76  H   UNL A   1      36.741  21.353  24.879  1.00  0.00     0.163 HD
ATOM     77  O   UNL A   1      35.667  22.865  26.290  1.00  0.00    -0.275 OA
BRANCH  75  78
ATOM     78  C   UNL A   1      33.719  21.422  26.402  1.00  0.00     0.095 C 
ATOM     79  C   UNL A   1      33.312  22.164  27.704  1.00  0.00     0.041 C 
ATOM     80  C   UNL A   1      32.622  21.411  25.304  1.00  0.00     0.095 C 
ATOM     81  C   UNL A   1      32.083  23.019  27.678  1.00  0.00    -0.030 C 
ATOM     82  C   UNL A   1      31.406  22.350  25.381  1.00  0.00     0.041 C 
ATOM     83  C   UNL A   1      31.234  23.098  26.652  1.00  0.00    -0.030 C 
BRANCH  80  84
ATOM     84  C   UNL A   1      33.038  21.400  23.855  1.00  0.00     0.228 C 
ATOM     85  O   UNL A   1      32.833  20.364  23.206  1.00  0.00    -0.274 OA
ATOM     86  N   UNL A   1      33.552  22.439  23.160  1.00  0.00    -0.326 N 
ATOM     87  H   UNL A   1      33.988  22.143  22.329  1.00  0.00     0.169 HD
BRANCH  86  88
ATOM     88  C   UNL A   1      33.622  23.829  23.318  1.00  0.00     0.041 A 
ATOM     89  C   UNL A   1      33.065  24.564  22.275  1.00  0.00     0.027 A 
ATOM     90  C   UNL A   1      34.106  24.521  24.430  1.00  0.00     0.027 A 
ATOM     91  C   UNL A   1      32.956  25.941  22.376  1.00  0.00     0.024 A 
ATOM     92  C   UNL A   1      33.980  25.913  24.558  1.00  0.00     0.024 A 
ATOM     93  C   UNL A   1      33.404  26.620  23.522  1.00  0.00     0.088 A 
BRANCH  93  94
ATOM     94  S   UNL A   1      33.305  28.366  23.354  1.00  0.00     0.264 S 
ATOM     95  O   UNL A   1      34.048  28.854  24.501  1.00  0.00    -0.201 OA
ATOM     96  O   UNL A   1      33.789  28.604  22.003  1.00  0.00    -0.201 OA
BRANCH  94  97
ATOM     97  N   UNL A   1      31.686  29.059  23.414  1.00  0.00    -0.266 N 
ATOM     98  C   UNL A   1      30.695  28.528  22.400  1.00  0.00     0.140 C 
ATOM     99  C   UNL A   1      31.157  28.578  24.698  1.00  0.00     0.055 A 
ATOM    100  C   UNL A   1      29.767  27.521  23.098  1.00  0.00     0.060 C 
ATOM    101  C   UNL A   1      30.329  27.483  24.473  1.00  0.00    -0.022 A 
ATOM    102  C   UNL A   1      31.781  28.776  25.923  1.00  0.00     0.027 A 
ATOM    103  C   UNL A   1      30.294  26.435  25.376  1.00  0.00     0.006 A 
ATOM    104  C   UNL A   1      31.777  27.712  26.825  1.00  0.00     0.002 A 
ATOM    105  C   UNL A   1      31.077  26.533  26.530  1.00  0.00     0.000 A 
ENDBRANCH  94  97
ENDBRANCH  93  94
ENDBRANCH  86  88
ENDBRANCH  80  84
ENDBRANCH  75  78
ENDBRANCH  73  74
ENDBRANCH   1  73
TORSDOF 15
ENDMDL
MODEL 3
REMARK VINA RESULT:     -12.8      5.657      9.430
REMARK SMILES O=C(NCCCCNC(=O)[C@H]1CC=CC[C@H]1C(=O)Nc1ccc(S(=O)(=O)N2CCc3ccccc32)cc1)c1ccc(-c2c3nc(c(-c4c(F)c(F)c(F)c(F)c4F)c4ccc([nH]4)c(-c4c(F)c(F)c(F)c(F)c4F)c4nc(c(-c5c(F)c(F)c(F)c(F)c5F)c5ccc2[nH]5)C=C4)C=C3)cc1
REMARK SMILES IDX 6 1 5 2 4 3 3 4 1 5 2 6 38 8 39 9 100 10 40 11 99 12 41 13
REMARK SMILES IDX 42 14 43 15 93 16 44 17 98 18 92 19 94 20 45 21 97 22 91 23
REMARK SMILES IDX 90 24 46 26 78 27 58 28 77 29 59 30 62 31 76 32 95 33 60 34
REMARK SMILES IDX 61 35 75 37 96 38 63 39 47 40 48 41 56 42 49 43 50 44 54 45
REMARK SMILES IDX 57 46 51 47 52 48 55 49 53 50 79 51 80 52 88 53 81 54 82 55
REMARK SMILES IDX 86 56 89 57 83 58 84 59 87 60 85 61 64 62 65 63 73 64 66 65
REMARK SMILES IDX 67 66 71 67 74 68 68 69 69 70 72 71 70 72 7 73 8 74 9 75
REMARK SMILES IDX 10 77 11 78 12 79 16 80 13 81 15 82 14 83 17 84 18 85 19 86
REMARK SMILES IDX 20 88 21 89 37 90 22 91 36 92 23 93 24 94 25 95 26 96 27 97
REMARK SMILES IDX 28 98 35 99 29 100 30 101 34 102 31 103 33 104 32 105
REMARK H PARENT 3 7 94 25 62 36 8 76 19 87
REMARK Flexibility Score: inf
ROOT
ATOM      1  C   UNL A   1      44.377  22.277  25.148  1.00  0.00     0.023 C 
ENDROOT
BRANCH   1   2
ATOM      2  C   UNL A   1      45.784  22.795  25.423  1.00  0.00     0.023 C 
BRANCH   2   3
ATOM      3  C   UNL A   1      45.812  24.222  25.943  1.00  0.00     0.116 C 
BRANCH   3   4
ATOM      4  N   UNL A   1      46.454  25.132  24.999  1.00  0.00    -0.352 N 
ATOM      5  O   UNL A   1      46.778  27.061  23.876  1.00  0.00    -0.269 OA
ATOM      6  C   UNL A   1      46.419  26.501  24.911  1.00  0.00     0.251 C 
ATOM      7  H   UNL A   1      47.002  24.691  24.310  1.00  0.00     0.163 HD
BRANCH   6   8
ATOM      8  C   UNL A   1      45.969  27.303  26.063  1.00  0.00     0.039 A 
ATOM      9  C   UNL A   1      44.604  27.455  26.305  1.00  0.00     0.014 A 
ATOM     10  C   UNL A   1      46.903  27.866  26.938  1.00  0.00     0.014 A 
ATOM     11  C   UNL A   1      44.171  28.307  27.303  1.00  0.00     0.010 A 
ATOM     12  C   UNL A   1      46.462  28.613  28.032  1.00  0.00     0.010 A 
ATOM     13  C   UNL A   1      45.090  28.853  28.209  1.00  0.00    -0.014 A 
BRANCH  13  14
ATOM     14  C   UNL A   1      44.567  29.579  29.388  1.00  0.00     0.031 A 
ATOM     15  C   UNL A   1      44.215  31.033  29.308  1.00  0.00     0.074 A 
ATOM     16  C   UNL A   1      44.380  28.882  30.525  1.00  0.00     0.049 A 
ATOM     17  N   UNL A   1      43.777  31.826  30.252  1.00  0.00    -0.248 NA
ATOM     18  C   UNL A   1      44.385  31.688  28.003  1.00  0.00     0.031 C 
ATOM     19  C   UNL A   1      44.690  27.458  30.699  1.00  0.00     0.029 A 
ATOM     20  N   UNL A   1      43.866  29.255  31.738  1.00  0.00    -0.354 N 
ATOM     21  C   UNL A   1      43.654  33.078  29.668  1.00  0.00     0.074 A 
ATOM     22  C   UNL A   1      44.075  32.945  28.290  1.00  0.00     0.031 C 
ATOM     23  C   UNL A   1      44.302  27.065  31.918  1.00  0.00     0.029 A 
ATOM     24  C   UNL A   1      43.812  28.226  32.647  1.00  0.00     0.049 A 
ATOM     25  H   UNL A   1      43.564  30.170  31.940  1.00  0.00     0.167 HD
ATOM     26  C   UNL A   1      43.228  34.229  30.242  1.00  0.00     0.037 A 
ATOM     27  C   UNL A   1      43.447  28.224  33.940  1.00  0.00     0.037 A 
ATOM     28  C   UNL A   1      42.799  34.328  31.614  1.00  0.00     0.049 A 
ATOM     29  C   UNL A   1      43.005  29.516  34.555  1.00  0.00     0.074 A 
ATOM     30  C   UNL A   1      42.331  35.436  32.296  1.00  0.00     0.029 A 
ATOM     31  N   UNL A   1      42.788  33.270  32.517  1.00  0.00    -0.354 N 
ATOM     32  N   UNL A   1      42.896  30.697  33.996  1.00  0.00    -0.248 NA
ATOM     33  C   UNL A   1      42.648  29.483  35.976  1.00  0.00     0.031 C 
ATOM     34  C   UNL A   1      42.084  35.062  33.623  1.00  0.00     0.029 A 
ATOM     35  C   UNL A   1      42.343  33.707  33.755  1.00  0.00     0.049 A 
ATOM     36  H   UNL A   1      43.058  32.348  32.307  1.00  0.00     0.167 HD
ATOM     37  C   UNL A   1      42.444  31.548  34.992  1.00  0.00     0.074 A 
ATOM     38  C   UNL A   1      42.283  30.740  36.185  1.00  0.00     0.031 C 
ATOM     39  C   UNL A   1      42.190  32.878  34.925  1.00  0.00     0.037 A 
BRANCH  26  40
ATOM     40  C   UNL A   1      43.249  35.476  29.402  1.00  0.00     0.064 A 
ATOM     41  C   UNL A   1      42.148  35.869  28.626  1.00  0.00     0.173 A 
ATOM     42  C   UNL A   1      44.385  36.300  29.389  1.00  0.00     0.173 A 
ATOM     43  F   UNL A   1      41.041  35.112  28.590  1.00  0.00    -0.203 F 
ATOM     44  C   UNL A   1      42.197  37.022  27.845  1.00  0.00     0.198 A 
ATOM     45  C   UNL A   1      44.418  37.468  28.631  1.00  0.00     0.198 A 
ATOM     46  F   UNL A   1      45.465  35.975  30.116  1.00  0.00    -0.203 F 
ATOM     47  F   UNL A   1      41.153  37.349  27.070  1.00  0.00    -0.200 F 
ATOM     48  C   UNL A   1      43.329  37.823  27.853  1.00  0.00     0.200 A 
ATOM     49  F   UNL A   1      45.510  38.247  28.650  1.00  0.00    -0.200 F 
ATOM     50  F   UNL A   1      43.373  38.933  27.102  1.00  0.00    -0.200 F 
ENDBRANCH  26  40
BRANCH  27  51
ATOM     51  C   UNL A   1      43.518  26.961  34.719  1.00  0.00     0.064 A 
ATOM     52  C   UNL A   1      42.396  26.134  34.863  1.00  0.00     0.173 A 
ATOM     53  C   UNL A   1      44.726  26.527  35.287  1.00  0.00     0.173 A 
ATOM     54  F   UNL A   1      41.216  26.512  34.348  1.00  0.00    -0.203 F 
ATOM     55  C   UNL A   1      42.480  24.924  35.548  1.00  0.00     0.198 A 
ATOM     56  C   UNL A   1      44.816  25.301  35.942  1.00  0.00     0.198 A 
ATOM     57  F   UNL A   1      45.833  27.275  35.166  1.00  0.00    -0.203 F 
ATOM     58  F   UNL A   1      41.386  24.164  35.695  1.00  0.00    -0.200 F 
ATOM     59  C   UNL A   1      43.691  24.503  36.077  1.00  0.00     0.200 A 
ATOM     60  F   UNL A   1      45.994  24.889  36.429  1.00  0.00    -0.200 F 
ATOM     61  F   UNL A   1      43.774  23.329  36.717  1.00  0.00    -0.200 F 
ENDBRANCH  27  51
BRANCH  39  62
ATOM     62  C   UNL A   1      41.673  33.528  36.173  1.00  0.00     0.064 A 
ATOM     63  C   UNL A   1      42.536  34.109  37.114  1.00  0.00     0.173 A 
ATOM     64  C   UNL A   1      40.293  33.594  36.414  1.00  0.00     0.173 A 
ATOM     65  F   UNL A   1      43.865  34.051  36.936  1.00  0.00    -0.203 F 
ATOM     66  C   UNL A   1      42.036  34.712  38.264  1.00  0.00     0.198 A 
ATOM     67  C   UNL A   1      39.795  34.225  37.549  1.00  0.00     0.198 A 
ATOM     68  F   UNL A   1      39.427  33.055  35.542  1.00  0.00    -0.203 F 
ATOM     69  F   UNL A   1      42.879  35.217  39.174  1.00  0.00    -0.200 F 
ATOM     70  C   UNL A   1      40.666  34.777  38.476  1.00  0.00     0.200 A 
ATOM     71  F   UNL A   1      38.472  34.298  37.747  1.00  0.00    -0.200 F 
ATOM     72  F   UNL A   1      40.186  35.365  39.581  1.00  0.00    -0.200 F 
ENDBRANCH  39  62
ENDBRANCH  13  14
ENDBRANCH   6   8
ENDBRANCH   3   4
ENDBRANCH   2   3
ENDBRANCH   1   2
BRANCH   1  73
ATOM     73  C   UNL A   1      43.229  23.268  25.338  1.00  0.00     0.116 C 
BRANCH  73  74
ATOM     74  N   UNL A   1      41.921  22.656  25.495  1.00  0.00    -0.356 N 
ATOM     75  C   UNL A   1      41.039  22.641  26.535  1.00  0.00     0.224 C 
ATOM     76  H   UNL A   1      41.612  22.160  24.702  1.00  0.00     0.163 HD
ATOM     77  O   UNL A   1      39.886  22.298  26.261  1.00  0.00    -0.275 OA
BRANCH  75  78
ATOM     78  C   UNL A   1      41.442  23.060  27.961  1.00  0.00     0.095 C 
ATOM     79  C   UNL A   1      42.641  22.216  28.473  1.00  0.00     0.041 C 
ATOM     80  C   UNL A   1      41.551  24.576  28.268  1.00  0.00     0.095 C 
ATOM     81  C   UNL A   1      43.873  22.937  28.924  1.00  0.00    -0.030 C 
ATOM     82  C   UNL A   1      42.881  25.207  28.714  1.00  0.00     0.041 C 
ATOM     83  C   UNL A   1      43.980  24.263  29.037  1.00  0.00    -0.030 C 
BRANCH  80  84
ATOM     84  C   UNL A   1      40.933  25.563  27.309  1.00  0.00     0.228 C 
ATOM     85  O   UNL A   1      40.745  25.189  26.142  1.00  0.00    -0.274 OA
ATOM     86  N   UNL A   1      40.490  26.804  27.609  1.00  0.00    -0.326 N 
ATOM     87  H   UNL A   1      40.374  27.356  26.802  1.00  0.00     0.169 HD
BRANCH  86  88
ATOM     88  C   UNL A   1      40.152  27.506  28.773  1.00  0.00     0.041 A 
ATOM     89  C   UNL A   1      38.971  27.091  29.382  1.00  0.00     0.027 A 
ATOM     90  C   UNL A   1      40.910  28.495  29.404  1.00  0.00     0.027 A 
ATOM     91  C   UNL A   1      38.600  27.619  30.608  1.00  0.00     0.024 A 
ATOM     92  C   UNL A   1      40.560  29.020  30.657  1.00  0.00     0.024 A 
ATOM     93  C   UNL A   1      39.398  28.578  31.255  1.00  0.00     0.088 A 
BRANCH  93  94
ATOM     94  S   UNL A   1      38.646  29.209  32.712  1.00  0.00     0.264 S 
ATOM     95  O   UNL A   1      37.403  28.464  32.795  1.00  0.00    -0.201 OA
ATOM     96  O   UNL A   1      39.678  29.041  33.725  1.00  0.00    -0.201 OA
BRANCH  94  97
ATOM     97  N   UNL A   1      38.257  30.927  32.701  1.00  0.00    -0.266 N 
ATOM     98  C   UNL A   1      39.425  31.874  32.521  1.00  0.00     0.140 C 
ATOM     99  C   UNL A   1      37.484  31.093  31.463  1.00  0.00     0.055 A 
ATOM    100  C   UNL A   1      39.443  32.362  31.064  1.00  0.00     0.060 C 
ATOM    101  C   UNL A   1      38.313  31.605  30.469  1.00  0.00    -0.022 A 
ATOM    102  C   UNL A   1      36.341  30.368  31.152  1.00  0.00     0.027 A 
ATOM    103  C   UNL A   1      38.157  31.203  29.153  1.00  0.00     0.006 A 
ATOM    104  C   UNL A   1      36.195  29.932  29.835  1.00  0.00     0.002 A 
ATOM    105  C   UNL A   1      37.125  30.310  28.854  1.00  0.00     0.000 A 
ENDBRANCH  94  97
ENDBRANCH  93  94
ENDBRANCH  86  88
ENDBRANCH  80  84
ENDBRANCH  75  78
ENDBRANCH  73  74
ENDBRANCH   1  73
TORSDOF 15
ENDMDL
