MODEL 1
REMARK VINA RESULT:     -12.5      0.000      0.000
REMARK SMILES COc1cccc(CSc2nc3ccccc3c(=O)n2CCC(=O)NCCCCNC(=O)c2ccc(-c3c4nc(c(-c5c(F)c(F)c(F)c(F)c5F)c5ccc([nH]5)c(-c5c(F)c(F)c(F)c(F)c5F)c5nc(c(-c6c(F)c(F)c(F)c(F)c6F)c6ccc3[nH]6)C=C5)C=C4)cc2)c1
REMARK SMILES IDX 23 1 24 2 25 3 22 5 21 6 20 7 10 8 11 9 12 10 18 11 13 12
REMARK SMILES IDX 17 13 19 14 14 15 16 16 15 17 9 18 8 19 7 20 3 21 4 22 96 23
REMARK SMILES IDX 5 24 6 25 2 26 1 27 26 28 27 29 28 30 29 31 30 32 31 33
REMARK SMILES IDX 32 35 33 36 34 37 95 38 35 39 94 40 36 41 37 42 38 43 88 44
REMARK SMILES IDX 39 45 93 46 87 47 89 48 40 49 92 50 86 51 85 52 41 54 73 55
REMARK SMILES IDX 53 56 72 57 54 58 57 59 71 60 90 61 55 62 56 63 70 65 91 66
REMARK SMILES IDX 58 67 42 68 43 69 51 70 44 71 45 72 49 73 52 74 46 75 47 76
REMARK SMILES IDX 50 77 48 78 74 79 75 80 83 81 76 82 77 83 81 84 84 85 78 86
REMARK SMILES IDX 79 87 82 88 80 89 59 90 60 91 68 92 61 93 62 94 66 95 69 96
REMARK SMILES IDX 63 97 64 98 67 99 65 100
REMARK H PARENT 25 4 30 34 89 53 57 64
REMARK Flexibility Score: inf
ROOT
ATOM      1  C   UNL A   1      31.617  26.687  26.513  1.00  0.00     0.221 C 
ATOM      2  O   UNL A   1      30.418  26.405  26.530  1.00  0.00    -0.275 OA
ATOM      3  N   UNL A   1      32.032  27.828  27.141  1.00  0.00    -0.356 N 
ATOM      4  H   UNL A   1      31.344  28.308  27.656  1.00  0.00     0.163 HD
ENDROOT
BRANCH   1   5
ATOM      5  C   UNL A   1      32.623  25.789  25.812  1.00  0.00     0.122 C 
BRANCH   5   6
ATOM      6  C   UNL A   1      31.907  24.697  24.999  1.00  0.00     0.138 C 
BRANCH   6   7
ATOM      7  N   UNL A   1      32.822  23.963  24.119  1.00  0.00    -0.287 N 
ATOM      8  C   UNL A   1      33.564  24.495  23.078  1.00  0.00     0.171 A 
ATOM      9  N   UNL A   1      34.752  24.046  22.796  1.00  0.00    -0.224 NA
ATOM     10  C   UNL A   1      35.279  22.992  23.548  1.00  0.00     0.079 A 
ATOM     11  C   UNL A   1      33.088  22.653  24.537  1.00  0.00     0.262 A 
ATOM     12  C   UNL A   1      36.656  22.754  23.567  1.00  0.00     0.029 A 
ATOM     13  C   UNL A   1      34.457  22.172  24.310  1.00  0.00     0.066 A 
ATOM     14  O   UNL A   1      32.298  21.950  25.161  1.00  0.00    -0.269 OA
ATOM     15  C   UNL A   1      37.184  21.684  24.300  1.00  0.00     0.002 A 
ATOM     16  C   UNL A   1      34.961  21.059  24.994  1.00  0.00     0.016 A 
ATOM     17  C   UNL A   1      36.333  20.816  24.985  1.00  0.00     0.001 A 
BRANCH   8  18
ATOM     18  S   UNL A   1      33.139  25.889  22.102  1.00  0.00    -0.083 SA
BRANCH  18  19
ATOM     19  C   UNL A   1      31.381  26.193  21.997  1.00  0.00     0.113 C 
BRANCH  19  20
ATOM     20  C   UNL A   1      30.909  27.467  22.635  1.00  0.00    -0.034 A 
ATOM     21  C   UNL A   1      29.113  29.028  23.139  1.00  0.00     0.119 A 
ATOM     22  C   UNL A   1      30.041  29.887  23.725  1.00  0.00     0.046 A 
ATOM     23  C   UNL A   1      29.545  27.799  22.645  1.00  0.00     0.051 A 
ATOM     24  C   UNL A   1      31.389  29.537  23.796  1.00  0.00     0.004 A 
ATOM     25  C   UNL A   1      31.824  28.336  23.243  1.00  0.00     0.005 A 
BRANCH  21  26
ATOM     26  O   UNL A   1      27.825  29.484  23.105  1.00  0.00    -0.497 OA
ATOM     27  C   UNL A   1      27.649  30.896  23.186  1.00  0.00     0.278 C 
ENDBRANCH  21  26
ENDBRANCH  19  20
ENDBRANCH  18  19
ENDBRANCH   8  18
ENDBRANCH   6   7
ENDBRANCH   5   6
ENDBRANCH   1   5
BRANCH   3  28
ATOM     28  C   UNL A   1      33.359  28.423  27.145  1.00  0.00     0.116 C 
BRANCH  28  29
ATOM     29  C   UNL A   1      33.348  29.732  26.369  1.00  0.00     0.023 C 
BRANCH  29  30
ATOM     30  C   UNL A   1      32.621  30.908  27.002  1.00  0.00     0.023 C 
BRANCH  30  31
ATOM     31  C   UNL A   1      33.549  32.028  27.423  1.00  0.00     0.116 C 
BRANCH  31  32
ATOM     32  N   UNL A   1      32.881  33.309  27.627  1.00  0.00    -0.352 N 
ATOM     33  C   UNL A   1      33.213  34.347  28.467  1.00  0.00     0.251 C 
ATOM     34  H   UNL A   1      32.073  33.452  27.083  1.00  0.00     0.163 HD
ATOM     35  O   UNL A   1      32.521  35.352  28.509  1.00  0.00    -0.269 OA
BRANCH  33  36
ATOM     36  C   UNL A   1      34.349  34.175  29.401  1.00  0.00     0.039 A 
ATOM     37  C   UNL A   1      34.101  33.563  30.631  1.00  0.00     0.014 A 
ATOM     38  C   UNL A   1      35.654  34.464  29.010  1.00  0.00     0.014 A 
ATOM     39  C   UNL A   1      35.172  33.115  31.401  1.00  0.00     0.010 A 
ATOM     40  C   UNL A   1      36.709  33.899  29.705  1.00  0.00     0.010 A 
ATOM     41  C   UNL A   1      36.480  33.205  30.901  1.00  0.00    -0.014 A 
BRANCH  41  42
ATOM     42  C   UNL A   1      37.624  32.562  31.590  1.00  0.00     0.031 A 
ATOM     43  C   UNL A   1      38.359  31.438  30.921  1.00  0.00     0.074 A 
ATOM     44  C   UNL A   1      37.920  32.915  32.857  1.00  0.00     0.049 A 
ATOM     45  N   UNL A   1      39.287  30.650  31.402  1.00  0.00    -0.248 NA
ATOM     46  C   UNL A   1      37.956  31.113  29.542  1.00  0.00     0.031 C 
ATOM     47  C   UNL A   1      37.210  33.925  33.648  1.00  0.00     0.029 A 
ATOM     48  N   UNL A   1      38.891  32.455  33.710  1.00  0.00    -0.354 N 
ATOM     49  C   UNL A   1      39.535  29.715  30.407  1.00  0.00     0.074 A 
ATOM     50  C   UNL A   1      38.621  29.991  29.322  1.00  0.00     0.031 C 
ATOM     51  C   UNL A   1      37.800  34.044  34.848  1.00  0.00     0.029 A 
ATOM     52  C   UNL A   1      38.903  33.093  34.927  1.00  0.00     0.049 A 
ATOM     53  H   UNL A   1      39.520  31.737  33.472  1.00  0.00     0.167 HD
ATOM     54  C   UNL A   1      40.468  28.734  30.388  1.00  0.00     0.037 A 
ATOM     55  C   UNL A   1      39.723  32.930  35.981  1.00  0.00     0.037 A 
ATOM     56  C   UNL A   1      41.426  28.522  31.437  1.00  0.00     0.049 A 
ATOM     57  C   UNL A   1      40.819  31.904  35.893  1.00  0.00     0.074 A 
ATOM     58  C   UNL A   1      42.472  27.621  31.485  1.00  0.00     0.029 A 
ATOM     59  N   UNL A   1      41.463  29.248  32.620  1.00  0.00    -0.354 N 
ATOM     60  N   UNL A   1      41.090  31.067  34.921  1.00  0.00    -0.248 NA
ATOM     61  C   UNL A   1      41.729  31.807  37.042  1.00  0.00     0.031 C 
ATOM     62  C   UNL A   1      43.136  27.790  32.705  1.00  0.00     0.029 A 
ATOM     63  C   UNL A   1      42.519  28.816  33.404  1.00  0.00     0.049 A 
ATOM     64  H   UNL A   1      40.833  29.962  32.865  1.00  0.00     0.167 HD
ATOM     65  C   UNL A   1      42.209  30.359  35.329  1.00  0.00     0.074 A 
ATOM     66  C   UNL A   1      42.579  30.877  36.630  1.00  0.00     0.031 C 
ATOM     67  C   UNL A   1      42.870  29.364  34.688  1.00  0.00     0.037 A 
BRANCH  54  68
ATOM     68  C   UNL A   1      40.504  27.846  29.179  1.00  0.00     0.064 A 
ATOM     69  C   UNL A   1      41.325  28.135  28.078  1.00  0.00     0.173 A 
ATOM     70  C   UNL A   1      39.701  26.697  29.114  1.00  0.00     0.173 A 
ATOM     71  F   UNL A   1      42.098  29.232  28.083  1.00  0.00    -0.203 F 
ATOM     72  C   UNL A   1      41.308  27.334  26.940  1.00  0.00     0.198 A 
ATOM     73  C   UNL A   1      39.711  25.879  27.987  1.00  0.00     0.198 A 
ATOM     74  F   UNL A   1      38.899  26.372  30.139  1.00  0.00    -0.203 F 
ATOM     75  F   UNL A   1      42.048  27.671  25.875  1.00  0.00    -0.200 F 
ATOM     76  C   UNL A   1      40.504  26.205  26.897  1.00  0.00     0.200 A 
ATOM     77  F   UNL A   1      38.940  24.784  27.948  1.00  0.00    -0.200 F 
ATOM     78  F   UNL A   1      40.485  25.438  25.798  1.00  0.00    -0.200 F 
ENDBRANCH  54  68
BRANCH  55  79
ATOM     79  C   UNL A   1      39.578  33.795  37.180  1.00  0.00     0.064 A 
ATOM     80  C   UNL A   1      38.799  33.379  38.270  1.00  0.00     0.173 A 
ATOM     81  C   UNL A   1      40.208  35.044  37.268  1.00  0.00     0.173 A 
ATOM     82  F   UNL A   1      38.163  32.199  38.224  1.00  0.00    -0.203 F 
ATOM     83  C   UNL A   1      38.639  34.187  39.392  1.00  0.00     0.198 A 
ATOM     84  C   UNL A   1      40.066  35.843  38.403  1.00  0.00     0.198 A 
ATOM     85  F   UNL A   1      40.971  35.484  36.257  1.00  0.00    -0.203 F 
ATOM     86  F   UNL A   1      37.855  33.782  40.401  1.00  0.00    -0.200 F 
ATOM     87  C   UNL A   1      39.275  35.417  39.460  1.00  0.00     0.200 A 
ATOM     88  F   UNL A   1      40.692  37.025  38.470  1.00  0.00    -0.200 F 
ATOM     89  F   UNL A   1      39.121  36.195  40.541  1.00  0.00    -0.200 F 
ENDBRANCH  55  79
BRANCH  67  90
ATOM     90  C   UNL A   1      44.074  28.796  35.374  1.00  0.00     0.064 A 
ATOM     91  C   UNL A   1      45.348  29.352  35.190  1.00  0.00     0.173 A 
ATOM     92  C   UNL A   1      43.943  27.716  36.258  1.00  0.00     0.173 A 
ATOM     93  F   UNL A   1      45.522  30.375  34.341  1.00  0.00    -0.203 F 
ATOM     94  C   UNL A   1      46.454  28.833  35.858  1.00  0.00     0.198 A 
ATOM     95  C   UNL A   1      45.046  27.216  36.942  1.00  0.00     0.198 A 
ATOM     96  F   UNL A   1      42.742  27.156  36.468  1.00  0.00    -0.203 F 
ATOM     97  F   UNL A   1      47.669  29.354  35.641  1.00  0.00    -0.200 F 
ATOM     98  C   UNL A   1      46.300  27.771  36.737  1.00  0.00     0.200 A 
ATOM     99  F   UNL A   1      44.896  26.196  37.799  1.00  0.00    -0.200 F 
ATOM    100  F   UNL A   1      47.365  27.278  37.384  1.00  0.00    -0.200 F 
ENDBRANCH  67  90
ENDBRANCH  41  42
ENDBRANCH  33  36
ENDBRANCH  31  32
ENDBRANCH  30  31
ENDBRANCH  29  30
ENDBRANCH  28  29
ENDBRANCH   3  28
TORSDOF 17
ENDMDL
MODEL 2
REMARK VINA RESULT:     -12.3      1.300      8.078
REMARK SMILES COc1cccc(CSc2nc3ccccc3c(=O)n2CCC(=O)NCCCCNC(=O)c2ccc(-c3c4nc(c(-c5c(F)c(F)c(F)c(F)c5F)c5ccc([nH]5)c(-c5c(F)c(F)c(F)c(F)c5F)c5nc(c(-c6c(F)c(F)c(F)c(F)c6F)c6ccc3[nH]6)C=C5)C=C4)cc2)c1
REMARK SMILES IDX 23 1 24 2 25 3 22 5 21 6 20 7 10 8 11 9 12 10 18 11 13 12
REMARK SMILES IDX 17 13 19 14 14 15 16 16 15 17 9 18 8 19 7 20 3 21 4 22 96 23
REMARK SMILES IDX 5 24 6 25 2 26 1 27 26 28 27 29 28 30 29 31 30 32 31 33
REMARK SMILES IDX 32 35 33 36 34 37 95 38 35 39 94 40 36 41 37 42 38 43 88 44
REMARK SMILES IDX 39 45 93 46 87 47 89 48 40 49 92 50 86 51 85 52 41 54 73 55
REMARK SMILES IDX 53 56 72 57 54 58 57 59 71 60 90 61 55 62 56 63 70 65 91 66
REMARK SMILES IDX 58 67 42 68 43 69 51 70 44 71 45 72 49 73 52 74 46 75 47 76
REMARK SMILES IDX 50 77 48 78 74 79 75 80 83 81 76 82 77 83 81 84 84 85 78 86
REMARK SMILES IDX 79 87 82 88 80 89 59 90 60 91 68 92 61 93 62 94 66 95 69 96
REMARK SMILES IDX 63 97 64 98 67 99 65 100
REMARK H PARENT 25 4 30 34 89 53 57 64
REMARK Flexibility Score: inf
ROOT
ATOM      1  C   UNL A   1      31.582  26.837  26.505  1.00  0.00     0.221 C 
ATOM      2  O   UNL A   1      30.456  26.363  26.659  1.00  0.00    -0.275 OA
ATOM      3  N   UNL A   1      31.808  28.129  26.890  1.00  0.00    -0.356 N 
ATOM      4  H   UNL A   1      31.066  28.573  27.361  1.00  0.00     0.163 HD
ENDROOT
BRANCH   1   5
ATOM      5  C   UNL A   1      32.705  26.009  25.903  1.00  0.00     0.122 C 
BRANCH   5   6
ATOM      6  C   UNL A   1      33.054  26.508  24.490  1.00  0.00     0.138 C 
BRANCH   6   7
ATOM      7  N   UNL A   1      31.876  26.603  23.623  1.00  0.00    -0.287 N 
ATOM      8  C   UNL A   1      30.855  25.674  23.518  1.00  0.00     0.171 A 
ATOM      9  N   UNL A   1      29.625  26.041  23.313  1.00  0.00    -0.224 NA
ATOM     10  C   UNL A   1      29.333  27.402  23.173  1.00  0.00     0.079 A 
ATOM     11  C   UNL A   1      31.712  27.855  23.018  1.00  0.00     0.262 A 
ATOM     12  C   UNL A   1      28.029  27.870  23.361  1.00  0.00     0.029 A 
ATOM     13  C   UNL A   1      30.328  28.322  22.869  1.00  0.00     0.066 A 
ATOM     14  O   UNL A   1      32.637  28.606  22.716  1.00  0.00    -0.269 OA
ATOM     15  C   UNL A   1      27.731  29.229  23.198  1.00  0.00     0.002 A 
ATOM     16  C   UNL A   1      30.034  29.671  22.638  1.00  0.00     0.016 A 
ATOM     17  C   UNL A   1      28.726  30.123  22.802  1.00  0.00     0.001 A 
BRANCH   8  18
ATOM     18  S   UNL A   1      30.989  23.945  23.784  1.00  0.00    -0.083 SA
BRANCH  18  19
ATOM     19  C   UNL A   1      32.351  23.181  22.914  1.00  0.00     0.113 C 
BRANCH  19  20
ATOM     20  C   UNL A   1      32.965  21.994  23.597  1.00  0.00    -0.034 A 
ATOM     21  C   UNL A   1      32.782  19.714  24.421  1.00  0.00     0.119 A 
ATOM     22  C   UNL A   1      34.064  19.819  24.960  1.00  0.00     0.046 A 
ATOM     23  C   UNL A   1      32.262  20.784  23.697  1.00  0.00     0.051 A 
ATOM     24  C   UNL A   1      34.808  20.987  24.801  1.00  0.00     0.004 A 
ATOM     25  C   UNL A   1      34.257  22.075  24.130  1.00  0.00     0.005 A 
BRANCH  21  26
ATOM     26  O   UNL A   1      32.137  18.532  24.659  1.00  0.00    -0.497 OA
ATOM     27  C   UNL A   1      32.749  17.651  25.597  1.00  0.00     0.278 C 
ENDBRANCH  21  26
ENDBRANCH  19  20
ENDBRANCH  18  19
ENDBRANCH   8  18
ENDBRANCH   6   7
ENDBRANCH   5   6
ENDBRANCH   1   5
BRANCH   3  28
ATOM     28  C   UNL A   1      33.004  28.932  26.692  1.00  0.00     0.116 C 
BRANCH  28  29
ATOM     29  C   UNL A   1      32.655  30.223  25.969  1.00  0.00     0.023 C 
BRANCH  29  30
ATOM     30  C   UNL A   1      32.033  31.336  26.797  1.00  0.00     0.023 C 
BRANCH  30  31
ATOM     31  C   UNL A   1      33.055  32.276  27.401  1.00  0.00     0.116 C 
BRANCH  31  32
ATOM     32  N   UNL A   1      32.556  33.625  27.640  1.00  0.00    -0.352 N 
ATOM     33  C   UNL A   1      33.060  34.616  28.453  1.00  0.00     0.251 C 
ATOM     34  H   UNL A   1      31.737  33.863  27.148  1.00  0.00     0.163 HD
ATOM     35  O   UNL A   1      32.494  35.694  28.534  1.00  0.00    -0.269 OA
BRANCH  33  36
ATOM     36  C   UNL A   1      34.224  34.309  29.313  1.00  0.00     0.039 A 
ATOM     37  C   UNL A   1      33.994  33.643  30.519  1.00  0.00     0.014 A 
ATOM     38  C   UNL A   1      35.526  34.531  28.870  1.00  0.00     0.014 A 
ATOM     39  C   UNL A   1      35.067  33.077  31.204  1.00  0.00     0.010 A 
ATOM     40  C   UNL A   1      36.571  33.853  29.475  1.00  0.00     0.010 A 
ATOM     41  C   UNL A   1      36.351  33.107  30.640  1.00  0.00    -0.014 A 
BRANCH  41  42
ATOM     42  C   UNL A   1      37.479  32.346  31.230  1.00  0.00     0.031 A 
ATOM     43  C   UNL A   1      37.958  32.679  32.613  1.00  0.00     0.074 A 
ATOM     44  C   UNL A   1      38.138  31.443  30.477  1.00  0.00     0.049 A 
ATOM     45  N   UNL A   1      39.010  32.240  33.256  1.00  0.00    -0.248 NA
ATOM     46  C   UNL A   1      37.185  33.690  33.354  1.00  0.00     0.031 C 
ATOM     47  C   UNL A   1      37.828  31.107  29.084  1.00  0.00     0.029 A 
ATOM     48  N   UNL A   1      39.215  30.647  30.773  1.00  0.00    -0.354 N 
ATOM     49  C   UNL A   1      39.047  32.955  34.444  1.00  0.00     0.074 A 
ATOM     50  C   UNL A   1      37.954  33.900  34.410  1.00  0.00     0.031 C 
ATOM     51  C   UNL A   1      38.661  30.141  28.665  1.00  0.00     0.029 A 
ATOM     52  C   UNL A   1      39.587  29.817  29.744  1.00  0.00     0.049 A 
ATOM     53  H   UNL A   1      39.678  30.669  31.642  1.00  0.00     0.167 HD
ATOM     54  C   UNL A   1      39.898  32.812  35.487  1.00  0.00     0.037 A 
ATOM     55  C   UNL A   1      40.562  28.891  29.687  1.00  0.00     0.037 A 
ATOM     56  C   UNL A   1      40.929  31.813  35.545  1.00  0.00     0.049 A 
ATOM     57  C   UNL A   1      41.428  28.678  30.898  1.00  0.00     0.074 A 
ATOM     58  C   UNL A   1      41.790  31.515  36.584  1.00  0.00     0.029 A 
ATOM     59  N   UNL A   1      41.219  30.929  34.515  1.00  0.00    -0.354 N 
ATOM     60  N   UNL A   1      41.414  29.314  32.045  1.00  0.00    -0.248 NA
ATOM     61  C   UNL A   1      42.436  27.614  30.812  1.00  0.00     0.031 C 
ATOM     62  C   UNL A   1      42.612  30.459  36.179  1.00  0.00     0.029 A 
ATOM     63  C   UNL A   1      42.244  30.081  34.897  1.00  0.00     0.049 A 
ATOM     64  H   UNL A   1      40.765  30.908  33.642  1.00  0.00     0.167 HD
ATOM     65  C   UNL A   1      42.393  28.717  32.823  1.00  0.00     0.074 A 
ATOM     66  C   UNL A   1      42.971  27.655  32.025  1.00  0.00     0.031 C 
ATOM     67  C   UNL A   1      42.786  29.023  34.083  1.00  0.00     0.037 A 
BRANCH  54  68
ATOM     68  C   UNL A   1      39.720  33.741  36.651  1.00  0.00     0.064 A 
ATOM     69  C   UNL A   1      40.375  34.982  36.709  1.00  0.00     0.173 A 
ATOM     70  C   UNL A   1      38.893  33.386  37.728  1.00  0.00     0.173 A 
ATOM     71  F   UNL A   1      41.191  35.360  35.714  1.00  0.00    -0.203 F 
ATOM     72  C   UNL A   1      40.245  35.810  37.820  1.00  0.00     0.198 A 
ATOM     73  C   UNL A   1      38.739  34.233  38.823  1.00  0.00     0.198 A 
ATOM     74  F   UNL A   1      38.241  32.213  37.722  1.00  0.00    -0.203 F 
ATOM     75  F   UNL A   1      40.937  36.956  37.882  1.00  0.00    -0.200 F 
ATOM     76  C   UNL A   1      39.424  35.437  38.873  1.00  0.00     0.200 A 
ATOM     77  F   UNL A   1      37.940  33.875  39.837  1.00  0.00    -0.200 F 
ATOM     78  F   UNL A   1      39.305  36.234  39.944  1.00  0.00    -0.200 F 
ENDBRANCH  54  68
BRANCH  55  79
ATOM     79  C   UNL A   1      40.731  28.059  28.468  1.00  0.00     0.064 A 
ATOM     80  C   UNL A   1      40.088  26.817  28.359  1.00  0.00     0.173 A 
ATOM     81  C   UNL A   1      41.525  28.479  27.393  1.00  0.00     0.173 A 
ATOM     82  F   UNL A   1      39.331  26.366  29.370  1.00  0.00    -0.203 F 
ATOM     83  C   UNL A   1      40.251  26.017  27.231  1.00  0.00     0.198 A 
ATOM     84  C   UNL A   1      41.669  27.687  26.254  1.00  0.00     0.198 A 
ATOM     85  F   UNL A   1      42.153  29.663  27.444  1.00  0.00    -0.203 F 
ATOM     86  F   UNL A   1      39.659  24.817  27.172  1.00  0.00    -0.200 F 
ATOM     87  C   UNL A   1      41.039  26.454  26.178  1.00  0.00     0.200 A 
ATOM     88  F   UNL A   1      42.422  28.118  25.232  1.00  0.00    -0.200 F 
ATOM     89  F   UNL A   1      41.195  25.685  25.091  1.00  0.00    -0.200 F 
ENDBRANCH  55  79
BRANCH  67  90
ATOM     90  C   UNL A   1      43.868  28.178  34.683  1.00  0.00     0.064 A 
ATOM     91  C   UNL A   1      45.219  28.533  34.567  1.00  0.00     0.173 A 
ATOM     92  C   UNL A   1      43.544  27.030  35.419  1.00  0.00     0.173 A 
ATOM     93  F   UNL A   1      45.574  29.615  33.858  1.00  0.00    -0.203 F 
ATOM     94  C   UNL A   1      46.212  27.755  35.155  1.00  0.00     0.198 A 
ATOM     95  C   UNL A   1      44.538  26.269  36.026  1.00  0.00     0.198 A 
ATOM     96  F   UNL A   1      42.264  26.655  35.561  1.00  0.00    -0.203 F 
ATOM     97  F   UNL A   1      47.500  28.091  35.002  1.00  0.00    -0.200 F 
ATOM     98  C   UNL A   1      45.870  26.629  35.889  1.00  0.00     0.200 A 
ATOM     99  F   UNL A   1      44.207  25.186  36.744  1.00  0.00    -0.200 F 
ATOM    100  F   UNL A   1      46.828  25.886  36.461  1.00  0.00    -0.200 F 
ENDBRANCH  67  90
ENDBRANCH  41  42
ENDBRANCH  33  36
ENDBRANCH  31  32
ENDBRANCH  30  31
ENDBRANCH  29  30
ENDBRANCH  28  29
ENDBRANCH   3  28
TORSDOF 17
ENDMDL
MODEL 3
REMARK VINA RESULT:     -12.3      1.331      7.226
REMARK SMILES COc1cccc(CSc2nc3ccccc3c(=O)n2CCC(=O)NCCCCNC(=O)c2ccc(-c3c4nc(c(-c5c(F)c(F)c(F)c(F)c5F)c5ccc([nH]5)c(-c5c(F)c(F)c(F)c(F)c5F)c5nc(c(-c6c(F)c(F)c(F)c(F)c6F)c6ccc3[nH]6)C=C5)C=C4)cc2)c1
REMARK SMILES IDX 23 1 24 2 25 3 22 5 21 6 20 7 10 8 11 9 12 10 18 11 13 12
REMARK SMILES IDX 17 13 19 14 14 15 16 16 15 17 9 18 8 19 7 20 3 21 4 22 96 23
REMARK SMILES IDX 5 24 6 25 2 26 1 27 26 28 27 29 28 30 29 31 30 32 31 33
REMARK SMILES IDX 32 35 33 36 34 37 95 38 35 39 94 40 36 41 37 42 38 43 88 44
REMARK SMILES IDX 39 45 93 46 87 47 89 48 40 49 92 50 86 51 85 52 41 54 73 55
REMARK SMILES IDX 53 56 72 57 54 58 57 59 71 60 90 61 55 62 56 63 70 65 91 66
REMARK SMILES IDX 58 67 42 68 43 69 51 70 44 71 45 72 49 73 52 74 46 75 47 76
REMARK SMILES IDX 50 77 48 78 74 79 75 80 83 81 76 82 77 83 81 84 84 85 78 86
REMARK SMILES IDX 79 87 82 88 80 89 59 90 60 91 68 92 61 93 62 94 66 95 69 96
REMARK SMILES IDX 63 97 64 98 67 99 65 100
REMARK H PARENT 25 4 30 34 89 53 57 64
REMARK Flexibility Score: inf
ROOT
ATOM      1  C   UNL A   1      31.846  28.405  27.350  1.00  0.00     0.221 C 
ATOM      2  O   UNL A   1      31.269  27.818  28.266  1.00  0.00    -0.275 OA
ATOM      3  N   UNL A   1      32.570  29.526  27.642  1.00  0.00    -0.356 N 
ATOM      4  H   UNL A   1      32.663  29.740  28.599  1.00  0.00     0.163 HD
ENDROOT
BRANCH   1   5
ATOM      5  C   UNL A   1      31.761  27.899  25.919  1.00  0.00     0.122 C 
BRANCH   5   6
ATOM      6  C   UNL A   1      30.812  26.691  25.823  1.00  0.00     0.138 C 
BRANCH   6   7
ATOM      7  N   UNL A   1      31.457  25.519  25.221  1.00  0.00    -0.287 N 
ATOM      8  C   UNL A   1      31.807  25.365  23.891  1.00  0.00     0.171 A 
ATOM      9  N   UNL A   1      32.877  24.712  23.544  1.00  0.00    -0.224 NA
ATOM     10  C   UNL A   1      33.676  24.136  24.536  1.00  0.00     0.079 A 
ATOM     11  C   UNL A   1      31.922  24.583  26.153  1.00  0.00     0.262 A 
ATOM     12  C   UNL A   1      35.005  23.795  24.267  1.00  0.00     0.029 A 
ATOM     13  C   UNL A   1      33.183  23.910  25.814  1.00  0.00     0.066 A 
ATOM     14  O   UNL A   1      31.409  24.383  27.251  1.00  0.00    -0.269 OA
ATOM     15  C   UNL A   1      35.800  23.197  25.252  1.00  0.00     0.002 A 
ATOM     16  C   UNL A   1      33.943  23.252  26.789  1.00  0.00     0.016 A 
ATOM     17  C   UNL A   1      35.258  22.893  26.501  1.00  0.00     0.001 A 
BRANCH   8  18
ATOM     18  S   UNL A   1      31.014  26.108  22.513  1.00  0.00    -0.083 SA
BRANCH  18  19
ATOM     19  C   UNL A   1      31.243  27.877  22.410  1.00  0.00     0.113 C 
BRANCH  19  20
ATOM     20  C   UNL A   1      29.985  28.693  22.473  1.00  0.00    -0.034 A 
ATOM     21  C   UNL A   1      28.824  30.800  22.115  1.00  0.00     0.119 A 
ATOM     22  C   UNL A   1      27.677  30.250  22.684  1.00  0.00     0.046 A 
ATOM     23  C   UNL A   1      29.955  30.001  21.964  1.00  0.00     0.051 A 
ATOM     24  C   UNL A   1      27.664  28.926  23.122  1.00  0.00     0.004 A 
ATOM     25  C   UNL A   1      28.818  28.153  23.026  1.00  0.00     0.005 A 
BRANCH  21  26
ATOM     26  O   UNL A   1      28.728  32.112  21.742  1.00  0.00    -0.497 OA
ATOM     27  C   UNL A   1      27.874  32.399  20.639  1.00  0.00     0.278 C 
ENDBRANCH  21  26
ENDBRANCH  19  20
ENDBRANCH  18  19
ENDBRANCH   8  18
ENDBRANCH   6   7
ENDBRANCH   5   6
ENDBRANCH   1   5
BRANCH   3  28
ATOM     28  C   UNL A   1      33.221  30.444  26.721  1.00  0.00     0.116 C 
BRANCH  28  29
ATOM     29  C   UNL A   1      33.088  31.873  27.223  1.00  0.00     0.023 C 
BRANCH  29  30
ATOM     30  C   UNL A   1      34.242  32.432  28.042  1.00  0.00     0.023 C 
BRANCH  30  31
ATOM     31  C   UNL A   1      34.328  33.943  27.999  1.00  0.00     0.116 C 
BRANCH  31  32
ATOM     32  N   UNL A   1      33.297  34.620  28.778  1.00  0.00    -0.352 N 
ATOM     33  C   UNL A   1      33.249  34.888  30.127  1.00  0.00     0.251 C 
ATOM     34  H   UNL A   1      32.518  34.932  28.261  1.00  0.00     0.163 HD
ATOM     35  O   UNL A   1      32.287  35.465  30.608  1.00  0.00    -0.269 OA
BRANCH  33  36
ATOM     36  C   UNL A   1      34.323  34.359  30.997  1.00  0.00     0.039 A 
ATOM     37  C   UNL A   1      34.100  33.149  31.656  1.00  0.00     0.014 A 
ATOM     38  C   UNL A   1      35.579  34.960  31.038  1.00  0.00     0.014 A 
ATOM     39  C   UNL A   1      35.174  32.475  32.234  1.00  0.00     0.010 A 
ATOM     40  C   UNL A   1      36.665  34.229  31.489  1.00  0.00     0.010 A 
ATOM     41  C   UNL A   1      36.477  32.972  32.079  1.00  0.00    -0.014 A 
BRANCH  41  42
ATOM     42  C   UNL A   1      37.664  32.189  32.498  1.00  0.00     0.031 A 
ATOM     43  C   UNL A   1      38.331  32.494  33.808  1.00  0.00     0.074 A 
ATOM     44  C   UNL A   1      38.202  31.291  31.648  1.00  0.00     0.049 A 
ATOM     45  N   UNL A   1      39.455  32.033  34.294  1.00  0.00    -0.248 NA
ATOM     46  C   UNL A   1      37.680  33.501  34.662  1.00  0.00     0.031 C 
ATOM     47  C   UNL A   1      37.701  30.981  30.306  1.00  0.00     0.029 A 
ATOM     48  N   UNL A   1      39.299  30.478  31.783  1.00  0.00    -0.354 N 
ATOM     49  C   UNL A   1      39.663  32.728  35.476  1.00  0.00     0.074 A 
ATOM     50  C   UNL A   1      38.588  33.685  35.605  1.00  0.00     0.031 C 
ATOM     51  C   UNL A   1      38.455  30.012  29.764  1.00  0.00     0.029 A 
ATOM     52  C   UNL A   1      39.516  29.661  30.701  1.00  0.00     0.049 A 
ATOM     53  H   UNL A   1      39.876  30.480  32.581  1.00  0.00     0.167 HD
ATOM     54  C   UNL A   1      40.647  32.558  36.391  1.00  0.00     0.037 A 
ATOM     55  C   UNL A   1      40.462  28.726  30.498  1.00  0.00     0.037 A 
ATOM     56  C   UNL A   1      41.663  31.547  36.293  1.00  0.00     0.049 A 
ATOM     57  C   UNL A   1      41.481  28.483  31.576  1.00  0.00     0.074 A 
ATOM     58  C   UNL A   1      42.653  31.223  37.201  1.00  0.00     0.029 A 
ATOM     59  N   UNL A   1      41.798  30.676  35.220  1.00  0.00    -0.354 N 
ATOM     60  N   UNL A   1      41.632  29.100  32.723  1.00  0.00    -0.248 NA
ATOM     61  C   UNL A   1      42.454  27.409  31.338  1.00  0.00     0.031 C 
ATOM     62  C   UNL A   1      43.398  30.164  36.671  1.00  0.00     0.029 A 
ATOM     63  C   UNL A   1      42.854  29.811  35.446  1.00  0.00     0.049 A 
ATOM     64  H   UNL A   1      41.228  30.674  34.418  1.00  0.00     0.167 HD
ATOM     65  C   UNL A   1      42.701  28.479  33.352  1.00  0.00     0.074 A 
ATOM     66  C   UNL A   1      43.150  27.424  32.467  1.00  0.00     0.031 C 
ATOM     67  C   UNL A   1      43.265  28.760  34.551  1.00  0.00     0.037 A 
BRANCH  54  68
ATOM     68  C   UNL A   1      40.641  33.470  37.582  1.00  0.00     0.064 A 
ATOM     69  C   UNL A   1      41.508  34.571  37.670  1.00  0.00     0.173 A 
ATOM     70  C   UNL A   1      39.767  33.238  38.655  1.00  0.00     0.173 A 
ATOM     71  F   UNL A   1      42.377  34.825  36.680  1.00  0.00    -0.203 F 
ATOM     72  C   UNL A   1      41.532  35.376  38.804  1.00  0.00     0.198 A 
ATOM     73  C   UNL A   1      39.770  34.066  39.774  1.00  0.00     0.198 A 
ATOM     74  F   UNL A   1      38.915  32.202  38.621  1.00  0.00    -0.203 F 
ATOM     75  F   UNL A   1      42.419  36.377  38.894  1.00  0.00    -0.200 F 
ATOM     76  C   UNL A   1      40.661  35.126  39.853  1.00  0.00     0.200 A 
ATOM     77  F   UNL A   1      38.922  33.829  40.784  1.00  0.00    -0.200 F 
ATOM     78  F   UNL A   1      40.689  35.900  40.947  1.00  0.00    -0.200 F 
ENDBRANCH  54  68
BRANCH  55  79
ATOM     79  C   UNL A   1      40.452  27.911  29.256  1.00  0.00     0.064 A 
ATOM     80  C   UNL A   1      41.245  28.277  28.158  1.00  0.00     0.173 A 
ATOM     81  C   UNL A   1      39.662  26.760  29.135  1.00  0.00     0.173 A 
ATOM     82  F   UNL A   1      42.004  29.381  28.220  1.00  0.00    -0.203 F 
ATOM     83  C   UNL A   1      41.232  27.534  26.980  1.00  0.00     0.198 A 
ATOM     84  C   UNL A   1      39.668  26.004  27.963  1.00  0.00     0.198 A 
ATOM     85  F   UNL A   1      38.893  26.363  30.160  1.00  0.00    -0.203 F 
ATOM     86  F   UNL A   1      41.967  27.930  25.932  1.00  0.00    -0.200 F 
ATOM     87  C   UNL A   1      40.446  26.396  26.884  1.00  0.00     0.200 A 
ATOM     88  F   UNL A   1      38.916  24.897  27.879  1.00  0.00    -0.200 F 
ATOM     89  F   UNL A   1      40.434  25.681  25.751  1.00  0.00    -0.200 F 
ENDBRANCH  55  79
BRANCH  67  90
ATOM     90  C   UNL A   1      44.408  27.894  34.985  1.00  0.00     0.064 A 
ATOM     91  C   UNL A   1      45.736  28.248  34.712  1.00  0.00     0.173 A 
ATOM     92  C   UNL A   1      44.170  26.725  35.721  1.00  0.00     0.173 A 
ATOM     93  F   UNL A   1      46.008  29.349  33.997  1.00  0.00    -0.203 F 
ATOM     94  C   UNL A   1      46.789  27.449  35.148  1.00  0.00     0.198 A 
ATOM     95  C   UNL A   1      45.226  25.941  36.175  1.00  0.00     0.198 A 
ATOM     96  F   UNL A   1      42.915  26.350  36.010  1.00  0.00    -0.203 F 
ATOM     97  F   UNL A   1      48.051  27.784  34.845  1.00  0.00    -0.200 F 
ATOM     98  C   UNL A   1      46.533  26.302  35.884  1.00  0.00     0.200 A 
ATOM     99  F   UNL A   1      44.979  24.838  36.896  1.00  0.00    -0.200 F 
ATOM    100  F   UNL A   1      47.550  25.538  36.309  1.00  0.00    -0.200 F 
ENDBRANCH  67  90
ENDBRANCH  41  42
ENDBRANCH  33  36
ENDBRANCH  31  32
ENDBRANCH  30  31
ENDBRANCH  29  30
ENDBRANCH  28  29
ENDBRANCH   3  28
TORSDOF 17
ENDMDL
