MODEL 1
REMARK VINA RESULT:     -11.3      0.000      0.000
REMARK SMILES CC[C@H](C)[NH2+]CCc1ccc(C(=O)NCCCCNC(=O)c2ccc(-c3c4nc(c(-c5c(F)c(F)c(F)c(F)c5F)c5ccc([nH]5)c(-c5c(F)c(F)c(F)c(F)c5F)c5nc(c(-c6c(F)c(F)c(F)c(F)c6F)c6ccc3[nH]6)C=C5)C=C4)cc2)cc1
REMARK SMILES IDX 15 1 14 2 12 3 13 4 11 6 8 7 9 8 86 9 10 10 85 11 7 12 6 13
REMARK SMILES IDX 5 14 3 17 4 18 2 19 1 20 16 21 17 22 18 23 19 24 20 25 21 27
REMARK SMILES IDX 22 28 23 29 84 30 24 31 83 32 25 33 26 34 27 35 77 36 28 37
REMARK SMILES IDX 82 38 76 39 78 40 29 41 81 42 75 43 74 44 30 46 62 47 42 48
REMARK SMILES IDX 61 49 43 50 46 51 60 52 79 53 44 54 45 55 59 57 80 58 47 59
REMARK SMILES IDX 31 60 32 61 40 62 33 63 34 64 38 65 41 66 35 67 36 68 39 69
REMARK SMILES IDX 37 70 63 71 64 72 72 73 65 74 66 75 70 76 73 77 67 78 68 79
REMARK SMILES IDX 71 80 69 81 48 82 49 83 57 84 50 85 51 86 55 87 58 88 52 89
REMARK SMILES IDX 53 90 56 91 54 92
REMARK H PARENT 14 5 5 15 5 16 19 26 78 45 46 56
REMARK Flexibility Score: inf
ROOT
ATOM      1  C   UNL A   1      32.072  29.781  25.388  1.00  0.00     0.116 C 
ENDROOT
BRANCH   1   2
ATOM      2  N   UNL A   1      31.038  30.077  24.413  1.00  0.00    -0.352 N 
ATOM      3  C   UNL A   1      30.280  29.240  23.631  1.00  0.00     0.251 C 
ATOM      4  O   UNL A   1      29.370  29.725  22.962  1.00  0.00    -0.269 OA
ATOM      5  H   UNL A   1      30.851  31.036  24.291  1.00  0.00     0.163 HD
BRANCH   3   6
ATOM      6  C   UNL A   1      30.487  27.768  23.619  1.00  0.00     0.039 A 
ATOM      7  C   UNL A   1      30.866  24.977  23.422  1.00  0.00    -0.042 A 
ATOM      8  C   UNL A   1      31.513  25.855  22.538  1.00  0.00     0.005 A 
ATOM      9  C   UNL A   1      30.123  25.524  24.473  1.00  0.00     0.005 A 
ATOM     10  C   UNL A   1      31.324  27.236  22.633  1.00  0.00     0.014 A 
ATOM     11  C   UNL A   1      29.935  26.906  24.568  1.00  0.00     0.014 A 
BRANCH   7  12
ATOM     12  C   UNL A   1      31.022  23.484  23.223  1.00  0.00     0.097 C 
BRANCH  12  13
ATOM     13  C   UNL A   1      32.420  22.865  23.454  1.00  0.00     0.265 C 
BRANCH  13  14
ATOM     14  N   UNL A   1      33.064  23.039  24.757  1.00  0.00    -0.344 N 
ATOM     15  H   UNL A   1      32.678  23.884  25.178  1.00  0.00     0.346 HD
ATOM     16  H   UNL A   1      32.871  22.173  25.259  1.00  0.00     0.346 HD
BRANCH  14  17
ATOM     17  C   UNL A   1      34.526  23.167  24.779  1.00  0.00     0.178 C 
ATOM     18  C   UNL A   1      34.979  22.982  23.325  1.00  0.00     0.075 C 
BRANCH  17  19
ATOM     19  C   UNL A   1      34.985  24.513  25.375  1.00  0.00     0.061 C 
ATOM     20  C   UNL A   1      33.915  25.591  25.467  1.00  0.00     0.010 C 
ENDBRANCH  17  19
ENDBRANCH  14  17
ENDBRANCH  13  14
ENDBRANCH  12  13
ENDBRANCH   7  12
ENDBRANCH   3   6
ENDBRANCH   1   2
BRANCH   1  21
ATOM     21  C   UNL A   1      31.781  30.453  26.731  1.00  0.00     0.023 C 
BRANCH  21  22
ATOM     22  C   UNL A   1      31.635  31.974  26.672  1.00  0.00     0.023 C 
BRANCH  22  23
ATOM     23  C   UNL A   1      32.787  32.757  27.286  1.00  0.00     0.116 C 
BRANCH  23  24
ATOM     24  N   UNL A   1      32.438  34.128  27.625  1.00  0.00    -0.352 N 
ATOM     25  C   UNL A   1      33.000  34.951  28.575  1.00  0.00     0.251 C 
ATOM     26  H   UNL A   1      31.699  34.520  27.105  1.00  0.00     0.163 HD
ATOM     27  O   UNL A   1      32.526  36.049  28.805  1.00  0.00    -0.269 OA
BRANCH  25  28
ATOM     28  C   UNL A   1      34.165  34.465  29.347  1.00  0.00     0.039 A 
ATOM     29  C   UNL A   1      33.941  33.856  30.584  1.00  0.00     0.014 A 
ATOM     30  C   UNL A   1      35.460  34.577  28.838  1.00  0.00     0.014 A 
ATOM     31  C   UNL A   1      35.012  33.292  31.278  1.00  0.00     0.010 A 
ATOM     32  C   UNL A   1      36.515  33.955  29.495  1.00  0.00     0.010 A 
ATOM     33  C   UNL A   1      36.301  33.303  30.720  1.00  0.00    -0.014 A 
BRANCH  33  34
ATOM     34  C   UNL A   1      37.439  32.636  31.398  1.00  0.00     0.031 A 
ATOM     35  C   UNL A   1      38.139  31.484  30.736  1.00  0.00     0.074 A 
ATOM     36  C   UNL A   1      37.793  33.022  32.639  1.00  0.00     0.049 A 
ATOM     37  N   UNL A   1      39.100  30.724  31.196  1.00  0.00    -0.248 NA
ATOM     38  C   UNL A   1      37.677  31.117  29.388  1.00  0.00     0.031 C 
ATOM     39  C   UNL A   1      37.155  34.092  33.406  1.00  0.00     0.029 A 
ATOM     40  N   UNL A   1      38.768  32.547  33.480  1.00  0.00    -0.354 N 
ATOM     41  C   UNL A   1      39.343  29.783  30.205  1.00  0.00     0.074 A 
ATOM     42  C   UNL A   1      38.397  30.035  29.140  1.00  0.00     0.031 C 
ATOM     43  C   UNL A   1      37.768  34.207  34.595  1.00  0.00     0.029 A 
ATOM     44  C   UNL A   1      38.818  33.198  34.689  1.00  0.00     0.049 A 
ATOM     45  H   UNL A   1      39.374  31.809  33.239  1.00  0.00     0.167 HD
ATOM     46  C   UNL A   1      40.286  28.812  30.177  1.00  0.00     0.037 A 
ATOM     47  C   UNL A   1      39.618  32.996  35.753  1.00  0.00     0.037 A 
ATOM     48  C   UNL A   1      41.248  28.586  31.224  1.00  0.00     0.049 A 
ATOM     49  C   UNL A   1      40.662  31.915  35.691  1.00  0.00     0.074 A 
ATOM     50  C   UNL A   1      42.288  27.674  31.260  1.00  0.00     0.029 A 
ATOM     51  N   UNL A   1      41.285  29.283  32.423  1.00  0.00    -0.354 N 
ATOM     52  N   UNL A   1      40.933  31.080  34.719  1.00  0.00    -0.248 NA
ATOM     53  C   UNL A   1      41.519  31.755  36.875  1.00  0.00     0.031 C 
ATOM     54  C   UNL A   1      42.929  27.791  32.498  1.00  0.00     0.029 A 
ATOM     55  C   UNL A   1      42.318  28.808  33.214  1.00  0.00     0.049 A 
ATOM     56  H   UNL A   1      40.668  30.008  32.675  1.00  0.00     0.167 HD
ATOM     57  C   UNL A   1      42.005  30.316  35.159  1.00  0.00     0.074 A 
ATOM     58  C   UNL A   1      42.345  30.796  36.482  1.00  0.00     0.031 C 
ATOM     59  C   UNL A   1      42.649  29.306  34.524  1.00  0.00     0.037 A 
BRANCH  46  60
ATOM     60  C   UNL A   1      40.330  27.921  28.969  1.00  0.00     0.064 A 
ATOM     61  C   UNL A   1      41.084  28.257  27.836  1.00  0.00     0.173 A 
ATOM     62  C   UNL A   1      39.638  26.702  28.959  1.00  0.00     0.173 A 
ATOM     63  F   UNL A   1      41.754  29.418  27.790  1.00  0.00    -0.203 F 
ATOM     64  C   UNL A   1      41.123  27.418  26.725  1.00  0.00     0.198 A 
ATOM     65  C   UNL A   1      39.702  25.850  27.859  1.00  0.00     0.198 A 
ATOM     66  F   UNL A   1      38.905  26.329  30.020  1.00  0.00    -0.203 F 
ATOM     67  F   UNL A   1      41.812  27.782  25.635  1.00  0.00    -0.200 F 
ATOM     68  C   UNL A   1      40.437  26.213  26.741  1.00  0.00     0.200 A 
ATOM     69  F   UNL A   1      39.048  24.680  27.880  1.00  0.00    -0.200 F 
ATOM     70  F   UNL A   1      40.480  25.402  25.674  1.00  0.00    -0.200 F 
ENDBRANCH  46  60
BRANCH  47  71
ATOM     71  C   UNL A   1      39.485  33.857  36.956  1.00  0.00     0.064 A 
ATOM     72  C   UNL A   1      40.146  35.092  37.031  1.00  0.00     0.173 A 
ATOM     73  C   UNL A   1      38.706  33.467  38.054  1.00  0.00     0.173 A 
ATOM     74  F   UNL A   1      40.919  35.499  36.014  1.00  0.00    -0.203 F 
ATOM     75  C   UNL A   1      40.050  35.892  38.166  1.00  0.00     0.198 A 
ATOM     76  C   UNL A   1      38.589  34.280  39.179  1.00  0.00     0.198 A 
ATOM     77  F   UNL A   1      38.050  32.297  38.029  1.00  0.00    -0.203 F 
ATOM     78  F   UNL A   1      40.730  37.046  38.230  1.00  0.00    -0.200 F 
ATOM     79  C   UNL A   1      39.268  35.488  39.238  1.00  0.00     0.200 A 
ATOM     80  F   UNL A   1      37.823  33.893  40.207  1.00  0.00    -0.200 F 
ATOM     81  F   UNL A   1      39.174  36.259  40.330  1.00  0.00    -0.200 F 
ENDBRANCH  47  71
BRANCH  59  82
ATOM     82  C   UNL A   1      43.811  28.678  35.235  1.00  0.00     0.064 A 
ATOM     83  C   UNL A   1      45.126  29.122  35.030  1.00  0.00     0.173 A 
ATOM     84  C   UNL A   1      43.602  27.647  36.163  1.00  0.00     0.173 A 
ATOM     85  F   UNL A   1      45.379  30.095  34.142  1.00  0.00    -0.203 F 
ATOM     86  C   UNL A   1      46.191  28.540  35.714  1.00  0.00     0.198 A 
ATOM     87  C   UNL A   1      44.664  27.088  36.865  1.00  0.00     0.198 A 
ATOM     88  F   UNL A   1      42.362  27.192  36.399  1.00  0.00    -0.203 F 
ATOM     89  F   UNL A   1      47.443  28.950  35.470  1.00  0.00    -0.200 F 
ATOM     90  C   UNL A   1      45.958  27.530  36.634  1.00  0.00     0.200 A 
ATOM     91  F   UNL A   1      44.438  26.120  37.764  1.00  0.00    -0.200 F 
ATOM     92  F   UNL A   1      46.984  26.976  37.297  1.00  0.00    -0.200 F 
ENDBRANCH  59  82
ENDBRANCH  33  34
ENDBRANCH  25  28
ENDBRANCH  23  24
ENDBRANCH  22  23
ENDBRANCH  21  22
ENDBRANCH   1  21
TORSDOF 16
ENDMDL
MODEL 2
REMARK VINA RESULT:     -11.1      1.139      2.536
REMARK SMILES CC[C@H](C)[NH2+]CCc1ccc(C(=O)NCCCCNC(=O)c2ccc(-c3c4nc(c(-c5c(F)c(F)c(F)c(F)c5F)c5ccc([nH]5)c(-c5c(F)c(F)c(F)c(F)c5F)c5nc(c(-c6c(F)c(F)c(F)c(F)c6F)c6ccc3[nH]6)C=C5)C=C4)cc2)cc1
REMARK SMILES IDX 15 1 14 2 12 3 13 4 11 6 8 7 9 8 86 9 10 10 85 11 7 12 6 13
REMARK SMILES IDX 5 14 3 17 4 18 2 19 1 20 16 21 17 22 18 23 19 24 20 25 21 27
REMARK SMILES IDX 22 28 23 29 84 30 24 31 83 32 25 33 26 34 27 35 77 36 28 37
REMARK SMILES IDX 82 38 76 39 78 40 29 41 81 42 75 43 74 44 30 46 62 47 42 48
REMARK SMILES IDX 61 49 43 50 46 51 60 52 79 53 44 54 45 55 59 57 80 58 47 59
REMARK SMILES IDX 31 60 32 61 40 62 33 63 34 64 38 65 41 66 35 67 36 68 39 69
REMARK SMILES IDX 37 70 63 71 64 72 72 73 65 74 66 75 70 76 73 77 67 78 68 79
REMARK SMILES IDX 71 80 69 81 48 82 49 83 57 84 50 85 51 86 55 87 58 88 52 89
REMARK SMILES IDX 53 90 56 91 54 92
REMARK H PARENT 14 5 5 15 5 16 19 26 78 45 46 56
REMARK Flexibility Score: inf
ROOT
ATOM      1  C   UNL A   1      33.261  29.949  26.689  1.00  0.00     0.116 C 
ENDROOT
BRANCH   1   2
ATOM      2  N   UNL A   1      33.598  29.703  25.299  1.00  0.00    -0.352 N 
ATOM      3  C   UNL A   1      33.492  28.561  24.541  1.00  0.00     0.251 C 
ATOM      4  O   UNL A   1      33.728  28.631  23.337  1.00  0.00    -0.269 OA
ATOM      5  H   UNL A   1      33.962  30.482  24.820  1.00  0.00     0.163 HD
BRANCH   3   6
ATOM      6  C   UNL A   1      33.043  27.268  25.122  1.00  0.00     0.039 A 
ATOM      7  C   UNL A   1      32.312  24.733  26.125  1.00  0.00    -0.042 A 
ATOM      8  C   UNL A   1      33.663  25.088  25.983  1.00  0.00     0.005 A 
ATOM      9  C   UNL A   1      31.341  25.705  25.867  1.00  0.00     0.005 A 
ATOM     10  C   UNL A   1      34.026  26.342  25.484  1.00  0.00     0.014 A 
ATOM     11  C   UNL A   1      31.704  26.959  25.368  1.00  0.00     0.014 A 
BRANCH   7  12
ATOM     12  C   UNL A   1      31.963  23.330  26.577  1.00  0.00     0.097 C 
BRANCH  12  13
ATOM     13  C   UNL A   1      31.758  22.249  25.492  1.00  0.00     0.265 C 
BRANCH  13  14
ATOM     14  N   UNL A   1      32.817  22.026  24.507  1.00  0.00    -0.344 N 
ATOM     15  H   UNL A   1      32.368  21.899  23.599  1.00  0.00     0.346 HD
ATOM     16  H   UNL A   1      33.420  22.845  24.584  1.00  0.00     0.346 HD
BRANCH  14  17
ATOM     17  C   UNL A   1      33.711  20.881  24.718  1.00  0.00     0.178 C 
ATOM     18  C   UNL A   1      34.862  21.410  25.584  1.00  0.00     0.075 C 
BRANCH  17  19
ATOM     19  C   UNL A   1      32.985  19.686  25.366  1.00  0.00     0.061 C 
ATOM     20  C   UNL A   1      32.474  18.625  24.402  1.00  0.00     0.010 C 
ENDBRANCH  17  19
ENDBRANCH  14  17
ENDBRANCH  13  14
ENDBRANCH  12  13
ENDBRANCH   7  12
ENDBRANCH   3   6
ENDBRANCH   1   2
BRANCH   1  21
ATOM     21  C   UNL A   1      31.797  30.365  26.843  1.00  0.00     0.023 C 
BRANCH  21  22
ATOM     22  C   UNL A   1      31.555  31.875  26.865  1.00  0.00     0.023 C 
BRANCH  22  23
ATOM     23  C   UNL A   1      32.749  32.714  27.296  1.00  0.00     0.116 C 
BRANCH  23  24
ATOM     24  N   UNL A   1      32.405  34.092  27.609  1.00  0.00    -0.352 N 
ATOM     25  C   UNL A   1      32.978  34.936  28.534  1.00  0.00     0.251 C 
ATOM     26  H   UNL A   1      31.660  34.474  27.089  1.00  0.00     0.163 HD
ATOM     27  O   UNL A   1      32.507  36.039  28.746  1.00  0.00    -0.269 OA
BRANCH  25  28
ATOM     28  C   UNL A   1      34.152  34.466  29.304  1.00  0.00     0.039 A 
ATOM     29  C   UNL A   1      33.938  33.823  30.524  1.00  0.00     0.014 A 
ATOM     30  C   UNL A   1      35.447  34.626  28.806  1.00  0.00     0.014 A 
ATOM     31  C   UNL A   1      35.021  33.273  31.213  1.00  0.00     0.010 A 
ATOM     32  C   UNL A   1      36.515  34.020  29.456  1.00  0.00     0.010 A 
ATOM     33  C   UNL A   1      36.312  33.335  30.664  1.00  0.00    -0.014 A 
BRANCH  33  34
ATOM     34  C   UNL A   1      37.465  32.685  31.334  1.00  0.00     0.031 A 
ATOM     35  C   UNL A   1      38.183  31.549  30.664  1.00  0.00     0.074 A 
ATOM     36  C   UNL A   1      37.816  33.071  32.577  1.00  0.00     0.049 A 
ATOM     37  N   UNL A   1      39.160  30.805  31.117  1.00  0.00    -0.248 NA
ATOM     38  C   UNL A   1      37.722  31.181  29.317  1.00  0.00     0.031 C 
ATOM     39  C   UNL A   1      37.162  34.126  33.351  1.00  0.00     0.029 A 
ATOM     40  N   UNL A   1      38.803  32.610  33.412  1.00  0.00    -0.354 N 
ATOM     41  C   UNL A   1      39.416  29.873  30.121  1.00  0.00     0.074 A 
ATOM     42  C   UNL A   1      38.462  30.112  29.060  1.00  0.00     0.031 C 
ATOM     43  C   UNL A   1      37.777  34.246  34.539  1.00  0.00     0.029 A 
ATOM     44  C   UNL A   1      38.846  33.256  34.623  1.00  0.00     0.049 A 
ATOM     45  H   UNL A   1      39.422  31.885  33.165  1.00  0.00     0.167 HD
ATOM     46  C   UNL A   1      40.377  28.920  30.085  1.00  0.00     0.037 A 
ATOM     47  C   UNL A   1      39.653  33.064  35.683  1.00  0.00     0.037 A 
ATOM     48  C   UNL A   1      41.346  28.706  31.127  1.00  0.00     0.049 A 
ATOM     49  C   UNL A   1      40.717  32.003  35.613  1.00  0.00     0.074 A 
ATOM     50  C   UNL A   1      42.402  27.814  31.155  1.00  0.00     0.029 A 
ATOM     51  N   UNL A   1      41.375  29.398  32.329  1.00  0.00    -0.354 N 
ATOM     52  N   UNL A   1      40.999  31.177  34.635  1.00  0.00    -0.248 NA
ATOM     53  C   UNL A   1      41.580  31.852  36.792  1.00  0.00     0.031 C 
ATOM     54  C   UNL A   1      43.047  27.936  32.391  1.00  0.00     0.029 A 
ATOM     55  C   UNL A   1      42.420  28.938  33.114  1.00  0.00     0.049 A 
ATOM     56  H   UNL A   1      40.745  30.110  32.587  1.00  0.00     0.167 HD
ATOM     57  C   UNL A   1      42.087  30.430  35.067  1.00  0.00     0.074 A 
ATOM     58  C   UNL A   1      42.422  30.910  36.391  1.00  0.00     0.031 C 
ATOM     59  C   UNL A   1      42.746  29.436  34.425  1.00  0.00     0.037 A 
BRANCH  46  60
ATOM     60  C   UNL A   1      40.432  28.036  28.872  1.00  0.00     0.064 A 
ATOM     61  C   UNL A   1      39.725  26.826  28.813  1.00  0.00     0.173 A 
ATOM     62  C   UNL A   1      41.173  28.419  27.745  1.00  0.00     0.173 A 
ATOM     63  F   UNL A   1      39.012  26.408  29.869  1.00  0.00    -0.203 F 
ATOM     64  C   UNL A   1      39.778  26.019  27.679  1.00  0.00     0.198 A 
ATOM     65  C   UNL A   1      41.201  27.625  26.601  1.00  0.00     0.198 A 
ATOM     66  F   UNL A   1      41.864  29.569  27.748  1.00  0.00    -0.203 F 
ATOM     67  F   UNL A   1      39.132  24.845  27.663  1.00  0.00    -0.200 F 
ATOM     68  C   UNL A   1      40.510  26.423  26.573  1.00  0.00     0.200 A 
ATOM     69  F   UNL A   1      41.899  28.022  25.528  1.00  0.00    -0.200 F 
ATOM     70  F   UNL A   1      40.555  25.649  25.479  1.00  0.00    -0.200 F 
ENDBRANCH  46  60
BRANCH  47  71
ATOM     71  C   UNL A   1      39.509  33.916  36.891  1.00  0.00     0.064 A 
ATOM     72  C   UNL A   1      38.756  33.480  37.991  1.00  0.00     0.173 A 
ATOM     73  C   UNL A   1      40.109  35.181  36.972  1.00  0.00     0.173 A 
ATOM     74  F   UNL A   1      38.145  32.287  37.952  1.00  0.00    -0.203 F 
ATOM     75  C   UNL A   1      38.591  34.285  39.116  1.00  0.00     0.198 A 
ATOM     76  C   UNL A   1      39.966  35.974  38.108  1.00  0.00     0.198 A 
ATOM     77  F   UNL A   1      40.844  35.641  35.949  1.00  0.00    -0.203 F 
ATOM     78  F   UNL A   1      37.828  33.862  40.133  1.00  0.00    -0.200 F 
ATOM     79  C   UNL A   1      39.200  35.529  39.176  1.00  0.00     0.200 A 
ATOM     80  F   UNL A   1      40.567  37.170  38.169  1.00  0.00    -0.200 F 
ATOM     81  F   UNL A   1      39.044  36.303  40.259  1.00  0.00    -0.200 F 
ENDBRANCH  47  71
BRANCH  59  82
ATOM     82  C   UNL A   1      43.922  28.826  35.129  1.00  0.00     0.064 A 
ATOM     83  C   UNL A   1      43.780  27.711  35.970  1.00  0.00     0.173 A 
ATOM     84  C   UNL A   1      45.213  29.336  34.927  1.00  0.00     0.173 A 
ATOM     85  F   UNL A   1      42.563  27.196  36.206  1.00  0.00    -0.203 F 
ATOM     86  C   UNL A   1      44.885  27.146  36.599  1.00  0.00     0.198 A 
ATOM     87  C   UNL A   1      46.319  28.751  35.535  1.00  0.00     0.198 A 
ATOM     88  F   UNL A   1      45.402  30.397  34.127  1.00  0.00    -0.203 F 
ATOM     89  F   UNL A   1      44.720  26.110  37.433  1.00  0.00    -0.200 F 
ATOM     90  C   UNL A   1      46.153  27.661  36.376  1.00  0.00     0.200 A 
ATOM     91  F   UNL A   1      47.545  29.242  35.310  1.00  0.00    -0.200 F 
ATOM     92  F   UNL A   1      47.217  27.111  36.978  1.00  0.00    -0.200 F 
ENDBRANCH  59  82
ENDBRANCH  33  34
ENDBRANCH  25  28
ENDBRANCH  23  24
ENDBRANCH  22  23
ENDBRANCH  21  22
ENDBRANCH   1  21
TORSDOF 16
ENDMDL
MODEL 3
REMARK VINA RESULT:     -11.1      0.694      7.467
REMARK SMILES CC[C@H](C)[NH2+]CCc1ccc(C(=O)NCCCCNC(=O)c2ccc(-c3c4nc(c(-c5c(F)c(F)c(F)c(F)c5F)c5ccc([nH]5)c(-c5c(F)c(F)c(F)c(F)c5F)c5nc(c(-c6c(F)c(F)c(F)c(F)c6F)c6ccc3[nH]6)C=C5)C=C4)cc2)cc1
REMARK SMILES IDX 15 1 14 2 12 3 13 4 11 6 8 7 9 8 86 9 10 10 85 11 7 12 6 13
REMARK SMILES IDX 5 14 3 17 4 18 2 19 1 20 16 21 17 22 18 23 19 24 20 25 21 27
REMARK SMILES IDX 22 28 23 29 84 30 24 31 83 32 25 33 26 34 27 35 77 36 28 37
REMARK SMILES IDX 82 38 76 39 78 40 29 41 81 42 75 43 74 44 30 46 62 47 42 48
REMARK SMILES IDX 61 49 43 50 46 51 60 52 79 53 44 54 45 55 59 57 80 58 47 59
REMARK SMILES IDX 31 60 32 61 40 62 33 63 34 64 38 65 41 66 35 67 36 68 39 69
REMARK SMILES IDX 37 70 63 71 64 72 72 73 65 74 66 75 70 76 73 77 67 78 68 79
REMARK SMILES IDX 71 80 69 81 48 82 49 83 57 84 50 85 51 86 55 87 58 88 52 89
REMARK SMILES IDX 53 90 56 91 54 92
REMARK H PARENT 14 5 5 15 5 16 19 26 78 45 46 56
REMARK Flexibility Score: inf
ROOT
ATOM      1  C   UNL A   1      31.988  29.759  25.593  1.00  0.00     0.116 C 
ENDROOT
BRANCH   1   2
ATOM      2  N   UNL A   1      31.108  30.107  24.492  1.00  0.00    -0.352 N 
ATOM      3  C   UNL A   1      30.433  29.309  23.600  1.00  0.00     0.251 C 
ATOM      4  O   UNL A   1      29.641  29.836  22.823  1.00  0.00    -0.269 OA
ATOM      5  H   UNL A   1      30.972  31.073  24.364  1.00  0.00     0.163 HD
BRANCH   3   6
ATOM      6  C   UNL A   1      30.589  27.830  23.590  1.00  0.00     0.039 A 
ATOM      7  C   UNL A   1      30.926  25.034  23.400  1.00  0.00    -0.042 A 
ATOM      8  C   UNL A   1      31.853  25.911  22.815  1.00  0.00     0.005 A 
ATOM      9  C   UNL A   1      29.899  25.578  24.177  1.00  0.00     0.005 A 
ATOM     10  C   UNL A   1      31.685  27.296  22.906  1.00  0.00     0.014 A 
ATOM     11  C   UNL A   1      29.731  26.962  24.268  1.00  0.00     0.014 A 
BRANCH   7  12
ATOM     12  C   UNL A   1      31.094  23.543  23.195  1.00  0.00     0.097 C 
BRANCH  12  13
ATOM     13  C   UNL A   1      32.527  22.964  23.220  1.00  0.00     0.265 C 
BRANCH  13  14
ATOM     14  N   UNL A   1      33.089  22.522  24.497  1.00  0.00    -0.344 N 
ATOM     15  H   UNL A   1      32.314  22.418  25.152  1.00  0.00     0.346 HD
ATOM     16  H   UNL A   1      33.592  21.662  24.275  1.00  0.00     0.346 HD
BRANCH  14  17
ATOM     17  C   UNL A   1      34.090  23.386  25.134  1.00  0.00     0.178 C 
ATOM     18  C   UNL A   1      34.891  24.009  23.984  1.00  0.00     0.075 C 
BRANCH  17  19
ATOM     19  C   UNL A   1      33.446  24.447  26.049  1.00  0.00     0.061 C 
ATOM     20  C   UNL A   1      32.167  24.020  26.754  1.00  0.00     0.010 C 
ENDBRANCH  17  19
ENDBRANCH  14  17
ENDBRANCH  13  14
ENDBRANCH  12  13
ENDBRANCH   7  12
ENDBRANCH   3   6
ENDBRANCH   1   2
BRANCH   1  21
ATOM     21  C   UNL A   1      31.628  30.534  26.862  1.00  0.00     0.023 C 
BRANCH  21  22
ATOM     22  C   UNL A   1      31.530  32.049  26.686  1.00  0.00     0.023 C 
BRANCH  22  23
ATOM     23  C   UNL A   1      32.749  32.833  27.149  1.00  0.00     0.116 C 
BRANCH  23  24
ATOM     24  N   UNL A   1      32.434  34.179  27.602  1.00  0.00    -0.352 N 
ATOM     25  C   UNL A   1      33.022  34.910  28.610  1.00  0.00     0.251 C 
ATOM     26  H   UNL A   1      31.700  34.629  27.122  1.00  0.00     0.163 HD
ATOM     27  O   UNL A   1      32.575  35.996  28.933  1.00  0.00    -0.269 OA
BRANCH  25  28
ATOM     28  C   UNL A   1      34.182  34.338  29.328  1.00  0.00     0.039 A 
ATOM     29  C   UNL A   1      33.946  33.519  30.434  1.00  0.00     0.014 A 
ATOM     30  C   UNL A   1      35.486  34.578  28.891  1.00  0.00     0.014 A 
ATOM     31  C   UNL A   1      35.018  32.880  31.060  1.00  0.00     0.010 A 
ATOM     32  C   UNL A   1      36.545  33.888  29.470  1.00  0.00     0.010 A 
ATOM     33  C   UNL A   1      36.321  33.030  30.558  1.00  0.00    -0.014 A 
BRANCH  33  34
ATOM     34  C   UNL A   1      37.464  32.294  31.152  1.00  0.00     0.031 A 
ATOM     35  C   UNL A   1      37.970  32.663  32.517  1.00  0.00     0.074 A 
ATOM     36  C   UNL A   1      38.092  31.345  30.430  1.00  0.00     0.049 A 
ATOM     37  N   UNL A   1      39.000  32.194  33.173  1.00  0.00    -0.248 NA
ATOM     38  C   UNL A   1      37.237  33.724  33.226  1.00  0.00     0.031 C 
ATOM     39  C   UNL A   1      37.727  30.935  29.073  1.00  0.00     0.029 A 
ATOM     40  N   UNL A   1      39.178  30.563  30.732  1.00  0.00    -0.354 N 
ATOM     41  C   UNL A   1      39.049  32.912  34.360  1.00  0.00     0.074 A 
ATOM     42  C   UNL A   1      37.976  33.881  34.314  1.00  0.00     0.031 C 
ATOM     43  C   UNL A   1      38.560  29.963  28.669  1.00  0.00     0.029 A 
ATOM     44  C   UNL A   1      39.537  29.705  29.722  1.00  0.00     0.049 A 
ATOM     45  H   UNL A   1      39.654  30.612  31.593  1.00  0.00     0.167 HD
ATOM     46  C   UNL A   1      39.897  32.758  35.404  1.00  0.00     0.037 A 
ATOM     47  C   UNL A   1      40.546  28.816  29.652  1.00  0.00     0.037 A 
ATOM     48  C   UNL A   1      40.942  31.770  35.460  1.00  0.00     0.049 A 
ATOM     49  C   UNL A   1      41.470  28.661  30.830  1.00  0.00     0.074 A 
ATOM     50  C   UNL A   1      41.809  31.488  36.501  1.00  0.00     0.029 A 
ATOM     51  N   UNL A   1      41.259  30.900  34.427  1.00  0.00    -0.354 N 
ATOM     52  N   UNL A   1      41.461  29.293  31.978  1.00  0.00    -0.248 NA
ATOM     53  C   UNL A   1      42.540  27.663  30.704  1.00  0.00     0.031 C 
ATOM     54  C   UNL A   1      42.679  30.475  36.083  1.00  0.00     0.029 A 
ATOM     55  C   UNL A   1      42.323  30.094  34.799  1.00  0.00     0.049 A 
ATOM     56  H   UNL A   1      40.798  30.862  33.558  1.00  0.00     0.167 HD
ATOM     57  C   UNL A   1      42.501  28.751  32.721  1.00  0.00     0.074 A 
ATOM     58  C   UNL A   1      43.112  27.729  31.898  1.00  0.00     0.031 C 
ATOM     59  C   UNL A   1      42.912  29.073  33.971  1.00  0.00     0.037 A 
BRANCH  46  60
ATOM     60  C   UNL A   1      39.727  33.679  36.578  1.00  0.00     0.064 A 
ATOM     61  C   UNL A   1      40.398  34.908  36.650  1.00  0.00     0.173 A 
ATOM     62  C   UNL A   1      38.857  33.343  37.625  1.00  0.00     0.173 A 
ATOM     63  F   UNL A   1      41.250  35.271  35.681  1.00  0.00    -0.203 F 
ATOM     64  C   UNL A   1      40.224  35.756  37.741  1.00  0.00     0.198 A 
ATOM     65  C   UNL A   1      38.663  34.206  38.701  1.00  0.00     0.198 A 
ATOM     66  F   UNL A   1      38.187  32.180  37.603  1.00  0.00    -0.203 F 
ATOM     67  F   UNL A   1      40.911  36.905  37.811  1.00  0.00    -0.200 F 
ATOM     68  C   UNL A   1      39.352  35.407  38.761  1.00  0.00     0.200 A 
ATOM     69  F   UNL A   1      37.811  33.873  39.681  1.00  0.00    -0.200 F 
ATOM     70  F   UNL A   1      39.180  36.228  39.808  1.00  0.00    -0.200 F 
ENDBRANCH  46  60
BRANCH  47  71
ATOM     71  C   UNL A   1      40.719  27.981  28.436  1.00  0.00     0.064 A 
ATOM     72  C   UNL A   1      40.113  26.719  28.342  1.00  0.00     0.173 A 
ATOM     73  C   UNL A   1      41.492  28.416  27.351  1.00  0.00     0.173 A 
ATOM     74  F   UNL A   1      39.381  26.251  29.363  1.00  0.00    -0.203 F 
ATOM     75  C   UNL A   1      40.293  25.917  27.218  1.00  0.00     0.198 A 
ATOM     76  C   UNL A   1      41.650  27.624  26.216  1.00  0.00     0.198 A 
ATOM     77  F   UNL A   1      42.088  29.617  27.391  1.00  0.00    -0.203 F 
ATOM     78  F   UNL A   1      39.741  24.696  27.173  1.00  0.00    -0.200 F 
ATOM     79  C   UNL A   1      41.057  26.371  26.154  1.00  0.00     0.200 A 
ATOM     80  F   UNL A   1      42.377  28.071  25.184  1.00  0.00    -0.200 F 
ATOM     81  F   UNL A   1      41.228  25.600  25.071  1.00  0.00    -0.200 F 
ENDBRANCH  47  71
BRANCH  59  82
ATOM     82  C   UNL A   1      44.054  28.286  34.542  1.00  0.00     0.064 A 
ATOM     83  C   UNL A   1      45.380  28.732  34.436  1.00  0.00     0.173 A 
ATOM     84  C   UNL A   1      43.815  27.093  35.239  1.00  0.00     0.173 A 
ATOM     85  F   UNL A   1      45.661  29.860  33.766  1.00  0.00    -0.203 F 
ATOM     86  C   UNL A   1      46.427  27.999  34.990  1.00  0.00     0.198 A 
ATOM     87  C   UNL A   1      44.860  26.377  35.815  1.00  0.00     0.198 A 
ATOM     88  F   UNL A   1      42.564  26.627  35.373  1.00  0.00    -0.203 F 
ATOM     89  F   UNL A   1      47.690  28.421  34.838  1.00  0.00    -0.200 F 
ATOM     90  C   UNL A   1      46.165  26.827  35.683  1.00  0.00     0.200 A 
ATOM     91  F   UNL A   1      44.605  25.251  36.496  1.00  0.00    -0.200 F 
ATOM     92  F   UNL A   1      47.174  26.126  36.221  1.00  0.00    -0.200 F 
ENDBRANCH  59  82
ENDBRANCH  33  34
ENDBRANCH  25  28
ENDBRANCH  23  24
ENDBRANCH  22  23
ENDBRANCH  21  22
ENDBRANCH   1  21
TORSDOF 16
ENDMDL
