MODEL 1
REMARK VINA RESULT:     -12.0      0.000      0.000
REMARK SMILES COc1cc(OC)cc(-c2ccc(C(=O)NCCCCNC(=O)c3ccc(-c4c5nc(c(-c6c(F)c(F)c(F)c(F)c6F)c6ccc([nH]6)c(-c6c(F)c(F)c(F)c(F)c6F)c6nc(c(-c7c(F)c(F)c(F)c(F)c7F)c7ccc4[nH]7)C=C6)C=C5)cc3)o2)c1
REMARK SMILES IDX 18 1 17 2 16 3 14 4 15 5 13 7 10 8 11 9 87 10 12 11 9 12
REMARK SMILES IDX 3 13 4 14 88 15 5 16 8 17 2 18 1 19 6 20 7 21 19 22 20 23
REMARK SMILES IDX 21 24 22 25 23 27 24 28 25 29 86 30 26 31 85 32 27 33 28 34
REMARK SMILES IDX 29 35 79 36 30 37 84 38 78 39 80 40 31 41 83 42 77 43 76 44
REMARK SMILES IDX 32 46 64 47 44 48 63 49 45 50 48 51 62 52 81 53 46 54 47 55
REMARK SMILES IDX 61 57 82 58 49 59 33 60 34 61 42 62 35 63 36 64 40 65 43 66
REMARK SMILES IDX 37 67 38 68 41 69 39 70 65 71 66 72 74 73 67 74 68 75 72 76
REMARK SMILES IDX 75 77 69 78 70 79 73 80 71 81 50 82 51 83 59 84 52 85 53 86
REMARK SMILES IDX 57 87 60 88 54 89 55 90 58 91 56 92
REMARK H PARENT 16 6 21 26 80 45 48 56
REMARK Flexibility Score: inf
ROOT
ATOM      1  C   UNL A   1      31.667  30.776  26.168  1.00  0.00     0.023 C 
ENDROOT
BRANCH   1   2
ATOM      2  C   UNL A   1      31.940  29.770  27.288  1.00  0.00     0.116 C 
BRANCH   2   3
ATOM      3  N   UNL A   1      33.355  29.683  27.574  1.00  0.00    -0.349 N 
ATOM      4  C   UNL A   1      34.351  28.929  26.989  1.00  0.00     0.287 C 
ATOM      5  O   UNL A   1      35.487  29.119  27.425  1.00  0.00    -0.266 OA
ATOM      6  H   UNL A   1      33.661  30.261  28.310  1.00  0.00     0.163 HD
BRANCH   4   7
ATOM      7  C   UNL A   1      34.055  27.992  25.917  1.00  0.00     0.192 A 
ATOM      8  C   UNL A   1      33.692  25.960  25.130  1.00  0.00     0.135 A 
ATOM      9  C   UNL A   1      33.662  26.798  24.043  1.00  0.00     0.052 A 
ATOM     10  O   UNL A   1      33.922  26.664  26.268  1.00  0.00    -0.451 OA
ATOM     11  C   UNL A   1      33.834  28.103  24.554  1.00  0.00     0.057 A 
BRANCH   8  12
ATOM     12  C   UNL A   1      33.458  24.537  25.252  1.00  0.00     0.025 A 
ATOM     13  C   UNL A   1      31.939  22.722  25.758  1.00  0.00     0.123 A 
ATOM     14  C   UNL A   1      33.038  21.886  25.969  1.00  0.00     0.092 A 
ATOM     15  C   UNL A   1      32.152  24.053  25.406  1.00  0.00     0.058 A 
ATOM     16  C   UNL A   1      34.344  22.354  25.801  1.00  0.00     0.123 A 
ATOM     17  C   UNL A   1      34.550  23.675  25.411  1.00  0.00     0.058 A 
BRANCH  13  18
ATOM     18  O   UNL A   1      30.719  22.150  25.999  1.00  0.00    -0.497 OA
ATOM     19  C   UNL A   1      29.874  22.823  26.926  1.00  0.00     0.278 C 
ENDBRANCH  13  18
BRANCH  16  20
ATOM     20  O   UNL A   1      35.328  21.444  26.076  1.00  0.00    -0.497 OA
ATOM     21  C   UNL A   1      35.621  20.501  25.050  1.00  0.00     0.278 C 
ENDBRANCH  16  20
ENDBRANCH   8  12
ENDBRANCH   4   7
ENDBRANCH   2   3
ENDBRANCH   1   2
BRANCH   1  22
ATOM     22  C   UNL A   1      31.415  32.202  26.668  1.00  0.00     0.023 C 
BRANCH  22  23
ATOM     23  C   UNL A   1      32.609  32.869  27.344  1.00  0.00     0.116 C 
BRANCH  23  24
ATOM     24  N   UNL A   1      32.359  34.250  27.725  1.00  0.00    -0.352 N 
ATOM     25  C   UNL A   1      33.015  35.019  28.656  1.00  0.00     0.251 C 
ATOM     26  H   UNL A   1      31.618  34.695  27.254  1.00  0.00     0.163 HD
ATOM     27  O   UNL A   1      32.598  36.136  28.939  1.00  0.00    -0.269 OA
BRANCH  25  28
ATOM     28  C   UNL A   1      34.203  34.473  29.344  1.00  0.00     0.039 A 
ATOM     29  C   UNL A   1      34.018  33.765  30.532  1.00  0.00     0.014 A 
ATOM     30  C   UNL A   1      35.484  34.638  28.810  1.00  0.00     0.014 A 
ATOM     31  C   UNL A   1      35.114  33.163  31.151  1.00  0.00     0.010 A 
ATOM     32  C   UNL A   1      36.564  33.973  29.387  1.00  0.00     0.010 A 
ATOM     33  C   UNL A   1      36.390  33.228  30.563  1.00  0.00    -0.014 A 
BRANCH  33  34
ATOM     34  C   UNL A   1      37.539  32.508  31.166  1.00  0.00     0.031 A 
ATOM     35  C   UNL A   1      38.043  32.884  32.531  1.00  0.00     0.074 A 
ATOM     36  C   UNL A   1      38.149  31.532  30.464  1.00  0.00     0.049 A 
ATOM     37  N   UNL A   1      39.042  32.381  33.211  1.00  0.00    -0.248 NA
ATOM     38  C   UNL A   1      37.350  33.987  33.216  1.00  0.00     0.031 C 
ATOM     39  C   UNL A   1      37.789  31.115  29.107  1.00  0.00     0.029 A 
ATOM     40  N   UNL A   1      39.202  30.716  30.791  1.00  0.00    -0.354 N 
ATOM     41  C   UNL A   1      39.089  33.095  34.401  1.00  0.00     0.074 A 
ATOM     42  C   UNL A   1      38.066  34.115  34.322  1.00  0.00     0.031 C 
ATOM     43  C   UNL A   1      38.587  30.104  28.730  1.00  0.00     0.029 A 
ATOM     44  C   UNL A   1      39.540  29.825  29.800  1.00  0.00     0.049 A 
ATOM     45  H   UNL A   1      39.672  30.763  31.655  1.00  0.00     0.167 HD
ATOM     46  C   UNL A   1      39.888  32.895  35.476  1.00  0.00     0.037 A 
ATOM     47  C   UNL A   1      40.511  28.894  29.758  1.00  0.00     0.037 A 
ATOM     48  C   UNL A   1      40.901  31.876  35.555  1.00  0.00     0.049 A 
ATOM     49  C   UNL A   1      41.398  28.711  30.961  1.00  0.00     0.074 A 
ATOM     50  C   UNL A   1      41.748  31.580  36.609  1.00  0.00     0.029 A 
ATOM     51  N   UNL A   1      41.203  30.983  34.538  1.00  0.00    -0.354 N 
ATOM     52  N   UNL A   1      41.385  29.349  32.107  1.00  0.00    -0.248 NA
ATOM     53  C   UNL A   1      42.429  27.668  30.870  1.00  0.00     0.031 C 
ATOM     54  C   UNL A   1      42.590  30.536  36.214  1.00  0.00     0.029 A 
ATOM     55  C   UNL A   1      42.231  30.144  34.934  1.00  0.00     0.049 A 
ATOM     56  H   UNL A   1      40.753  30.950  33.663  1.00  0.00     0.167 HD
ATOM     57  C   UNL A   1      42.380  28.766  32.880  1.00  0.00     0.074 A 
ATOM     58  C   UNL A   1      42.957  27.704  32.084  1.00  0.00     0.031 C 
ATOM     59  C   UNL A   1      42.785  29.083  34.134  1.00  0.00     0.037 A 
BRANCH  46  60
ATOM     60  C   UNL A   1      39.684  33.782  36.670  1.00  0.00     0.064 A 
ATOM     61  C   UNL A   1      40.260  35.062  36.733  1.00  0.00     0.173 A 
ATOM     62  C   UNL A   1      38.856  33.384  37.730  1.00  0.00     0.173 A 
ATOM     63  F   UNL A   1      41.069  35.486  35.751  1.00  0.00    -0.203 F 
ATOM     64  C   UNL A   1      40.028  35.901  37.819  1.00  0.00     0.198 A 
ATOM     65  C   UNL A   1      38.602  34.238  38.801  1.00  0.00     0.198 A 
ATOM     66  F   UNL A   1      38.277  32.174  37.718  1.00  0.00    -0.203 F 
ATOM     67  F   UNL A   1      40.619  37.101  37.874  1.00  0.00    -0.200 F 
ATOM     68  C   UNL A   1      39.191  35.492  38.847  1.00  0.00     0.200 A 
ATOM     69  F   UNL A   1      37.782  33.848  39.786  1.00  0.00    -0.200 F 
ATOM     70  F   UNL A   1      38.955  36.308  39.883  1.00  0.00    -0.200 F 
ENDBRANCH  46  60
BRANCH  47  71
ATOM     71  C   UNL A   1      40.698  28.053  28.545  1.00  0.00     0.064 A 
ATOM     72  C   UNL A   1      41.480  28.496  27.468  1.00  0.00     0.173 A 
ATOM     73  C   UNL A   1      40.059  26.811  28.415  1.00  0.00     0.173 A 
ATOM     74  F   UNL A   1      42.097  29.686  27.534  1.00  0.00    -0.203 F 
ATOM     75  C   UNL A   1      41.580  27.752  26.294  1.00  0.00     0.198 A 
ATOM     76  C   UNL A   1      40.189  26.050  27.255  1.00  0.00     0.198 A 
ATOM     77  F   UNL A   1      39.306  26.334  29.417  1.00  0.00    -0.203 F 
ATOM     78  F   UNL A   1      42.273  28.236  25.254  1.00  0.00    -0.200 F 
ATOM     79  C   UNL A   1      40.937  26.528  26.190  1.00  0.00     0.200 A 
ATOM     80  F   UNL A   1      39.581  24.860  27.165  1.00  0.00    -0.200 F 
ATOM     81  F   UNL A   1      41.026  25.817  25.058  1.00  0.00    -0.200 F 
ENDBRANCH  47  71
BRANCH  59  82
ATOM     82  C   UNL A   1      43.877  28.244  34.734  1.00  0.00     0.064 A 
ATOM     83  C   UNL A   1      43.598  27.065  35.442  1.00  0.00     0.173 A 
ATOM     84  C   UNL A   1      45.222  28.615  34.583  1.00  0.00     0.173 A 
ATOM     85  F   UNL A   1      42.328  26.673  35.627  1.00  0.00    -0.203 F 
ATOM     86  C   UNL A   1      44.622  26.312  36.010  1.00  0.00     0.198 A 
ATOM     87  C   UNL A   1      46.245  27.841  35.122  1.00  0.00     0.198 A 
ATOM     88  F   UNL A   1      45.545  29.728  33.907  1.00  0.00    -0.203 F 
ATOM     89  F   UNL A   1      44.327  25.225  36.737  1.00  0.00    -0.200 F 
ATOM     90  C   UNL A   1      45.943  26.696  35.845  1.00  0.00     0.200 A 
ATOM     91  F   UNL A   1      47.523  28.204  34.946  1.00  0.00    -0.200 F 
ATOM     92  F   UNL A   1      46.927  25.969  36.390  1.00  0.00    -0.200 F 
ENDBRANCH  59  82
ENDBRANCH  33  34
ENDBRANCH  25  28
ENDBRANCH  23  24
ENDBRANCH  22  23
ENDBRANCH   1  22
TORSDOF 14
ENDMDL
MODEL 2
REMARK VINA RESULT:     -11.9      0.780      2.104
REMARK SMILES COc1cc(OC)cc(-c2ccc(C(=O)NCCCCNC(=O)c3ccc(-c4c5nc(c(-c6c(F)c(F)c(F)c(F)c6F)c6ccc([nH]6)c(-c6c(F)c(F)c(F)c(F)c6F)c6nc(c(-c7c(F)c(F)c(F)c(F)c7F)c7ccc4[nH]7)C=C6)C=C5)cc3)o2)c1
REMARK SMILES IDX 18 1 17 2 16 3 14 4 15 5 13 7 10 8 11 9 87 10 12 11 9 12
REMARK SMILES IDX 3 13 4 14 88 15 5 16 8 17 2 18 1 19 6 20 7 21 19 22 20 23
REMARK SMILES IDX 21 24 22 25 23 27 24 28 25 29 86 30 26 31 85 32 27 33 28 34
REMARK SMILES IDX 29 35 79 36 30 37 84 38 78 39 80 40 31 41 83 42 77 43 76 44
REMARK SMILES IDX 32 46 64 47 44 48 63 49 45 50 48 51 62 52 81 53 46 54 47 55
REMARK SMILES IDX 61 57 82 58 49 59 33 60 34 61 42 62 35 63 36 64 40 65 43 66
REMARK SMILES IDX 37 67 38 68 41 69 39 70 65 71 66 72 74 73 67 74 68 75 72 76
REMARK SMILES IDX 75 77 69 78 70 79 73 80 71 81 50 82 51 83 59 84 52 85 53 86
REMARK SMILES IDX 57 87 60 88 54 89 55 90 58 91 56 92
REMARK H PARENT 16 6 21 26 80 45 48 56
REMARK Flexibility Score: inf
ROOT
ATOM      1  C   UNL A   1      31.656  30.857  26.127  1.00  0.00     0.023 C 
ENDROOT
BRANCH   1   2
ATOM      2  C   UNL A   1      31.812  29.764  27.184  1.00  0.00     0.116 C 
BRANCH   2   3
ATOM      3  N   UNL A   1      33.197  29.610  27.572  1.00  0.00    -0.349 N 
ATOM      4  C   UNL A   1      34.234  28.932  26.966  1.00  0.00     0.287 C 
ATOM      5  O   UNL A   1      35.330  29.035  27.519  1.00  0.00    -0.266 OA
ATOM      6  H   UNL A   1      33.442  30.066  28.409  1.00  0.00     0.163 HD
BRANCH   4   7
ATOM      7  C   UNL A   1      34.026  28.169  25.746  1.00  0.00     0.192 A 
ATOM      8  C   UNL A   1      33.887  26.278  24.613  1.00  0.00     0.135 A 
ATOM      9  C   UNL A   1      33.731  27.284  23.691  1.00  0.00     0.052 A 
ATOM     10  O   UNL A   1      34.060  26.794  25.856  1.00  0.00    -0.451 OA
ATOM     11  C   UNL A   1      33.759  28.490  24.425  1.00  0.00     0.057 A 
BRANCH   8  12
ATOM     12  C   UNL A   1      33.827  24.837  24.481  1.00  0.00     0.025 A 
ATOM     13  C   UNL A   1      34.989  22.719  24.336  1.00  0.00     0.123 A 
ATOM     14  C   UNL A   1      33.847  22.154  23.763  1.00  0.00     0.092 A 
ATOM     15  C   UNL A   1      34.979  24.068  24.688  1.00  0.00     0.058 A 
ATOM     16  C   UNL A   1      32.687  22.909  23.568  1.00  0.00     0.123 A 
ATOM     17  C   UNL A   1      32.671  24.246  23.958  1.00  0.00     0.058 A 
BRANCH  13  18
ATOM     18  O   UNL A   1      36.068  21.882  24.430  1.00  0.00    -0.497 OA
ATOM     19  C   UNL A   1      35.843  20.624  25.055  1.00  0.00     0.278 C 
ENDBRANCH  13  18
BRANCH  16  20
ATOM     20  O   UNL A   1      31.655  22.245  22.963  1.00  0.00    -0.497 OA
ATOM     21  C   UNL A   1      31.998  21.061  22.249  1.00  0.00     0.278 C 
ENDBRANCH  16  20
ENDBRANCH   8  12
ENDBRANCH   4   7
ENDBRANCH   2   3
ENDBRANCH   1   2
BRANCH   1  22
ATOM     22  C   UNL A   1      31.382  32.246  26.712  1.00  0.00     0.023 C 
BRANCH  22  23
ATOM     23  C   UNL A   1      32.608  32.966  27.265  1.00  0.00     0.116 C 
BRANCH  23  24
ATOM     24  N   UNL A   1      32.327  34.319  27.720  1.00  0.00    -0.352 N 
ATOM     25  C   UNL A   1      32.968  35.053  28.688  1.00  0.00     0.251 C 
ATOM     26  H   UNL A   1      31.573  34.770  27.275  1.00  0.00     0.163 HD
ATOM     27  O   UNL A   1      32.526  36.144  29.031  1.00  0.00    -0.269 OA
BRANCH  25  28
ATOM     28  C   UNL A   1      34.171  34.500  29.343  1.00  0.00     0.039 A 
ATOM     29  C   UNL A   1      34.022  33.836  30.561  1.00  0.00     0.014 A 
ATOM     30  C   UNL A   1      35.432  34.616  28.750  1.00  0.00     0.014 A 
ATOM     31  C   UNL A   1      35.129  33.227  31.152  1.00  0.00     0.010 A 
ATOM     32  C   UNL A   1      36.520  33.944  29.302  1.00  0.00     0.010 A 
ATOM     33  C   UNL A   1      36.379  33.242  30.508  1.00  0.00    -0.014 A 
BRANCH  33  34
ATOM     34  C   UNL A   1      37.537  32.513  31.086  1.00  0.00     0.031 A 
ATOM     35  C   UNL A   1      38.070  32.882  32.442  1.00  0.00     0.074 A 
ATOM     36  C   UNL A   1      38.127  31.536  30.368  1.00  0.00     0.049 A 
ATOM     37  N   UNL A   1      39.079  32.371  33.100  1.00  0.00    -0.248 NA
ATOM     38  C   UNL A   1      37.396  33.986  33.144  1.00  0.00     0.031 C 
ATOM     39  C   UNL A   1      37.737  31.126  29.017  1.00  0.00     0.029 A 
ATOM     40  N   UNL A   1      39.181  30.713  30.671  1.00  0.00    -0.354 N 
ATOM     41  C   UNL A   1      39.154  33.080  34.291  1.00  0.00     0.074 A 
ATOM     42  C   UNL A   1      38.136  34.106  34.236  1.00  0.00     0.031 C 
ATOM     43  C   UNL A   1      38.522  30.112  28.621  1.00  0.00     0.029 A 
ATOM     44  C   UNL A   1      39.494  29.824  29.671  1.00  0.00     0.049 A 
ATOM     45  H   UNL A   1      39.669  30.754  31.526  1.00  0.00     0.167 HD
ATOM     46  C   UNL A   1      39.973  32.872  35.349  1.00  0.00     0.037 A 
ATOM     47  C   UNL A   1      40.459  28.887  29.606  1.00  0.00     0.037 A 
ATOM     48  C   UNL A   1      40.982  31.847  35.404  1.00  0.00     0.049 A 
ATOM     49  C   UNL A   1      41.369  28.695  30.791  1.00  0.00     0.074 A 
ATOM     50  C   UNL A   1      41.848  31.543  36.440  1.00  0.00     0.029 A 
ATOM     51  N   UNL A   1      41.258  30.956  34.378  1.00  0.00    -0.354 N 
ATOM     52  N   UNL A   1      41.382  29.330  31.939  1.00  0.00    -0.248 NA
ATOM     53  C   UNL A   1      42.392  27.646  30.675  1.00  0.00     0.031 C 
ATOM     54  C   UNL A   1      42.677  30.495  36.025  1.00  0.00     0.029 A 
ATOM     55  C   UNL A   1      42.290  30.110  34.751  1.00  0.00     0.049 A 
ATOM     56  H   UNL A   1      40.791  30.928  33.512  1.00  0.00     0.167 HD
ATOM     57  C   UNL A   1      42.390  28.738  32.690  1.00  0.00     0.074 A 
ATOM     58  C   UNL A   1      42.945  27.676  31.879  1.00  0.00     0.031 C 
ATOM     59  C   UNL A   1      42.822  29.049  33.936  1.00  0.00     0.037 A 
BRANCH  46  60
ATOM     60  C   UNL A   1      39.798  33.756  36.550  1.00  0.00     0.064 A 
ATOM     61  C   UNL A   1      40.426  35.011  36.627  1.00  0.00     0.173 A 
ATOM     62  C   UNL A   1      38.949  33.382  37.601  1.00  0.00     0.173 A 
ATOM     63  F   UNL A   1      41.257  35.411  35.654  1.00  0.00    -0.203 F 
ATOM     64  C   UNL A   1      40.221  35.849  37.720  1.00  0.00     0.198 A 
ATOM     65  C   UNL A   1      38.723  34.236  38.679  1.00  0.00     0.198 A 
ATOM     66  F   UNL A   1      38.321  32.197  37.575  1.00  0.00    -0.203 F 
ATOM     67  F   UNL A   1      40.861  37.024  37.789  1.00  0.00    -0.200 F 
ATOM     68  C   UNL A   1      39.363  35.465  38.740  1.00  0.00     0.200 A 
ATOM     69  F   UNL A   1      37.883  33.872  39.656  1.00  0.00    -0.200 F 
ATOM     70  F   UNL A   1      39.154  36.281  39.782  1.00  0.00    -0.200 F 
ENDBRANCH  46  60
BRANCH  47  71
ATOM     71  C   UNL A   1      40.617  28.049  28.387  1.00  0.00     0.064 A 
ATOM     72  C   UNL A   1      40.030  26.779  28.297  1.00  0.00     0.173 A 
ATOM     73  C   UNL A   1      41.401  28.479  27.306  1.00  0.00     0.173 A 
ATOM     74  F   UNL A   1      39.285  26.313  29.311  1.00  0.00    -0.203 F 
ATOM     75  C   UNL A   1      40.255  25.956  27.196  1.00  0.00     0.198 A 
ATOM     76  C   UNL A   1      41.596  27.670  26.188  1.00  0.00     0.198 A 
ATOM     77  F   UNL A   1      41.980  29.689  27.334  1.00  0.00    -0.203 F 
ATOM     78  F   UNL A   1      39.740  24.718  27.171  1.00  0.00    -0.200 F 
ATOM     79  C   UNL A   1      41.035  26.403  26.141  1.00  0.00     0.200 A 
ATOM     80  F   UNL A   1      42.337  28.114  25.164  1.00  0.00    -0.200 F 
ATOM     81  F   UNL A   1      41.259  25.608  25.086  1.00  0.00    -0.200 F 
ENDBRANCH  47  71
BRANCH  59  82
ATOM     82  C   UNL A   1      43.921  28.201  34.512  1.00  0.00     0.064 A 
ATOM     83  C   UNL A   1      45.272  28.551  34.373  1.00  0.00     0.173 A 
ATOM     84  C   UNL A   1      43.616  27.033  35.227  1.00  0.00     0.173 A 
ATOM     85  F   UNL A   1      45.619  29.652  33.687  1.00  0.00    -0.203 F 
ATOM     86  C   UNL A   1      46.278  27.742  34.895  1.00  0.00     0.198 A 
ATOM     87  C   UNL A   1      44.623  26.246  35.778  1.00  0.00     0.198 A 
ATOM     88  F   UNL A   1      42.339  26.658  35.397  1.00  0.00    -0.203 F 
ATOM     89  F   UNL A   1      47.564  28.063  34.694  1.00  0.00    -0.200 F 
ATOM     90  C   UNL A   1      45.953  26.595  35.600  1.00  0.00     0.200 A 
ATOM     91  F   UNL A   1      44.306  25.146  36.474  1.00  0.00    -0.200 F 
ATOM     92  F   UNL A   1      46.922  25.819  36.104  1.00  0.00    -0.200 F 
ENDBRANCH  59  82
ENDBRANCH  33  34
ENDBRANCH  25  28
ENDBRANCH  23  24
ENDBRANCH  22  23
ENDBRANCH   1  22
TORSDOF 14
ENDMDL
MODEL 3
REMARK VINA RESULT:     -11.9      3.139      4.837
REMARK SMILES COc1cc(OC)cc(-c2ccc(C(=O)NCCCCNC(=O)c3ccc(-c4c5nc(c(-c6c(F)c(F)c(F)c(F)c6F)c6ccc([nH]6)c(-c6c(F)c(F)c(F)c(F)c6F)c6nc(c(-c7c(F)c(F)c(F)c(F)c7F)c7ccc4[nH]7)C=C6)C=C5)cc3)o2)c1
REMARK SMILES IDX 18 1 17 2 16 3 14 4 15 5 13 7 10 8 11 9 87 10 12 11 9 12
REMARK SMILES IDX 3 13 4 14 88 15 5 16 8 17 2 18 1 19 6 20 7 21 19 22 20 23
REMARK SMILES IDX 21 24 22 25 23 27 24 28 25 29 86 30 26 31 85 32 27 33 28 34
REMARK SMILES IDX 29 35 79 36 30 37 84 38 78 39 80 40 31 41 83 42 77 43 76 44
REMARK SMILES IDX 32 46 64 47 44 48 63 49 45 50 48 51 62 52 81 53 46 54 47 55
REMARK SMILES IDX 61 57 82 58 49 59 33 60 34 61 42 62 35 63 36 64 40 65 43 66
REMARK SMILES IDX 37 67 38 68 41 69 39 70 65 71 66 72 74 73 67 74 68 75 72 76
REMARK SMILES IDX 75 77 69 78 70 79 73 80 71 81 50 82 51 83 59 84 52 85 53 86
REMARK SMILES IDX 57 87 60 88 54 89 55 90 58 91 56 92
REMARK H PARENT 16 6 21 26 80 45 48 56
REMARK Flexibility Score: inf
ROOT
ATOM      1  C   UNL A   1      33.678  27.940  23.940  1.00  0.00     0.023 C 
ENDROOT
BRANCH   1   2
ATOM      2  C   UNL A   1      32.496  27.955  22.970  1.00  0.00     0.116 C 
BRANCH   2   3
ATOM      3  N   UNL A   1      32.827  27.276  21.737  1.00  0.00    -0.349 N 
ATOM      4  C   UNL A   1      32.702  25.952  21.373  1.00  0.00     0.287 C 
ATOM      5  O   UNL A   1      33.025  25.687  20.214  1.00  0.00    -0.266 OA
ATOM      6  H   UNL A   1      33.205  27.857  21.038  1.00  0.00     0.163 HD
BRANCH   4   7
ATOM      7  C   UNL A   1      32.203  24.957  22.308  1.00  0.00     0.192 A 
ATOM      8  C   UNL A   1      32.324  23.022  23.366  1.00  0.00     0.135 A 
ATOM      9  C   UNL A   1      31.137  23.592  23.755  1.00  0.00     0.052 A 
ATOM     10  O   UNL A   1      32.981  23.833  22.499  1.00  0.00    -0.451 OA
ATOM     11  C   UNL A   1      31.089  24.855  23.126  1.00  0.00     0.057 A 
BRANCH   8  12
ATOM     12  C   UNL A   1      32.978  21.795  23.771  1.00  0.00     0.025 A 
ATOM     13  C   UNL A   1      32.797  19.497  24.511  1.00  0.00     0.123 A 
ATOM     14  C   UNL A   1      34.103  19.573  25.001  1.00  0.00     0.092 A 
ATOM     15  C   UNL A   1      32.232  20.616  23.901  1.00  0.00     0.058 A 
ATOM     16  C   UNL A   1      34.861  20.739  24.861  1.00  0.00     0.123 A 
ATOM     17  C   UNL A   1      34.304  21.841  24.215  1.00  0.00     0.058 A 
BRANCH  13  18
ATOM     18  O   UNL A   1      32.153  18.315  24.753  1.00  0.00    -0.497 OA
ATOM     19  C   UNL A   1      32.860  17.353  25.528  1.00  0.00     0.278 C 
ENDBRANCH  13  18
BRANCH  16  20
ATOM     20  O   UNL A   1      36.110  20.692  25.418  1.00  0.00    -0.497 OA
ATOM     21  C   UNL A   1      36.786  21.938  25.559  1.00  0.00     0.278 C 
ENDBRANCH  16  20
ENDBRANCH   8  12
ENDBRANCH   4   7
ENDBRANCH   2   3
ENDBRANCH   1   2
BRANCH   1  22
ATOM     22  C   UNL A   1      33.370  27.261  25.278  1.00  0.00     0.023 C 
BRANCH  22  23
ATOM     23  C   UNL A   1      34.067  27.877  26.489  1.00  0.00     0.116 C 
BRANCH  23  24
ATOM     24  N   UNL A   1      33.623  29.230  26.784  1.00  0.00    -0.352 N 
ATOM     25  C   UNL A   1      34.263  30.208  27.505  1.00  0.00     0.251 C 
ATOM     26  H   UNL A   1      32.743  29.478  26.418  1.00  0.00     0.163 HD
ATOM     27  O   UNL A   1      33.692  31.263  27.759  1.00  0.00    -0.269 OA
BRANCH  25  28
ATOM     28  C   UNL A   1      35.629  29.964  28.010  1.00  0.00     0.039 A 
ATOM     29  C   UNL A   1      35.789  29.567  29.339  1.00  0.00     0.014 A 
ATOM     30  C   UNL A   1      36.741  30.101  27.175  1.00  0.00     0.014 A 
ATOM     31  C   UNL A   1      37.060  29.243  29.812  1.00  0.00     0.010 A 
ATOM     32  C   UNL A   1      37.998  29.705  27.626  1.00  0.00     0.010 A 
ATOM     33  C   UNL A   1      38.170  29.270  28.949  1.00  0.00    -0.014 A 
BRANCH  33  34
ATOM     34  C   UNL A   1      39.508  28.833  29.422  1.00  0.00     0.031 A 
ATOM     35  C   UNL A   1      40.271  29.659  30.419  1.00  0.00     0.074 A 
ATOM     36  C   UNL A   1      40.047  27.703  28.924  1.00  0.00     0.049 A 
ATOM     37  N   UNL A   1      41.456  29.446  30.934  1.00  0.00    -0.248 NA
ATOM     38  C   UNL A   1      39.632  30.901  30.884  1.00  0.00     0.031 C 
ATOM     39  C   UNL A   1      39.429  26.846  27.909  1.00  0.00     0.029 A 
ATOM     40  N   UNL A   1      41.238  27.079  29.200  1.00  0.00    -0.354 N 
ATOM     41  C   UNL A   1      41.696  30.516  31.787  1.00  0.00     0.074 A 
ATOM     42  C   UNL A   1      40.569  31.414  31.666  1.00  0.00     0.031 C 
ATOM     43  C   UNL A   1      40.231  25.797  27.670  1.00  0.00     0.029 A 
ATOM     44  C   UNL A   1      41.436  25.924  28.483  1.00  0.00     0.049 A 
ATOM     45  H   UNL A   1      41.890  27.427  29.852  1.00  0.00     0.167 HD
ATOM     46  C   UNL A   1      42.745  30.713  32.621  1.00  0.00     0.037 A 
ATOM     47  C   UNL A   1      42.474  25.067  28.480  1.00  0.00     0.037 A 
ATOM     48  C   UNL A   1      43.863  29.815  32.743  1.00  0.00     0.049 A 
ATOM     49  C   UNL A   1      43.637  25.326  29.403  1.00  0.00     0.074 A 
ATOM     50  C   UNL A   1      44.964  29.916  33.576  1.00  0.00     0.029 A 
ATOM     51  N   UNL A   1      44.021  28.646  32.013  1.00  0.00    -0.354 N 
ATOM     52  N   UNL A   1      43.818  26.307  30.254  1.00  0.00    -0.248 NA
ATOM     53  C   UNL A   1      44.734  24.349  29.373  1.00  0.00     0.031 C 
ATOM     54  C   UNL A   1      45.809  28.831  33.319  1.00  0.00     0.029 A 
ATOM     55  C   UNL A   1      45.207  28.024  32.366  1.00  0.00     0.049 A 
ATOM     56  H   UNL A   1      43.384  28.308  31.343  1.00  0.00     0.167 HD
ATOM     57  C   UNL A   1      45.031  26.049  30.880  1.00  0.00     0.074 A 
ATOM     58  C   UNL A   1      45.527  24.805  30.332  1.00  0.00     0.031 C 
ATOM     59  C   UNL A   1      45.679  26.779  31.820  1.00  0.00     0.037 A 
BRANCH  46  60
ATOM     60  C   UNL A   1      42.724  31.938  33.489  1.00  0.00     0.064 A 
ATOM     61  C   UNL A   1      43.267  33.154  33.043  1.00  0.00     0.173 A 
ATOM     62  C   UNL A   1      42.101  31.919  34.745  1.00  0.00     0.173 A 
ATOM     63  F   UNL A   1      43.884  33.223  31.854  1.00  0.00    -0.203 F 
ATOM     64  C   UNL A   1      43.201  34.300  33.830  1.00  0.00     0.198 A 
ATOM     65  C   UNL A   1      42.011  33.075  35.518  1.00  0.00     0.198 A 
ATOM     66  F   UNL A   1      41.563  30.785  35.216  1.00  0.00    -0.203 F 
ATOM     67  F   UNL A   1      43.759  35.439  33.400  1.00  0.00    -0.200 F 
ATOM     68  C   UNL A   1      42.564  34.262  35.063  1.00  0.00     0.200 A 
ATOM     69  F   UNL A   1      41.383  33.041  36.700  1.00  0.00    -0.200 F 
ATOM     70  F   UNL A   1      42.487  35.370  35.811  1.00  0.00    -0.200 F 
ENDBRANCH  46  60
BRANCH  47  71
ATOM     71  C   UNL A   1      42.470  23.878  27.585  1.00  0.00     0.064 A 
ATOM     72  C   UNL A   1      42.055  22.621  28.049  1.00  0.00     0.173 A 
ATOM     73  C   UNL A   1      42.927  23.963  26.261  1.00  0.00     0.173 A 
ATOM     74  F   UNL A   1      41.625  22.483  29.312  1.00  0.00    -0.203 F 
ATOM     75  C   UNL A   1      42.139  21.490  27.240  1.00  0.00     0.198 A 
ATOM     76  C   UNL A   1      42.976  22.838  25.441  1.00  0.00     0.198 A 
ATOM     77  F   UNL A   1      43.329  25.142  25.763  1.00  0.00    -0.203 F 
ATOM     78  F   UNL A   1      41.805  20.290  27.734  1.00  0.00    -0.200 F 
ATOM     79  C   UNL A   1      42.597  21.600  25.936  1.00  0.00     0.200 A 
ATOM     80  F   UNL A   1      43.403  22.952  24.176  1.00  0.00    -0.200 F 
ATOM     81  F   UNL A   1      42.686  20.510  25.161  1.00  0.00    -0.200 F 
ENDBRANCH  47  71
BRANCH  59  82
ATOM     82  C   UNL A   1      46.975  26.226  32.343  1.00  0.00     0.064 A 
ATOM     83  C   UNL A   1      47.016  25.351  33.438  1.00  0.00     0.173 A 
ATOM     84  C   UNL A   1      48.190  26.564  31.727  1.00  0.00     0.173 A 
ATOM     85  F   UNL A   1      45.883  25.008  34.072  1.00  0.00    -0.203 F 
ATOM     86  C   UNL A   1      48.228  24.867  33.922  1.00  0.00     0.198 A 
ATOM     87  C   UNL A   1      49.397  26.049  32.191  1.00  0.00     0.198 A 
ATOM     88  F   UNL A   1      48.206  27.389  30.669  1.00  0.00    -0.203 F 
ATOM     89  F   UNL A   1      48.247  24.083  35.010  1.00  0.00    -0.200 F 
ATOM     90  C   UNL A   1      49.416  25.211  33.296  1.00  0.00     0.200 A 
ATOM     91  F   UNL A   1      50.542  26.369  31.573  1.00  0.00    -0.200 F 
ATOM     92  F   UNL A   1      50.581  24.741  33.761  1.00  0.00    -0.200 F 
ENDBRANCH  59  82
ENDBRANCH  33  34
ENDBRANCH  25  28
ENDBRANCH  23  24
ENDBRANCH  22  23
ENDBRANCH   1  22
TORSDOF 14
ENDMDL
