MODEL 1
REMARK VINA RESULT:     -12.3      0.000      0.000
REMARK SMILES C[C@@H](C(=O)NCCCCNC(=O)c1ccc(-c2c3nc(c(-c4c(F)c(F)c(F)c(F)c4F)c4ccc([nH]4)c(-c4c(F)c(F)c(F)c(F)c4F)c4nc(c(-c5c(F)c(F)c(F)c(F)c5F)c5ccc2[nH]5)C=C4)C=C3)cc1)c1ccc(OC2CCCC2)cc1F
REMARK SMILES IDX 7 1 6 2 5 3 3 4 4 5 2 7 1 8 76 9 77 10 87 11 78 12 86 13
REMARK SMILES IDX 88 14 79 15 80 16 81 17 82 18 85 19 83 20 84 21 8 22 9 23
REMARK SMILES IDX 10 24 11 25 12 27 13 28 14 29 75 30 15 31 74 32 16 33 17 34
REMARK SMILES IDX 18 35 68 36 19 37 73 38 67 39 69 40 20 41 72 42 66 43 65 44
REMARK SMILES IDX 21 46 53 47 33 48 52 49 34 50 37 51 51 52 70 53 35 54 36 55
REMARK SMILES IDX 50 57 71 58 38 59 22 60 23 61 31 62 24 63 25 64 29 65 32 66
REMARK SMILES IDX 26 67 27 68 30 69 28 70 54 71 55 72 63 73 56 74 57 75 61 76
REMARK SMILES IDX 64 77 58 78 59 79 62 80 60 81 39 82 40 83 48 84 41 85 42 86
REMARK SMILES IDX 46 87 49 88 43 89 44 90 47 91 45 92
REMARK H PARENT 5 6 10 26 69 45 37 56
REMARK Flexibility Score: inf
ROOT
ATOM      1  C   UNL A   1      31.473  30.713  26.661  1.00  0.00     0.023 C 
ENDROOT
BRANCH   1   2
ATOM      2  C   UNL A   1      32.411  30.112  25.614  1.00  0.00     0.116 C 
BRANCH   2   3
ATOM      3  N   UNL A   1      31.655  29.410  24.600  1.00  0.00    -0.356 N 
ATOM      4  C   UNL A   1      32.099  28.632  23.573  1.00  0.00     0.227 C 
ATOM      5  O   UNL A   1      31.266  28.301  22.726  1.00  0.00    -0.274 OA
ATOM      6  H   UNL A   1      30.677  29.508  24.662  1.00  0.00     0.163 HD
BRANCH   4   7
ATOM      7  C   UNL A   1      33.567  28.184  23.529  1.00  0.00     0.108 C 
ATOM      8  C   UNL A   1      34.239  28.481  22.185  1.00  0.00     0.023 C 
BRANCH   7   9
ATOM      9  C   UNL A   1      33.692  26.717  23.903  1.00  0.00     0.000 A 
ATOM     10  C   UNL A   1      33.614  25.690  22.954  1.00  0.00     0.011 A 
ATOM     11  C   UNL A   1      33.823  26.359  25.246  1.00  0.00     0.130 A 
ATOM     12  C   UNL A   1      33.721  24.355  23.350  1.00  0.00     0.047 A 
ATOM     13  C   UNL A   1      33.920  25.028  25.643  1.00  0.00     0.086 A 
ATOM     14  F   UNL A   1      33.865  27.312  26.190  1.00  0.00    -0.207 F 
ATOM     15  C   UNL A   1      33.897  24.015  24.693  1.00  0.00     0.122 A 
BRANCH  15  16
ATOM     16  O   UNL A   1      34.016  22.676  24.914  1.00  0.00    -0.490 OA
BRANCH  16  17
ATOM     17  C   UNL A   1      35.145  21.924  24.492  1.00  0.00     0.173 C 
ATOM     18  C   UNL A   1      36.521  22.503  24.809  1.00  0.00     0.045 C 
ATOM     19  C   UNL A   1      35.163  20.468  24.942  1.00  0.00     0.045 C 
ATOM     20  C   UNL A   1      37.456  21.316  24.647  1.00  0.00     0.004 C 
ATOM     21  C   UNL A   1      36.636  20.068  24.970  1.00  0.00     0.004 C 
ENDBRANCH  16  17
ENDBRANCH  15  16
ENDBRANCH   7   9
ENDBRANCH   4   7
ENDBRANCH   2   3
ENDBRANCH   1   2
BRANCH   1  22
ATOM     22  C   UNL A   1      31.426  32.243  26.662  1.00  0.00     0.023 C 
BRANCH  22  23
ATOM     23  C   UNL A   1      32.648  32.920  27.266  1.00  0.00     0.116 C 
BRANCH  23  24
ATOM     24  N   UNL A   1      32.396  34.302  27.640  1.00  0.00    -0.352 N 
ATOM     25  C   UNL A   1      32.992  35.052  28.622  1.00  0.00     0.251 C 
ATOM     26  H   UNL A   1      31.703  34.763  27.115  1.00  0.00     0.163 HD
ATOM     27  O   UNL A   1      32.549  36.163  28.903  1.00  0.00    -0.269 OA
BRANCH  25  28
ATOM     28  C   UNL A   1      34.147  34.507  29.362  1.00  0.00     0.039 A 
ATOM     29  C   UNL A   1      33.923  33.875  30.586  1.00  0.00     0.014 A 
ATOM     30  C   UNL A   1      35.442  34.607  28.846  1.00  0.00     0.014 A 
ATOM     31  C   UNL A   1      34.993  33.294  31.268  1.00  0.00     0.010 A 
ATOM     32  C   UNL A   1      36.493  33.957  29.485  1.00  0.00     0.010 A 
ATOM     33  C   UNL A   1      36.281  33.301  30.707  1.00  0.00    -0.014 A 
BRANCH  33  34
ATOM     34  C   UNL A   1      37.417  32.634  31.392  1.00  0.00     0.031 A 
ATOM     35  C   UNL A   1      38.123  31.480  30.735  1.00  0.00     0.074 A 
ATOM     36  C   UNL A   1      37.778  33.036  32.626  1.00  0.00     0.049 A 
ATOM     37  N   UNL A   1      39.107  30.745  31.190  1.00  0.00    -0.248 NA
ATOM     38  C   UNL A   1      37.643  31.082  29.404  1.00  0.00     0.031 C 
ATOM     39  C   UNL A   1      37.138  34.110  33.387  1.00  0.00     0.029 A 
ATOM     40  N   UNL A   1      38.769  32.583  33.461  1.00  0.00    -0.354 N 
ATOM     41  C   UNL A   1      39.353  29.795  30.207  1.00  0.00     0.074 A 
ATOM     42  C   UNL A   1      38.377  30.007  29.161  1.00  0.00     0.031 C 
ATOM     43  C   UNL A   1      37.771  34.253  34.562  1.00  0.00     0.029 A 
ATOM     44  C   UNL A   1      38.833  33.256  34.656  1.00  0.00     0.049 A 
ATOM     45  H   UNL A   1      39.376  31.844  33.225  1.00  0.00     0.167 HD
ATOM     46  C   UNL A   1      40.324  28.851  30.168  1.00  0.00     0.037 A 
ATOM     47  C   UNL A   1      39.653  33.085  35.711  1.00  0.00     0.037 A 
ATOM     48  C   UNL A   1      41.303  28.656  31.205  1.00  0.00     0.049 A 
ATOM     49  C   UNL A   1      40.711  32.016  35.648  1.00  0.00     0.074 A 
ATOM     50  C   UNL A   1      42.360  27.764  31.237  1.00  0.00     0.029 A 
ATOM     51  N   UNL A   1      41.341  29.364  32.398  1.00  0.00    -0.354 N 
ATOM     52  N   UNL A   1      40.984  31.174  34.681  1.00  0.00    -0.248 NA
ATOM     53  C   UNL A   1      41.583  31.882  36.823  1.00  0.00     0.031 C 
ATOM     54  C   UNL A   1      43.004  27.892  32.472  1.00  0.00     0.029 A 
ATOM     55  C   UNL A   1      42.389  28.909  33.184  1.00  0.00     0.049 A 
ATOM     56  H   UNL A   1      40.717  30.082  32.649  1.00  0.00     0.167 HD
ATOM     57  C   UNL A   1      42.076  30.434  35.115  1.00  0.00     0.074 A 
ATOM     58  C   UNL A   1      42.426  30.939  36.426  1.00  0.00     0.031 C 
ATOM     59  C   UNL A   1      42.731  29.428  34.485  1.00  0.00     0.037 A 
BRANCH  46  60
ATOM     60  C   UNL A   1      40.371  27.954  28.964  1.00  0.00     0.064 A 
ATOM     61  C   UNL A   1      41.127  28.283  27.827  1.00  0.00     0.173 A 
ATOM     62  C   UNL A   1      39.679  26.733  28.956  1.00  0.00     0.173 A 
ATOM     63  F   UNL A   1      41.799  29.444  27.777  1.00  0.00    -0.203 F 
ATOM     64  C   UNL A   1      41.160  27.443  26.718  1.00  0.00     0.198 A 
ATOM     65  C   UNL A   1      39.743  25.879  27.858  1.00  0.00     0.198 A 
ATOM     66  F   UNL A   1      38.946  26.363  30.017  1.00  0.00    -0.203 F 
ATOM     67  F   UNL A   1      41.842  27.808  25.623  1.00  0.00    -0.200 F 
ATOM     68  C   UNL A   1      40.475  26.238  26.736  1.00  0.00     0.200 A 
ATOM     69  F   UNL A   1      39.093  24.707  27.885  1.00  0.00    -0.200 F 
ATOM     70  F   UNL A   1      40.514  25.427  25.671  1.00  0.00    -0.200 F 
ENDBRANCH  46  60
BRANCH  47  71
ATOM     71  C   UNL A   1      39.524  33.961  36.905  1.00  0.00     0.064 A 
ATOM     72  C   UNL A   1      40.164  35.208  36.955  1.00  0.00     0.173 A 
ATOM     73  C   UNL A   1      38.774  33.569  38.023  1.00  0.00     0.173 A 
ATOM     74  F   UNL A   1      40.909  35.620  35.918  1.00  0.00    -0.203 F 
ATOM     75  C   UNL A   1      40.079  36.016  38.086  1.00  0.00     0.198 A 
ATOM     76  C   UNL A   1      38.663  34.393  39.142  1.00  0.00     0.198 A 
ATOM     77  F   UNL A   1      38.137  32.389  38.024  1.00  0.00    -0.203 F 
ATOM     78  F   UNL A   1      40.744  37.179  38.128  1.00  0.00    -0.200 F 
ATOM     79  C   UNL A   1      39.325  35.611  39.176  1.00  0.00     0.200 A 
ATOM     80  F   UNL A   1      37.919  34.004  40.185  1.00  0.00    -0.200 F 
ATOM     81  F   UNL A   1      39.242  36.389  40.264  1.00  0.00    -0.200 F 
ENDBRANCH  47  71
BRANCH  59  82
ATOM     82  C   UNL A   1      43.921  28.835  35.185  1.00  0.00     0.064 A 
ATOM     83  C   UNL A   1      45.226  29.292  34.944  1.00  0.00     0.173 A 
ATOM     84  C   UNL A   1      43.748  27.815  36.132  1.00  0.00     0.173 A 
ATOM     85  F   UNL A   1      45.447  30.257  34.039  1.00  0.00    -0.203 F 
ATOM     86  C   UNL A   1      46.315  28.727  35.603  1.00  0.00     0.198 A 
ATOM     87  C   UNL A   1      44.835  27.276  36.814  1.00  0.00     0.198 A 
ATOM     88  F   UNL A   1      42.521  27.345  36.406  1.00  0.00    -0.203 F 
ATOM     89  F   UNL A   1      47.556  29.140  35.316  1.00  0.00    -0.200 F 
ATOM     90  C   UNL A   1      46.119  27.725  36.542  1.00  0.00     0.200 A 
ATOM     91  F   UNL A   1      44.641  26.321  37.735  1.00  0.00    -0.200 F 
ATOM     92  F   UNL A   1      47.167  27.187  37.179  1.00  0.00    -0.200 F 
ENDBRANCH  59  82
ENDBRANCH  33  34
ENDBRANCH  25  28
ENDBRANCH  23  24
ENDBRANCH  22  23
ENDBRANCH   1  22
TORSDOF 14
ENDMDL
MODEL 2
REMARK VINA RESULT:     -12.2      0.108      1.963
REMARK SMILES C[C@@H](C(=O)NCCCCNC(=O)c1ccc(-c2c3nc(c(-c4c(F)c(F)c(F)c(F)c4F)c4ccc([nH]4)c(-c4c(F)c(F)c(F)c(F)c4F)c4nc(c(-c5c(F)c(F)c(F)c(F)c5F)c5ccc2[nH]5)C=C4)C=C3)cc1)c1ccc(OC2CCCC2)cc1F
REMARK SMILES IDX 7 1 6 2 5 3 3 4 4 5 2 7 1 8 76 9 77 10 87 11 78 12 86 13
REMARK SMILES IDX 88 14 79 15 80 16 81 17 82 18 85 19 83 20 84 21 8 22 9 23
REMARK SMILES IDX 10 24 11 25 12 27 13 28 14 29 75 30 15 31 74 32 16 33 17 34
REMARK SMILES IDX 18 35 68 36 19 37 73 38 67 39 69 40 20 41 72 42 66 43 65 44
REMARK SMILES IDX 21 46 53 47 33 48 52 49 34 50 37 51 51 52 70 53 35 54 36 55
REMARK SMILES IDX 50 57 71 58 38 59 22 60 23 61 31 62 24 63 25 64 29 65 32 66
REMARK SMILES IDX 26 67 27 68 30 69 28 70 54 71 55 72 63 73 56 74 57 75 61 76
REMARK SMILES IDX 64 77 58 78 59 79 62 80 60 81 39 82 40 83 48 84 41 85 42 86
REMARK SMILES IDX 46 87 49 88 43 89 44 90 47 91 45 92
REMARK H PARENT 5 6 10 26 69 45 37 56
REMARK Flexibility Score: inf
ROOT
ATOM      1  C   UNL A   1      31.488  30.692  26.669  1.00  0.00     0.023 C 
ENDROOT
BRANCH   1   2
ATOM      2  C   UNL A   1      32.422  30.093  25.616  1.00  0.00     0.116 C 
BRANCH   2   3
ATOM      3  N   UNL A   1      31.662  29.409  24.594  1.00  0.00    -0.356 N 
ATOM      4  C   UNL A   1      32.101  28.649  23.551  1.00  0.00     0.227 C 
ATOM      5  O   UNL A   1      31.265  28.332  22.703  1.00  0.00    -0.274 OA
ATOM      6  H   UNL A   1      30.684  29.505  24.662  1.00  0.00     0.163 HD
BRANCH   4   7
ATOM      7  C   UNL A   1      33.570  28.203  23.492  1.00  0.00     0.108 C 
ATOM      8  C   UNL A   1      34.224  28.492  22.138  1.00  0.00     0.023 C 
BRANCH   7   9
ATOM      9  C   UNL A   1      33.702  26.739  23.874  1.00  0.00     0.000 A 
ATOM     10  C   UNL A   1      33.523  25.702  22.951  1.00  0.00     0.011 A 
ATOM     11  C   UNL A   1      33.944  26.397  25.206  1.00  0.00     0.130 A 
ATOM     12  C   UNL A   1      33.642  24.371  23.355  1.00  0.00     0.047 A 
ATOM     13  C   UNL A   1      34.053  25.070  25.613  1.00  0.00     0.086 A 
ATOM     14  F   UNL A   1      34.085  27.361  26.129  1.00  0.00    -0.207 F 
ATOM     15  C   UNL A   1      33.930  24.044  24.683  1.00  0.00     0.122 A 
BRANCH  15  16
ATOM     16  O   UNL A   1      34.044  22.707  24.912  1.00  0.00    -0.490 OA
BRANCH  16  17
ATOM     17  C   UNL A   1      35.172  21.949  24.495  1.00  0.00     0.173 C 
ATOM     18  C   UNL A   1      36.549  22.511  24.835  1.00  0.00     0.045 C 
ATOM     19  C   UNL A   1      35.171  20.488  24.929  1.00  0.00     0.045 C 
ATOM     20  C   UNL A   1      37.475  21.318  24.670  1.00  0.00     0.004 C 
ATOM     21  C   UNL A   1      36.639  20.074  24.971  1.00  0.00     0.004 C 
ENDBRANCH  16  17
ENDBRANCH  15  16
ENDBRANCH   7   9
ENDBRANCH   4   7
ENDBRANCH   2   3
ENDBRANCH   1   2
BRANCH   1  22
ATOM     22  C   UNL A   1      31.439  32.222  26.671  1.00  0.00     0.023 C 
BRANCH  22  23
ATOM     23  C   UNL A   1      32.658  32.898  27.282  1.00  0.00     0.116 C 
BRANCH  23  24
ATOM     24  N   UNL A   1      32.403  34.280  27.658  1.00  0.00    -0.352 N 
ATOM     25  C   UNL A   1      32.998  35.030  28.641  1.00  0.00     0.251 C 
ATOM     26  H   UNL A   1      31.708  34.740  27.134  1.00  0.00     0.163 HD
ATOM     27  O   UNL A   1      32.553  36.139  28.924  1.00  0.00    -0.269 OA
BRANCH  25  28
ATOM     28  C   UNL A   1      34.156  34.486  29.378  1.00  0.00     0.039 A 
ATOM     29  C   UNL A   1      33.931  33.820  30.584  1.00  0.00     0.014 A 
ATOM     30  C   UNL A   1      35.454  34.622  28.878  1.00  0.00     0.014 A 
ATOM     31  C   UNL A   1      35.005  33.240  31.261  1.00  0.00     0.010 A 
ATOM     32  C   UNL A   1      36.510  33.975  29.511  1.00  0.00     0.010 A 
ATOM     33  C   UNL A   1      36.298  33.284  30.713  1.00  0.00    -0.014 A 
BRANCH  33  34
ATOM     34  C   UNL A   1      37.439  32.621  31.393  1.00  0.00     0.031 A 
ATOM     35  C   UNL A   1      38.155  31.479  30.726  1.00  0.00     0.074 A 
ATOM     36  C   UNL A   1      37.796  33.014  32.631  1.00  0.00     0.049 A 
ATOM     37  N   UNL A   1      39.145  30.747  31.174  1.00  0.00    -0.248 NA
ATOM     38  C   UNL A   1      37.679  31.089  29.391  1.00  0.00     0.031 C 
ATOM     39  C   UNL A   1      37.147  34.075  33.402  1.00  0.00     0.029 A 
ATOM     40  N   UNL A   1      38.790  32.561  33.462  1.00  0.00    -0.354 N 
ATOM     41  C   UNL A   1      39.400  29.809  30.183  1.00  0.00     0.074 A 
ATOM     42  C   UNL A   1      38.422  30.022  29.138  1.00  0.00     0.031 C 
ATOM     43  C   UNL A   1      37.778  34.213  34.578  1.00  0.00     0.029 A 
ATOM     44  C   UNL A   1      38.848  33.224  34.664  1.00  0.00     0.049 A 
ATOM     45  H   UNL A   1      39.404  31.830  33.220  1.00  0.00     0.167 HD
ATOM     46  C   UNL A   1      40.378  28.874  30.135  1.00  0.00     0.037 A 
ATOM     47  C   UNL A   1      39.669  33.049  35.717  1.00  0.00     0.037 A 
ATOM     48  C   UNL A   1      41.359  28.677  31.171  1.00  0.00     0.049 A 
ATOM     49  C   UNL A   1      40.736  31.990  35.645  1.00  0.00     0.074 A 
ATOM     50  C   UNL A   1      42.423  27.793  31.195  1.00  0.00     0.029 A 
ATOM     51  N   UNL A   1      41.390  29.374  32.370  1.00  0.00    -0.354 N 
ATOM     52  N   UNL A   1      41.016  31.159  34.670  1.00  0.00    -0.248 NA
ATOM     53  C   UNL A   1      41.608  31.852  36.820  1.00  0.00     0.031 C 
ATOM     54  C   UNL A   1      43.064  27.915  32.432  1.00  0.00     0.029 A 
ATOM     55  C   UNL A   1      42.441  28.920  33.153  1.00  0.00     0.049 A 
ATOM     56  H   UNL A   1      40.760  30.084  32.628  1.00  0.00     0.167 HD
ATOM     57  C   UNL A   1      42.115  30.424  35.098  1.00  0.00     0.074 A 
ATOM     58  C   UNL A   1      42.460  30.920  36.414  1.00  0.00     0.031 C 
ATOM     59  C   UNL A   1      42.778  29.430  34.459  1.00  0.00     0.037 A 
BRANCH  46  60
ATOM     60  C   UNL A   1      40.434  27.988  28.923  1.00  0.00     0.064 A 
ATOM     61  C   UNL A   1      39.725  26.777  28.859  1.00  0.00     0.173 A 
ATOM     62  C   UNL A   1      41.178  28.369  27.795  1.00  0.00     0.173 A 
ATOM     63  F   UNL A   1      39.007  26.360  29.913  1.00  0.00    -0.203 F 
ATOM     64  C   UNL A   1      39.789  25.967  27.729  1.00  0.00     0.198 A 
ATOM     65  C   UNL A   1      41.211  27.572  26.654  1.00  0.00     0.198 A 
ATOM     66  F   UNL A   1      41.869  29.519  27.797  1.00  0.00    -0.203 F 
ATOM     67  F   UNL A   1      39.150  24.789  27.715  1.00  0.00    -0.200 F 
ATOM     68  C   UNL A   1      40.524  26.368  26.625  1.00  0.00     0.200 A 
ATOM     69  F   UNL A   1      41.910  27.970  25.582  1.00  0.00    -0.200 F 
ATOM     70  F   UNL A   1      40.578  25.590  25.535  1.00  0.00    -0.200 F 
ENDBRANCH  46  60
BRANCH  47  71
ATOM     71  C   UNL A   1      39.532  33.913  36.920  1.00  0.00     0.064 A 
ATOM     72  C   UNL A   1      38.800  33.482  38.036  1.00  0.00     0.173 A 
ATOM     73  C   UNL A   1      40.117  35.186  36.976  1.00  0.00     0.173 A 
ATOM     74  F   UNL A   1      38.206  32.280  38.023  1.00  0.00    -0.203 F 
ATOM     75  C   UNL A   1      38.636  34.303  39.149  1.00  0.00     0.198 A 
ATOM     76  C   UNL A   1      39.979  35.993  38.104  1.00  0.00     0.198 A 
ATOM     77  F   UNL A   1      40.833  35.643  35.938  1.00  0.00    -0.203 F 
ATOM     78  F   UNL A   1      37.886  33.888  40.180  1.00  0.00    -0.200 F 
ATOM     79  C   UNL A   1      39.230  35.554  39.185  1.00  0.00     0.200 A 
ATOM     80  F   UNL A   1      40.569  37.195  38.140  1.00  0.00    -0.200 F 
ATOM     81  F   UNL A   1      39.074  36.343  40.257  1.00  0.00    -0.200 F 
ENDBRANCH  47  71
BRANCH  59  82
ATOM     82  C   UNL A   1      43.972  28.840  35.154  1.00  0.00     0.064 A 
ATOM     83  C   UNL A   1      43.859  27.739  36.016  1.00  0.00     0.173 A 
ATOM     84  C   UNL A   1      45.253  29.368  34.929  1.00  0.00     0.173 A 
ATOM     85  F   UNL A   1      42.657  27.205  36.275  1.00  0.00    -0.203 F 
ATOM     86  C   UNL A   1      44.980  27.209  36.652  1.00  0.00     0.198 A 
ATOM     87  C   UNL A   1      46.375  28.815  35.538  1.00  0.00     0.198 A 
ATOM     88  F   UNL A   1      45.419  30.417  34.108  1.00  0.00    -0.203 F 
ATOM     89  F   UNL A   1      44.841  26.194  37.514  1.00  0.00    -0.200 F 
ATOM     90  C   UNL A   1      46.237  27.742  36.407  1.00  0.00     0.200 A 
ATOM     91  F   UNL A   1      47.591  29.320  35.286  1.00  0.00    -0.200 F 
ATOM     92  F   UNL A   1      47.315  27.227  37.014  1.00  0.00    -0.200 F 
ENDBRANCH  59  82
ENDBRANCH  33  34
ENDBRANCH  25  28
ENDBRANCH  23  24
ENDBRANCH  22  23
ENDBRANCH   1  22
TORSDOF 14
ENDMDL
MODEL 3
REMARK VINA RESULT:     -12.1      0.673      7.381
REMARK SMILES C[C@@H](C(=O)NCCCCNC(=O)c1ccc(-c2c3nc(c(-c4c(F)c(F)c(F)c(F)c4F)c4ccc([nH]4)c(-c4c(F)c(F)c(F)c(F)c4F)c4nc(c(-c5c(F)c(F)c(F)c(F)c5F)c5ccc2[nH]5)C=C4)C=C3)cc1)c1ccc(OC2CCCC2)cc1F
REMARK SMILES IDX 7 1 6 2 5 3 3 4 4 5 2 7 1 8 76 9 77 10 87 11 78 12 86 13
REMARK SMILES IDX 88 14 79 15 80 16 81 17 82 18 85 19 83 20 84 21 8 22 9 23
REMARK SMILES IDX 10 24 11 25 12 27 13 28 14 29 75 30 15 31 74 32 16 33 17 34
REMARK SMILES IDX 18 35 68 36 19 37 73 38 67 39 69 40 20 41 72 42 66 43 65 44
REMARK SMILES IDX 21 46 53 47 33 48 52 49 34 50 37 51 51 52 70 53 35 54 36 55
REMARK SMILES IDX 50 57 71 58 38 59 22 60 23 61 31 62 24 63 25 64 29 65 32 66
REMARK SMILES IDX 26 67 27 68 30 69 28 70 54 71 55 72 63 73 56 74 57 75 61 76
REMARK SMILES IDX 64 77 58 78 59 79 62 80 60 81 39 82 40 83 48 84 41 85 42 86
REMARK SMILES IDX 46 87 49 88 43 89 44 90 47 91 45 92
REMARK H PARENT 5 6 10 26 69 45 37 56
REMARK Flexibility Score: inf
ROOT
ATOM      1  C   UNL A   1      31.366  30.837  26.709  1.00  0.00     0.023 C 
ENDROOT
BRANCH   1   2
ATOM      2  C   UNL A   1      32.324  30.143  25.739  1.00  0.00     0.116 C 
BRANCH   2   3
ATOM      3  N   UNL A   1      31.586  29.444  24.711  1.00  0.00    -0.356 N 
ATOM      4  C   UNL A   1      32.047  28.665  23.692  1.00  0.00     0.227 C 
ATOM      5  O   UNL A   1      31.231  28.337  22.828  1.00  0.00    -0.274 OA
ATOM      6  H   UNL A   1      30.607  29.546  24.753  1.00  0.00     0.163 HD
BRANCH   4   7
ATOM      7  C   UNL A   1      33.515  28.212  23.676  1.00  0.00     0.108 C 
ATOM      8  C   UNL A   1      34.234  28.571  22.373  1.00  0.00     0.023 C 
BRANCH   7   9
ATOM      9  C   UNL A   1      33.621  26.728  23.982  1.00  0.00     0.000 A 
ATOM     10  C   UNL A   1      33.671  25.756  22.976  1.00  0.00     0.011 A 
ATOM     11  C   UNL A   1      33.604  26.297  25.310  1.00  0.00     0.130 A 
ATOM     12  C   UNL A   1      33.755  24.402  23.308  1.00  0.00     0.047 A 
ATOM     13  C   UNL A   1      33.678  24.947  25.643  1.00  0.00     0.086 A 
ATOM     14  F   UNL A   1      33.521  27.197  26.303  1.00  0.00    -0.207 F 
ATOM     15  C   UNL A   1      33.782  23.989  24.642  1.00  0.00     0.122 A 
BRANCH  15  16
ATOM     16  O   UNL A   1      33.898  22.641  24.802  1.00  0.00    -0.490 OA
BRANCH  16  17
ATOM     17  C   UNL A   1      35.056  21.917  24.412  1.00  0.00     0.173 C 
ATOM     18  C   UNL A   1      36.405  22.598  24.625  1.00  0.00     0.045 C 
ATOM     19  C   UNL A   1      35.173  20.513  24.992  1.00  0.00     0.045 C 
ATOM     20  C   UNL A   1      37.403  21.455  24.540  1.00  0.00     0.004 C 
ATOM     21  C   UNL A   1      36.667  20.199  25.005  1.00  0.00     0.004 C 
ENDBRANCH  16  17
ENDBRANCH  15  16
ENDBRANCH   7   9
ENDBRANCH   4   7
ENDBRANCH   2   3
ENDBRANCH   1   2
BRANCH   1  22
ATOM     22  C   UNL A   1      31.403  32.366  26.645  1.00  0.00     0.023 C 
BRANCH  22  23
ATOM     23  C   UNL A   1      32.672  32.997  27.200  1.00  0.00     0.116 C 
BRANCH  23  24
ATOM     24  N   UNL A   1      32.452  34.341  27.710  1.00  0.00    -0.352 N 
ATOM     25  C   UNL A   1      33.076  34.981  28.752  1.00  0.00     0.251 C 
ATOM     26  H   UNL A   1      31.761  34.864  27.243  1.00  0.00     0.163 HD
ATOM     27  O   UNL A   1      32.659  36.067  29.146  1.00  0.00    -0.269 OA
BRANCH  25  28
ATOM     28  C   UNL A   1      34.230  34.345  29.417  1.00  0.00     0.039 A 
ATOM     29  C   UNL A   1      34.000  33.528  30.526  1.00  0.00     0.014 A 
ATOM     30  C   UNL A   1      35.530  34.542  28.943  1.00  0.00     0.014 A 
ATOM     31  C   UNL A   1      35.071  32.865  31.127  1.00  0.00     0.010 A 
ATOM     32  C   UNL A   1      36.583  33.817  29.491  1.00  0.00     0.010 A 
ATOM     33  C   UNL A   1      36.365  32.977  30.594  1.00  0.00    -0.014 A 
BRANCH  33  34
ATOM     34  C   UNL A   1      37.504  32.230  31.186  1.00  0.00     0.031 A 
ATOM     35  C   UNL A   1      37.993  32.570  32.567  1.00  0.00     0.074 A 
ATOM     36  C   UNL A   1      38.128  31.283  30.460  1.00  0.00     0.049 A 
ATOM     37  N   UNL A   1      38.997  32.061  33.238  1.00  0.00    -0.248 NA
ATOM     38  C   UNL A   1      37.281  33.642  33.277  1.00  0.00     0.031 C 
ATOM     39  C   UNL A   1      37.778  30.897  29.093  1.00  0.00     0.029 A 
ATOM     40  N   UNL A   1      39.192  30.473  30.770  1.00  0.00    -0.354 N 
ATOM     41  C   UNL A   1      39.038  32.757  34.439  1.00  0.00     0.074 A 
ATOM     42  C   UNL A   1      38.002  33.765  34.380  1.00  0.00     0.031 C 
ATOM     43  C   UNL A   1      38.590  29.907  28.693  1.00  0.00     0.029 A 
ATOM     44  C   UNL A   1      39.545  29.615  29.758  1.00  0.00     0.049 A 
ATOM     45  H   UNL A   1      39.659  30.505  31.637  1.00  0.00     0.167 HD
ATOM     46  C   UNL A   1      39.848  32.554  35.506  1.00  0.00     0.037 A 
ATOM     47  C   UNL A   1      40.531  28.700  29.695  1.00  0.00     0.037 A 
ATOM     48  C   UNL A   1      40.866  31.538  35.566  1.00  0.00     0.049 A 
ATOM     49  C   UNL A   1      41.428  28.508  30.888  1.00  0.00     0.074 A 
ATOM     50  C   UNL A   1      41.703  31.216  36.619  1.00  0.00     0.029 A 
ATOM     51  N   UNL A   1      41.189  30.682  34.523  1.00  0.00    -0.354 N 
ATOM     52  N   UNL A   1      41.409  29.119  32.048  1.00  0.00    -0.248 NA
ATOM     53  C   UNL A   1      42.480  27.489  30.765  1.00  0.00     0.031 C 
ATOM     54  C   UNL A   1      42.570  30.204  36.195  1.00  0.00     0.029 A 
ATOM     55  C   UNL A   1      42.231  29.849  34.900  1.00  0.00     0.049 A 
ATOM     56  H   UNL A   1      40.745  30.668  33.645  1.00  0.00     0.167 HD
ATOM     57  C   UNL A   1      42.420  28.539  32.803  1.00  0.00     0.074 A 
ATOM     58  C   UNL A   1      43.021  27.514  31.975  1.00  0.00     0.031 C 
ATOM     59  C   UNL A   1      42.814  28.827  34.067  1.00  0.00     0.037 A 
BRANCH  46  60
ATOM     60  C   UNL A   1      39.666  33.453  36.696  1.00  0.00     0.064 A 
ATOM     61  C   UNL A   1      38.808  33.113  37.754  1.00  0.00     0.173 A 
ATOM     62  C   UNL A   1      40.383  34.656  36.798  1.00  0.00     0.173 A 
ATOM     63  F   UNL A   1      38.090  31.980  37.703  1.00  0.00    -0.203 F 
ATOM     64  C   UNL A   1      38.648  33.957  38.850  1.00  0.00     0.198 A 
ATOM     65  C   UNL A   1      40.247  35.481  37.911  1.00  0.00     0.198 A 
ATOM     66  F   UNL A   1      41.222  35.029  35.820  1.00  0.00    -0.203 F 
ATOM     67  F   UNL A   1      37.779  33.637  39.819  1.00  0.00    -0.200 F 
ATOM     68  C   UNL A   1      39.373  35.136  38.932  1.00  0.00     0.200 A 
ATOM     69  F   UNL A   1      40.960  36.612  37.996  1.00  0.00    -0.200 F 
ATOM     70  F   UNL A   1      39.224  35.944  39.990  1.00  0.00    -0.200 F 
ENDBRANCH  46  60
BRANCH  47  71
ATOM     71  C   UNL A   1      40.707  27.877  28.469  1.00  0.00     0.064 A 
ATOM     72  C   UNL A   1      41.480  28.341  27.395  1.00  0.00     0.173 A 
ATOM     73  C   UNL A   1      40.099  26.620  28.339  1.00  0.00     0.173 A 
ATOM     74  F   UNL A   1      42.066  29.546  27.464  1.00  0.00    -0.203 F 
ATOM     75  C   UNL A   1      41.616  27.592  26.229  1.00  0.00     0.198 A 
ATOM     76  C   UNL A   1      40.263  25.857  27.184  1.00  0.00     0.198 A 
ATOM     77  F   UNL A   1      39.355  26.127  29.339  1.00  0.00    -0.203 F 
ATOM     78  F   UNL A   1      42.316  28.084  25.197  1.00  0.00    -0.200 F 
ATOM     79  C   UNL A   1      41.013  26.348  26.126  1.00  0.00     0.200 A 
ATOM     80  F   UNL A   1      39.692  24.648  27.096  1.00  0.00    -0.200 F 
ATOM     81  F   UNL A   1      41.145  25.627  25.005  1.00  0.00    -0.200 F 
ENDBRANCH  47  71
BRANCH  59  82
ATOM     82  C   UNL A   1      43.920  27.994  34.652  1.00  0.00     0.064 A 
ATOM     83  C   UNL A   1      45.252  28.434  34.663  1.00  0.00     0.173 A 
ATOM     84  C   UNL A   1      43.635  26.750  35.236  1.00  0.00     0.173 A 
ATOM     85  F   UNL A   1      45.580  29.609  34.105  1.00  0.00    -0.203 F 
ATOM     86  C   UNL A   1      46.262  27.644  35.208  1.00  0.00     0.198 A 
ATOM     87  C   UNL A   1      44.641  25.980  35.812  1.00  0.00     0.198 A 
ATOM     88  F   UNL A   1      42.376  26.285  35.260  1.00  0.00    -0.203 F 
ATOM     89  F   UNL A   1      47.535  28.058  35.156  1.00  0.00    -0.200 F 
ATOM     90  C   UNL A   1      45.955  26.422  35.788  1.00  0.00     0.200 A 
ATOM     91  F   UNL A   1      44.339  24.808  36.388  1.00  0.00    -0.200 F 
ATOM     92  F   UNL A   1      46.927  25.667  36.318  1.00  0.00    -0.200 F 
ENDBRANCH  59  82
ENDBRANCH  33  34
ENDBRANCH  25  28
ENDBRANCH  23  24
ENDBRANCH  22  23
ENDBRANCH   1  22
TORSDOF 14
ENDMDL
