MODEL 1
REMARK VINA RESULT:     -11.6      0.000      0.000
REMARK SMILES O=C(NCCCCNC(=O)[C@@H]1C[C@@H]2CC(=O)[C@H]1C2)c1ccc(-c2c3nc(c(-c4c(F)c(F)c(F)c(F)c4F)c4ccc([nH]4)c(-c4c(F)c(F)c(F)c(F)c4F)c4nc(c(-c5c(F)c(F)c(F)c(F)c5F)c5ccc2[nH]5)C=C4)C=C3)cc1
REMARK SMILES IDX 4 1 3 2 1 3 2 4 19 6 20 7 81 8 21 9 80 10 22 11 23 12 24 13
REMARK SMILES IDX 74 14 25 15 79 16 73 17 75 18 26 19 78 20 72 21 71 22 27 24
REMARK SMILES IDX 59 25 39 26 58 27 40 28 43 29 57 30 76 31 41 32 42 33 56 35
REMARK SMILES IDX 77 36 44 37 28 38 29 39 37 40 30 41 31 42 35 43 38 44 32 45
REMARK SMILES IDX 33 46 36 47 34 48 60 49 61 50 69 51 62 52 63 53 67 54 70 55
REMARK SMILES IDX 64 56 65 57 68 58 66 59 45 60 46 61 54 62 47 63 48 64 52 65
REMARK SMILES IDX 55 66 49 67 50 68 53 69 51 70 5 71 6 72 7 73 8 74 9 75 10 77
REMARK SMILES IDX 11 78 12 79 17 80 13 81 15 82 18 83 14 84 16 85
REMARK H PARENT 3 5 75 23 43 34 8 76
REMARK Flexibility Score: inf
ROOT
ATOM      1  C   UNL A   1      32.619  32.811  27.251  1.00  0.00     0.116 C 
ENDROOT
BRANCH   1   2
ATOM      2  N   UNL A   1      32.407  34.203  27.626  1.00  0.00    -0.352 N 
ATOM      3  O   UNL A   1      32.650  36.066  28.888  1.00  0.00    -0.269 OA
ATOM      4  C   UNL A   1      33.037  34.938  28.603  1.00  0.00     0.251 C 
ATOM      5  H   UNL A   1      31.720  34.683  27.109  1.00  0.00     0.163 HD
BRANCH   4   6
ATOM      6  C   UNL A   1      34.171  34.334  29.327  1.00  0.00     0.039 A 
ATOM      7  C   UNL A   1      35.476  34.576  28.896  1.00  0.00     0.014 A 
ATOM      8  C   UNL A   1      33.925  33.475  30.400  1.00  0.00     0.014 A 
ATOM      9  C   UNL A   1      36.517  33.826  29.419  1.00  0.00     0.010 A 
ATOM     10  C   UNL A   1      34.993  32.804  31.003  1.00  0.00     0.010 A 
ATOM     11  C   UNL A   1      36.293  32.950  30.494  1.00  0.00    -0.014 A 
BRANCH  11  12
ATOM     12  C   UNL A   1      37.456  32.270  31.117  1.00  0.00     0.031 A 
ATOM     13  C   UNL A   1      37.922  32.620  32.502  1.00  0.00     0.074 A 
ATOM     14  C   UNL A   1      38.072  31.300  30.414  1.00  0.00     0.049 A 
ATOM     15  N   UNL A   1      38.922  32.119  33.183  1.00  0.00    -0.248 NA
ATOM     16  C   UNL A   1      37.182  33.673  33.215  1.00  0.00     0.031 C 
ATOM     17  C   UNL A   1      37.706  30.886  29.057  1.00  0.00     0.029 A 
ATOM     18  N   UNL A   1      39.118  30.477  30.739  1.00  0.00    -0.354 N 
ATOM     19  C   UNL A   1      38.945  32.802  34.391  1.00  0.00     0.074 A 
ATOM     20  C   UNL A   1      37.871  33.773  34.345  1.00  0.00     0.031 C 
ATOM     21  C   UNL A   1      38.480  29.858  28.685  1.00  0.00     0.029 A 
ATOM     22  C   UNL A   1      39.448  29.594  29.741  1.00  0.00     0.049 A 
ATOM     23  H   UNL A   1      39.587  30.515  31.605  1.00  0.00     0.167 HD
ATOM     24  C   UNL A   1      39.784  32.627  35.441  1.00  0.00     0.037 A 
ATOM     25  C   UNL A   1      40.441  28.690  29.669  1.00  0.00     0.037 A 
ATOM     26  C   UNL A   1      40.839  31.644  35.480  1.00  0.00     0.049 A 
ATOM     27  C   UNL A   1      41.373  28.546  30.837  1.00  0.00     0.074 A 
ATOM     28  C   UNL A   1      41.717  31.362  36.513  1.00  0.00     0.029 A 
ATOM     29  N   UNL A   1      41.162  30.786  34.438  1.00  0.00    -0.354 N 
ATOM     30  N   UNL A   1      41.360  29.174  31.987  1.00  0.00    -0.248 NA
ATOM     31  C   UNL A   1      42.460  27.571  30.695  1.00  0.00     0.031 C 
ATOM     32  C   UNL A   1      42.605  30.375  36.077  1.00  0.00     0.029 A 
ATOM     33  C   UNL A   1      42.245  29.995  34.794  1.00  0.00     0.049 A 
ATOM     34  H   UNL A   1      40.693  30.745  33.574  1.00  0.00     0.167 HD
ATOM     35  C   UNL A   1      42.420  28.655  32.714  1.00  0.00     0.074 A 
ATOM     36  C   UNL A   1      43.041  27.643  31.883  1.00  0.00     0.031 C 
ATOM     37  C   UNL A   1      42.846  28.989  33.956  1.00  0.00     0.037 A 
BRANCH  24  38
ATOM     38  C   UNL A   1      39.622  33.524  36.635  1.00  0.00     0.064 A 
ATOM     39  C   UNL A   1      40.226  34.788  36.700  1.00  0.00     0.173 A 
ATOM     40  C   UNL A   1      38.779  33.147  37.693  1.00  0.00     0.173 A 
ATOM     41  F   UNL A   1      41.047  35.195  35.719  1.00  0.00    -0.203 F 
ATOM     42  C   UNL A   1      40.004  35.634  37.784  1.00  0.00     0.198 A 
ATOM     43  C   UNL A   1      38.537  34.006  38.762  1.00  0.00     0.198 A 
ATOM     44  F   UNL A   1      38.168  31.952  37.678  1.00  0.00    -0.203 F 
ATOM     45  F   UNL A   1      40.617  36.825  37.839  1.00  0.00    -0.200 F 
ATOM     46  C   UNL A   1      39.152  35.248  38.808  1.00  0.00     0.200 A 
ATOM     47  F   UNL A   1      37.701  33.637  39.742  1.00  0.00    -0.200 F 
ATOM     48  F   UNL A   1      38.926  36.071  39.841  1.00  0.00    -0.200 F 
ENDBRANCH  24  38
BRANCH  25  49
ATOM     49  C   UNL A   1      40.614  27.877  28.438  1.00  0.00     0.064 A 
ATOM     50  C   UNL A   1      40.014  26.616  28.313  1.00  0.00     0.173 A 
ATOM     51  C   UNL A   1      41.388  28.341  27.364  1.00  0.00     0.173 A 
ATOM     52  F   UNL A   1      39.278  26.123  29.319  1.00  0.00    -0.203 F 
ATOM     53  C   UNL A   1      40.206  25.840  27.172  1.00  0.00     0.198 A 
ATOM     54  C   UNL A   1      41.548  27.581  26.209  1.00  0.00     0.198 A 
ATOM     55  F   UNL A   1      41.977  29.544  27.430  1.00  0.00    -0.203 F 
ATOM     56  F   UNL A   1      39.668  24.615  27.101  1.00  0.00    -0.200 F 
ATOM     57  C   UNL A   1      40.968  26.325  26.119  1.00  0.00     0.200 A 
ATOM     58  F   UNL A   1      42.267  28.062  25.186  1.00  0.00    -0.200 F 
ATOM     59  F   UNL A   1      41.148  25.578  25.020  1.00  0.00    -0.200 F 
ENDBRANCH  25  49
BRANCH  37  60
ATOM     60  C   UNL A   1      44.017  28.226  34.503  1.00  0.00     0.064 A 
ATOM     61  C   UNL A   1      43.850  27.019  35.198  1.00  0.00     0.173 A 
ATOM     62  C   UNL A   1      45.324  28.699  34.310  1.00  0.00     0.173 A 
ATOM     63  F   UNL A   1      42.619  26.535  35.424  1.00  0.00    -0.203 F 
ATOM     64  C   UNL A   1      44.947  26.331  35.709  1.00  0.00     0.198 A 
ATOM     65  C   UNL A   1      46.420  27.990  34.793  1.00  0.00     0.198 A 
ATOM     66  F   UNL A   1      45.538  29.846  33.647  1.00  0.00    -0.203 F 
ATOM     67  F   UNL A   1      44.760  25.211  36.420  1.00  0.00    -0.200 F 
ATOM     68  C   UNL A   1      46.230  26.813  35.499  1.00  0.00     0.200 A 
ATOM     69  F   UNL A   1      47.660  28.451  34.577  1.00  0.00    -0.200 F 
ATOM     70  F   UNL A   1      47.285  26.147  35.987  1.00  0.00    -0.200 F 
ENDBRANCH  37  60
ENDBRANCH  11  12
ENDBRANCH   4   6
ENDBRANCH   1   2
BRANCH   1  71
ATOM     71  C   UNL A   1      31.404  32.177  26.589  1.00  0.00     0.023 C 
BRANCH  71  72
ATOM     72  C   UNL A   1      31.529  30.682  26.328  1.00  0.00     0.023 C 
BRANCH  72  73
ATOM     73  C   UNL A   1      32.954  30.151  26.384  1.00  0.00     0.116 C 
BRANCH  73  74
ATOM     74  N   UNL A   1      33.445  29.704  25.091  1.00  0.00    -0.356 N 
ATOM     75  C   UNL A   1      33.602  28.412  24.662  1.00  0.00     0.223 C 
ATOM     76  H   UNL A   1      33.692  30.409  24.452  1.00  0.00     0.163 HD
ATOM     77  O   UNL A   1      34.028  28.189  23.532  1.00  0.00    -0.275 OA
BRANCH  75  78
ATOM     78  C   UNL A   1      33.258  27.314  25.647  1.00  0.00     0.089 C 
ATOM     79  C   UNL A   1      33.935  25.939  25.457  1.00  0.00     0.018 C 
ATOM     80  C   UNL A   1      31.765  26.956  25.636  1.00  0.00     0.069 C 
ATOM     81  C   UNL A   1      32.752  24.947  25.588  1.00  0.00    -0.002 C 
ATOM     82  C   UNL A   1      31.434  26.322  24.295  1.00  0.00     0.137 C 
ATOM     83  C   UNL A   1      31.774  25.699  26.500  1.00  0.00     0.016 C 
ATOM     84  C   UNL A   1      31.983  24.915  24.254  1.00  0.00     0.079 C 
ATOM     85  O   UNL A   1      30.821  26.872  23.392  1.00  0.00    -0.299 OA
ENDBRANCH  75  78
ENDBRANCH  73  74
ENDBRANCH  72  73
ENDBRANCH  71  72
ENDBRANCH   1  71
TORSDOF 11
ENDMDL
MODEL 2
REMARK VINA RESULT:     -11.6      0.089      1.184
REMARK SMILES O=C(NCCCCNC(=O)[C@@H]1C[C@@H]2CC(=O)[C@H]1C2)c1ccc(-c2c3nc(c(-c4c(F)c(F)c(F)c(F)c4F)c4ccc([nH]4)c(-c4c(F)c(F)c(F)c(F)c4F)c4nc(c(-c5c(F)c(F)c(F)c(F)c5F)c5ccc2[nH]5)C=C4)C=C3)cc1
REMARK SMILES IDX 4 1 3 2 1 3 2 4 19 6 20 7 81 8 21 9 80 10 22 11 23 12 24 13
REMARK SMILES IDX 74 14 25 15 79 16 73 17 75 18 26 19 78 20 72 21 71 22 27 24
REMARK SMILES IDX 59 25 39 26 58 27 40 28 43 29 57 30 76 31 41 32 42 33 56 35
REMARK SMILES IDX 77 36 44 37 28 38 29 39 37 40 30 41 31 42 35 43 38 44 32 45
REMARK SMILES IDX 33 46 36 47 34 48 60 49 61 50 69 51 62 52 63 53 67 54 70 55
REMARK SMILES IDX 64 56 65 57 68 58 66 59 45 60 46 61 54 62 47 63 48 64 52 65
REMARK SMILES IDX 55 66 49 67 50 68 53 69 51 70 5 71 6 72 7 73 8 74 9 75 10 77
REMARK SMILES IDX 11 78 12 79 17 80 13 81 15 82 18 83 14 84 16 85
REMARK H PARENT 3 5 75 23 43 34 8 76
REMARK Flexibility Score: inf
ROOT
ATOM      1  C   UNL A   1      32.697  32.849  27.237  1.00  0.00     0.116 C 
ENDROOT
BRANCH   1   2
ATOM      2  N   UNL A   1      32.455  34.227  27.649  1.00  0.00    -0.352 N 
ATOM      3  O   UNL A   1      32.652  36.059  28.963  1.00  0.00    -0.269 OA
ATOM      4  C   UNL A   1      33.064  34.947  28.650  1.00  0.00     0.251 C 
ATOM      5  H   UNL A   1      31.762  34.707  27.141  1.00  0.00     0.163 HD
BRANCH   4   6
ATOM      6  C   UNL A   1      34.205  34.346  29.365  1.00  0.00     0.039 A 
ATOM      7  C   UNL A   1      35.503  34.549  28.892  1.00  0.00     0.014 A 
ATOM      8  C   UNL A   1      33.973  33.529  30.473  1.00  0.00     0.014 A 
ATOM      9  C   UNL A   1      36.544  33.797  29.414  1.00  0.00     0.010 A 
ATOM     10  C   UNL A   1      35.044  32.860  31.070  1.00  0.00     0.010 A 
ATOM     11  C   UNL A   1      36.332  32.963  30.524  1.00  0.00    -0.014 A 
BRANCH  11  12
ATOM     12  C   UNL A   1      37.499  32.282  31.140  1.00  0.00     0.031 A 
ATOM     13  C   UNL A   1      37.975  32.634  32.520  1.00  0.00     0.074 A 
ATOM     14  C   UNL A   1      38.109  31.311  30.434  1.00  0.00     0.049 A 
ATOM     15  N   UNL A   1      38.979  32.132  33.195  1.00  0.00    -0.248 NA
ATOM     16  C   UNL A   1      37.242  33.688  33.237  1.00  0.00     0.031 C 
ATOM     17  C   UNL A   1      37.733  30.895  29.079  1.00  0.00     0.029 A 
ATOM     18  N   UNL A   1      39.156  30.487  30.752  1.00  0.00    -0.354 N 
ATOM     19  C   UNL A   1      39.011  32.818  34.402  1.00  0.00     0.074 A 
ATOM     20  C   UNL A   1      37.938  33.789  34.362  1.00  0.00     0.031 C 
ATOM     21  C   UNL A   1      38.503  29.865  28.703  1.00  0.00     0.029 A 
ATOM     22  C   UNL A   1      39.478  29.602  29.753  1.00  0.00     0.049 A 
ATOM     23  H   UNL A   1      39.631  30.526  31.615  1.00  0.00     0.167 HD
ATOM     24  C   UNL A   1      39.858  32.643  35.446  1.00  0.00     0.037 A 
ATOM     25  C   UNL A   1      40.469  28.697  29.676  1.00  0.00     0.037 A 
ATOM     26  C   UNL A   1      40.911  31.659  35.479  1.00  0.00     0.049 A 
ATOM     27  C   UNL A   1      41.409  28.553  30.837  1.00  0.00     0.074 A 
ATOM     28  C   UNL A   1      41.796  31.377  36.507  1.00  0.00     0.029 A 
ATOM     29  N   UNL A   1      41.227  30.799  34.437  1.00  0.00    -0.354 N 
ATOM     30  N   UNL A   1      41.405  29.183  31.986  1.00  0.00    -0.248 NA
ATOM     31  C   UNL A   1      42.495  27.577  30.689  1.00  0.00     0.031 C 
ATOM     32  C   UNL A   1      42.680  30.388  36.066  1.00  0.00     0.029 A 
ATOM     33  C   UNL A   1      42.311  30.007  34.786  1.00  0.00     0.049 A 
ATOM     34  H   UNL A   1      40.751  30.757  33.575  1.00  0.00     0.167 HD
ATOM     35  C   UNL A   1      42.470  28.664  32.707  1.00  0.00     0.074 A 
ATOM     36  C   UNL A   1      43.084  27.650  31.873  1.00  0.00     0.031 C 
ATOM     37  C   UNL A   1      42.905  29.000  33.945  1.00  0.00     0.037 A 
BRANCH  24  38
ATOM     38  C   UNL A   1      39.704  33.541  36.640  1.00  0.00     0.064 A 
ATOM     39  C   UNL A   1      40.326  34.797  36.707  1.00  0.00     0.173 A 
ATOM     40  C   UNL A   1      38.854  33.176  37.696  1.00  0.00     0.173 A 
ATOM     41  F   UNL A   1      41.155  35.193  35.729  1.00  0.00    -0.203 F 
ATOM     42  C   UNL A   1      40.113  35.645  37.791  1.00  0.00     0.198 A 
ATOM     43  C   UNL A   1      38.621  34.038  38.765  1.00  0.00     0.198 A 
ATOM     44  F   UNL A   1      38.226  31.990  37.680  1.00  0.00    -0.203 F 
ATOM     45  F   UNL A   1      40.741  36.828  37.848  1.00  0.00    -0.200 F 
ATOM     46  C   UNL A   1      39.253  35.271  38.812  1.00  0.00     0.200 A 
ATOM     47  F   UNL A   1      37.777  33.680  39.743  1.00  0.00    -0.200 F 
ATOM     48  F   UNL A   1      39.036  36.097  39.845  1.00  0.00    -0.200 F 
ENDBRANCH  24  38
BRANCH  25  49
ATOM     49  C   UNL A   1      40.633  27.882  28.444  1.00  0.00     0.064 A 
ATOM     50  C   UNL A   1      40.024  26.625  28.322  1.00  0.00     0.173 A 
ATOM     51  C   UNL A   1      41.408  28.340  27.368  1.00  0.00     0.173 A 
ATOM     52  F   UNL A   1      39.288  26.138  29.331  1.00  0.00    -0.203 F 
ATOM     53  C   UNL A   1      40.207  25.847  27.181  1.00  0.00     0.198 A 
ATOM     54  C   UNL A   1      41.558  27.578  26.213  1.00  0.00     0.198 A 
ATOM     55  F   UNL A   1      42.005  29.539  27.431  1.00  0.00    -0.203 F 
ATOM     56  F   UNL A   1      39.660  24.626  27.113  1.00  0.00    -0.200 F 
ATOM     57  C   UNL A   1      40.969  26.326  26.125  1.00  0.00     0.200 A 
ATOM     58  F   UNL A   1      42.278  28.053  25.188  1.00  0.00    -0.200 F 
ATOM     59  F   UNL A   1      41.141  25.578  25.027  1.00  0.00    -0.200 F 
ENDBRANCH  25  49
BRANCH  37  60
ATOM     60  C   UNL A   1      44.078  28.235  34.485  1.00  0.00     0.064 A 
ATOM     61  C   UNL A   1      45.394  28.694  34.325  1.00  0.00     0.173 A 
ATOM     62  C   UNL A   1      43.880  27.037  35.189  1.00  0.00     0.173 A 
ATOM     63  F   UNL A   1      45.636  29.825  33.645  1.00  0.00    -0.203 F 
ATOM     64  C   UNL A   1      46.471  27.966  34.822  1.00  0.00     0.198 A 
ATOM     65  C   UNL A   1      44.957  26.329  35.714  1.00  0.00     0.198 A 
ATOM     66  F   UNL A   1      42.641  26.557  35.373  1.00  0.00    -0.203 F 
ATOM     67  F   UNL A   1      47.722  28.393  34.608  1.00  0.00    -0.200 F 
ATOM     68  C   UNL A   1      46.251  26.788  35.522  1.00  0.00     0.200 A 
ATOM     69  F   UNL A   1      44.742  25.199  36.402  1.00  0.00    -0.200 F 
ATOM     70  F   UNL A   1      47.289  26.091  36.004  1.00  0.00    -0.200 F 
ENDBRANCH  37  60
ENDBRANCH  11  12
ENDBRANCH   4   6
ENDBRANCH   1   2
BRANCH   1  71
ATOM     71  C   UNL A   1      31.432  32.121  26.806  1.00  0.00     0.023 C 
BRANCH  71  72
ATOM     72  C   UNL A   1      31.630  30.651  26.464  1.00  0.00     0.023 C 
BRANCH  72  73
ATOM     73  C   UNL A   1      33.078  30.185  26.505  1.00  0.00     0.116 C 
BRANCH  73  74
ATOM     74  N   UNL A   1      33.556  29.703  25.220  1.00  0.00    -0.356 N 
ATOM     75  C   UNL A   1      33.614  28.404  24.786  1.00  0.00     0.223 C 
ATOM     76  H   UNL A   1      33.875  30.388  24.589  1.00  0.00     0.163 HD
ATOM     77  O   UNL A   1      34.043  28.151  23.664  1.00  0.00    -0.275 OA
BRANCH  75  78
ATOM     78  C   UNL A   1      33.159  27.335  25.758  1.00  0.00     0.089 C 
ATOM     79  C   UNL A   1      33.827  25.946  25.663  1.00  0.00     0.018 C 
ATOM     80  C   UNL A   1      31.668  27.000  25.614  1.00  0.00     0.069 C 
ATOM     81  C   UNL A   1      32.620  24.975  25.704  1.00  0.00    -0.002 C 
ATOM     82  C   UNL A   1      31.455  26.340  24.262  1.00  0.00     0.137 C 
ATOM     83  C   UNL A   1      31.574  25.763  26.502  1.00  0.00     0.016 C 
ATOM     84  C   UNL A   1      31.980  24.924  24.304  1.00  0.00     0.079 C 
ATOM     85  O   UNL A   1      30.939  26.878  23.293  1.00  0.00    -0.299 OA
ENDBRANCH  75  78
ENDBRANCH  73  74
ENDBRANCH  72  73
ENDBRANCH  71  72
ENDBRANCH   1  71
TORSDOF 11
ENDMDL
MODEL 3
REMARK VINA RESULT:     -11.5      0.456      7.772
REMARK SMILES O=C(NCCCCNC(=O)[C@@H]1C[C@@H]2CC(=O)[C@H]1C2)c1ccc(-c2c3nc(c(-c4c(F)c(F)c(F)c(F)c4F)c4ccc([nH]4)c(-c4c(F)c(F)c(F)c(F)c4F)c4nc(c(-c5c(F)c(F)c(F)c(F)c5F)c5ccc2[nH]5)C=C4)C=C3)cc1
REMARK SMILES IDX 4 1 3 2 1 3 2 4 19 6 20 7 81 8 21 9 80 10 22 11 23 12 24 13
REMARK SMILES IDX 74 14 25 15 79 16 73 17 75 18 26 19 78 20 72 21 71 22 27 24
REMARK SMILES IDX 59 25 39 26 58 27 40 28 43 29 57 30 76 31 41 32 42 33 56 35
REMARK SMILES IDX 77 36 44 37 28 38 29 39 37 40 30 41 31 42 35 43 38 44 32 45
REMARK SMILES IDX 33 46 36 47 34 48 60 49 61 50 69 51 62 52 63 53 67 54 70 55
REMARK SMILES IDX 64 56 65 57 68 58 66 59 45 60 46 61 54 62 47 63 48 64 52 65
REMARK SMILES IDX 55 66 49 67 50 68 53 69 51 70 5 71 6 72 7 73 8 74 9 75 10 77
REMARK SMILES IDX 11 78 12 79 17 80 13 81 15 82 18 83 14 84 16 85
REMARK H PARENT 3 5 75 23 43 34 8 76
REMARK Flexibility Score: inf
ROOT
ATOM      1  C   UNL A   1      32.677  32.827  27.260  1.00  0.00     0.116 C 
ENDROOT
BRANCH   1   2
ATOM      2  N   UNL A   1      32.425  34.210  27.644  1.00  0.00    -0.352 N 
ATOM      3  O   UNL A   1      32.601  36.066  28.927  1.00  0.00    -0.269 OA
ATOM      4  C   UNL A   1      33.020  34.951  28.638  1.00  0.00     0.251 C 
ATOM      5  H   UNL A   1      31.736  34.678  27.120  1.00  0.00     0.163 HD
BRANCH   4   6
ATOM      6  C   UNL A   1      34.156  34.367  29.376  1.00  0.00     0.039 A 
ATOM      7  C   UNL A   1      35.460  34.582  28.924  1.00  0.00     0.014 A 
ATOM      8  C   UNL A   1      33.914  33.554  30.485  1.00  0.00     0.014 A 
ATOM      9  C   UNL A   1      36.500  33.846  29.468  1.00  0.00     0.010 A 
ATOM     10  C   UNL A   1      34.983  32.900  31.105  1.00  0.00     0.010 A 
ATOM     11  C   UNL A   1      36.279  33.015  30.579  1.00  0.00    -0.014 A 
BRANCH  11  12
ATOM     12  C   UNL A   1      37.442  32.352  31.219  1.00  0.00     0.031 A 
ATOM     13  C   UNL A   1      38.207  31.263  30.523  1.00  0.00     0.074 A 
ATOM     14  C   UNL A   1      37.817  32.775  32.442  1.00  0.00     0.049 A 
ATOM     15  N   UNL A   1      39.243  30.584  30.950  1.00  0.00    -0.248 NA
ATOM     16  C   UNL A   1      37.751  30.873  29.179  1.00  0.00     0.031 C 
ATOM     17  C   UNL A   1      37.139  33.821  33.213  1.00  0.00     0.029 A 
ATOM     18  N   UNL A   1      38.860  32.397  33.246  1.00  0.00    -0.354 N 
ATOM     19  C   UNL A   1      39.551  29.680  29.943  1.00  0.00     0.074 A 
ATOM     20  C   UNL A   1      38.579  29.878  28.888  1.00  0.00     0.031 C 
ATOM     21  C   UNL A   1      37.809  34.035  34.353  1.00  0.00     0.029 A 
ATOM     22  C   UNL A   1      38.914  33.088  34.431  1.00  0.00     0.049 A 
ATOM     23  H   UNL A   1      39.509  31.699  32.997  1.00  0.00     0.167 HD
ATOM     24  C   UNL A   1      40.558  28.774  29.906  1.00  0.00     0.037 A 
ATOM     25  C   UNL A   1      39.742  32.954  35.482  1.00  0.00     0.037 A 
ATOM     26  C   UNL A   1      41.531  28.599  30.956  1.00  0.00     0.049 A 
ATOM     27  C   UNL A   1      40.826  31.918  35.421  1.00  0.00     0.074 A 
ATOM     28  C   UNL A   1      42.612  27.736  30.995  1.00  0.00     0.029 A 
ATOM     29  N   UNL A   1      41.536  29.297  32.156  1.00  0.00    -0.354 N 
ATOM     30  N   UNL A   1      41.128  31.094  34.447  1.00  0.00    -0.248 NA
ATOM     31  C   UNL A   1      41.681  31.788  36.607  1.00  0.00     0.031 C 
ATOM     32  C   UNL A   1      43.238  27.871  32.239  1.00  0.00     0.029 A 
ATOM     33  C   UNL A   1      42.585  28.862  32.953  1.00  0.00     0.049 A 
ATOM     34  H   UNL A   1      40.891  29.998  32.405  1.00  0.00     0.167 HD
ATOM     35  C   UNL A   1      42.220  30.366  34.892  1.00  0.00     0.074 A 
ATOM     36  C   UNL A   1      42.542  30.862  36.215  1.00  0.00     0.031 C 
ATOM     37  C   UNL A   1      42.893  29.371  34.265  1.00  0.00     0.037 A 
BRANCH  24  38
ATOM     38  C   UNL A   1      40.662  27.879  28.703  1.00  0.00     0.064 A 
ATOM     39  C   UNL A   1      39.952  26.673  28.614  1.00  0.00     0.173 A 
ATOM     40  C   UNL A   1      41.418  28.277  27.589  1.00  0.00     0.173 A 
ATOM     41  F   UNL A   1      39.220  26.242  29.653  1.00  0.00    -0.203 F 
ATOM     42  C   UNL A   1      40.005  25.894  27.461  1.00  0.00     0.198 A 
ATOM     43  C   UNL A   1      41.447  27.509  26.427  1.00  0.00     0.198 A 
ATOM     44  F   UNL A   1      42.110  29.426  27.616  1.00  0.00    -0.203 F 
ATOM     45  F   UNL A   1      39.342  24.730  27.410  1.00  0.00    -0.200 F 
ATOM     46  C   UNL A   1      40.743  26.317  26.365  1.00  0.00     0.200 A 
ATOM     47  F   UNL A   1      42.148  27.928  25.364  1.00  0.00    -0.200 F 
ATOM     48  F   UNL A   1      40.778  25.573  25.250  1.00  0.00    -0.200 F 
ENDBRANCH  24  38
BRANCH  25  49
ATOM     49  C   UNL A   1      39.556  33.808  36.684  1.00  0.00     0.064 A 
ATOM     50  C   UNL A   1      38.798  33.365  37.776  1.00  0.00     0.173 A 
ATOM     51  C   UNL A   1      40.130  35.086  36.763  1.00  0.00     0.173 A 
ATOM     52  F   UNL A   1      38.217  32.157  37.741  1.00  0.00    -0.203 F 
ATOM     53  C   UNL A   1      38.596  34.179  38.888  1.00  0.00     0.198 A 
ATOM     54  C   UNL A   1      39.959  35.884  37.891  1.00  0.00     0.198 A 
ATOM     55  F   UNL A   1      40.872  35.554  35.749  1.00  0.00    -0.203 F 
ATOM     56  F   UNL A   1      37.820  33.754  39.894  1.00  0.00    -0.200 F 
ATOM     57  C   UNL A   1      39.182  35.435  38.947  1.00  0.00     0.200 A 
ATOM     58  F   UNL A   1      40.544  37.088  37.952  1.00  0.00    -0.200 F 
ATOM     59  F   UNL A   1      38.990  36.217  40.019  1.00  0.00    -0.200 F 
ENDBRANCH  25  49
BRANCH  37  60
ATOM     60  C   UNL A   1      44.068  28.782  34.989  1.00  0.00     0.064 A 
ATOM     61  C   UNL A   1      45.361  29.309  34.850  1.00  0.00     0.173 A 
ATOM     62  C   UNL A   1      43.893  27.687  35.850  1.00  0.00     0.173 A 
ATOM     63  F   UNL A   1      45.582  30.344  34.025  1.00  0.00    -0.203 F 
ATOM     64  C   UNL A   1      46.440  28.742  35.521  1.00  0.00     0.198 A 
ATOM     65  C   UNL A   1      44.970  27.144  36.545  1.00  0.00     0.198 A 
ATOM     66  F   UNL A   1      42.676  27.149  36.022  1.00  0.00    -0.203 F 
ATOM     67  F   UNL A   1      47.675  29.225  35.328  1.00  0.00    -0.200 F 
ATOM     68  C   UNL A   1      46.242  27.665  36.373  1.00  0.00     0.200 A 
ATOM     69  F   UNL A   1      44.774  26.113  37.379  1.00  0.00    -0.200 F 
ATOM     70  F   UNL A   1      47.282  27.124  37.022  1.00  0.00    -0.200 F 
ENDBRANCH  37  60
ENDBRANCH  11  12
ENDBRANCH   4   6
ENDBRANCH   1   2
BRANCH   1  71
ATOM     71  C   UNL A   1      31.470  32.152  26.625  1.00  0.00     0.023 C 
BRANCH  71  72
ATOM     72  C   UNL A   1      31.618  30.651  26.415  1.00  0.00     0.023 C 
BRANCH  72  73
ATOM     73  C   UNL A   1      33.049  30.141  26.503  1.00  0.00     0.116 C 
BRANCH  73  74
ATOM     74  N   UNL A   1      33.580  29.714  25.220  1.00  0.00    -0.356 N 
ATOM     75  C   UNL A   1      33.722  28.430  24.763  1.00  0.00     0.223 C 
ATOM     76  H   UNL A   1      33.872  30.429  24.610  1.00  0.00     0.163 HD
ATOM     77  O   UNL A   1      34.187  28.224  23.646  1.00  0.00    -0.275 OA
BRANCH  75  78
ATOM     78  C   UNL A   1      33.310  27.317  25.704  1.00  0.00     0.089 C 
ATOM     79  C   UNL A   1      33.999  25.944  25.539  1.00  0.00     0.018 C 
ATOM     80  C   UNL A   1      31.821  26.961  25.585  1.00  0.00     0.069 C 
ATOM     81  C   UNL A   1      32.809  24.952  25.573  1.00  0.00    -0.002 C 
ATOM     82  C   UNL A   1      31.584  26.349  24.214  1.00  0.00     0.137 C 
ATOM     83  C   UNL A   1      31.771  25.690  26.427  1.00  0.00     0.016 C 
ATOM     84  C   UNL A   1      32.134  24.942  24.189  1.00  0.00     0.079 C 
ATOM     85  O   UNL A   1      31.035  26.915  23.280  1.00  0.00    -0.299 OA
ENDBRANCH  75  78
ENDBRANCH  73  74
ENDBRANCH  72  73
ENDBRANCH  71  72
ENDBRANCH   1  71
TORSDOF 11
ENDMDL
