MODEL 1
REMARK VINA RESULT:     -12.0      0.000      0.000
REMARK SMILES CCC(CC)(NC(=O)c1ccc(NC(C)=O)cc1)C(=O)NCCCCNC(=O)c1ccc(-c2c3nc(c(-c4c(F)c(F)c(F)c(F)c4F)c4ccc([nH]4)c(-c4c(F)c(F)c(F)c(F)c4F)c4nc(c(-c5c(F)c(F)c(F)c(F)c5F)c5ccc2[nH]5)C=C4)C=C3)cc1
REMARK SMILES IDX 23 1 22 2 21 3 19 4 20 5 3 7 2 8 1 9 4 10 5 11 6 12 7 13
REMARK SMILES IDX 8 15 9 16 10 17 18 18 11 19 17 20 12 21 13 22 14 23 15 25
REMARK SMILES IDX 16 26 24 27 25 28 26 29 27 30 28 32 29 33 30 34 91 35 31 36
REMARK SMILES IDX 90 37 32 38 33 39 34 40 84 41 35 42 89 43 83 44 85 45 36 46
REMARK SMILES IDX 88 47 82 48 81 49 37 51 69 52 49 53 68 54 50 55 53 56 67 57
REMARK SMILES IDX 86 58 51 59 52 60 66 62 87 63 54 64 38 65 39 66 47 67 40 68
REMARK SMILES IDX 41 69 45 70 48 71 42 72 43 73 46 74 44 75 70 76 71 77 79 78
REMARK SMILES IDX 72 79 73 80 77 81 80 82 74 83 75 84 78 85 76 86 55 87 56 88
REMARK SMILES IDX 64 89 57 90 58 91 62 92 65 93 59 94 60 95 63 96 61 97
REMARK H PARENT 21 6 6 14 13 24 26 31 85 50 53 61
REMARK Flexibility Score: inf
ROOT
ATOM      1  C   UNL A   1      37.441  20.839  24.662  1.00  0.00     0.023 C 
ENDROOT
BRANCH   1   2
ATOM      2  C   UNL A   1      35.942  20.779  24.947  1.00  0.00     0.116 C 
BRANCH   2   3
ATOM      3  N   UNL A   1      35.487  21.086  26.295  1.00  0.00    -0.354 N 
ATOM      4  C   UNL A   1      34.339  21.643  26.793  1.00  0.00     0.245 C 
ATOM      5  O   UNL A   1      34.146  21.456  28.001  1.00  0.00    -0.272 OA
ATOM      6  H   UNL A   1      36.138  20.842  26.992  1.00  0.00     0.163 HD
BRANCH   4   7
ATOM      7  C   UNL A   1      33.292  22.393  25.907  1.00  0.00     0.118 C 
BRANCH   7   8
ATOM      8  C   UNL A   1      33.182  21.863  24.444  1.00  0.00     0.035 C 
ATOM      9  C   UNL A   1      32.332  20.630  24.168  1.00  0.00     0.007 C 
ENDBRANCH   7   8
BRANCH   7  10
ATOM     10  C   UNL A   1      33.868  23.852  25.920  1.00  0.00     0.035 C 
ATOM     11  C   UNL A   1      34.180  24.513  24.589  1.00  0.00     0.007 C 
ENDBRANCH   7  10
BRANCH   7  12
ATOM     12  N   UNL A   1      31.900  22.346  26.459  1.00  0.00    -0.338 N 
ATOM     13  C   UNL A   1      30.902  23.298  26.647  1.00  0.00     0.252 C 
ATOM     14  H   UNL A   1      31.633  21.444  26.753  1.00  0.00     0.164 HD
ATOM     15  O   UNL A   1      30.127  23.074  27.582  1.00  0.00    -0.269 OA
BRANCH  13  16
ATOM     16  C   UNL A   1      30.607  24.490  25.772  1.00  0.00     0.039 A 
ATOM     17  C   UNL A   1      30.382  24.319  24.392  1.00  0.00     0.016 A 
ATOM     18  C   UNL A   1      30.694  25.801  26.206  1.00  0.00     0.016 A 
ATOM     19  C   UNL A   1      30.322  25.424  23.501  1.00  0.00     0.027 A 
ATOM     20  C   UNL A   1      30.654  26.894  25.346  1.00  0.00     0.027 A 
ATOM     21  C   UNL A   1      30.493  26.720  23.982  1.00  0.00     0.041 A 
BRANCH  21  22
ATOM     22  N   UNL A   1      30.557  27.906  23.235  1.00  0.00    -0.326 N 
ATOM     23  C   UNL A   1      29.538  28.689  22.754  1.00  0.00     0.221 C 
ATOM     24  H   UNL A   1      31.465  28.222  23.025  1.00  0.00     0.169 HD
ATOM     25  C   UNL A   1      30.063  29.852  21.939  1.00  0.00     0.114 C 
ATOM     26  O   UNL A   1      28.333  28.519  22.938  1.00  0.00    -0.275 OA
ENDBRANCH  21  22
ENDBRANCH  13  16
ENDBRANCH   7  12
ENDBRANCH   4   7
ENDBRANCH   2   3
ENDBRANCH   1   2
BRANCH   1  27
ATOM     27  C   UNL A   1      38.295  19.621  25.001  1.00  0.00     0.023 C 
BRANCH  27  28
ATOM     28  C   UNL A   1      39.307  19.793  26.118  1.00  0.00     0.116 C 
BRANCH  28  29
ATOM     29  N   UNL A   1      40.430  18.879  26.009  1.00  0.00    -0.352 N 
ATOM     30  C   UNL A   1      41.774  19.149  26.031  1.00  0.00     0.251 C 
ATOM     31  H   UNL A   1      40.192  17.930  25.905  1.00  0.00     0.163 HD
ATOM     32  O   UNL A   1      42.581  18.251  25.793  1.00  0.00    -0.269 OA
BRANCH  30  33
ATOM     33  C   UNL A   1      42.265  20.515  26.318  1.00  0.00     0.039 A 
ATOM     34  C   UNL A   1      42.558  21.360  25.243  1.00  0.00     0.014 A 
ATOM     35  C   UNL A   1      42.460  20.961  27.628  1.00  0.00     0.014 A 
ATOM     36  C   UNL A   1      43.005  22.662  25.482  1.00  0.00     0.010 A 
ATOM     37  C   UNL A   1      42.834  22.281  27.866  1.00  0.00     0.010 A 
ATOM     38  C   UNL A   1      43.124  23.140  26.796  1.00  0.00    -0.014 A 
BRANCH  38  39
ATOM     39  C   UNL A   1      43.587  24.523  27.073  1.00  0.00     0.031 A 
ATOM     40  C   UNL A   1      42.620  25.546  27.599  1.00  0.00     0.074 A 
ATOM     41  C   UNL A   1      44.858  24.873  26.798  1.00  0.00     0.049 A 
ATOM     42  N   UNL A   1      42.804  26.822  27.830  1.00  0.00    -0.248 NA
ATOM     43  C   UNL A   1      41.251  25.080  27.871  1.00  0.00     0.031 C 
ATOM     44  C   UNL A   1      45.880  23.984  26.244  1.00  0.00     0.029 A 
ATOM     45  N   UNL A   1      45.504  26.077  26.939  1.00  0.00    -0.354 N 
ATOM     46  C   UNL A   1      41.576  27.310  28.256  1.00  0.00     0.074 A 
ATOM     47  C   UNL A   1      40.640  26.209  28.201  1.00  0.00     0.031 C 
ATOM     48  C   UNL A   1      47.028  24.666  26.107  1.00  0.00     0.029 A 
ATOM     49  C   UNL A   1      46.816  26.047  26.535  1.00  0.00     0.049 A 
ATOM     50  H   UNL A   1      45.068  26.884  27.295  1.00  0.00     0.167 HD
ATOM     51  C   UNL A   1      41.263  28.557  28.681  1.00  0.00     0.037 A 
ATOM     52  C   UNL A   1      47.742  27.024  26.509  1.00  0.00     0.037 A 
ATOM     53  C   UNL A   1      42.205  29.642  28.769  1.00  0.00     0.049 A 
ATOM     54  C   UNL A   1      47.374  28.398  26.999  1.00  0.00     0.074 A 
ATOM     55  C   UNL A   1      42.000  30.928  29.238  1.00  0.00     0.029 A 
ATOM     56  N   UNL A   1      43.534  29.564  28.380  1.00  0.00    -0.354 N 
ATOM     57  N   UNL A   1      46.223  28.834  27.452  1.00  0.00    -0.248 NA
ATOM     58  C   UNL A   1      48.435  29.414  26.982  1.00  0.00     0.031 C 
ATOM     59  C   UNL A   1      43.197  31.640  29.099  1.00  0.00     0.029 A 
ATOM     60  C   UNL A   1      44.158  30.784  28.585  1.00  0.00     0.049 A 
ATOM     61  H   UNL A   1      43.969  28.761  28.015  1.00  0.00     0.167 HD
ATOM     62  C   UNL A   1      46.427  30.164  27.798  1.00  0.00     0.074 A 
ATOM     63  C   UNL A   1      47.816  30.460  27.513  1.00  0.00     0.031 C 
ATOM     64  C   UNL A   1      45.543  31.059  28.302  1.00  0.00     0.037 A 
BRANCH  51  65
ATOM     65  C   UNL A   1      39.842  28.812  29.091  1.00  0.00     0.064 A 
ATOM     66  C   UNL A   1      39.415  28.634  30.417  1.00  0.00     0.173 A 
ATOM     67  C   UNL A   1      38.899  29.265  28.156  1.00  0.00     0.173 A 
ATOM     68  F   UNL A   1      40.273  28.189  31.347  1.00  0.00    -0.203 F 
ATOM     69  C   UNL A   1      38.092  28.866  30.782  1.00  0.00     0.198 A 
ATOM     70  C   UNL A   1      37.584  29.526  28.531  1.00  0.00     0.198 A 
ATOM     71  F   UNL A   1      39.254  29.457  26.876  1.00  0.00    -0.203 F 
ATOM     72  F   UNL A   1      37.696  28.637  32.042  1.00  0.00    -0.200 F 
ATOM     73  C   UNL A   1      37.180  29.319  29.841  1.00  0.00     0.200 A 
ATOM     74  F   UNL A   1      36.706  29.974  27.623  1.00  0.00    -0.200 F 
ATOM     75  F   UNL A   1      35.907  29.546  30.194  1.00  0.00    -0.200 F 
ENDBRANCH  51  65
BRANCH  52  76
ATOM     76  C   UNL A   1      49.115  26.730  26.024  1.00  0.00     0.064 A 
ATOM     77  C   UNL A   1      49.481  26.995  24.697  1.00  0.00     0.173 A 
ATOM     78  C   UNL A   1      50.087  26.182  26.873  1.00  0.00     0.173 A 
ATOM     79  F   UNL A   1      48.578  27.497  23.842  1.00  0.00    -0.203 F 
ATOM     80  C   UNL A   1      50.762  26.708  24.233  1.00  0.00     0.198 A 
ATOM     81  C   UNL A   1      51.376  25.920  26.415  1.00  0.00     0.198 A 
ATOM     82  F   UNL A   1      49.786  25.915  28.152  1.00  0.00    -0.203 F 
ATOM     83  F   UNL A   1      51.073  26.931  22.949  1.00  0.00    -0.200 F 
ATOM     84  C   UNL A   1      51.711  26.176  25.093  1.00  0.00     0.200 A 
ATOM     85  F   UNL A   1      52.292  25.415  27.252  1.00  0.00    -0.200 F 
ATOM     86  F   UNL A   1      52.945  25.903  24.648  1.00  0.00    -0.200 F 
ENDBRANCH  52  76
BRANCH  64  87
ATOM     87  C   UNL A   1      46.057  32.435  28.606  1.00  0.00     0.064 A 
ATOM     88  C   UNL A   1      46.620  32.750  29.851  1.00  0.00     0.173 A 
ATOM     89  C   UNL A   1      46.025  33.438  27.625  1.00  0.00     0.173 A 
ATOM     90  F   UNL A   1      46.661  31.829  30.826  1.00  0.00    -0.203 F 
ATOM     91  C   UNL A   1      47.113  34.026  30.110  1.00  0.00     0.198 A 
ATOM     92  C   UNL A   1      46.543  34.703  27.878  1.00  0.00     0.198 A 
ATOM     93  F   UNL A   1      45.503  33.183  26.415  1.00  0.00    -0.203 F 
ATOM     94  F   UNL A   1      47.608  34.318  31.321  1.00  0.00    -0.200 F 
ATOM     95  C   UNL A   1      47.081  34.999  29.121  1.00  0.00     0.200 A 
ATOM     96  F   UNL A   1      46.524  35.639  26.918  1.00  0.00    -0.200 F 
ATOM     97  F   UNL A   1      47.563  36.224  29.370  1.00  0.00    -0.200 F 
ENDBRANCH  64  87
ENDBRANCH  38  39
ENDBRANCH  30  33
ENDBRANCH  28  29
ENDBRANCH  27  28
ENDBRANCH   1  27
TORSDOF 16
ENDMDL
MODEL 2
REMARK VINA RESULT:     -12.0      5.441     11.136
REMARK SMILES CCC(CC)(NC(=O)c1ccc(NC(C)=O)cc1)C(=O)NCCCCNC(=O)c1ccc(-c2c3nc(c(-c4c(F)c(F)c(F)c(F)c4F)c4ccc([nH]4)c(-c4c(F)c(F)c(F)c(F)c4F)c4nc(c(-c5c(F)c(F)c(F)c(F)c5F)c5ccc2[nH]5)C=C4)C=C3)cc1
REMARK SMILES IDX 23 1 22 2 21 3 19 4 20 5 3 7 2 8 1 9 4 10 5 11 6 12 7 13
REMARK SMILES IDX 8 15 9 16 10 17 18 18 11 19 17 20 12 21 13 22 14 23 15 25
REMARK SMILES IDX 16 26 24 27 25 28 26 29 27 30 28 32 29 33 30 34 91 35 31 36
REMARK SMILES IDX 90 37 32 38 33 39 34 40 84 41 35 42 89 43 83 44 85 45 36 46
REMARK SMILES IDX 88 47 82 48 81 49 37 51 69 52 49 53 68 54 50 55 53 56 67 57
REMARK SMILES IDX 86 58 51 59 52 60 66 62 87 63 54 64 38 65 39 66 47 67 40 68
REMARK SMILES IDX 41 69 45 70 48 71 42 72 43 73 46 74 44 75 70 76 71 77 79 78
REMARK SMILES IDX 72 79 73 80 77 81 80 82 74 83 75 84 78 85 76 86 55 87 56 88
REMARK SMILES IDX 64 89 57 90 58 91 62 92 65 93 59 94 60 95 63 96 61 97
REMARK H PARENT 21 6 6 14 13 24 26 31 85 50 53 61
REMARK Flexibility Score: inf
ROOT
ATOM      1  C   UNL A   1      31.363  30.870  25.783  1.00  0.00     0.023 C 
ENDROOT
BRANCH   1   2
ATOM      2  C   UNL A   1      32.462  29.811  25.845  1.00  0.00     0.116 C 
BRANCH   2   3
ATOM      3  N   UNL A   1      33.363  29.689  24.708  1.00  0.00    -0.354 N 
ATOM      4  C   UNL A   1      33.446  28.801  23.668  1.00  0.00     0.245 C 
ATOM      5  O   UNL A   1      34.125  29.182  22.707  1.00  0.00    -0.272 OA
ATOM      6  H   UNL A   1      34.055  30.389  24.682  1.00  0.00     0.163 HD
BRANCH   4   7
ATOM      7  C   UNL A   1      32.682  27.438  23.639  1.00  0.00     0.118 C 
BRANCH   7   8
ATOM      8  C   UNL A   1      31.234  27.493  24.218  1.00  0.00     0.035 C 
ATOM      9  C   UNL A   1      30.146  28.195  23.418  1.00  0.00     0.007 C 
ENDBRANCH   7   8
BRANCH   7  10
ATOM     10  C   UNL A   1      33.604  26.550  24.547  1.00  0.00     0.035 C 
ATOM     11  C   UNL A   1      33.002  25.938  25.799  1.00  0.00     0.007 C 
ENDBRANCH   7  10
BRANCH   7  12
ATOM     12  N   UNL A   1      32.544  26.861  22.263  1.00  0.00    -0.338 N 
ATOM     13  C   UNL A   1      32.832  25.620  21.702  1.00  0.00     0.252 C 
ATOM     14  H   UNL A   1      32.168  27.500  21.614  1.00  0.00     0.164 HD
ATOM     15  O   UNL A   1      33.115  25.636  20.500  1.00  0.00    -0.269 OA
BRANCH  13  16
ATOM     16  C   UNL A   1      32.724  24.273  22.371  1.00  0.00     0.039 A 
ATOM     17  C   UNL A   1      31.539  23.907  23.039  1.00  0.00     0.016 A 
ATOM     18  C   UNL A   1      33.787  23.400  22.516  1.00  0.00     0.016 A 
ATOM     19  C   UNL A   1      31.472  22.752  23.864  1.00  0.00     0.027 A 
ATOM     20  C   UNL A   1      33.745  22.275  23.332  1.00  0.00     0.027 A 
ATOM     21  C   UNL A   1      32.598  21.950  24.036  1.00  0.00     0.041 A 
BRANCH  21  22
ATOM     22  N   UNL A   1      32.732  20.837  24.881  1.00  0.00    -0.326 N 
ATOM     23  C   UNL A   1      32.588  19.503  24.596  1.00  0.00     0.221 C 
ATOM     24  H   UNL A   1      32.963  21.045  25.815  1.00  0.00     0.169 HD
ATOM     25  C   UNL A   1      32.761  18.645  25.831  1.00  0.00     0.114 C 
ATOM     26  O   UNL A   1      32.356  19.010  23.493  1.00  0.00    -0.275 OA
ENDBRANCH  21  22
ENDBRANCH  13  16
ENDBRANCH   7  12
ENDBRANCH   4   7
ENDBRANCH   2   3
ENDBRANCH   1   2
BRANCH   1  27
ATOM     27  C   UNL A   1      31.344  31.961  26.849  1.00  0.00     0.023 C 
BRANCH  27  28
ATOM     28  C   UNL A   1      32.646  32.703  27.082  1.00  0.00     0.116 C 
BRANCH  28  29
ATOM     29  N   UNL A   1      32.447  34.063  27.550  1.00  0.00    -0.352 N 
ATOM     30  C   UNL A   1      33.102  34.744  28.544  1.00  0.00     0.251 C 
ATOM     31  H   UNL A   1      31.740  34.568  27.089  1.00  0.00     0.163 HD
ATOM     32  O   UNL A   1      32.703  35.857  28.888  1.00  0.00    -0.269 OA
BRANCH  30  33
ATOM     33  C   UNL A   1      34.273  34.147  29.223  1.00  0.00     0.039 A 
ATOM     34  C   UNL A   1      34.053  33.214  30.241  1.00  0.00     0.014 A 
ATOM     35  C   UNL A   1      35.579  34.513  28.883  1.00  0.00     0.014 A 
ATOM     36  C   UNL A   1      35.139  32.618  30.887  1.00  0.00     0.010 A 
ATOM     37  C   UNL A   1      36.660  33.865  29.476  1.00  0.00     0.010 A 
ATOM     38  C   UNL A   1      36.451  32.923  30.494  1.00  0.00    -0.014 A 
BRANCH  38  39
ATOM     39  C   UNL A   1      37.620  32.294  31.159  1.00  0.00     0.031 A 
ATOM     40  C   UNL A   1      38.399  31.222  30.450  1.00  0.00     0.074 A 
ATOM     41  C   UNL A   1      37.944  32.644  32.418  1.00  0.00     0.049 A 
ATOM     42  N   UNL A   1      39.399  30.496  30.887  1.00  0.00    -0.248 NA
ATOM     43  C   UNL A   1      37.978  30.899  29.078  1.00  0.00     0.031 C 
ATOM     44  C   UNL A   1      37.238  33.639  33.228  1.00  0.00     0.029 A 
ATOM     45  N   UNL A   1      38.946  32.194  33.242  1.00  0.00    -0.354 N 
ATOM     46  C   UNL A   1      39.712  29.624  29.852  1.00  0.00     0.074 A 
ATOM     47  C   UNL A   1      38.764  29.873  28.787  1.00  0.00     0.031 C 
ATOM     48  C   UNL A   1      37.838  33.736  34.425  1.00  0.00     0.029 A 
ATOM     49  C   UNL A   1      38.950  32.791  34.479  1.00  0.00     0.049 A 
ATOM     50  H   UNL A   1      39.598  31.508  32.971  1.00  0.00     0.167 HD
ATOM     51  C   UNL A   1      40.715  28.717  29.783  1.00  0.00     0.037 A 
ATOM     52  C   UNL A   1      39.759  32.593  35.538  1.00  0.00     0.037 A 
ATOM     53  C   UNL A   1      41.678  28.497  30.830  1.00  0.00     0.049 A 
ATOM     54  C   UNL A   1      40.875  31.590  35.434  1.00  0.00     0.074 A 
ATOM     55  C   UNL A   1      42.765  27.641  30.837  1.00  0.00     0.029 A 
ATOM     56  N   UNL A   1      41.669  29.145  32.057  1.00  0.00    -0.354 N 
ATOM     57  N   UNL A   1      41.195  30.811  34.429  1.00  0.00    -0.248 NA
ATOM     58  C   UNL A   1      41.748  31.445  36.607  1.00  0.00     0.031 C 
ATOM     59  C   UNL A   1      43.394  27.743  32.084  1.00  0.00     0.029 A 
ATOM     60  C   UNL A   1      42.724  28.695  32.836  1.00  0.00     0.049 A 
ATOM     61  H   UNL A   1      41.012  29.823  32.333  1.00  0.00     0.167 HD
ATOM     62  C   UNL A   1      42.318  30.103  34.837  1.00  0.00     0.074 A 
ATOM     63  C   UNL A   1      42.631  30.555  36.177  1.00  0.00     0.031 C 
ATOM     64  C   UNL A   1      43.024  29.161  34.164  1.00  0.00     0.037 A 
BRANCH  51  65
ATOM     65  C   UNL A   1      40.824  27.900  28.530  1.00  0.00     0.064 A 
ATOM     66  C   UNL A   1      41.598  28.326  27.439  1.00  0.00     0.173 A 
ATOM     67  C   UNL A   1      40.171  26.662  28.426  1.00  0.00     0.173 A 
ATOM     68  F   UNL A   1      42.231  29.507  27.481  1.00  0.00    -0.203 F 
ATOM     69  C   UNL A   1      41.685  27.561  26.279  1.00  0.00     0.198 A 
ATOM     70  C   UNL A   1      40.285  25.885  27.276  1.00  0.00     0.198 A 
ATOM     71  F   UNL A   1      39.422  26.205  29.441  1.00  0.00    -0.203 F 
ATOM     72  F   UNL A   1      42.386  28.014  25.230  1.00  0.00    -0.200 F 
ATOM     73  C   UNL A   1      41.035  26.338  26.201  1.00  0.00     0.200 A 
ATOM     74  F   UNL A   1      39.666  24.699  27.206  1.00  0.00    -0.200 F 
ATOM     75  F   UNL A   1      41.122  25.601  25.085  1.00  0.00    -0.200 F 
ENDBRANCH  51  65
BRANCH  52  76
ATOM     76  C   UNL A   1      39.556  33.383  36.780  1.00  0.00     0.064 A 
ATOM     77  C   UNL A   1      40.274  34.565  37.005  1.00  0.00     0.173 A 
ATOM     78  C   UNL A   1      38.642  32.976  37.763  1.00  0.00     0.173 A 
ATOM     79  F   UNL A   1      41.175  34.982  36.103  1.00  0.00    -0.203 F 
ATOM     80  C   UNL A   1      40.098  35.302  38.173  1.00  0.00     0.198 A 
ATOM     81  C   UNL A   1      38.450  33.727  38.919  1.00  0.00     0.198 A 
ATOM     82  F   UNL A   1      37.929  31.853  37.591  1.00  0.00    -0.203 F 
ATOM     83  F   UNL A   1      40.829  36.406  38.383  1.00  0.00    -0.200 F 
ATOM     84  C   UNL A   1      39.182  34.887  39.128  1.00  0.00     0.200 A 
ATOM     85  F   UNL A   1      37.556  33.327  39.834  1.00  0.00    -0.200 F 
ATOM     86  F   UNL A   1      39.011  35.597  40.251  1.00  0.00    -0.200 F 
ENDBRANCH  52  76
BRANCH  64  87
ATOM     87  C   UNL A   1      44.222  28.578  34.854  1.00  0.00     0.064 A 
ATOM     88  C   UNL A   1      45.485  29.181  34.769  1.00  0.00     0.173 A 
ATOM     89  C   UNL A   1      44.094  27.425  35.645  1.00  0.00     0.173 A 
ATOM     90  F   UNL A   1      45.660  30.275  34.014  1.00  0.00    -0.203 F 
ATOM     91  C   UNL A   1      46.582  28.638  35.433  1.00  0.00     0.198 A 
ATOM     92  C   UNL A   1      45.186  26.902  36.329  1.00  0.00     0.198 A 
ATOM     93  F   UNL A   1      42.904  26.816  35.764  1.00  0.00    -0.203 F 
ATOM     94  F   UNL A   1      47.789  29.206  35.303  1.00  0.00    -0.200 F 
ATOM     95  C   UNL A   1      46.430  27.504  36.218  1.00  0.00     0.200 A 
ATOM     96  F   UNL A   1      45.035  25.815  37.097  1.00  0.00    -0.200 F 
ATOM     97  F   UNL A   1      47.486  26.989  36.863  1.00  0.00    -0.200 F 
ENDBRANCH  64  87
ENDBRANCH  38  39
ENDBRANCH  30  33
ENDBRANCH  28  29
ENDBRANCH  27  28
ENDBRANCH   1  27
TORSDOF 16
ENDMDL
MODEL 3
REMARK VINA RESULT:     -12.0      5.378     11.072
REMARK SMILES CCC(CC)(NC(=O)c1ccc(NC(C)=O)cc1)C(=O)NCCCCNC(=O)c1ccc(-c2c3nc(c(-c4c(F)c(F)c(F)c(F)c4F)c4ccc([nH]4)c(-c4c(F)c(F)c(F)c(F)c4F)c4nc(c(-c5c(F)c(F)c(F)c(F)c5F)c5ccc2[nH]5)C=C4)C=C3)cc1
REMARK SMILES IDX 23 1 22 2 21 3 19 4 20 5 3 7 2 8 1 9 4 10 5 11 6 12 7 13
REMARK SMILES IDX 8 15 9 16 10 17 18 18 11 19 17 20 12 21 13 22 14 23 15 25
REMARK SMILES IDX 16 26 24 27 25 28 26 29 27 30 28 32 29 33 30 34 91 35 31 36
REMARK SMILES IDX 90 37 32 38 33 39 34 40 84 41 35 42 89 43 83 44 85 45 36 46
REMARK SMILES IDX 88 47 82 48 81 49 37 51 69 52 49 53 68 54 50 55 53 56 67 57
REMARK SMILES IDX 86 58 51 59 52 60 66 62 87 63 54 64 38 65 39 66 47 67 40 68
REMARK SMILES IDX 41 69 45 70 48 71 42 72 43 73 46 74 44 75 70 76 71 77 79 78
REMARK SMILES IDX 72 79 73 80 77 81 80 82 74 83 75 84 78 85 76 86 55 87 56 88
REMARK SMILES IDX 64 89 57 90 58 91 62 92 65 93 59 94 60 95 63 96 61 97
REMARK H PARENT 21 6 6 14 13 24 26 31 85 50 53 61
REMARK Flexibility Score: inf
ROOT
ATOM      1  C   UNL A   1      31.447  30.343  26.168  1.00  0.00     0.023 C 
ENDROOT
BRANCH   1   2
ATOM      2  C   UNL A   1      32.827  29.735  25.928  1.00  0.00     0.116 C 
BRANCH   2   3
ATOM      3  N   UNL A   1      33.331  29.693  24.563  1.00  0.00    -0.354 N 
ATOM      4  C   UNL A   1      33.217  28.779  23.549  1.00  0.00     0.245 C 
ATOM      5  O   UNL A   1      33.491  29.210  22.422  1.00  0.00    -0.272 OA
ATOM      6  H   UNL A   1      33.863  30.485  24.319  1.00  0.00     0.163 HD
BRANCH   4   7
ATOM      7  C   UNL A   1      32.702  27.319  23.762  1.00  0.00     0.118 C 
BRANCH   7   8
ATOM      8  C   UNL A   1      31.277  27.218  24.388  1.00  0.00     0.035 C 
ATOM      9  C   UNL A   1      30.096  27.807  23.631  1.00  0.00     0.007 C 
ENDBRANCH   7   8
BRANCH   7  10
ATOM     10  C   UNL A   1      33.779  26.755  24.754  1.00  0.00     0.035 C 
ATOM     11  C   UNL A   1      33.299  26.057  26.014  1.00  0.00     0.007 C 
ENDBRANCH   7  10
BRANCH   7  12
ATOM     12  N   UNL A   1      32.645  26.517  22.498  1.00  0.00    -0.338 N 
ATOM     13  C   UNL A   1      33.076  25.241  22.142  1.00  0.00     0.252 C 
ATOM     14  H   UNL A   1      32.207  26.997  21.757  1.00  0.00     0.164 HD
ATOM     15  O   UNL A   1      33.368  25.095  20.951  1.00  0.00    -0.269 OA
BRANCH  13  16
ATOM     16  C   UNL A   1      33.110  24.016  23.020  1.00  0.00     0.039 A 
ATOM     17  C   UNL A   1      34.334  23.372  23.290  1.00  0.00     0.016 A 
ATOM     18  C   UNL A   1      31.978  23.365  23.474  1.00  0.00     0.016 A 
ATOM     19  C   UNL A   1      34.386  22.101  23.923  1.00  0.00     0.027 A 
ATOM     20  C   UNL A   1      32.009  22.113  24.080  1.00  0.00     0.027 A 
ATOM     21  C   UNL A   1      33.208  21.454  24.289  1.00  0.00     0.041 A 
BRANCH  21  22
ATOM     22  N   UNL A   1      33.075  20.166  24.832  1.00  0.00    -0.326 N 
ATOM     23  C   UNL A   1      32.618  19.014  24.242  1.00  0.00     0.221 C 
ATOM     24  H   UNL A   1      33.348  20.077  25.773  1.00  0.00     0.169 HD
ATOM     25  C   UNL A   1      32.584  17.860  25.221  1.00  0.00     0.114 C 
ATOM     26  O   UNL A   1      32.276  18.877  23.068  1.00  0.00    -0.275 OA
ENDBRANCH  21  22
ENDBRANCH  13  16
ENDBRANCH   7  12
ENDBRANCH   4   7
ENDBRANCH   2   3
ENDBRANCH   1   2
BRANCH   1  27
ATOM     27  C   UNL A   1      31.356  31.826  26.517  1.00  0.00     0.023 C 
BRANCH  27  28
ATOM     28  C   UNL A   1      32.620  32.476  27.046  1.00  0.00     0.116 C 
BRANCH  28  29
ATOM     29  N   UNL A   1      32.411  33.842  27.490  1.00  0.00    -0.352 N 
ATOM     30  C   UNL A   1      33.066  34.548  28.466  1.00  0.00     0.251 C 
ATOM     31  H   UNL A   1      31.697  34.332  27.022  1.00  0.00     0.163 HD
ATOM     32  O   UNL A   1      32.658  35.663  28.791  1.00  0.00    -0.269 OA
BRANCH  30  33
ATOM     33  C   UNL A   1      34.246  33.974  29.149  1.00  0.00     0.039 A 
ATOM     34  C   UNL A   1      34.058  32.895  30.018  1.00  0.00     0.014 A 
ATOM     35  C   UNL A   1      35.526  34.503  28.961  1.00  0.00     0.014 A 
ATOM     36  C   UNL A   1      35.156  32.319  30.662  1.00  0.00     0.010 A 
ATOM     37  C   UNL A   1      36.628  33.883  29.545  1.00  0.00     0.010 A 
ATOM     38  C   UNL A   1      36.452  32.795  30.413  1.00  0.00    -0.014 A 
BRANCH  38  39
ATOM     39  C   UNL A   1      37.634  32.192  31.078  1.00  0.00     0.031 A 
ATOM     40  C   UNL A   1      38.434  31.133  30.372  1.00  0.00     0.074 A 
ATOM     41  C   UNL A   1      37.953  32.552  32.336  1.00  0.00     0.049 A 
ATOM     42  N   UNL A   1      39.449  30.429  30.808  1.00  0.00    -0.248 NA
ATOM     43  C   UNL A   1      38.018  30.798  29.001  1.00  0.00     0.031 C 
ATOM     44  C   UNL A   1      37.229  33.535  33.144  1.00  0.00     0.029 A 
ATOM     45  N   UNL A   1      38.965  32.125  33.160  1.00  0.00    -0.354 N 
ATOM     46  C   UNL A   1      39.778  29.561  29.776  1.00  0.00     0.074 A 
ATOM     47  C   UNL A   1      38.823  29.786  28.712  1.00  0.00     0.031 C 
ATOM     48  C   UNL A   1      37.829  33.648  34.340  1.00  0.00     0.029 A 
ATOM     49  C   UNL A   1      38.959  32.725  34.395  1.00  0.00     0.049 A 
ATOM     50  H   UNL A   1      39.631  31.451  32.890  1.00  0.00     0.167 HD
ATOM     51  C   UNL A   1      40.799  28.674  29.709  1.00  0.00     0.037 A 
ATOM     52  C   UNL A   1      39.773  32.547  35.453  1.00  0.00     0.037 A 
ATOM     53  C   UNL A   1      41.768  28.476  30.755  1.00  0.00     0.049 A 
ATOM     54  C   UNL A   1      40.910  31.566  35.350  1.00  0.00     0.074 A 
ATOM     55  C   UNL A   1      42.871  27.642  30.762  1.00  0.00     0.029 A 
ATOM     56  N   UNL A   1      41.748  29.127  31.979  1.00  0.00    -0.354 N 
ATOM     57  N   UNL A   1      41.244  30.791  34.347  1.00  0.00    -0.248 NA
ATOM     58  C   UNL A   1      41.786  31.442  36.522  1.00  0.00     0.031 C 
ATOM     59  C   UNL A   1      43.500  27.761  32.008  1.00  0.00     0.029 A 
ATOM     60  C   UNL A   1      42.813  28.701  32.758  1.00  0.00     0.049 A 
ATOM     61  H   UNL A   1      41.078  29.792  32.255  1.00  0.00     0.167 HD
ATOM     62  C   UNL A   1      42.381  30.106  34.756  1.00  0.00     0.074 A 
ATOM     63  C   UNL A   1      42.687  30.569  36.094  1.00  0.00     0.031 C 
ATOM     64  C   UNL A   1      43.105  29.177  34.085  1.00  0.00     0.037 A 
BRANCH  51  65
ATOM     65  C   UNL A   1      40.923  27.855  28.457  1.00  0.00     0.064 A 
ATOM     66  C   UNL A   1      41.709  28.280  27.374  1.00  0.00     0.173 A 
ATOM     67  C   UNL A   1      40.271  26.617  28.347  1.00  0.00     0.173 A 
ATOM     68  F   UNL A   1      42.341  29.462  27.423  1.00  0.00    -0.203 F 
ATOM     69  C   UNL A   1      41.810  27.514  26.217  1.00  0.00     0.198 A 
ATOM     70  C   UNL A   1      40.399  25.838  27.200  1.00  0.00     0.198 A 
ATOM     71  F   UNL A   1      39.511  26.160  29.354  1.00  0.00    -0.203 F 
ATOM     72  F   UNL A   1      42.522  27.966  25.175  1.00  0.00    -0.200 F 
ATOM     73  C   UNL A   1      41.161  26.291  26.133  1.00  0.00     0.200 A 
ATOM     74  F   UNL A   1      39.780  24.652  27.124  1.00  0.00    -0.200 F 
ATOM     75  F   UNL A   1      41.261  25.552  25.019  1.00  0.00    -0.200 F 
ENDBRANCH  51  65
BRANCH  52  76
ATOM     76  C   UNL A   1      39.557  33.336  36.693  1.00  0.00     0.064 A 
ATOM     77  C   UNL A   1      38.728  32.855  37.716  1.00  0.00     0.173 A 
ATOM     78  C   UNL A   1      40.174  34.582  36.882  1.00  0.00     0.173 A 
ATOM     79  F   UNL A   1      38.099  31.680  37.569  1.00  0.00    -0.203 F 
ATOM     80  C   UNL A   1      38.511  33.597  38.874  1.00  0.00     0.198 A 
ATOM     81  C   UNL A   1      39.975  35.310  38.052  1.00  0.00     0.198 A 
ATOM     82  F   UNL A   1      40.979  35.082  35.934  1.00  0.00    -0.203 F 
ATOM     83  F   UNL A   1      37.680  33.133  39.817  1.00  0.00    -0.200 F 
ATOM     84  C   UNL A   1      39.139  34.821  39.045  1.00  0.00     0.200 A 
ATOM     85  F   UNL A   1      40.592  36.488  38.218  1.00  0.00    -0.200 F 
ATOM     86  F   UNL A   1      38.931  35.533  40.161  1.00  0.00    -0.200 F 
ENDBRANCH  52  76
BRANCH  64  87
ATOM     87  C   UNL A   1      44.315  28.620  34.774  1.00  0.00     0.064 A 
ATOM     88  C   UNL A   1      44.244  27.459  35.558  1.00  0.00     0.173 A 
ATOM     89  C   UNL A   1      45.569  29.230  34.613  1.00  0.00     0.173 A 
ATOM     90  F   UNL A   1      43.066  26.848  35.754  1.00  0.00    -0.203 F 
ATOM     91  C   UNL A   1      45.381  26.943  36.175  1.00  0.00     0.198 A 
ATOM     92  C   UNL A   1      46.707  28.695  35.208  1.00  0.00     0.198 A 
ATOM     93  F   UNL A   1      45.689  30.339  33.866  1.00  0.00    -0.203 F 
ATOM     94  F   UNL A   1      45.282  25.857  36.954  1.00  0.00    -0.200 F 
ATOM     95  C   UNL A   1      46.612  27.556  35.992  1.00  0.00     0.200 A 
ATOM     96  F   UNL A   1      47.897  29.281  35.021  1.00  0.00    -0.200 F 
ATOM     97  F   UNL A   1      47.706  27.052  36.580  1.00  0.00    -0.200 F 
ENDBRANCH  64  87
ENDBRANCH  38  39
ENDBRANCH  30  33
ENDBRANCH  28  29
ENDBRANCH  27  28
ENDBRANCH   1  27
TORSDOF 16
ENDMDL
