MODEL 1
REMARK VINA RESULT:     -11.5      0.000      0.000
REMARK SMILES CC(C)(C)OC(=O)N1[C@@H](C(=O)NCCCCNC(=O)c2ccc(-c3c4nc(c(-c5c(F)c(F)c(F)c(F)c5F)c5ccc([nH]5)c(-c5c(F)c(F)c(F)c(F)c5F)c5nc(c(-c6c(F)c(F)c(F)c(F)c6F)c6ccc3[nH]6)C=C5)C=C4)cc2)C[C@H]2CCCC[C@@H]21
REMARK SMILES IDX 14 1 13 2 12 3 10 4 11 5 9 7 8 8 89 9 83 10 84 11 88 12
REMARK SMILES IDX 85 13 87 14 86 15 6 16 7 17 5 18 2 19 1 20 3 21 4 22 15 23
REMARK SMILES IDX 16 24 17 25 18 26 19 28 20 29 21 30 82 31 22 32 81 33 23 34
REMARK SMILES IDX 24 35 25 36 75 37 26 38 80 39 74 40 76 41 27 42 79 43 73 44
REMARK SMILES IDX 72 45 28 47 60 48 40 49 59 50 41 51 44 52 58 53 77 54 42 55
REMARK SMILES IDX 43 56 57 58 78 59 45 60 29 61 30 62 38 63 31 64 32 65 36 66
REMARK SMILES IDX 39 67 33 68 34 69 37 70 35 71 61 72 62 73 70 74 63 75 64 76
REMARK SMILES IDX 68 77 71 78 65 79 66 80 69 81 67 82 46 83 47 84 55 85 48 86
REMARK SMILES IDX 49 87 53 88 56 89 50 90 51 91 54 92 52 93
REMARK H PARENT 12 6 17 27 76 46 44 57
REMARK Flexibility Score: inf
ROOT
ATOM      1  C   UNL A   1      35.384  23.194  23.393  1.00  0.00     0.023 C 
ENDROOT
BRANCH   1   2
ATOM      2  C   UNL A   1      33.889  23.132  23.089  1.00  0.00     0.116 C 
BRANCH   2   3
ATOM      3  N   UNL A   1      33.411  24.404  22.590  1.00  0.00    -0.354 N 
ATOM      4  C   UNL A   1      32.934  25.477  23.291  1.00  0.00     0.242 C 
ATOM      5  O   UNL A   1      32.499  26.428  22.640  1.00  0.00    -0.273 OA
ATOM      6  H   UNL A   1      33.433  24.512  21.611  1.00  0.00     0.163 HD
BRANCH   4   7
ATOM      7  C   UNL A   1      33.080  25.490  24.830  1.00  0.00     0.178 C 
ATOM      8  N   UNL A   1      31.927  26.149  25.452  1.00  0.00    -0.293 N 
ATOM      9  C   UNL A   1      32.245  27.519  25.777  1.00  0.00     0.092 C 
ATOM     10  C   UNL A   1      34.281  26.406  25.161  1.00  0.00     0.041 C 
ATOM     11  C   UNL A   1      33.713  27.374  26.189  1.00  0.00     0.014 C 
ATOM     12  C   UNL A   1      31.496  28.200  26.920  1.00  0.00     0.025 C 
ATOM     13  C   UNL A   1      34.366  28.736  26.315  1.00  0.00     0.006 C 
ATOM     14  C   UNL A   1      32.125  29.564  27.230  1.00  0.00     0.002 C 
ATOM     15  C   UNL A   1      33.648  29.517  27.420  1.00  0.00     0.000 C 
BRANCH   8  16
ATOM     16  C   UNL A   1      30.687  25.591  25.600  1.00  0.00     0.411 C 
ATOM     17  O   UNL A   1      29.727  25.873  24.897  1.00  0.00    -0.224 OA
BRANCH  16  18
ATOM     18  O   UNL A   1      30.630  24.806  26.708  1.00  0.00    -0.444 OA
BRANCH  18  19
ATOM     19  C   UNL A   1      30.806  23.365  26.604  1.00  0.00     0.106 C 
ATOM     20  C   UNL A   1      29.563  22.760  27.278  1.00  0.00     0.056 C 
ATOM     21  C   UNL A   1      32.056  22.965  27.387  1.00  0.00     0.056 C 
ATOM     22  C   UNL A   1      30.846  22.826  25.163  1.00  0.00     0.056 C 
ENDBRANCH  18  19
ENDBRANCH  16  18
ENDBRANCH   8  16
ENDBRANCH   4   7
ENDBRANCH   2   3
ENDBRANCH   1   2
BRANCH   1  23
ATOM     23  C   UNL A   1      35.740  22.985  24.867  1.00  0.00     0.023 C 
BRANCH  23  24
ATOM     24  C   UNL A   1      37.006  23.695  25.336  1.00  0.00     0.116 C 
BRANCH  24  25
ATOM     25  N   UNL A   1      38.110  22.778  25.572  1.00  0.00    -0.352 N 
ATOM     26  C   UNL A   1      39.326  23.012  26.167  1.00  0.00     0.251 C 
ATOM     27  H   UNL A   1      37.964  21.856  25.259  1.00  0.00     0.163 HD
ATOM     28  O   UNL A   1      40.200  22.151  26.133  1.00  0.00    -0.269 OA
BRANCH  26  29
ATOM     29  C   UNL A   1      39.593  24.309  26.822  1.00  0.00     0.039 A 
ATOM     30  C   UNL A   1      39.170  24.499  28.141  1.00  0.00     0.014 A 
ATOM     31  C   UNL A   1      40.256  25.337  26.146  1.00  0.00     0.014 A 
ATOM     32  C   UNL A   1      39.470  25.693  28.800  1.00  0.00     0.010 A 
ATOM     33  C   UNL A   1      40.625  26.492  26.830  1.00  0.00     0.010 A 
ATOM     34  C   UNL A   1      40.233  26.685  28.163  1.00  0.00    -0.014 A 
BRANCH  34  35
ATOM     35  C   UNL A   1      40.626  27.931  28.874  1.00  0.00     0.031 A 
ATOM     36  C   UNL A   1      42.018  28.081  29.423  1.00  0.00     0.074 A 
ATOM     37  C   UNL A   1      39.713  28.900  29.079  1.00  0.00     0.049 A 
ATOM     38  N   UNL A   1      42.530  29.060  30.128  1.00  0.00    -0.248 NA
ATOM     39  C   UNL A   1      42.954  26.975  29.168  1.00  0.00     0.031 C 
ATOM     40  C   UNL A   1      38.320  28.857  28.635  1.00  0.00     0.029 A 
ATOM     41  N   UNL A   1      39.818  30.108  29.723  1.00  0.00    -0.354 N 
ATOM     42  C   UNL A   1      43.836  28.680  30.409  1.00  0.00     0.074 A 
ATOM     43  C   UNL A   1      44.021  27.358  29.850  1.00  0.00     0.031 C 
ATOM     44  C   UNL A   1      37.706  29.995  28.998  1.00  0.00     0.029 A 
ATOM     45  C   UNL A   1      38.648  30.829  29.739  1.00  0.00     0.049 A 
ATOM     46  H   UNL A   1      40.653  30.429  30.135  1.00  0.00     0.167 HD
ATOM     47  C   UNL A   1      44.802  29.380  31.051  1.00  0.00     0.037 A 
ATOM     48  C   UNL A   1      38.363  32.020  30.299  1.00  0.00     0.037 A 
ATOM     49  C   UNL A   1      44.619  30.702  31.591  1.00  0.00     0.049 A 
ATOM     50  C   UNL A   1      39.446  32.766  31.031  1.00  0.00     0.074 A 
ATOM     51  C   UNL A   1      45.550  31.517  32.212  1.00  0.00     0.029 A 
ATOM     52  N   UNL A   1      43.420  31.402  31.582  1.00  0.00    -0.354 N 
ATOM     53  N   UNL A   1      40.698  32.428  31.229  1.00  0.00    -0.248 NA
ATOM     54  C   UNL A   1      39.079  34.064  31.614  1.00  0.00     0.031 C 
ATOM     55  C   UNL A   1      44.901  32.681  32.633  1.00  0.00     0.029 A 
ATOM     56  C   UNL A   1      43.582  32.626  32.214  1.00  0.00     0.049 A 
ATOM     57  H   UNL A   1      42.579  31.077  31.186  1.00  0.00     0.167 HD
ATOM     58  C   UNL A   1      41.274  33.483  31.925  1.00  0.00     0.074 A 
ATOM     59  C   UNL A   1      40.238  34.479  32.103  1.00  0.00     0.031 C 
ATOM     60  C   UNL A   1      42.546  33.614  32.375  1.00  0.00     0.037 A 
BRANCH  47  61
ATOM     61  C   UNL A   1      46.146  28.728  31.209  1.00  0.00     0.064 A 
ATOM     62  C   UNL A   1      46.459  27.940  32.329  1.00  0.00     0.173 A 
ATOM     63  C   UNL A   1      47.124  28.859  30.211  1.00  0.00     0.173 A 
ATOM     64  F   UNL A   1      45.566  27.789  33.318  1.00  0.00    -0.203 F 
ATOM     65  C   UNL A   1      47.709  27.340  32.458  1.00  0.00     0.198 A 
ATOM     66  C   UNL A   1      48.359  28.227  30.326  1.00  0.00     0.198 A 
ATOM     67  F   UNL A   1      46.877  29.593  29.115  1.00  0.00    -0.203 F 
ATOM     68  F   UNL A   1      48.002  26.640  33.562  1.00  0.00    -0.200 F 
ATOM     69  C   UNL A   1      48.653  27.476  31.453  1.00  0.00     0.200 A 
ATOM     70  F   UNL A   1      49.266  28.347  29.346  1.00  0.00    -0.200 F 
ATOM     71  F   UNL A   1      49.852  26.889  31.575  1.00  0.00    -0.200 F 
ENDBRANCH  47  61
BRANCH  48  72
ATOM     72  C   UNL A   1      36.995  32.593  30.177  1.00  0.00     0.064 A 
ATOM     73  C   UNL A   1      36.621  33.333  29.046  1.00  0.00     0.173 A 
ATOM     74  C   UNL A   1      36.040  32.428  31.191  1.00  0.00     0.173 A 
ATOM     75  F   UNL A   1      37.504  33.537  28.057  1.00  0.00    -0.203 F 
ATOM     76  C   UNL A   1      35.356  33.909  28.947  1.00  0.00     0.198 A 
ATOM     77  C   UNL A   1      34.765  32.976  31.076  1.00  0.00     0.198 A 
ATOM     78  F   UNL A   1      36.343  31.725  32.292  1.00  0.00    -0.203 F 
ATOM     79  F   UNL A   1      35.046  34.659  27.881  1.00  0.00    -0.200 F 
ATOM     80  C   UNL A   1      34.427  33.725  29.959  1.00  0.00     0.200 A 
ATOM     81  F   UNL A   1      33.864  32.782  32.049  1.00  0.00    -0.200 F 
ATOM     82  F   UNL A   1      33.210  34.278  29.863  1.00  0.00    -0.200 F 
ENDBRANCH  48  72
BRANCH  60  83
ATOM     83  C   UNL A   1      42.907  34.900  33.064  1.00  0.00     0.064 A 
ATOM     84  C   UNL A   1      42.831  35.042  34.458  1.00  0.00     0.173 A 
ATOM     85  C   UNL A   1      43.376  35.994  32.320  1.00  0.00     0.173 A 
ATOM     86  F   UNL A   1      42.377  34.033  35.217  1.00  0.00    -0.203 F 
ATOM     87  C   UNL A   1      43.182  36.241  35.076  1.00  0.00     0.198 A 
ATOM     88  C   UNL A   1      43.759  37.177  32.943  1.00  0.00     0.198 A 
ATOM     89  F   UNL A   1      43.477  35.909  30.985  1.00  0.00    -0.203 F 
ATOM     90  F   UNL A   1      43.048  36.371  36.403  1.00  0.00    -0.200 F 
ATOM     91  C   UNL A   1      43.654  37.303  34.320  1.00  0.00     0.200 A 
ATOM     92  F   UNL A   1      44.233  38.196  32.213  1.00  0.00    -0.200 F 
ATOM     93  F   UNL A   1      44.000  38.451  34.918  1.00  0.00    -0.200 F 
ENDBRANCH  60  83
ENDBRANCH  34  35
ENDBRANCH  26  29
ENDBRANCH  24  25
ENDBRANCH  23  24
ENDBRANCH   1  23
TORSDOF 14
ENDMDL
MODEL 2
REMARK VINA RESULT:     -11.4      3.204      8.851
REMARK SMILES CC(C)(C)OC(=O)N1[C@@H](C(=O)NCCCCNC(=O)c2ccc(-c3c4nc(c(-c5c(F)c(F)c(F)c(F)c5F)c5ccc([nH]5)c(-c5c(F)c(F)c(F)c(F)c5F)c5nc(c(-c6c(F)c(F)c(F)c(F)c6F)c6ccc3[nH]6)C=C5)C=C4)cc2)C[C@H]2CCCC[C@@H]21
REMARK SMILES IDX 14 1 13 2 12 3 10 4 11 5 9 7 8 8 89 9 83 10 84 11 88 12
REMARK SMILES IDX 85 13 87 14 86 15 6 16 7 17 5 18 2 19 1 20 3 21 4 22 15 23
REMARK SMILES IDX 16 24 17 25 18 26 19 28 20 29 21 30 82 31 22 32 81 33 23 34
REMARK SMILES IDX 24 35 25 36 75 37 26 38 80 39 74 40 76 41 27 42 79 43 73 44
REMARK SMILES IDX 72 45 28 47 60 48 40 49 59 50 41 51 44 52 58 53 77 54 42 55
REMARK SMILES IDX 43 56 57 58 78 59 45 60 29 61 30 62 38 63 31 64 32 65 36 66
REMARK SMILES IDX 39 67 33 68 34 69 37 70 35 71 61 72 62 73 70 74 63 75 64 76
REMARK SMILES IDX 68 77 71 78 65 79 66 80 69 81 67 82 46 83 47 84 55 85 48 86
REMARK SMILES IDX 49 87 53 88 56 89 50 90 51 91 54 92 52 93
REMARK H PARENT 12 6 17 27 76 46 44 57
REMARK Flexibility Score: inf
ROOT
ATOM      1  C   UNL A   1      33.276  27.013  25.263  1.00  0.00     0.023 C 
ENDROOT
BRANCH   1   2
ATOM      2  C   UNL A   1      33.900  25.623  25.365  1.00  0.00     0.116 C 
BRANCH   2   3
ATOM      3  N   UNL A   1      34.121  25.060  24.050  1.00  0.00    -0.354 N 
ATOM      4  C   UNL A   1      33.900  23.783  23.613  1.00  0.00     0.242 C 
ATOM      5  O   UNL A   1      34.249  23.511  22.463  1.00  0.00    -0.273 OA
ATOM      6  H   UNL A   1      34.481  25.683  23.376  1.00  0.00     0.163 HD
BRANCH   4   7
ATOM      7  C   UNL A   1      33.124  22.806  24.525  1.00  0.00     0.178 C 
ATOM      8  N   UNL A   1      34.030  21.802  25.095  1.00  0.00    -0.293 N 
ATOM      9  C   UNL A   1      33.961  20.574  24.339  1.00  0.00     0.092 C 
ATOM     10  C   UNL A   1      32.170  21.999  23.614  1.00  0.00     0.041 C 
ATOM     11  C   UNL A   1      32.472  20.553  23.979  1.00  0.00     0.014 C 
ATOM     12  C   UNL A   1      34.300  19.259  25.034  1.00  0.00     0.025 C 
ATOM     13  C   UNL A   1      32.193  19.488  22.936  1.00  0.00     0.006 C 
ATOM     14  C   UNL A   1      33.964  18.072  24.122  1.00  0.00     0.002 C 
ATOM     15  C   UNL A   1      32.547  18.122  23.533  1.00  0.00     0.000 C 
BRANCH   8  16
ATOM     16  C   UNL A   1      34.905  22.025  26.122  1.00  0.00     0.411 C 
ATOM     17  O   UNL A   1      34.646  22.712  27.100  1.00  0.00    -0.224 OA
BRANCH  16  18
ATOM     18  O   UNL A   1      36.131  21.508  25.843  1.00  0.00    -0.444 OA
BRANCH  18  19
ATOM     19  C   UNL A   1      37.206  22.366  25.367  1.00  0.00     0.106 C 
ATOM     20  C   UNL A   1      37.106  22.320  23.833  1.00  0.00     0.056 C 
ATOM     21  C   UNL A   1      38.542  21.770  25.809  1.00  0.00     0.056 C 
ATOM     22  C   UNL A   1      37.080  23.842  25.783  1.00  0.00     0.056 C 
ENDBRANCH  18  19
ENDBRANCH  16  18
ENDBRANCH   8  16
ENDBRANCH   4   7
ENDBRANCH   2   3
ENDBRANCH   1   2
BRANCH   1  23
ATOM     23  C   UNL A   1      34.063  28.115  25.977  1.00  0.00     0.023 C 
BRANCH  23  24
ATOM     24  C   UNL A   1      33.559  28.473  27.372  1.00  0.00     0.116 C 
BRANCH  24  25
ATOM     25  N   UNL A   1      33.532  29.907  27.607  1.00  0.00    -0.352 N 
ATOM     26  C   UNL A   1      34.494  30.719  28.157  1.00  0.00     0.251 C 
ATOM     27  H   UNL A   1      32.703  30.362  27.334  1.00  0.00     0.163 HD
ATOM     28  O   UNL A   1      34.230  31.887  28.426  1.00  0.00    -0.269 OA
BRANCH  26  29
ATOM     29  C   UNL A   1      35.839  30.181  28.451  1.00  0.00     0.039 A 
ATOM     30  C   UNL A   1      36.821  30.239  27.458  1.00  0.00     0.014 A 
ATOM     31  C   UNL A   1      36.135  29.619  29.696  1.00  0.00     0.014 A 
ATOM     32  C   UNL A   1      38.116  29.796  27.737  1.00  0.00     0.010 A 
ATOM     33  C   UNL A   1      37.445  29.255  29.998  1.00  0.00     0.010 A 
ATOM     34  C   UNL A   1      38.449  29.334  29.021  1.00  0.00    -0.014 A 
BRANCH  34  35
ATOM     35  C   UNL A   1      39.839  28.928  29.358  1.00  0.00     0.031 A 
ATOM     36  C   UNL A   1      40.717  29.840  30.170  1.00  0.00     0.074 A 
ATOM     37  C   UNL A   1      40.331  27.768  28.882  1.00  0.00     0.049 A 
ATOM     38  N   UNL A   1      41.974  29.695  30.509  1.00  0.00    -0.248 NA
ATOM     39  C   UNL A   1      40.111  31.094  30.644  1.00  0.00     0.031 C 
ATOM     40  C   UNL A   1      39.596  26.817  28.048  1.00  0.00     0.029 A 
ATOM     41  N   UNL A   1      41.571  27.195  29.024  1.00  0.00    -0.354 N 
ATOM     42  C   UNL A   1      42.308  30.839  31.221  1.00  0.00     0.074 A 
ATOM     43  C   UNL A   1      41.142  31.696  31.215  1.00  0.00     0.031 C 
ATOM     44  C   UNL A   1      40.388  25.769  27.771  1.00  0.00     0.029 A 
ATOM     45  C   UNL A   1      41.701  25.994  28.369  1.00  0.00     0.049 A 
ATOM     46  H   UNL A   1      42.298  27.606  29.544  1.00  0.00     0.167 HD
ATOM     47  C   UNL A   1      43.473  31.138  31.846  1.00  0.00     0.037 A 
ATOM     48  C   UNL A   1      42.762  25.173  28.253  1.00  0.00     0.037 A 
ATOM     49  C   UNL A   1      44.625  30.275  31.863  1.00  0.00     0.049 A 
ATOM     50  C   UNL A   1      44.054  25.541  28.934  1.00  0.00     0.074 A 
ATOM     51  C   UNL A   1      45.834  30.464  32.513  1.00  0.00     0.029 A 
ATOM     52  N   UNL A   1      44.718  29.063  31.194  1.00  0.00    -0.354 N 
ATOM     53  N   UNL A   1      44.336  26.593  29.664  1.00  0.00    -0.248 NA
ATOM     54  C   UNL A   1      45.174  24.603  28.779  1.00  0.00     0.031 C 
ATOM     55  C   UNL A   1      46.677  29.397  32.186  1.00  0.00     0.029 A 
ATOM     56  C   UNL A   1      45.973  28.507  31.391  1.00  0.00     0.049 A 
ATOM     57  H   UNL A   1      43.997  28.657  30.659  1.00  0.00     0.167 HD
ATOM     58  C   UNL A   1      45.650  26.427  30.084  1.00  0.00     0.074 A 
ATOM     59  C   UNL A   1      46.105  25.165  29.538  1.00  0.00     0.031 C 
ATOM     60  C   UNL A   1      46.410  27.245  30.851  1.00  0.00     0.037 A 
BRANCH  47  61
ATOM     61  C   UNL A   1      43.561  32.457  32.561  1.00  0.00     0.064 A 
ATOM     62  C   UNL A   1      44.019  33.617  31.917  1.00  0.00     0.173 A 
ATOM     63  C   UNL A   1      43.146  32.572  33.896  1.00  0.00     0.173 A 
ATOM     64  F   UNL A   1      44.439  33.563  30.643  1.00  0.00    -0.203 F 
ATOM     65  C   UNL A   1      44.092  34.833  32.593  1.00  0.00     0.198 A 
ATOM     66  C   UNL A   1      43.185  33.797  34.558  1.00  0.00     0.198 A 
ATOM     67  F   UNL A   1      42.691  31.498  34.559  1.00  0.00    -0.203 F 
ATOM     68  F   UNL A   1      44.587  35.913  31.973  1.00  0.00    -0.200 F 
ATOM     69  C   UNL A   1      43.666  34.923  33.909  1.00  0.00     0.200 A 
ATOM     70  F   UNL A   1      42.758  33.886  35.825  1.00  0.00    -0.200 F 
ATOM     71  F   UNL A   1      43.727  36.096  34.555  1.00  0.00    -0.200 F 
ENDBRANCH  47  61
BRANCH  48  72
ATOM     72  C   UNL A   1      42.647  23.910  27.474  1.00  0.00     0.064 A 
ATOM     73  C   UNL A   1      42.207  22.726  28.080  1.00  0.00     0.173 A 
ATOM     74  C   UNL A   1      42.990  23.857  26.114  1.00  0.00     0.173 A 
ATOM     75  F   UNL A   1      41.887  22.719  29.383  1.00  0.00    -0.203 F 
ATOM     76  C   UNL A   1      42.139  21.531  27.366  1.00  0.00     0.198 A 
ATOM     77  C   UNL A   1      42.889  22.670  25.393  1.00  0.00     0.198 A 
ATOM     78  F   UNL A   1      43.412  24.962  25.484  1.00  0.00    -0.203 F 
ATOM     79  F   UNL A   1      41.769  20.403  27.986  1.00  0.00    -0.200 F 
ATOM     80  C   UNL A   1      42.475  21.505  26.021  1.00  0.00     0.200 A 
ATOM     81  F   UNL A   1      43.199  22.653  24.088  1.00  0.00    -0.200 F 
ATOM     82  F   UNL A   1      42.409  20.357  25.333  1.00  0.00    -0.200 F 
ENDBRANCH  48  72
BRANCH  60  83
ATOM     83  C   UNL A   1      47.800  26.784  31.190  1.00  0.00     0.064 A 
ATOM     84  C   UNL A   1      48.914  27.159  30.424  1.00  0.00     0.173 A 
ATOM     85  C   UNL A   1      48.024  25.987  32.324  1.00  0.00     0.173 A 
ATOM     86  F   UNL A   1      48.755  27.908  29.322  1.00  0.00    -0.203 F 
ATOM     87  C   UNL A   1      50.195  26.727  30.763  1.00  0.00     0.198 A 
ATOM     88  C   UNL A   1      49.308  25.588  32.681  1.00  0.00     0.198 A 
ATOM     89  F   UNL A   1      46.995  25.607  33.097  1.00  0.00    -0.203 F 
ATOM     90  F   UNL A   1      51.236  27.052  29.985  1.00  0.00    -0.200 F 
ATOM     91  C   UNL A   1      50.391  25.951  31.895  1.00  0.00     0.200 A 
ATOM     92  F   UNL A   1      49.498  24.853  33.786  1.00  0.00    -0.200 F 
ATOM     93  F   UNL A   1      51.625  25.545  32.225  1.00  0.00    -0.200 F 
ENDBRANCH  60  83
ENDBRANCH  34  35
ENDBRANCH  26  29
ENDBRANCH  24  25
ENDBRANCH  23  24
ENDBRANCH   1  23
TORSDOF 14
ENDMDL
MODEL 3
REMARK VINA RESULT:     -11.4      1.347      2.702
REMARK SMILES CC(C)(C)OC(=O)N1[C@@H](C(=O)NCCCCNC(=O)c2ccc(-c3c4nc(c(-c5c(F)c(F)c(F)c(F)c5F)c5ccc([nH]5)c(-c5c(F)c(F)c(F)c(F)c5F)c5nc(c(-c6c(F)c(F)c(F)c(F)c6F)c6ccc3[nH]6)C=C5)C=C4)cc2)C[C@H]2CCCC[C@@H]21
REMARK SMILES IDX 14 1 13 2 12 3 10 4 11 5 9 7 8 8 89 9 83 10 84 11 88 12
REMARK SMILES IDX 85 13 87 14 86 15 6 16 7 17 5 18 2 19 1 20 3 21 4 22 15 23
REMARK SMILES IDX 16 24 17 25 18 26 19 28 20 29 21 30 82 31 22 32 81 33 23 34
REMARK SMILES IDX 24 35 25 36 75 37 26 38 80 39 74 40 76 41 27 42 79 43 73 44
REMARK SMILES IDX 72 45 28 47 60 48 40 49 59 50 41 51 44 52 58 53 77 54 42 55
REMARK SMILES IDX 43 56 57 58 78 59 45 60 29 61 30 62 38 63 31 64 32 65 36 66
REMARK SMILES IDX 39 67 33 68 34 69 37 70 35 71 61 72 62 73 70 74 63 75 64 76
REMARK SMILES IDX 68 77 71 78 65 79 66 80 69 81 67 82 46 83 47 84 55 85 48 86
REMARK SMILES IDX 49 87 53 88 56 89 50 90 51 91 54 92 52 93
REMARK H PARENT 12 6 17 27 76 46 44 57
REMARK Flexibility Score: inf
ROOT
ATOM      1  C   UNL A   1      34.515  23.672  25.382  1.00  0.00     0.023 C 
ENDROOT
BRANCH   1   2
ATOM      2  C   UNL A   1      34.054  25.127  25.324  1.00  0.00     0.116 C 
BRANCH   2   3
ATOM      3  N   UNL A   1      32.814  25.304  26.049  1.00  0.00    -0.354 N 
ATOM      4  C   UNL A   1      31.702  26.013  25.689  1.00  0.00     0.242 C 
ATOM      5  O   UNL A   1      30.790  26.093  26.514  1.00  0.00    -0.273 OA
ATOM      6  H   UNL A   1      32.765  24.851  26.922  1.00  0.00     0.163 HD
BRANCH   4   7
ATOM      7  C   UNL A   1      31.597  26.557  24.245  1.00  0.00     0.178 C 
ATOM      8  N   UNL A   1      31.698  28.021  24.238  1.00  0.00    -0.293 N 
ATOM      9  C   UNL A   1      30.385  28.616  24.166  1.00  0.00     0.092 C 
ATOM     10  C   UNL A   1      30.162  26.261  23.754  1.00  0.00     0.041 C 
ATOM     11  C   UNL A   1      29.675  27.612  23.252  1.00  0.00     0.014 C 
ATOM     12  C   UNL A   1      30.236  30.005  23.553  1.00  0.00     0.025 C 
ATOM     13  C   UNL A   1      28.181  27.867  23.243  1.00  0.00     0.006 C 
ATOM     14  C   UNL A   1      28.752  30.357  23.385  1.00  0.00     0.002 C 
ATOM     15  C   UNL A   1      27.932  29.269  22.677  1.00  0.00     0.000 C 
BRANCH   8  16
ATOM     16  C   UNL A   1      32.856  28.731  24.395  1.00  0.00     0.411 C 
ATOM     17  O   UNL A   1      33.925  28.409  23.893  1.00  0.00    -0.224 OA
BRANCH  16  18
ATOM     18  O   UNL A   1      32.695  29.743  25.286  1.00  0.00    -0.444 OA
BRANCH  18  19
ATOM     19  C   UNL A   1      33.137  29.595  26.665  1.00  0.00     0.106 C 
ATOM     20  C   UNL A   1      31.888  29.138  27.439  1.00  0.00     0.056 C 
ATOM     21  C   UNL A   1      33.589  30.958  27.185  1.00  0.00     0.056 C 
ATOM     22  C   UNL A   1      34.218  28.521  26.879  1.00  0.00     0.056 C 
ENDBRANCH  18  19
ENDBRANCH  16  18
ENDBRANCH   8  16
ENDBRANCH   4   7
ENDBRANCH   2   3
ENDBRANCH   1   2
BRANCH   1  23
ATOM     23  C   UNL A   1      35.849  23.458  26.103  1.00  0.00     0.023 C 
BRANCH  23  24
ATOM     24  C   UNL A   1      37.092  23.729  25.261  1.00  0.00     0.116 C 
BRANCH  24  25
ATOM     25  N   UNL A   1      38.177  22.804  25.549  1.00  0.00    -0.352 N 
ATOM     26  C   UNL A   1      39.371  23.033  26.189  1.00  0.00     0.251 C 
ATOM     27  H   UNL A   1      38.035  21.881  25.240  1.00  0.00     0.163 HD
ATOM     28  O   UNL A   1      40.237  22.164  26.198  1.00  0.00    -0.269 OA
BRANCH  26  29
ATOM     29  C   UNL A   1      39.625  24.334  26.842  1.00  0.00     0.039 A 
ATOM     30  C   UNL A   1      39.179  24.529  28.152  1.00  0.00     0.014 A 
ATOM     31  C   UNL A   1      40.296  25.360  26.171  1.00  0.00     0.014 A 
ATOM     32  C   UNL A   1      39.467  25.728  28.811  1.00  0.00     0.010 A 
ATOM     33  C   UNL A   1      40.652  26.519  26.856  1.00  0.00     0.010 A 
ATOM     34  C   UNL A   1      40.238  26.718  28.182  1.00  0.00    -0.014 A 
BRANCH  34  35
ATOM     35  C   UNL A   1      40.616  27.968  28.892  1.00  0.00     0.031 A 
ATOM     36  C   UNL A   1      42.002  28.128  29.456  1.00  0.00     0.074 A 
ATOM     37  C   UNL A   1      39.696  28.933  29.084  1.00  0.00     0.049 A 
ATOM     38  N   UNL A   1      42.501  29.111  30.163  1.00  0.00    -0.248 NA
ATOM     39  C   UNL A   1      42.945  27.025  29.215  1.00  0.00     0.031 C 
ATOM     40  C   UNL A   1      38.308  28.881  28.625  1.00  0.00     0.029 A 
ATOM     41  N   UNL A   1      39.788  30.144  29.725  1.00  0.00    -0.354 N 
ATOM     42  C   UNL A   1      43.805  28.739  30.459  1.00  0.00     0.074 A 
ATOM     43  C   UNL A   1      44.003  27.416  29.908  1.00  0.00     0.031 C 
ATOM     44  C   UNL A   1      37.685  30.017  28.978  1.00  0.00     0.029 A 
ATOM     45  C   UNL A   1      38.614  30.859  29.726  1.00  0.00     0.049 A 
ATOM     46  H   UNL A   1      40.617  30.470  30.145  1.00  0.00     0.167 HD
ATOM     47  C   UNL A   1      44.761  29.446  31.110  1.00  0.00     0.037 A 
ATOM     48  C   UNL A   1      38.317  32.050  30.278  1.00  0.00     0.037 A 
ATOM     49  C   UNL A   1      44.564  30.769  31.643  1.00  0.00     0.049 A 
ATOM     50  C   UNL A   1      39.388  32.804  31.020  1.00  0.00     0.074 A 
ATOM     51  C   UNL A   1      45.485  31.591  32.272  1.00  0.00     0.029 A 
ATOM     52  N   UNL A   1      43.363  31.463  31.619  1.00  0.00    -0.354 N 
ATOM     53  N   UNL A   1      40.639  32.473  31.232  1.00  0.00    -0.248 NA
ATOM     54  C   UNL A   1      39.007  34.102  31.594  1.00  0.00     0.031 C 
ATOM     55  C   UNL A   1      44.826  32.753  32.682  1.00  0.00     0.029 A 
ATOM     56  C   UNL A   1      43.511  32.690  32.248  1.00  0.00     0.049 A 
ATOM     57  H   UNL A   1      42.528  31.132  31.215  1.00  0.00     0.167 HD
ATOM     58  C   UNL A   1      41.202  33.533  31.931  1.00  0.00     0.074 A 
ATOM     59  C   UNL A   1      40.160  34.525  32.095  1.00  0.00     0.031 C 
ATOM     60  C   UNL A   1      42.468  33.673  32.395  1.00  0.00     0.037 A 
BRANCH  47  61
ATOM     61  C   UNL A   1      46.107  28.801  31.285  1.00  0.00     0.064 A 
ATOM     62  C   UNL A   1      46.415  28.029  32.417  1.00  0.00     0.173 A 
ATOM     63  C   UNL A   1      47.090  28.924  30.291  1.00  0.00     0.173 A 
ATOM     64  F   UNL A   1      45.516  27.887  33.402  1.00  0.00    -0.203 F 
ATOM     65  C   UNL A   1      47.666  27.436  32.562  1.00  0.00     0.198 A 
ATOM     66  C   UNL A   1      48.326  28.299  30.422  1.00  0.00     0.198 A 
ATOM     67  F   UNL A   1      46.848  29.643  29.184  1.00  0.00    -0.203 F 
ATOM     68  F   UNL A   1      47.955  26.752  33.677  1.00  0.00    -0.200 F 
ATOM     69  C   UNL A   1      48.617  27.563  31.561  1.00  0.00     0.200 A 
ATOM     70  F   UNL A   1      49.239  28.409  29.447  1.00  0.00    -0.200 F 
ATOM     71  F   UNL A   1      49.817  26.983  31.698  1.00  0.00    -0.200 F 
ENDBRANCH  47  61
BRANCH  48  72
ATOM     72  C   UNL A   1      36.947  32.615  30.140  1.00  0.00     0.064 A 
ATOM     73  C   UNL A   1      36.573  33.324  28.989  1.00  0.00     0.173 A 
ATOM     74  C   UNL A   1      35.992  32.475  31.157  1.00  0.00     0.173 A 
ATOM     75  F   UNL A   1      37.456  33.504  27.996  1.00  0.00    -0.203 F 
ATOM     76  C   UNL A   1      35.306  33.893  28.873  1.00  0.00     0.198 A 
ATOM     77  C   UNL A   1      34.715  33.016  31.025  1.00  0.00     0.198 A 
ATOM     78  F   UNL A   1      36.296  31.803  32.276  1.00  0.00    -0.203 F 
ATOM     79  F   UNL A   1      34.995  34.613  27.786  1.00  0.00    -0.200 F 
ATOM     80  C   UNL A   1      34.376  33.734  29.888  1.00  0.00     0.200 A 
ATOM     81  F   UNL A   1      33.813  32.846  32.003  1.00  0.00    -0.200 F 
ATOM     82  F   UNL A   1      33.158  34.280  29.776  1.00  0.00    -0.200 F 
ENDBRANCH  48  72
BRANCH  60  83
ATOM     83  C   UNL A   1      42.816  34.963  33.084  1.00  0.00     0.064 A 
ATOM     84  C   UNL A   1      43.358  36.053  32.387  1.00  0.00     0.173 A 
ATOM     85  C   UNL A   1      42.563  35.123  34.455  1.00  0.00     0.173 A 
ATOM     86  F   UNL A   1      43.633  35.950  31.078  1.00  0.00    -0.203 F 
ATOM     87  C   UNL A   1      43.663  37.244  33.044  1.00  0.00     0.198 A 
ATOM     88  C   UNL A   1      42.835  36.325  35.101  1.00  0.00     0.198 A 
ATOM     89  F   UNL A   1      42.037  34.115  35.168  1.00  0.00    -0.203 F 
ATOM     90  F   UNL A   1      44.232  38.252  32.369  1.00  0.00    -0.200 F 
ATOM     91  C   UNL A   1      43.392  37.381  34.397  1.00  0.00     0.200 A 
ATOM     92  F   UNL A   1      42.555  36.463  36.405  1.00  0.00    -0.200 F 
ATOM     93  F   UNL A   1      43.677  38.530  35.025  1.00  0.00    -0.200 F 
ENDBRANCH  60  83
ENDBRANCH  34  35
ENDBRANCH  26  29
ENDBRANCH  24  25
ENDBRANCH  23  24
ENDBRANCH   1  23
TORSDOF 14
ENDMDL
