MODEL 1
REMARK VINA RESULT:     -11.9      0.000      0.000
REMARK SMILES Cc1cscc1CNC(=O)CC(C)(C)C(=O)NCCCCNC(=O)c1ccc(-c2c3nc(c(-c4c(F)c(F)c(F)c(F)c4F)c4ccc([nH]4)c(-c4c(F)c(F)c(F)c(F)c4F)c4nc(c(-c5c(F)c(F)c(F)c(F)c5F)c5ccc2[nH]5)C=C4)C=C3)cc1
REMARK SMILES IDX 18 1 17 2 15 3 16 4 12 6 13 7 14 8 11 9 9 10 8 11 10 13 7 14
REMARK SMILES IDX 6 15 1 16 2 17 3 18 4 19 5 20 19 21 20 22 21 23 22 24 23 25
REMARK SMILES IDX 24 27 25 28 26 29 87 30 27 31 86 32 28 33 29 34 30 35 80 36
REMARK SMILES IDX 31 37 85 38 79 39 81 40 32 41 84 42 78 43 77 44 33 46 65 47
REMARK SMILES IDX 45 48 64 49 46 50 49 51 63 52 82 53 47 54 48 55 62 57 83 58
REMARK SMILES IDX 50 59 34 60 35 61 43 62 36 63 37 64 41 65 44 66 38 67 39 68
REMARK SMILES IDX 42 69 40 70 66 71 67 72 75 73 68 74 69 75 73 76 76 77 70 78
REMARK SMILES IDX 71 79 74 80 72 81 51 82 52 83 60 84 53 85 54 86 58 87 61 88
REMARK SMILES IDX 55 89 56 90 59 91 57 92
REMARK H PARENT 17 5 8 12 22 26 81 45 49 56
REMARK Flexibility Score: inf
ROOT
ATOM      1  C   UNL A   1      32.439  29.901  25.594  1.00  0.00     0.116 C 
ENDROOT
BRANCH   1   2
ATOM      2  N   UNL A   1      31.458  29.818  24.533  1.00  0.00    -0.356 N 
ATOM      3  C   UNL A   1      31.313  28.987  23.469  1.00  0.00     0.226 C 
ATOM      4  O   UNL A   1      30.341  29.242  22.755  1.00  0.00    -0.274 OA
ATOM      5  H   UNL A   1      30.753  30.502  24.597  1.00  0.00     0.163 HD
BRANCH   3   6
ATOM      6  C   UNL A   1      32.321  27.872  23.113  1.00  0.00     0.052 C 
ATOM      7  C   UNL A   1      32.826  27.093  24.340  1.00  0.00     0.022 C 
ATOM      8  C   UNL A   1      33.536  28.549  22.439  1.00  0.00     0.022 C 
BRANCH   6   9
ATOM      9  C   UNL A   1      31.719  26.863  22.078  1.00  0.00     0.116 C 
BRANCH   9  10
ATOM     10  C   UNL A   1      32.368  25.500  21.866  1.00  0.00     0.221 C 
ATOM     11  N   UNL A   1      31.810  24.351  22.317  1.00  0.00    -0.352 N 
ATOM     12  H   UNL A   1      32.231  23.531  21.970  1.00  0.00     0.163 HD
ATOM     13  O   UNL A   1      33.482  25.410  21.340  1.00  0.00    -0.275 OA
BRANCH  11  14
ATOM     14  C   UNL A   1      30.708  24.115  23.216  1.00  0.00     0.152 C 
BRANCH  14  15
ATOM     15  C   UNL A   1      31.200  23.748  24.590  1.00  0.00    -0.015 A 
ATOM     16  C   UNL A   1      29.860  25.601  25.855  1.00  0.00     0.045 C 
ATOM     17  C   UNL A   1      30.789  24.429  25.804  1.00  0.00    -0.035 A 
ATOM     18  C   UNL A   1      31.361  23.856  26.925  1.00  0.00     0.068 A 
ATOM     19  S   UNL A   1      32.376  22.540  26.555  1.00  0.00    -0.152 S 
ATOM     20  C   UNL A   1      32.079  22.717  24.886  1.00  0.00     0.070 A 
ENDBRANCH  14  15
ENDBRANCH  11  14
ENDBRANCH   9  10
ENDBRANCH   6   9
ENDBRANCH   3   6
ENDBRANCH   1   2
BRANCH   1  21
ATOM     21  C   UNL A   1      31.848  30.450  26.889  1.00  0.00     0.023 C 
BRANCH  21  22
ATOM     22  C   UNL A   1      31.601  31.958  26.910  1.00  0.00     0.023 C 
BRANCH  22  23
ATOM     23  C   UNL A   1      32.806  32.815  27.279  1.00  0.00     0.116 C 
BRANCH  23  24
ATOM     24  N   UNL A   1      32.453  34.175  27.661  1.00  0.00    -0.352 N 
ATOM     25  C   UNL A   1      33.002  34.984  28.626  1.00  0.00     0.251 C 
ATOM     26  H   UNL A   1      31.709  34.572  27.153  1.00  0.00     0.163 HD
ATOM     27  O   UNL A   1      32.495  36.072  28.883  1.00  0.00    -0.269 OA
BRANCH  25  28
ATOM     28  C   UNL A   1      34.183  34.524  29.382  1.00  0.00     0.039 A 
ATOM     29  C   UNL A   1      33.996  33.954  30.643  1.00  0.00     0.014 A 
ATOM     30  C   UNL A   1      35.465  34.626  28.836  1.00  0.00     0.014 A 
ATOM     31  C   UNL A   1      35.086  33.409  31.323  1.00  0.00     0.010 A 
ATOM     32  C   UNL A   1      36.536  34.014  29.478  1.00  0.00     0.010 A 
ATOM     33  C   UNL A   1      36.357  33.395  30.725  1.00  0.00    -0.014 A 
BRANCH  33  34
ATOM     34  C   UNL A   1      37.514  32.738  31.386  1.00  0.00     0.031 A 
ATOM     35  C   UNL A   1      38.219  31.599  30.706  1.00  0.00     0.074 A 
ATOM     36  C   UNL A   1      37.882  33.121  32.624  1.00  0.00     0.049 A 
ATOM     37  N   UNL A   1      39.184  30.835  31.153  1.00  0.00    -0.248 NA
ATOM     38  C   UNL A   1      37.759  31.253  29.350  1.00  0.00     0.031 C 
ATOM     39  C   UNL A   1      37.246  34.182  33.408  1.00  0.00     0.029 A 
ATOM     40  N   UNL A   1      38.873  32.650  33.448  1.00  0.00    -0.354 N 
ATOM     41  C   UNL A   1      39.438  29.918  30.142  1.00  0.00     0.074 A 
ATOM     42  C   UNL A   1      38.488  30.180  29.084  1.00  0.00     0.031 C 
ATOM     43  C   UNL A   1      37.874  34.292  34.589  1.00  0.00     0.029 A 
ATOM     44  C   UNL A   1      38.930  33.289  34.663  1.00  0.00     0.049 A 
ATOM     45  H   UNL A   1      39.487  31.923  33.193  1.00  0.00     0.167 HD
ATOM     46  C   UNL A   1      40.396  28.963  30.090  1.00  0.00     0.037 A 
ATOM     47  C   UNL A   1      39.737  33.078  35.720  1.00  0.00     0.037 A 
ATOM     48  C   UNL A   1      41.353  28.717  31.136  1.00  0.00     0.049 A 
ATOM     49  C   UNL A   1      40.787  32.001  35.639  1.00  0.00     0.074 A 
ATOM     50  C   UNL A   1      42.383  27.794  31.165  1.00  0.00     0.029 A 
ATOM     51  N   UNL A   1      41.397  29.405  32.340  1.00  0.00    -0.354 N 
ATOM     52  N   UNL A   1      41.054  31.178  34.655  1.00  0.00    -0.248 NA
ATOM     53  C   UNL A   1      41.652  31.831  36.814  1.00  0.00     0.031 C 
ATOM     54  C   UNL A   1      43.031  27.901  32.400  1.00  0.00     0.029 A 
ATOM     55  C   UNL A   1      42.433  28.921  33.122  1.00  0.00     0.049 A 
ATOM     56  H   UNL A   1      40.784  30.130  32.599  1.00  0.00     0.167 HD
ATOM     57  C   UNL A   1      42.134  30.416  35.078  1.00  0.00     0.074 A 
ATOM     58  C   UNL A   1      42.484  30.885  36.402  1.00  0.00     0.031 C 
ATOM     59  C   UNL A   1      42.778  29.415  34.430  1.00  0.00     0.037 A 
BRANCH  46  60
ATOM     60  C   UNL A   1      40.469  28.126  28.847  1.00  0.00     0.064 A 
ATOM     61  C   UNL A   1      41.237  28.526  27.742  1.00  0.00     0.173 A 
ATOM     62  C   UNL A   1      39.798  26.897  28.769  1.00  0.00     0.173 A 
ATOM     63  F   UNL A   1      41.887  29.699  27.761  1.00  0.00    -0.203 F 
ATOM     64  C   UNL A   1      41.307  27.740  26.595  1.00  0.00     0.198 A 
ATOM     65  C   UNL A   1      39.895  26.099  27.631  1.00  0.00     0.198 A 
ATOM     66  F   UNL A   1      39.055  26.465  29.799  1.00  0.00    -0.203 F 
ATOM     67  F   UNL A   1      42.008  28.165  25.535  1.00  0.00    -0.200 F 
ATOM     68  C   UNL A   1      40.643  26.524  26.544  1.00  0.00     0.200 A 
ATOM     69  F   UNL A   1      39.263  24.918  27.588  1.00  0.00    -0.200 F 
ATOM     70  F   UNL A   1      40.719  25.764  25.443  1.00  0.00    -0.200 F 
ENDBRANCH  46  60
BRANCH  47  71
ATOM     71  C   UNL A   1      39.604  33.914  36.943  1.00  0.00     0.064 A 
ATOM     72  C   UNL A   1      38.836  33.477  38.032  1.00  0.00     0.173 A 
ATOM     73  C   UNL A   1      40.215  35.172  37.040  1.00  0.00     0.173 A 
ATOM     74  F   UNL A   1      38.214  32.290  37.979  1.00  0.00    -0.203 F 
ATOM     75  C   UNL A   1      38.659  34.280  39.158  1.00  0.00     0.198 A 
ATOM     76  C   UNL A   1      40.062  35.962  38.177  1.00  0.00     0.198 A 
ATOM     77  F   UNL A   1      40.965  35.634  36.028  1.00  0.00    -0.203 F 
ATOM     78  F   UNL A   1      37.874  33.862  40.159  1.00  0.00    -0.200 F 
ATOM     79  C   UNL A   1      39.275  35.520  39.230  1.00  0.00     0.200 A 
ATOM     80  F   UNL A   1      40.669  37.153  38.250  1.00  0.00    -0.200 F 
ATOM     81  F   UNL A   1      39.102  36.293  40.311  1.00  0.00    -0.200 F 
ENDBRANCH  47  71
BRANCH  59  82
ATOM     82  C   UNL A   1      43.953  28.791  35.123  1.00  0.00     0.064 A 
ATOM     83  C   UNL A   1      43.801  27.708  35.999  1.00  0.00     0.173 A 
ATOM     84  C   UNL A   1      45.252  29.263  34.878  1.00  0.00     0.173 A 
ATOM     85  F   UNL A   1      42.578  27.231  36.278  1.00  0.00    -0.203 F 
ATOM     86  C   UNL A   1      44.905  27.133  36.623  1.00  0.00     0.198 A 
ATOM     87  C   UNL A   1      46.355  28.669  35.481  1.00  0.00     0.198 A 
ATOM     88  F   UNL A   1      45.450  30.295  34.043  1.00  0.00    -0.203 F 
ATOM     89  F   UNL A   1      44.732  26.128  37.493  1.00  0.00    -0.200 F 
ATOM     90  C   UNL A   1      46.180  27.610  36.359  1.00  0.00     0.200 A 
ATOM     91  F   UNL A   1      47.589  29.121  35.215  1.00  0.00    -0.200 F 
ATOM     92  F   UNL A   1      47.243  27.051  36.956  1.00  0.00    -0.200 F 
ENDBRANCH  59  82
ENDBRANCH  33  34
ENDBRANCH  25  28
ENDBRANCH  23  24
ENDBRANCH  22  23
ENDBRANCH  21  22
ENDBRANCH   1  21
TORSDOF 15
ENDMDL
MODEL 2
REMARK VINA RESULT:     -11.9      0.804      1.905
REMARK SMILES Cc1cscc1CNC(=O)CC(C)(C)C(=O)NCCCCNC(=O)c1ccc(-c2c3nc(c(-c4c(F)c(F)c(F)c(F)c4F)c4ccc([nH]4)c(-c4c(F)c(F)c(F)c(F)c4F)c4nc(c(-c5c(F)c(F)c(F)c(F)c5F)c5ccc2[nH]5)C=C4)C=C3)cc1
REMARK SMILES IDX 18 1 17 2 15 3 16 4 12 6 13 7 14 8 11 9 9 10 8 11 10 13 7 14
REMARK SMILES IDX 6 15 1 16 2 17 3 18 4 19 5 20 19 21 20 22 21 23 22 24 23 25
REMARK SMILES IDX 24 27 25 28 26 29 87 30 27 31 86 32 28 33 29 34 30 35 80 36
REMARK SMILES IDX 31 37 85 38 79 39 81 40 32 41 84 42 78 43 77 44 33 46 65 47
REMARK SMILES IDX 45 48 64 49 46 50 49 51 63 52 82 53 47 54 48 55 62 57 83 58
REMARK SMILES IDX 50 59 34 60 35 61 43 62 36 63 37 64 41 65 44 66 38 67 39 68
REMARK SMILES IDX 42 69 40 70 66 71 67 72 75 73 68 74 69 75 73 76 76 77 70 78
REMARK SMILES IDX 71 79 74 80 72 81 51 82 52 83 60 84 53 85 54 86 58 87 61 88
REMARK SMILES IDX 55 89 56 90 59 91 57 92
REMARK H PARENT 17 5 8 12 22 26 81 45 49 56
REMARK Flexibility Score: inf
ROOT
ATOM      1  C   UNL A   1      31.417  29.932  25.107  1.00  0.00     0.116 C 
ENDROOT
BRANCH   1   2
ATOM      2  N   UNL A   1      32.604  29.642  24.332  1.00  0.00    -0.356 N 
ATOM      3  C   UNL A   1      33.281  28.495  24.067  1.00  0.00     0.226 C 
ATOM      4  O   UNL A   1      34.283  28.646  23.367  1.00  0.00    -0.274 OA
ATOM      5  H   UNL A   1      33.002  30.438  23.911  1.00  0.00     0.163 HD
BRANCH   3   6
ATOM      6  C   UNL A   1      32.897  27.121  24.661  1.00  0.00     0.052 C 
ATOM      7  C   UNL A   1      32.838  27.118  26.199  1.00  0.00     0.022 C 
ATOM      8  C   UNL A   1      33.979  26.110  24.219  1.00  0.00     0.022 C 
BRANCH   6   9
ATOM      9  C   UNL A   1      31.527  26.614  24.096  1.00  0.00     0.116 C 
BRANCH   9  10
ATOM     10  C   UNL A   1      31.480  25.816  22.797  1.00  0.00     0.221 C 
ATOM     11  N   UNL A   1      31.083  24.521  22.754  1.00  0.00    -0.352 N 
ATOM     12  H   UNL A   1      30.930  24.174  21.846  1.00  0.00     0.163 HD
ATOM     13  O   UNL A   1      31.887  26.310  21.742  1.00  0.00    -0.275 OA
BRANCH  11  14
ATOM     14  C   UNL A   1      30.846  23.562  23.803  1.00  0.00     0.152 C 
BRANCH  14  15
ATOM     15  C   UNL A   1      32.140  22.992  24.319  1.00  0.00    -0.015 A 
ATOM     16  C   UNL A   1      31.750  23.664  26.813  1.00  0.00     0.045 C 
ATOM     17  C   UNL A   1      32.540  23.029  25.713  1.00  0.00    -0.035 A 
ATOM     18  C   UNL A   1      33.753  22.395  25.909  1.00  0.00     0.068 A 
ATOM     19  S   UNL A   1      34.419  21.772  24.471  1.00  0.00    -0.152 S 
ATOM     20  C   UNL A   1      33.102  22.348  23.555  1.00  0.00     0.070 A 
ENDBRANCH  14  15
ENDBRANCH  11  14
ENDBRANCH   9  10
ENDBRANCH   6   9
ENDBRANCH   3   6
ENDBRANCH   1   2
BRANCH   1  21
ATOM     21  C   UNL A   1      31.745  30.557  26.460  1.00  0.00     0.023 C 
BRANCH  21  22
ATOM     22  C   UNL A   1      31.641  32.080  26.522  1.00  0.00     0.023 C 
BRANCH  22  23
ATOM     23  C   UNL A   1      32.740  32.780  27.313  1.00  0.00     0.116 C 
BRANCH  23  24
ATOM     24  N   UNL A   1      32.431  34.168  27.626  1.00  0.00    -0.352 N 
ATOM     25  C   UNL A   1      33.002  35.004  28.553  1.00  0.00     0.251 C 
ATOM     26  H   UNL A   1      31.703  34.565  27.094  1.00  0.00     0.163 HD
ATOM     27  O   UNL A   1      32.531  36.120  28.754  1.00  0.00    -0.269 OA
BRANCH  25  28
ATOM     28  C   UNL A   1      34.164  34.543  29.339  1.00  0.00     0.039 A 
ATOM     29  C   UNL A   1      33.948  34.011  30.612  1.00  0.00     0.014 A 
ATOM     30  C   UNL A   1      35.455  34.606  28.809  1.00  0.00     0.014 A 
ATOM     31  C   UNL A   1      35.018  33.464  31.322  1.00  0.00     0.010 A 
ATOM     32  C   UNL A   1      36.505  33.991  29.483  1.00  0.00     0.010 A 
ATOM     33  C   UNL A   1      36.297  33.409  30.743  1.00  0.00    -0.014 A 
BRANCH  33  34
ATOM     34  C   UNL A   1      37.431  32.748  31.438  1.00  0.00     0.031 A 
ATOM     35  C   UNL A   1      38.131  31.586  30.793  1.00  0.00     0.074 A 
ATOM     36  C   UNL A   1      37.781  33.150  32.675  1.00  0.00     0.049 A 
ATOM     37  N   UNL A   1      39.076  30.817  31.274  1.00  0.00    -0.248 NA
ATOM     38  C   UNL A   1      37.692  31.222  29.436  1.00  0.00     0.031 C 
ATOM     39  C   UNL A   1      37.147  34.235  33.427  1.00  0.00     0.029 A 
ATOM     40  N   UNL A   1      38.750  32.681  33.527  1.00  0.00    -0.354 N 
ATOM     41  C   UNL A   1      39.336  29.878  30.285  1.00  0.00     0.074 A 
ATOM     42  C   UNL A   1      38.410  30.133  29.204  1.00  0.00     0.031 C 
ATOM     43  C   UNL A   1      37.754  34.358  34.618  1.00  0.00     0.029 A 
ATOM     44  C   UNL A   1      38.793  33.341  34.731  1.00  0.00     0.049 A 
ATOM     45  H   UNL A   1      39.358  31.940  33.297  1.00  0.00     0.167 HD
ATOM     46  C   UNL A   1      40.281  28.908  30.269  1.00  0.00     0.037 A 
ATOM     47  C   UNL A   1      39.578  33.140  35.807  1.00  0.00     0.037 A 
ATOM     48  C   UNL A   1      41.213  28.668  31.337  1.00  0.00     0.049 A 
ATOM     49  C   UNL A   1      40.613  32.046  35.766  1.00  0.00     0.074 A 
ATOM     50  C   UNL A   1      42.229  27.731  31.404  1.00  0.00     0.029 A 
ATOM     51  N   UNL A   1      41.246  29.379  32.529  1.00  0.00    -0.354 N 
ATOM     52  N   UNL A   1      40.886  31.201  34.803  1.00  0.00    -0.248 NA
ATOM     53  C   UNL A   1      41.453  31.886  36.961  1.00  0.00     0.031 C 
ATOM     54  C   UNL A   1      42.856  27.852  32.648  1.00  0.00     0.029 A 
ATOM     55  C   UNL A   1      42.259  28.895  33.340  1.00  0.00     0.049 A 
ATOM     56  H   UNL A   1      40.639  30.117  32.762  1.00  0.00     0.167 HD
ATOM     57  C   UNL A   1      41.946  30.431  35.261  1.00  0.00     0.074 A 
ATOM     58  C   UNL A   1      42.278  30.921  36.582  1.00  0.00     0.031 C 
ATOM     59  C   UNL A   1      42.587  29.409  34.644  1.00  0.00     0.037 A 
BRANCH  46  60
ATOM     60  C   UNL A   1      40.365  28.046  29.043  1.00  0.00     0.064 A 
ATOM     61  C   UNL A   1      39.641  26.848  28.944  1.00  0.00     0.173 A 
ATOM     62  C   UNL A   1      41.145  28.435  27.945  1.00  0.00     0.173 A 
ATOM     63  F   UNL A   1      38.890  26.425  29.972  1.00  0.00    -0.203 F 
ATOM     64  C   UNL A   1      39.716  26.058  27.800  1.00  0.00     0.198 A 
ATOM     65  C   UNL A   1      41.194  27.656  26.791  1.00  0.00     0.198 A 
ATOM     66  F   UNL A   1      41.852  29.574  27.986  1.00  0.00    -0.203 F 
ATOM     67  F   UNL A   1      39.053  24.894  27.747  1.00  0.00    -0.200 F 
ATOM     68  C   UNL A   1      40.486  26.466  26.722  1.00  0.00     0.200 A 
ATOM     69  F   UNL A   1      41.929  28.059  25.745  1.00  0.00    -0.200 F 
ATOM     70  F   UNL A   1      40.552  25.709  25.618  1.00  0.00    -0.200 F 
ENDBRANCH  46  60
BRANCH  47  71
ATOM     71  C   UNL A   1      39.434  34.001  37.011  1.00  0.00     0.064 A 
ATOM     72  C   UNL A   1      40.064  35.251  37.080  1.00  0.00     0.173 A 
ATOM     73  C   UNL A   1      38.692  33.583  38.125  1.00  0.00     0.173 A 
ATOM     74  F   UNL A   1      40.803  35.686  36.048  1.00  0.00    -0.203 F 
ATOM     75  C   UNL A   1      39.982  36.038  38.227  1.00  0.00     0.198 A 
ATOM     76  C   UNL A   1      38.587  34.383  39.261  1.00  0.00     0.198 A 
ATOM     77  F   UNL A   1      38.065  32.397  38.108  1.00  0.00    -0.203 F 
ATOM     78  F   UNL A   1      40.641  37.203  38.286  1.00  0.00    -0.200 F 
ATOM     79  C   UNL A   1      39.241  35.604  39.316  1.00  0.00     0.200 A 
ATOM     80  F   UNL A   1      37.858  33.966  40.305  1.00  0.00    -0.200 F 
ATOM     81  F   UNL A   1      39.165  36.359  40.420  1.00  0.00    -0.200 F 
ENDBRANCH  47  71
BRANCH  59  82
ATOM     82  C   UNL A   1      43.739  28.781  35.371  1.00  0.00     0.064 A 
ATOM     83  C   UNL A   1      43.551  27.743  36.293  1.00  0.00     0.173 A 
ATOM     84  C   UNL A   1      45.053  29.202  35.112  1.00  0.00     0.173 A 
ATOM     85  F   UNL A   1      42.313  27.317  36.587  1.00  0.00    -0.203 F 
ATOM     86  C   UNL A   1      44.634  27.164  36.949  1.00  0.00     0.198 A 
ATOM     87  C   UNL A   1      46.135  28.602  35.748  1.00  0.00     0.198 A 
ATOM     88  F   UNL A   1      45.287  30.188  34.233  1.00  0.00    -0.203 F 
ATOM     89  F   UNL A   1      44.427  26.205  37.862  1.00  0.00    -0.200 F 
ATOM     90  C   UNL A   1      45.924  27.589  36.671  1.00  0.00     0.200 A 
ATOM     91  F   UNL A   1      47.383  29.004  35.468  1.00  0.00    -0.200 F 
ATOM     92  F   UNL A   1      46.967  27.026  37.299  1.00  0.00    -0.200 F 
ENDBRANCH  59  82
ENDBRANCH  33  34
ENDBRANCH  25  28
ENDBRANCH  23  24
ENDBRANCH  22  23
ENDBRANCH  21  22
ENDBRANCH   1  21
TORSDOF 15
ENDMDL
MODEL 3
REMARK VINA RESULT:     -11.9      5.805     11.176
REMARK SMILES Cc1cscc1CNC(=O)CC(C)(C)C(=O)NCCCCNC(=O)c1ccc(-c2c3nc(c(-c4c(F)c(F)c(F)c(F)c4F)c4ccc([nH]4)c(-c4c(F)c(F)c(F)c(F)c4F)c4nc(c(-c5c(F)c(F)c(F)c(F)c5F)c5ccc2[nH]5)C=C4)C=C3)cc1
REMARK SMILES IDX 18 1 17 2 15 3 16 4 12 6 13 7 14 8 11 9 9 10 8 11 10 13 7 14
REMARK SMILES IDX 6 15 1 16 2 17 3 18 4 19 5 20 19 21 20 22 21 23 22 24 23 25
REMARK SMILES IDX 24 27 25 28 26 29 87 30 27 31 86 32 28 33 29 34 30 35 80 36
REMARK SMILES IDX 31 37 85 38 79 39 81 40 32 41 84 42 78 43 77 44 33 46 65 47
REMARK SMILES IDX 45 48 64 49 46 50 49 51 63 52 82 53 47 54 48 55 62 57 83 58
REMARK SMILES IDX 50 59 34 60 35 61 43 62 36 63 37 64 41 65 44 66 38 67 39 68
REMARK SMILES IDX 42 69 40 70 66 71 67 72 75 73 68 74 69 75 73 76 76 77 70 78
REMARK SMILES IDX 71 79 74 80 72 81 51 82 52 83 60 84 53 85 54 86 58 87 61 88
REMARK SMILES IDX 55 89 56 90 59 91 57 92
REMARK H PARENT 17 5 8 12 22 26 81 45 49 56
REMARK Flexibility Score: inf
ROOT
ATOM      1  C   UNL A   1      36.904  22.286  25.504  1.00  0.00     0.116 C 
ENDROOT
BRANCH   1   2
ATOM      2  N   UNL A   1      35.879  21.870  26.437  1.00  0.00    -0.356 N 
ATOM      3  C   UNL A   1      34.586  22.244  26.621  1.00  0.00     0.226 C 
ATOM      4  O   UNL A   1      34.019  21.667  27.550  1.00  0.00    -0.274 OA
ATOM      5  H   UNL A   1      36.180  21.173  27.064  1.00  0.00     0.163 HD
BRANCH   3   6
ATOM      6  C   UNL A   1      33.898  23.362  25.808  1.00  0.00     0.052 C 
ATOM      7  C   UNL A   1      34.737  24.648  25.709  1.00  0.00     0.022 C 
ATOM      8  C   UNL A   1      32.574  23.705  26.528  1.00  0.00     0.022 C 
BRANCH   6   9
ATOM      9  C   UNL A   1      33.530  22.879  24.364  1.00  0.00     0.116 C 
BRANCH   9  10
ATOM     10  C   UNL A   1      34.054  23.631  23.145  1.00  0.00     0.221 C 
ATOM     11  N   UNL A   1      33.409  24.701  22.620  1.00  0.00    -0.352 N 
ATOM     12  H   UNL A   1      33.930  25.201  21.951  1.00  0.00     0.163 HD
ATOM     13  O   UNL A   1      35.053  23.230  22.541  1.00  0.00    -0.275 OA
BRANCH  11  14
ATOM     14  C   UNL A   1      32.094  25.237  22.867  1.00  0.00     0.152 C 
BRANCH  14  15
ATOM     15  C   UNL A   1      32.168  26.493  23.695  1.00  0.00    -0.015 A 
ATOM     16  C   UNL A   1      30.009  26.020  25.087  1.00  0.00     0.045 C 
ATOM     17  C   UNL A   1      31.210  26.836  24.729  1.00  0.00    -0.035 A 
ATOM     18  C   UNL A   1      31.545  28.022  25.356  1.00  0.00     0.068 A 
ATOM     19  S   UNL A   1      32.963  28.728  24.732  1.00  0.00    -0.152 S 
ATOM     20  C   UNL A   1      33.151  27.467  23.601  1.00  0.00     0.070 A 
ENDBRANCH  14  15
ENDBRANCH  11  14
ENDBRANCH   9  10
ENDBRANCH   6   9
ENDBRANCH   3   6
ENDBRANCH   1   2
BRANCH   1  21
ATOM     21  C   UNL A   1      37.215  21.213  24.465  1.00  0.00     0.023 C 
BRANCH  21  22
ATOM     22  C   UNL A   1      37.979  19.997  24.986  1.00  0.00     0.023 C 
BRANCH  22  23
ATOM     23  C   UNL A   1      39.209  20.309  25.831  1.00  0.00     0.116 C 
BRANCH  23  24
ATOM     24  N   UNL A   1      40.166  19.212  25.884  1.00  0.00    -0.352 N 
ATOM     25  C   UNL A   1      41.522  19.244  26.096  1.00  0.00     0.251 C 
ATOM     26  H   UNL A   1      39.784  18.316  25.747  1.00  0.00     0.163 HD
ATOM     27  O   UNL A   1      42.189  18.218  25.996  1.00  0.00    -0.269 OA
BRANCH  25  28
ATOM     28  C   UNL A   1      42.185  20.526  26.408  1.00  0.00     0.039 A 
ATOM     29  C   UNL A   1      42.686  21.298  25.358  1.00  0.00     0.014 A 
ATOM     30  C   UNL A   1      42.284  20.977  27.727  1.00  0.00     0.014 A 
ATOM     31  C   UNL A   1      43.212  22.564  25.622  1.00  0.00     0.010 A 
ATOM     32  C   UNL A   1      42.736  22.268  27.979  1.00  0.00     0.010 A 
ATOM     33  C   UNL A   1      43.199  23.077  26.930  1.00  0.00    -0.014 A 
BRANCH  33  34
ATOM     34  C   UNL A   1      43.665  24.456  27.222  1.00  0.00     0.031 A 
ATOM     35  C   UNL A   1      42.696  25.482  27.737  1.00  0.00     0.074 A 
ATOM     36  C   UNL A   1      44.940  24.800  26.959  1.00  0.00     0.049 A 
ATOM     37  N   UNL A   1      42.882  26.759  27.963  1.00  0.00    -0.248 NA
ATOM     38  C   UNL A   1      41.325  25.018  28.008  1.00  0.00     0.031 C 
ATOM     39  C   UNL A   1      45.965  23.907  26.413  1.00  0.00     0.029 A 
ATOM     40  N   UNL A   1      45.591  26.001  27.101  1.00  0.00    -0.354 N 
ATOM     41  C   UNL A   1      41.655  27.247  28.392  1.00  0.00     0.074 A 
ATOM     42  C   UNL A   1      40.718  26.148  28.338  1.00  0.00     0.031 C 
ATOM     43  C   UNL A   1      47.117  24.585  26.284  1.00  0.00     0.029 A 
ATOM     44  C   UNL A   1      46.905  25.967  26.701  1.00  0.00     0.049 A 
ATOM     45  H   UNL A   1      45.157  26.810  27.457  1.00  0.00     0.167 HD
ATOM     46  C   UNL A   1      41.346  28.494  28.821  1.00  0.00     0.037 A 
ATOM     47  C   UNL A   1      47.830  26.945  26.666  1.00  0.00     0.037 A 
ATOM     48  C   UNL A   1      42.285  29.582  28.893  1.00  0.00     0.049 A 
ATOM     49  C   UNL A   1      47.455  28.326  27.138  1.00  0.00     0.074 A 
ATOM     50  C   UNL A   1      42.078  30.874  29.342  1.00  0.00     0.029 A 
ATOM     51  N   UNL A   1      43.615  29.500  28.507  1.00  0.00    -0.354 N 
ATOM     52  N   UNL A   1      46.307  28.762  27.594  1.00  0.00    -0.248 NA
ATOM     53  C   UNL A   1      48.510  29.348  27.096  1.00  0.00     0.031 C 
ATOM     54  C   UNL A   1      43.274  31.584  29.199  1.00  0.00     0.029 A 
ATOM     55  C   UNL A   1      44.239  30.722  28.701  1.00  0.00     0.049 A 
ATOM     56  H   UNL A   1      44.051  28.694  28.149  1.00  0.00     0.167 HD
ATOM     57  C   UNL A   1      46.508  30.095  27.922  1.00  0.00     0.074 A 
ATOM     58  C   UNL A   1      47.894  30.394  27.628  1.00  0.00     0.031 C 
ATOM     59  C   UNL A   1      45.625  30.994  28.420  1.00  0.00     0.037 A 
BRANCH  46  60
ATOM     60  C   UNL A   1      39.935  28.741  29.266  1.00  0.00     0.064 A 
ATOM     61  C   UNL A   1      38.957  29.198  28.369  1.00  0.00     0.173 A 
ATOM     62  C   UNL A   1      39.544  28.487  30.589  1.00  0.00     0.173 A 
ATOM     63  F   UNL A   1      39.281  29.469  27.096  1.00  0.00    -0.203 F 
ATOM     64  C   UNL A   1      37.647  29.417  28.787  1.00  0.00     0.198 A 
ATOM     65  C   UNL A   1      38.227  28.678  30.996  1.00  0.00     0.198 A 
ATOM     66  F   UNL A   1      40.439  28.044  31.485  1.00  0.00    -0.203 F 
ATOM     67  F   UNL A   1      36.741  29.898  27.924  1.00  0.00    -0.200 F 
ATOM     68  C   UNL A   1      37.281  29.149  30.097  1.00  0.00     0.200 A 
ATOM     69  F   UNL A   1      37.871  28.407  32.259  1.00  0.00    -0.200 F 
ATOM     70  F   UNL A   1      36.018  29.351  30.496  1.00  0.00    -0.200 F 
ENDBRANCH  46  60
BRANCH  47  71
ATOM     71  C   UNL A   1      49.207  26.658  26.186  1.00  0.00     0.064 A 
ATOM     72  C   UNL A   1      50.176  26.134  27.053  1.00  0.00     0.173 A 
ATOM     73  C   UNL A   1      49.592  26.926  24.864  1.00  0.00     0.173 A 
ATOM     74  F   UNL A   1      49.862  25.880  28.333  1.00  0.00    -0.203 F 
ATOM     75  C   UNL A   1      51.485  25.917  26.625  1.00  0.00     0.198 A 
ATOM     76  C   UNL A   1      50.893  26.681  24.430  1.00  0.00     0.198 A 
ATOM     77  F   UNL A   1      48.702  27.423  23.993  1.00  0.00    -0.203 F 
ATOM     78  F   UNL A   1      52.404  25.468  27.491  1.00  0.00    -0.200 F 
ATOM     79  C   UNL A   1      51.841  26.188  25.314  1.00  0.00     0.200 A 
ATOM     80  F   UNL A   1      51.230  26.932  23.158  1.00  0.00    -0.200 F 
ATOM     81  F   UNL A   1      53.100  25.982  24.904  1.00  0.00    -0.200 F 
ENDBRANCH  47  71
BRANCH  59  82
ATOM     82  C   UNL A   1      46.140  32.370  28.721  1.00  0.00     0.064 A 
ATOM     83  C   UNL A   1      46.106  33.395  27.765  1.00  0.00     0.173 A 
ATOM     84  C   UNL A   1      46.641  32.675  29.997  1.00  0.00     0.173 A 
ATOM     85  F   UNL A   1      45.651  33.147  26.527  1.00  0.00    -0.203 F 
ATOM     86  C   UNL A   1      46.577  34.669  28.067  1.00  0.00     0.198 A 
ATOM     87  C   UNL A   1      47.084  33.958  30.303  1.00  0.00     0.198 A 
ATOM     88  F   UNL A   1      46.689  31.731  30.948  1.00  0.00    -0.203 F 
ATOM     89  F   UNL A   1      46.578  35.621  27.123  1.00  0.00    -0.200 F 
ATOM     90  C   UNL A   1      47.059  34.951  29.336  1.00  0.00     0.200 A 
ATOM     91  F   UNL A   1      47.537  34.233  31.535  1.00  0.00    -0.200 F 
ATOM     92  F   UNL A   1      47.506  36.181  29.627  1.00  0.00    -0.200 F 
ENDBRANCH  59  82
ENDBRANCH  33  34
ENDBRANCH  25  28
ENDBRANCH  23  24
ENDBRANCH  22  23
ENDBRANCH  21  22
ENDBRANCH   1  21
TORSDOF 15
ENDMDL
