MODEL 1
REMARK VINA RESULT:     -14.3      0.000      0.000
REMARK SMILES O=C(CNC(=O)[C@@H](CC1=c2ccccc2=NC1)N1C(=O)N=C2C=CC=C[C@H]2C1=O)NCCCCNC(=O)c1ccc(-c2c3nc(c(-c4c(F)c(F)c(F)c(F)c4F)c4ccc([nH]4)c(-c4c(F)c(F)c(F)c(F)c4F)c4nc(c(-c5c(F)c(F)c(F)c(F)c5F)c5ccc2[nH]5)C=C4)C=C3)cc1
REMARK SMILES IDX 31 1 30 2 1 3 2 4 3 6 4 7 5 8 6 10 7 11 8 12 9 13 10 14
REMARK SMILES IDX 17 15 11 16 15 17 16 18 12 19 14 20 13 21 18 22 19 23 28 24
REMARK SMILES IDX 21 25 20 26 27 27 29 28 22 29 26 30 23 31 25 32 24 33 32 34
REMARK SMILES IDX 33 35 34 36 35 37 36 38 37 40 38 41 39 42 100 43 40 44 99 45
REMARK SMILES IDX 41 46 42 47 43 48 93 49 44 50 98 51 92 52 94 53 45 54 97 55
REMARK SMILES IDX 91 56 90 57 46 59 78 60 58 61 77 62 59 63 62 64 76 65 95 66
REMARK SMILES IDX 60 67 61 68 75 70 96 71 63 72 47 73 48 74 56 75 49 76 50 77
REMARK SMILES IDX 54 78 57 79 51 80 52 81 55 82 53 83 79 84 80 85 88 86 81 87
REMARK SMILES IDX 82 88 86 89 89 90 83 91 84 92 87 93 85 94 64 95 65 96 73 97
REMARK SMILES IDX 66 98 67 99 71 100 74 101 68 102 69 103 72 104 70 105
REMARK H PARENT 30 5 4 9 35 39 94 58 62 69
REMARK Flexibility Score: inf
ROOT
ATOM      1  C   UNL A   1      34.622  32.713  29.654  1.00  0.00     0.116 C 
ENDROOT
BRANCH   1   2
ATOM      2  N   UNL A   1      34.338  31.426  28.657  1.00  0.00    -0.355 N 
ATOM      3  O   UNL A   1      36.403  29.609  27.542  1.00  0.00    -0.273 OA
ATOM      4  C   UNL A   1      35.181  29.938  27.686  1.00  0.00     0.239 C 
ATOM      5  H   UNL A   1      33.370  31.389  28.481  1.00  0.00     0.163 HD
BRANCH   4   6
ATOM      6  C   UNL A   1      34.395  28.734  26.617  1.00  0.00     0.216 C 
BRANCH   6   7
ATOM      7  N   UNL A   1      34.235  28.879  25.173  1.00  0.00    -0.345 N 
ATOM      8  C   UNL A   1      33.503  28.168  24.277  1.00  0.00     0.244 C 
ATOM      9  H   UNL A   1      34.747  29.623  24.780  1.00  0.00     0.164 HD
ATOM     10  O   UNL A   1      33.944  28.167  23.122  1.00  0.00    -0.273 OA
BRANCH   8  11
ATOM     11  C   UNL A   1      32.143  27.508  24.593  1.00  0.00     0.188 C 
BRANCH  11  12
ATOM     12  C   UNL A   1      31.925  26.839  25.976  1.00  0.00     0.069 C 
BRANCH  12  13
ATOM     13  C   UNL A   1      32.127  25.369  26.167  1.00  0.00    -0.037 C 
ATOM     14  C   UNL A   1      33.225  24.657  25.947  1.00  0.00     0.001 A 
ATOM     15  C   UNL A   1      31.011  24.523  26.822  1.00  0.00     0.174 C 
ATOM     16  C   UNL A   1      35.019  24.701  25.315  1.00  0.00     0.010 A 
ATOM     17  C   UNL A   1      32.678  23.030  26.851  1.00  0.00     0.065 A 
ATOM     18  N   UNL A   1      31.456  23.132  27.249  1.00  0.00    -0.280 NA
ATOM     19  C   UNL A   1      36.020  23.464  25.520  1.00  0.00     0.001 A 
ATOM     20  C   UNL A   1      34.025  21.614  26.993  1.00  0.00     0.028 A 
ATOM     21  C   UNL A   1      35.521  21.845  26.368  1.00  0.00     0.002 A 
ENDBRANCH  12  13
ENDBRANCH  11  12
BRANCH  11  22
ATOM     22  N   UNL A   1      31.162  28.419  23.950  1.00  0.00    -0.249 N 
ATOM     23  C   UNL A   1      30.399  27.799  22.958  1.00  0.00     0.351 C 
ATOM     24  C   UNL A   1      30.874  29.702  24.365  1.00  0.00     0.244 C 
ATOM     25  N   UNL A   1      29.796  28.546  22.001  1.00  0.00    -0.197 NA
ATOM     26  O   UNL A   1      30.207  26.586  22.964  1.00  0.00    -0.246 OA
ATOM     27  C   UNL A   1      30.039  30.564  23.406  1.00  0.00     0.151 C 
ATOM     28  O   UNL A   1      31.269  30.163  25.438  1.00  0.00    -0.273 OA
ATOM     29  C   UNL A   1      29.526  29.784  22.223  1.00  0.00     0.062 C 
ATOM     30  C   UNL A   1      28.863  31.304  24.011  1.00  0.00    -0.007 C 
ATOM     31  C   UNL A   1      28.547  30.409  21.309  1.00  0.00     0.025 C 
ATOM     32  C   UNL A   1      27.761  31.590  23.291  1.00  0.00    -0.003 C 
ATOM     33  C   UNL A   1      27.657  31.217  21.897  1.00  0.00     0.002 C 
ENDBRANCH  11  22
ENDBRANCH   8  11
ENDBRANCH   6   7
ENDBRANCH   4   6
ENDBRANCH   1   2
BRANCH   1  34
ATOM     34  C   UNL A   1      34.818  34.000  28.837  1.00  0.00     0.023 C 
BRANCH  34  35
ATOM     35  C   UNL A   1      33.616  34.942  28.737  1.00  0.00     0.023 C 
BRANCH  35  36
ATOM     36  C   UNL A   1      33.624  36.137  29.682  1.00  0.00     0.116 C 
BRANCH  36  37
ATOM     37  N   UNL A   1      32.533  36.119  30.645  1.00  0.00    -0.352 N 
ATOM     38  C   UNL A   1      32.489  35.574  31.907  1.00  0.00     0.251 C 
ATOM     39  H   UNL A   1      31.705  36.561  30.348  1.00  0.00     0.163 HD
ATOM     40  O   UNL A   1      31.434  35.548  32.533  1.00  0.00    -0.269 OA
BRANCH  38  41
ATOM     41  C   UNL A   1      33.709  34.977  32.492  1.00  0.00     0.039 A 
ATOM     42  C   UNL A   1      34.915  35.679  32.497  1.00  0.00     0.014 A 
ATOM     43  C   UNL A   1      33.651  33.677  33.003  1.00  0.00     0.014 A 
ATOM     44  C   UNL A   1      36.092  35.018  32.828  1.00  0.00     0.010 A 
ATOM     45  C   UNL A   1      34.824  33.045  33.423  1.00  0.00     0.010 A 
ATOM     46  C   UNL A   1      36.064  33.689  33.282  1.00  0.00    -0.014 A 
BRANCH  46  47
ATOM     47  C   UNL A   1      37.342  32.991  33.581  1.00  0.00     0.031 A 
ATOM     48  C   UNL A   1      38.074  33.242  34.872  1.00  0.00     0.074 A 
ATOM     49  C   UNL A   1      37.818  32.084  32.707  1.00  0.00     0.049 A 
ATOM     50  N   UNL A   1      39.189  32.709  35.307  1.00  0.00    -0.248 NA
ATOM     51  C   UNL A   1      37.483  34.222  35.797  1.00  0.00     0.031 C 
ATOM     52  C   UNL A   1      37.195  31.747  31.427  1.00  0.00     0.029 A 
ATOM     53  N   UNL A   1      38.916  31.265  32.769  1.00  0.00    -0.354 N 
ATOM     54  C   UNL A   1      39.441  33.301  36.539  1.00  0.00     0.074 A 
ATOM     55  C   UNL A   1      38.381  34.258  36.771  1.00  0.00     0.031 C 
ATOM     56  C   UNL A   1      37.890  30.757  30.848  1.00  0.00     0.029 A 
ATOM     57  C   UNL A   1      39.042  30.434  31.683  1.00  0.00     0.049 A 
ATOM     58  H   UNL A   1      39.553  31.272  33.520  1.00  0.00     0.167 HD
ATOM     59  C   UNL A   1      40.456  33.058  37.402  1.00  0.00     0.037 A 
ATOM     60  C   UNL A   1      39.988  29.525  31.381  1.00  0.00     0.037 A 
ATOM     61  C   UNL A   1      41.494  32.083  37.181  1.00  0.00     0.049 A 
ATOM     62  C   UNL A   1      41.124  29.302  32.337  1.00  0.00     0.074 A 
ATOM     63  C   UNL A   1      42.541  31.736  38.017  1.00  0.00     0.029 A 
ATOM     64  N   UNL A   1      41.618  31.302  36.040  1.00  0.00    -0.354 N 
ATOM     65  N   UNL A   1      41.340  29.854  33.505  1.00  0.00    -0.248 NA
ATOM     66  C   UNL A   1      42.152  28.335  31.930  1.00  0.00     0.031 C 
ATOM     67  C   UNL A   1      43.328  30.785  37.361  1.00  0.00     0.029 A 
ATOM     68  C   UNL A   1      42.742  30.498  36.139  1.00  0.00     0.049 A 
ATOM     69  H   UNL A   1      40.999  31.317  35.276  1.00  0.00     0.167 HD
ATOM     70  C   UNL A   1      42.522  29.300  33.978  1.00  0.00     0.074 A 
ATOM     71  C   UNL A   1      42.964  28.349  32.979  1.00  0.00     0.031 C 
ATOM     72  C   UNL A   1      43.179  29.562  35.134  1.00  0.00     0.037 A 
BRANCH  59  73
ATOM     73  C   UNL A   1      40.510  33.862  38.670  1.00  0.00     0.064 A 
ATOM     74  C   UNL A   1      41.235  35.060  38.754  1.00  0.00     0.173 A 
ATOM     75  C   UNL A   1      39.773  33.462  39.796  1.00  0.00     0.173 A 
ATOM     76  F   UNL A   1      41.966  35.483  37.711  1.00  0.00    -0.203 F 
ATOM     77  C   UNL A   1      41.237  35.817  39.924  1.00  0.00     0.198 A 
ATOM     78  C   UNL A   1      39.754  34.235  40.953  1.00  0.00     0.198 A 
ATOM     79  F   UNL A   1      39.056  32.329  39.767  1.00  0.00    -0.203 F 
ATOM     80  F   UNL A   1      41.967  36.937  39.995  1.00  0.00    -0.200 F 
ATOM     81  C   UNL A   1      40.489  35.409  41.019  1.00  0.00     0.200 A 
ATOM     82  F   UNL A   1      39.018  33.847  42.006  1.00  0.00    -0.200 F 
ATOM     83  F   UNL A   1      40.479  36.145  42.139  1.00  0.00    -0.200 F 
ENDBRANCH  59  73
BRANCH  60  84
ATOM     84  C   UNL A   1      39.881  28.763  30.111  1.00  0.00     0.064 A 
ATOM     85  C   UNL A   1      40.416  29.269  28.920  1.00  0.00     0.173 A 
ATOM     86  C   UNL A   1      39.295  27.488  30.077  1.00  0.00     0.173 A 
ATOM     87  F   UNL A   1      40.967  30.491  28.899  1.00  0.00    -0.203 F 
ATOM     88  C   UNL A   1      40.371  28.526  27.741  1.00  0.00     0.198 A 
ATOM     89  C   UNL A   1      39.277  26.735  28.905  1.00  0.00     0.198 A 
ATOM     90  F   UNL A   1      38.772  26.959  31.193  1.00  0.00    -0.203 F 
ATOM     91  F   UNL A   1      40.870  29.041  26.609  1.00  0.00    -0.200 F 
ATOM     92  C   UNL A   1      39.814  27.256  27.738  1.00  0.00     0.200 A 
ATOM     93  F   UNL A   1      38.755  25.502  28.912  1.00  0.00    -0.200 F 
ATOM     94  F   UNL A   1      39.794  26.534  26.610  1.00  0.00    -0.200 F 
ENDBRANCH  60  84
BRANCH  72  95
ATOM     95  C   UNL A   1      44.453  28.812  35.391  1.00  0.00     0.064 A 
ATOM     96  C   UNL A   1      45.698  29.339  35.018  1.00  0.00     0.173 A 
ATOM     97  C   UNL A   1      44.436  27.591  36.082  1.00  0.00     0.173 A 
ATOM     98  F   UNL A   1      45.767  30.496  34.344  1.00  0.00    -0.203 F 
ATOM     99  C   UNL A   1      46.879  28.663  35.315  1.00  0.00     0.198 A 
ATOM    100  C   UNL A   1      45.620  26.933  36.403  1.00  0.00     0.198 A 
ATOM    101  F   UNL A   1      43.271  27.048  36.467  1.00  0.00    -0.203 F 
ATOM    102  F   UNL A   1      48.055  29.168  34.920  1.00  0.00    -0.200 F 
ATOM    103  C   UNL A   1      46.840  27.467  36.016  1.00  0.00     0.200 A 
ATOM    104  F   UNL A   1      45.581  25.786  37.095  1.00  0.00    -0.200 F 
ATOM    105  F   UNL A   1      47.978  26.827  36.318  1.00  0.00    -0.200 F 
ENDBRANCH  72  95
ENDBRANCH  46  47
ENDBRANCH  38  41
ENDBRANCH  36  37
ENDBRANCH  35  36
ENDBRANCH  34  35
ENDBRANCH   1  34
TORSDOF 16
ENDMDL
MODEL 2
REMARK VINA RESULT:     -14.2      0.214      1.517
REMARK SMILES O=C(CNC(=O)[C@@H](CC1=c2ccccc2=NC1)N1C(=O)N=C2C=CC=C[C@H]2C1=O)NCCCCNC(=O)c1ccc(-c2c3nc(c(-c4c(F)c(F)c(F)c(F)c4F)c4ccc([nH]4)c(-c4c(F)c(F)c(F)c(F)c4F)c4nc(c(-c5c(F)c(F)c(F)c(F)c5F)c5ccc2[nH]5)C=C4)C=C3)cc1
REMARK SMILES IDX 31 1 30 2 1 3 2 4 3 6 4 7 5 8 6 10 7 11 8 12 9 13 10 14
REMARK SMILES IDX 17 15 11 16 15 17 16 18 12 19 14 20 13 21 18 22 19 23 28 24
REMARK SMILES IDX 21 25 20 26 27 27 29 28 22 29 26 30 23 31 25 32 24 33 32 34
REMARK SMILES IDX 33 35 34 36 35 37 36 38 37 40 38 41 39 42 100 43 40 44 99 45
REMARK SMILES IDX 41 46 42 47 43 48 93 49 44 50 98 51 92 52 94 53 45 54 97 55
REMARK SMILES IDX 91 56 90 57 46 59 78 60 58 61 77 62 59 63 62 64 76 65 95 66
REMARK SMILES IDX 60 67 61 68 75 70 96 71 63 72 47 73 48 74 56 75 49 76 50 77
REMARK SMILES IDX 54 78 57 79 51 80 52 81 55 82 53 83 79 84 80 85 88 86 81 87
REMARK SMILES IDX 82 88 86 89 89 90 83 91 84 92 87 93 85 94 64 95 65 96 73 97
REMARK SMILES IDX 66 98 67 99 71 100 74 101 68 102 69 103 72 104 70 105
REMARK H PARENT 30 5 4 9 35 39 94 58 62 69
REMARK Flexibility Score: inf
ROOT
ATOM      1  C   UNL A   1      34.774  32.682  29.710  1.00  0.00     0.116 C 
ENDROOT
BRANCH   1   2
ATOM      2  N   UNL A   1      34.412  31.410  28.719  1.00  0.00    -0.355 N 
ATOM      3  O   UNL A   1      36.337  29.370  27.746  1.00  0.00    -0.273 OA
ATOM      4  C   UNL A   1      35.149  29.824  27.818  1.00  0.00     0.239 C 
ATOM      5  H   UNL A   1      33.457  31.468  28.491  1.00  0.00     0.163 HD
BRANCH   4   6
ATOM      6  C   UNL A   1      34.301  28.684  26.727  1.00  0.00     0.216 C 
BRANCH   6   7
ATOM      7  N   UNL A   1      34.197  28.837  25.279  1.00  0.00    -0.345 N 
ATOM      8  C   UNL A   1      33.504  28.126  24.351  1.00  0.00     0.244 C 
ATOM      9  H   UNL A   1      34.719  29.585  24.910  1.00  0.00     0.164 HD
ATOM     10  O   UNL A   1      33.990  28.135  23.214  1.00  0.00    -0.273 OA
BRANCH   8  11
ATOM     11  C   UNL A   1      32.137  27.458  24.609  1.00  0.00     0.188 C 
BRANCH  11  12
ATOM     12  C   UNL A   1      31.883  26.743  25.963  1.00  0.00     0.069 C 
BRANCH  12  13
ATOM     13  C   UNL A   1      32.140  25.278  26.127  1.00  0.00    -0.037 C 
ATOM     14  C   UNL A   1      33.250  24.605  25.852  1.00  0.00     0.001 A 
ATOM     15  C   UNL A   1      31.080  24.389  26.816  1.00  0.00     0.174 C 
ATOM     16  C   UNL A   1      35.013  24.714  25.145  1.00  0.00     0.010 A 
ATOM     17  C   UNL A   1      32.794  22.950  26.756  1.00  0.00     0.065 A 
ATOM     18  N   UNL A   1      31.587  23.008  27.206  1.00  0.00    -0.280 NA
ATOM     19  C   UNL A   1      36.061  23.508  25.293  1.00  0.00     0.001 A 
ATOM     20  C   UNL A   1      34.190  21.578  26.824  1.00  0.00     0.028 A 
ATOM     21  C   UNL A   1      35.650  21.865  26.140  1.00  0.00     0.002 A 
ENDBRANCH  12  13
ENDBRANCH  11  12
BRANCH  11  22
ATOM     22  N   UNL A   1      31.172  28.390  23.972  1.00  0.00    -0.249 N 
ATOM     23  C   UNL A   1      30.414  27.797  22.961  1.00  0.00     0.351 C 
ATOM     24  C   UNL A   1      30.893  29.669  24.408  1.00  0.00     0.244 C 
ATOM     25  N   UNL A   1      29.830  28.568  22.011  1.00  0.00    -0.197 NA
ATOM     26  O   UNL A   1      30.210  26.587  22.942  1.00  0.00    -0.246 OA
ATOM     27  C   UNL A   1      30.078  30.557  23.456  1.00  0.00     0.151 C 
ATOM     28  O   UNL A   1      31.281  30.106  25.493  1.00  0.00    -0.273 OA
ATOM     29  C   UNL A   1      29.570  29.804  22.253  1.00  0.00     0.062 C 
ATOM     30  C   UNL A   1      28.903  31.299  24.061  1.00  0.00    -0.007 C 
ATOM     31  C   UNL A   1      28.608  30.456  21.340  1.00  0.00     0.025 C 
ATOM     32  C   UNL A   1      27.812  31.609  23.334  1.00  0.00    -0.003 C 
ATOM     33  C   UNL A   1      27.719  31.263  21.932  1.00  0.00     0.002 C 
ENDBRANCH  11  22
ENDBRANCH   8  11
ENDBRANCH   6   7
ENDBRANCH   4   6
ENDBRANCH   1   2
BRANCH   1  34
ATOM     34  C   UNL A   1      34.917  33.980  28.898  1.00  0.00     0.023 C 
BRANCH  34  35
ATOM     35  C   UNL A   1      33.681  34.877  28.811  1.00  0.00     0.023 C 
BRANCH  35  36
ATOM     36  C   UNL A   1      33.654  36.069  29.762  1.00  0.00     0.116 C 
BRANCH  36  37
ATOM     37  N   UNL A   1      32.574  36.007  30.734  1.00  0.00    -0.352 N 
ATOM     38  C   UNL A   1      32.559  35.455  31.994  1.00  0.00     0.251 C 
ATOM     39  H   UNL A   1      31.727  36.421  30.446  1.00  0.00     0.163 HD
ATOM     40  O   UNL A   1      31.512  35.388  32.628  1.00  0.00    -0.269 OA
BRANCH  38  41
ATOM     41  C   UNL A   1      33.805  34.897  32.565  1.00  0.00     0.039 A 
ATOM     42  C   UNL A   1      35.009  35.594  32.464  1.00  0.00     0.014 A 
ATOM     43  C   UNL A   1      33.770  33.638  33.171  1.00  0.00     0.014 A 
ATOM     44  C   UNL A   1      36.201  34.955  32.789  1.00  0.00     0.010 A 
ATOM     45  C   UNL A   1      34.961  33.035  33.583  1.00  0.00     0.010 A 
ATOM     46  C   UNL A   1      36.193  33.663  33.339  1.00  0.00    -0.014 A 
BRANCH  46  47
ATOM     47  C   UNL A   1      37.483  32.984  33.630  1.00  0.00     0.031 A 
ATOM     48  C   UNL A   1      38.220  33.247  34.916  1.00  0.00     0.074 A 
ATOM     49  C   UNL A   1      37.967  32.083  32.753  1.00  0.00     0.049 A 
ATOM     50  N   UNL A   1      39.346  32.731  35.344  1.00  0.00    -0.248 NA
ATOM     51  C   UNL A   1      37.620  34.219  35.844  1.00  0.00     0.031 C 
ATOM     52  C   UNL A   1      37.341  31.736  31.477  1.00  0.00     0.029 A 
ATOM     53  N   UNL A   1      39.078  31.281  32.808  1.00  0.00    -0.354 N 
ATOM     54  C   UNL A   1      39.597  33.327  36.574  1.00  0.00     0.074 A 
ATOM     55  C   UNL A   1      38.525  34.269  36.812  1.00  0.00     0.031 C 
ATOM     56  C   UNL A   1      38.046  30.756  30.895  1.00  0.00     0.029 A 
ATOM     57  C   UNL A   1      39.209  30.452  31.722  1.00  0.00     0.049 A 
ATOM     58  H   UNL A   1      39.719  31.298  33.556  1.00  0.00     0.167 HD
ATOM     59  C   UNL A   1      40.621  33.100  37.430  1.00  0.00     0.037 A 
ATOM     60  C   UNL A   1      40.166  29.556  31.415  1.00  0.00     0.037 A 
ATOM     61  C   UNL A   1      41.672  32.141  37.203  1.00  0.00     0.049 A 
ATOM     62  C   UNL A   1      41.312  29.350  32.363  1.00  0.00     0.074 A 
ATOM     63  C   UNL A   1      42.730  31.810  38.032  1.00  0.00     0.029 A 
ATOM     64  N   UNL A   1      41.800  31.361  36.062  1.00  0.00    -0.354 N 
ATOM     65  N   UNL A   1      41.528  29.907  33.530  1.00  0.00    -0.248 NA
ATOM     66  C   UNL A   1      42.352  28.399  31.950  1.00  0.00     0.031 C 
ATOM     67  C   UNL A   1      43.527  30.870  37.371  1.00  0.00     0.029 A 
ATOM     68  C   UNL A   1      42.937  30.574  36.154  1.00  0.00     0.049 A 
ATOM     69  H   UNL A   1      41.175  31.366  35.302  1.00  0.00     0.167 HD
ATOM     70  C   UNL A   1      42.720  29.371  33.995  1.00  0.00     0.074 A 
ATOM     71  C   UNL A   1      43.170  28.426  32.994  1.00  0.00     0.031 C 
ATOM     72  C   UNL A   1      43.381  29.644  35.146  1.00  0.00     0.037 A 
BRANCH  59  73
ATOM     73  C   UNL A   1      40.671  33.906  38.697  1.00  0.00     0.064 A 
ATOM     74  C   UNL A   1      40.045  33.473  39.875  1.00  0.00     0.173 A 
ATOM     75  C   UNL A   1      41.411  35.099  38.750  1.00  0.00     0.173 A 
ATOM     76  F   UNL A   1      39.316  32.346  39.877  1.00  0.00    -0.203 F 
ATOM     77  C   UNL A   1      40.141  34.211  41.052  1.00  0.00     0.198 A 
ATOM     78  C   UNL A   1      41.529  35.819  39.935  1.00  0.00     0.198 A 
ATOM     79  F   UNL A   1      42.036  35.556  37.654  1.00  0.00    -0.203 F 
ATOM     80  F   UNL A   1      39.503  33.797  42.155  1.00  0.00    -0.200 F 
ATOM     81  C   UNL A   1      40.890  35.378  41.083  1.00  0.00     0.200 A 
ATOM     82  F   UNL A   1      42.265  36.939  39.967  1.00  0.00    -0.200 F 
ATOM     83  F   UNL A   1      40.993  36.080  42.221  1.00  0.00    -0.200 F 
ENDBRANCH  59  73
BRANCH  60  84
ATOM     84  C   UNL A   1      40.062  28.791  30.146  1.00  0.00     0.064 A 
ATOM     85  C   UNL A   1      40.631  29.278  28.963  1.00  0.00     0.173 A 
ATOM     86  C   UNL A   1      39.443  27.532  30.106  1.00  0.00     0.173 A 
ATOM     87  F   UNL A   1      41.214  30.485  28.947  1.00  0.00    -0.203 F 
ATOM     88  C   UNL A   1      40.588  28.531  27.786  1.00  0.00     0.198 A 
ATOM     89  C   UNL A   1      39.427  26.775  28.937  1.00  0.00     0.198 A 
ATOM     90  F   UNL A   1      38.887  27.022  31.214  1.00  0.00    -0.203 F 
ATOM     91  F   UNL A   1      41.121  29.028  26.661  1.00  0.00    -0.200 F 
ATOM     92  C   UNL A   1      39.999  27.277  27.778  1.00  0.00     0.200 A 
ATOM     93  F   UNL A   1      38.873  25.556  28.940  1.00  0.00    -0.200 F 
ATOM     94  F   UNL A   1      39.980  26.550  26.653  1.00  0.00    -0.200 F 
ENDBRANCH  60  84
BRANCH  72  95
ATOM     95  C   UNL A   1      44.668  28.912  35.395  1.00  0.00     0.064 A 
ATOM     96  C   UNL A   1      44.683  27.654  36.017  1.00  0.00     0.173 A 
ATOM     97  C   UNL A   1      45.888  29.438  34.945  1.00  0.00     0.173 A 
ATOM     98  F   UNL A   1      43.544  27.115  36.477  1.00  0.00    -0.203 F 
ATOM     99  C   UNL A   1      45.875  26.957  36.189  1.00  0.00     0.198 A 
ATOM    100  C   UNL A   1      47.074  28.725  35.094  1.00  0.00     0.198 A 
ATOM    101  F   UNL A   1      45.926  30.634  34.338  1.00  0.00    -0.203 F 
ATOM    102  F   UNL A   1      45.871  25.772  36.815  1.00  0.00    -0.200 F 
ATOM    103  C   UNL A   1      47.068  27.486  35.718  1.00  0.00     0.200 A 
ATOM    104  F   UNL A   1      48.222  29.231  34.623  1.00  0.00    -0.200 F 
ATOM    105  F   UNL A   1      48.211  26.805  35.869  1.00  0.00    -0.200 F 
ENDBRANCH  72  95
ENDBRANCH  46  47
ENDBRANCH  38  41
ENDBRANCH  36  37
ENDBRANCH  35  36
ENDBRANCH  34  35
ENDBRANCH   1  34
TORSDOF 16
ENDMDL
MODEL 3
REMARK VINA RESULT:     -14.2      6.838     12.185
REMARK SMILES O=C(CNC(=O)[C@@H](CC1=c2ccccc2=NC1)N1C(=O)N=C2C=CC=C[C@H]2C1=O)NCCCCNC(=O)c1ccc(-c2c3nc(c(-c4c(F)c(F)c(F)c(F)c4F)c4ccc([nH]4)c(-c4c(F)c(F)c(F)c(F)c4F)c4nc(c(-c5c(F)c(F)c(F)c(F)c5F)c5ccc2[nH]5)C=C4)C=C3)cc1
REMARK SMILES IDX 31 1 30 2 1 3 2 4 3 6 4 7 5 8 6 10 7 11 8 12 9 13 10 14
REMARK SMILES IDX 17 15 11 16 15 17 16 18 12 19 14 20 13 21 18 22 19 23 28 24
REMARK SMILES IDX 21 25 20 26 27 27 29 28 22 29 26 30 23 31 25 32 24 33 32 34
REMARK SMILES IDX 33 35 34 36 35 37 36 38 37 40 38 41 39 42 100 43 40 44 99 45
REMARK SMILES IDX 41 46 42 47 43 48 93 49 44 50 98 51 92 52 94 53 45 54 97 55
REMARK SMILES IDX 91 56 90 57 46 59 78 60 58 61 77 62 59 63 62 64 76 65 95 66
REMARK SMILES IDX 60 67 61 68 75 70 96 71 63 72 47 73 48 74 56 75 49 76 50 77
REMARK SMILES IDX 54 78 57 79 51 80 52 81 55 82 53 83 79 84 80 85 88 86 81 87
REMARK SMILES IDX 82 88 86 89 89 90 83 91 84 92 87 93 85 94 64 95 65 96 73 97
REMARK SMILES IDX 66 98 67 99 71 100 74 101 68 102 69 103 72 104 70 105
REMARK H PARENT 30 5 4 9 35 39 94 58 62 69
REMARK Flexibility Score: inf
ROOT
ATOM      1  C   UNL A   1      41.588  21.760  26.106  1.00  0.00     0.116 C 
ENDROOT
BRANCH   1   2
ATOM      2  N   UNL A   1      40.017  22.237  25.925  1.00  0.00    -0.355 N 
ATOM      3  O   UNL A   1      38.779  24.630  27.172  1.00  0.00    -0.273 OA
ATOM      4  C   UNL A   1      38.699  23.616  26.405  1.00  0.00     0.239 C 
ATOM      5  H   UNL A   1      39.564  21.574  25.356  1.00  0.00     0.163 HD
BRANCH   4   6
ATOM      6  C   UNL A   1      36.964  23.683  25.963  1.00  0.00     0.216 C 
BRANCH   6   7
ATOM      7  N   UNL A   1      35.888  23.036  26.709  1.00  0.00    -0.345 N 
ATOM      8  C   UNL A   1      34.580  22.838  26.402  1.00  0.00     0.244 C 
ATOM      9  H   UNL A   1      36.158  22.682  27.587  1.00  0.00     0.164 HD
ATOM     10  O   UNL A   1      33.820  22.752  27.374  1.00  0.00    -0.273 OA
BRANCH   8  11
ATOM     11  C   UNL A   1      34.048  22.593  24.973  1.00  0.00     0.188 C 
BRANCH  11  12
ATOM     12  C   UNL A   1      34.629  23.416  23.793  1.00  0.00     0.069 C 
BRANCH  12  13
ATOM     13  C   UNL A   1      33.992  24.697  23.354  1.00  0.00    -0.037 C 
ATOM     14  C   UNL A   1      33.752  25.784  24.078  1.00  0.00     0.001 A 
ATOM     15  C   UNL A   1      33.661  24.913  21.860  1.00  0.00     0.174 C 
ATOM     16  C   UNL A   1      33.846  26.563  25.811  1.00  0.00     0.010 A 
ATOM     17  C   UNL A   1      33.337  26.994  22.619  1.00  0.00     0.065 A 
ATOM     18  N   UNL A   1      33.324  26.353  21.500  1.00  0.00    -0.280 NA
ATOM     19  C   UNL A   1      33.599  28.130  26.050  1.00  0.00     0.001 A 
ATOM     20  C   UNL A   1      33.045  28.871  23.097  1.00  0.00     0.028 A 
ATOM     21  C   UNL A   1      33.161  29.342  24.661  1.00  0.00     0.002 A 
ENDBRANCH  12  13
ENDBRANCH  11  12
BRANCH  11  22
ATOM     22  N   UNL A   1      33.839  21.123  24.933  1.00  0.00    -0.249 N 
ATOM     23  C   UNL A   1      32.505  20.759  24.732  1.00  0.00     0.351 C 
ATOM     24  C   UNL A   1      34.840  20.175  24.919  1.00  0.00     0.244 C 
ATOM     25  N   UNL A   1      32.077  19.526  25.097  1.00  0.00    -0.197 NA
ATOM     26  O   UNL A   1      31.715  21.513  24.171  1.00  0.00    -0.246 OA
ATOM     27  C   UNL A   1      34.411  18.718  25.153  1.00  0.00     0.151 C 
ATOM     28  O   UNL A   1      36.027  20.458  24.748  1.00  0.00    -0.273 OA
ATOM     29  C   UNL A   1      32.914  18.554  25.193  1.00  0.00     0.062 C 
ATOM     30  C   UNL A   1      34.960  17.688  24.187  1.00  0.00    -0.007 C 
ATOM     31  C   UNL A   1      32.332  17.196  25.213  1.00  0.00     0.025 C 
ATOM     32  C   UNL A   1      34.278  16.565  23.888  1.00  0.00    -0.003 C 
ATOM     33  C   UNL A   1      32.993  16.283  24.491  1.00  0.00     0.002 C 
ENDBRANCH  11  22
ENDBRANCH   8  11
ENDBRANCH   6   7
ENDBRANCH   4   6
ENDBRANCH   1   2
BRANCH   1  34
ATOM     34  C   UNL A   1      41.661  20.331  26.669  1.00  0.00     0.023 C 
BRANCH  34  35
ATOM     35  C   UNL A   1      42.140  19.237  25.712  1.00  0.00     0.023 C 
BRANCH  35  36
ATOM     36  C   UNL A   1      43.481  18.596  26.050  1.00  0.00     0.116 C 
BRANCH  36  37
ATOM     37  N   UNL A   1      44.381  18.509  24.910  1.00  0.00    -0.352 N 
ATOM     38  C   UNL A   1      45.055  19.509  24.248  1.00  0.00     0.251 C 
ATOM     39  H   UNL A   1      44.529  17.599  24.562  1.00  0.00     0.163 HD
ATOM     40  O   UNL A   1      45.681  19.259  23.223  1.00  0.00    -0.269 OA
BRANCH  38  41
ATOM     41  C   UNL A   1      44.986  20.898  24.751  1.00  0.00     0.039 A 
ATOM     42  C   UNL A   1      44.607  21.943  23.908  1.00  0.00     0.014 A 
ATOM     43  C   UNL A   1      45.348  21.159  26.076  1.00  0.00     0.014 A 
ATOM     44  C   UNL A   1      44.777  23.258  24.326  1.00  0.00     0.010 A 
ATOM     45  C   UNL A   1      45.429  22.481  26.523  1.00  0.00     0.010 A 
ATOM     46  C   UNL A   1      45.203  23.544  25.634  1.00  0.00    -0.014 A 
BRANCH  46  47
ATOM     47  C   UNL A   1      45.425  24.957  26.039  1.00  0.00     0.031 A 
ATOM     48  C   UNL A   1      44.311  25.770  26.642  1.00  0.00     0.074 A 
ATOM     49  C   UNL A   1      46.654  25.494  25.912  1.00  0.00     0.049 A 
ATOM     50  N   UNL A   1      44.330  27.009  27.069  1.00  0.00    -0.248 NA
ATOM     51  C   UNL A   1      43.002  25.112  26.781  1.00  0.00     0.031 C 
ATOM     52  C   UNL A   1      47.815  24.805  25.350  1.00  0.00     0.029 A 
ATOM     53  N   UNL A   1      47.136  26.728  26.265  1.00  0.00    -0.354 N 
ATOM     54  C   UNL A   1      43.039  27.282  27.506  1.00  0.00     0.074 A 
ATOM     55  C   UNL A   1      42.252  26.093  27.264  1.00  0.00     0.031 C 
ATOM     56  C   UNL A   1      48.887  25.605  25.443  1.00  0.00     0.029 A 
ATOM     57  C   UNL A   1      48.476  26.886  26.010  1.00  0.00     0.049 A 
ATOM     58  H   UNL A   1      46.576  27.433  26.663  1.00  0.00     0.167 HD
ATOM     59  C   UNL A   1      42.560  28.416  28.070  1.00  0.00     0.037 A 
ATOM     60  C   UNL A   1      49.284  27.947  26.194  1.00  0.00     0.037 A 
ATOM     61  C   UNL A   1      43.354  29.589  28.336  1.00  0.00     0.049 A 
ATOM     62  C   UNL A   1      48.719  29.206  26.785  1.00  0.00     0.074 A 
ATOM     63  C   UNL A   1      42.967  30.771  28.942  1.00  0.00     0.029 A 
ATOM     64  N   UNL A   1      44.695  29.728  28.009  1.00  0.00    -0.354 N 
ATOM     65  N   UNL A   1      47.503  29.445  27.211  1.00  0.00    -0.248 NA
ATOM     66  C   UNL A   1      49.636  30.346  26.915  1.00  0.00     0.031 C 
ATOM     67  C   UNL A   1      44.058  31.645  28.934  1.00  0.00     0.029 A 
ATOM     68  C   UNL A   1      45.141  30.989  28.374  1.00  0.00     0.049 A 
ATOM     69  H   UNL A   1      45.248  29.034  27.584  1.00  0.00     0.167 HD
ATOM     70  C   UNL A   1      47.507  30.756  27.665  1.00  0.00     0.074 A 
ATOM     71  C   UNL A   1      48.854  31.255  27.485  1.00  0.00     0.031 C 
ATOM     72  C   UNL A   1      46.483  31.479  28.180  1.00  0.00     0.037 A 
BRANCH  59  73
ATOM     73  C   UNL A   1      41.103  28.460  28.434  1.00  0.00     0.064 A 
ATOM     74  C   UNL A   1      40.644  28.055  29.696  1.00  0.00     0.173 A 
ATOM     75  C   UNL A   1      40.161  28.975  27.529  1.00  0.00     0.173 A 
ATOM     76  F   UNL A   1      41.500  27.545  30.595  1.00  0.00    -0.203 F 
ATOM     77  C   UNL A   1      39.295  28.146  30.032  1.00  0.00     0.198 A 
ATOM     78  C   UNL A   1      38.818  29.091  27.878  1.00  0.00     0.198 A 
ATOM     79  F   UNL A   1      40.547  29.383  26.311  1.00  0.00    -0.203 F 
ATOM     80  F   UNL A   1      38.874  27.718  31.229  1.00  0.00    -0.200 F 
ATOM     81  C   UNL A   1      38.385  28.672  29.126  1.00  0.00     0.200 A 
ATOM     82  F   UNL A   1      37.943  29.613  27.007  1.00  0.00    -0.200 F 
ATOM     83  F   UNL A   1      37.090  28.772  29.456  1.00  0.00    -0.200 F 
ENDBRANCH  59  73
BRANCH  60  84
ATOM     84  C   UNL A   1      50.715  27.842  25.812  1.00  0.00     0.064 A 
ATOM     85  C   UNL A   1      51.695  27.539  26.766  1.00  0.00     0.173 A 
ATOM     86  C   UNL A   1      51.122  27.984  24.477  1.00  0.00     0.173 A 
ATOM     87  F   UNL A   1      51.358  27.415  28.057  1.00  0.00    -0.203 F 
ATOM     88  C   UNL A   1      53.030  27.379  26.396  1.00  0.00     0.198 A 
ATOM     89  C   UNL A   1      52.451  27.795  24.105  1.00  0.00     0.198 A 
ATOM     90  F   UNL A   1      50.220  28.270  23.526  1.00  0.00    -0.203 F 
ATOM     91  F   UNL A   1      53.953  27.111  27.330  1.00  0.00    -0.200 F 
ATOM     92  C   UNL A   1      53.404  27.494  25.066  1.00  0.00     0.200 A 
ATOM     93  F   UNL A   1      52.803  27.888  22.816  1.00  0.00    -0.200 F 
ATOM     94  F   UNL A   1      54.683  27.315  24.709  1.00  0.00    -0.200 F 
ENDBRANCH  60  84
BRANCH  72  95
ATOM     95  C   UNL A   1      46.771  32.893  28.590  1.00  0.00     0.064 A 
ATOM     96  C   UNL A   1      47.249  33.197  29.874  1.00  0.00     0.173 A 
ATOM     97  C   UNL A   1      46.640  33.945  27.672  1.00  0.00     0.173 A 
ATOM     98  F   UNL A   1      47.379  32.228  30.793  1.00  0.00    -0.203 F 
ATOM     99  C   UNL A   1      47.571  34.505  30.226  1.00  0.00     0.198 A 
ATOM    100  C   UNL A   1      46.991  35.247  28.018  1.00  0.00     0.198 A 
ATOM    101  F   UNL A   1      46.195  33.706  26.429  1.00  0.00    -0.203 F 
ATOM    102  F   UNL A   1      47.994  34.778  31.468  1.00  0.00    -0.200 F 
ATOM    103  C   UNL A   1      47.452  35.527  29.296  1.00  0.00     0.200 A 
ATOM    104  F   UNL A   1      46.891  36.230  27.112  1.00  0.00    -0.200 F 
ATOM    105  F   UNL A   1      47.781  36.782  29.630  1.00  0.00    -0.200 F 
ENDBRANCH  72  95
ENDBRANCH  46  47
ENDBRANCH  38  41
ENDBRANCH  36  37
ENDBRANCH  35  36
ENDBRANCH  34  35
ENDBRANCH   1  34
TORSDOF 16
ENDMDL
