MODEL 1
REMARK VINA RESULT:     -12.9      0.000      0.000
REMARK SMILES O=C(/C=C/C(=O)N1CCn2c1nc1ccccc12)NCCCCNC(=O)c1ccc(-c2c3nc(c(-c4c(F)c(F)c(F)c(F)c4F)c4ccc([nH]4)c(-c4c(F)c(F)c(F)c(F)c4F)c4nc(c(-c5c(F)c(F)c(F)c(F)c5F)c5ccc2[nH]5)C=C4)C=C3)cc1
REMARK SMILES IDX 21 1 20 2 19 3 1 4 2 5 3 7 4 8 5 9 6 10 7 11 8 12 11 13 9 14
REMARK SMILES IDX 10 15 12 16 18 17 13 18 17 19 14 20 16 21 15 22 22 23 23 24
REMARK SMILES IDX 24 25 25 26 26 28 27 29 28 30 89 31 29 32 88 33 30 34 31 35
REMARK SMILES IDX 32 36 82 37 33 38 87 39 81 40 83 41 34 42 86 43 80 44 79 45
REMARK SMILES IDX 35 47 67 48 47 49 66 50 48 51 51 52 65 53 84 54 49 55 50 56
REMARK SMILES IDX 64 58 85 59 52 60 36 61 37 62 45 63 38 64 39 65 43 66 46 67
REMARK SMILES IDX 40 68 41 69 44 70 42 71 68 72 69 73 77 74 70 75 71 76 75 77
REMARK SMILES IDX 78 78 72 79 73 80 76 81 74 82 53 83 54 84 62 85 55 86 56 87
REMARK SMILES IDX 60 88 63 89 57 90 58 91 61 92 59 93
REMARK H PARENT 19 6 24 27 83 46 51 57
REMARK Flexibility Score: inf
ROOT
ATOM      1  C   UNL A   1      36.187  20.899  25.216  1.00  0.00     0.023 C 
ENDROOT
BRANCH   1   2
ATOM      2  C   UNL A   1      34.709  21.015  24.823  1.00  0.00     0.116 C 
BRANCH   2   3
ATOM      3  N   UNL A   1      34.401  22.266  24.152  1.00  0.00    -0.353 N 
ATOM      4  O   UNL A   1      32.518  21.490  23.098  1.00  0.00    -0.270 OA
ATOM      5  C   UNL A   1      33.300  22.390  23.334  1.00  0.00     0.244 C 
ATOM      6  H   UNL A   1      34.991  23.043  24.286  1.00  0.00     0.163 HD
BRANCH   5   7
ATOM      7  C   UNL A   1      33.176  23.685  22.618  1.00  0.00     0.077 C 
ATOM      8  C   UNL A   1      32.887  24.867  23.176  1.00  0.00     0.077 C 
BRANCH   8   9
ATOM      9  C   UNL A   1      33.022  26.127  22.404  1.00  0.00     0.253 C 
ATOM     10  O   UNL A   1      33.453  26.026  21.253  1.00  0.00    -0.269 OA
BRANCH   9  11
ATOM     11  N   UNL A   1      32.655  27.334  22.926  1.00  0.00    -0.277 N 
ATOM     12  C   UNL A   1      33.559  28.143  23.765  1.00  0.00     0.151 C 
ATOM     13  C   UNL A   1      31.437  27.948  22.838  1.00  0.00     0.213 A 
ATOM     14  C   UNL A   1      32.707  29.325  24.258  1.00  0.00     0.148 C 
ATOM     15  N   UNL A   1      31.455  29.100  23.564  1.00  0.00    -0.308 N 
ATOM     16  N   UNL A   1      30.271  27.735  22.297  1.00  0.00    -0.212 NA
ATOM     17  C   UNL A   1      30.260  29.719  23.485  1.00  0.00     0.070 A 
ATOM     18  C   UNL A   1      29.520  28.843  22.678  1.00  0.00     0.091 A 
ATOM     19  C   UNL A   1      29.748  30.907  24.009  1.00  0.00     0.028 A 
ATOM     20  C   UNL A   1      28.190  29.170  22.376  1.00  0.00     0.031 A 
ATOM     21  C   UNL A   1      28.421  31.211  23.688  1.00  0.00     0.002 A 
ATOM     22  C   UNL A   1      27.653  30.360  22.886  1.00  0.00     0.002 A 
ENDBRANCH   9  11
ENDBRANCH   8   9
ENDBRANCH   5   7
ENDBRANCH   2   3
ENDBRANCH   1   2
BRANCH   1  23
ATOM     23  C   UNL A   1      37.136  21.861  24.495  1.00  0.00     0.023 C 
BRANCH  23  24
ATOM     24  C   UNL A   1      38.043  22.661  25.430  1.00  0.00     0.116 C 
BRANCH  24  25
ATOM     25  N   UNL A   1      38.857  21.833  26.303  1.00  0.00    -0.352 N 
ATOM     26  C   UNL A   1      39.893  22.189  27.134  1.00  0.00     0.251 C 
ATOM     27  H   UNL A   1      38.636  20.874  26.298  1.00  0.00     0.163 HD
ATOM     28  O   UNL A   1      40.509  21.338  27.766  1.00  0.00    -0.269 OA
BRANCH  26  29
ATOM     29  C   UNL A   1      40.301  23.605  27.222  1.00  0.00     0.039 A 
ATOM     30  C   UNL A   1      41.408  24.077  26.514  1.00  0.00     0.014 A 
ATOM     31  C   UNL A   1      39.556  24.466  28.035  1.00  0.00     0.014 A 
ATOM     32  C   UNL A   1      41.857  25.374  26.725  1.00  0.00     0.010 A 
ATOM     33  C   UNL A   1      39.976  25.782  28.207  1.00  0.00     0.010 A 
ATOM     34  C   UNL A   1      41.144  26.226  27.574  1.00  0.00    -0.014 A 
BRANCH  34  35
ATOM     35  C   UNL A   1      41.596  27.619  27.648  1.00  0.00     0.031 A 
ATOM     36  C   UNL A   1      40.488  28.610  27.696  1.00  0.00     0.074 A 
ATOM     37  C   UNL A   1      42.805  27.968  28.127  1.00  0.00     0.049 A 
ATOM     38  N   UNL A   1      39.878  28.913  28.804  1.00  0.00    -0.248 NA
ATOM     39  C   UNL A   1      39.826  29.111  26.494  1.00  0.00     0.031 C 
ATOM     40  C   UNL A   1      43.558  27.187  29.114  1.00  0.00     0.029 A 
ATOM     41  N   UNL A   1      43.490  29.156  28.034  1.00  0.00    -0.354 N 
ATOM     42  C   UNL A   1      38.720  29.577  28.459  1.00  0.00     0.074 A 
ATOM     43  C   UNL A   1      38.741  29.703  27.017  1.00  0.00     0.031 C 
ATOM     44  C   UNL A   1      44.481  27.993  29.682  1.00  0.00     0.029 A 
ATOM     45  C   UNL A   1      44.499  29.277  28.986  1.00  0.00     0.049 A 
ATOM     46  H   UNL A   1      43.289  29.849  27.364  1.00  0.00     0.167 HD
ATOM     47  C   UNL A   1      37.796  29.966  29.373  1.00  0.00     0.037 A 
ATOM     48  C   UNL A   1      44.900  30.449  29.548  1.00  0.00     0.037 A 
ATOM     49  C   UNL A   1      38.083  29.646  30.739  1.00  0.00     0.049 A 
ATOM     50  C   UNL A   1      43.665  30.844  30.321  1.00  0.00     0.074 A 
ATOM     51  C   UNL A   1      37.778  28.630  31.620  1.00  0.00     0.029 A 
ATOM     52  N   UNL A   1      38.943  30.465  31.432  1.00  0.00    -0.354 N 
ATOM     53  N   UNL A   1      43.308  30.387  31.492  1.00  0.00    -0.248 NA
ATOM     54  C   UNL A   1      42.605  31.549  29.594  1.00  0.00     0.031 C 
ATOM     55  C   UNL A   1      38.815  28.655  32.605  1.00  0.00     0.029 A 
ATOM     56  C   UNL A   1      39.713  29.650  32.224  1.00  0.00     0.049 A 
ATOM     57  H   UNL A   1      38.995  31.446  31.372  1.00  0.00     0.167 HD
ATOM     58  C   UNL A   1      41.918  30.522  31.533  1.00  0.00     0.074 A 
ATOM     59  C   UNL A   1      41.554  31.266  30.348  1.00  0.00     0.031 C 
ATOM     60  C   UNL A   1      41.124  29.870  32.430  1.00  0.00     0.037 A 
BRANCH  47  61
ATOM     61  C   UNL A   1      36.628  30.801  29.058  1.00  0.00     0.064 A 
ATOM     62  C   UNL A   1      35.516  30.180  28.471  1.00  0.00     0.173 A 
ATOM     63  C   UNL A   1      36.650  32.195  29.140  1.00  0.00     0.173 A 
ATOM     64  F   UNL A   1      35.475  28.840  28.371  1.00  0.00    -0.203 F 
ATOM     65  C   UNL A   1      34.476  30.930  27.942  1.00  0.00     0.198 A 
ATOM     66  C   UNL A   1      35.599  32.946  28.614  1.00  0.00     0.198 A 
ATOM     67  F   UNL A   1      37.698  32.827  29.687  1.00  0.00    -0.203 F 
ATOM     68  F   UNL A   1      33.447  30.312  27.347  1.00  0.00    -0.200 F 
ATOM     69  C   UNL A   1      34.521  32.314  28.004  1.00  0.00     0.200 A 
ATOM     70  F   UNL A   1      35.640  34.284  28.669  1.00  0.00    -0.200 F 
ATOM     71  F   UNL A   1      33.533  33.038  27.465  1.00  0.00    -0.200 F 
ENDBRANCH  47  61
BRANCH  48  72
ATOM     72  C   UNL A   1      45.626  31.384  28.625  1.00  0.00     0.064 A 
ATOM     73  C   UNL A   1      46.969  31.714  28.908  1.00  0.00     0.173 A 
ATOM     74  C   UNL A   1      45.076  31.987  27.483  1.00  0.00     0.173 A 
ATOM     75  F   UNL A   1      47.546  31.284  30.041  1.00  0.00    -0.203 F 
ATOM     76  C   UNL A   1      47.743  32.485  28.039  1.00  0.00     0.198 A 
ATOM     77  C   UNL A   1      45.858  32.735  26.598  1.00  0.00     0.198 A 
ATOM     78  F   UNL A   1      43.776  31.857  27.190  1.00  0.00    -0.203 F 
ATOM     79  F   UNL A   1      49.025  32.742  28.333  1.00  0.00    -0.200 F 
ATOM     80  C   UNL A   1      47.194  32.968  26.866  1.00  0.00     0.200 A 
ATOM     81  F   UNL A   1      45.310  33.211  25.471  1.00  0.00    -0.200 F 
ATOM     82  F   UNL A   1      47.946  33.664  26.003  1.00  0.00    -0.200 F 
ENDBRANCH  48  72
BRANCH  60  83
ATOM     83  C   UNL A   1      41.838  29.158  33.522  1.00  0.00     0.064 A 
ATOM     84  C   UNL A   1      42.008  29.777  34.767  1.00  0.00     0.173 A 
ATOM     85  C   UNL A   1      42.324  27.852  33.362  1.00  0.00     0.173 A 
ATOM     86  F   UNL A   1      41.552  31.024  34.971  1.00  0.00    -0.203 F 
ATOM     87  C   UNL A   1      42.618  29.105  35.821  1.00  0.00     0.198 A 
ATOM     88  C   UNL A   1      42.911  27.174  34.426  1.00  0.00     0.198 A 
ATOM     89  F   UNL A   1      42.208  27.216  32.184  1.00  0.00    -0.203 F 
ATOM     90  F   UNL A   1      42.761  29.712  37.008  1.00  0.00    -0.200 F 
ATOM     91  C   UNL A   1      43.056  27.799  35.653  1.00  0.00     0.200 A 
ATOM     92  F   UNL A   1      43.318  25.907  34.268  1.00  0.00    -0.200 F 
ATOM     93  F   UNL A   1      43.608  27.140  36.682  1.00  0.00    -0.200 F 
ENDBRANCH  60  83
ENDBRANCH  34  35
ENDBRANCH  26  29
ENDBRANCH  24  25
ENDBRANCH  23  24
ENDBRANCH   1  23
TORSDOF 13
ENDMDL
MODEL 2
REMARK VINA RESULT:     -12.8      1.305      2.253
REMARK SMILES O=C(/C=C/C(=O)N1CCn2c1nc1ccccc12)NCCCCNC(=O)c1ccc(-c2c3nc(c(-c4c(F)c(F)c(F)c(F)c4F)c4ccc([nH]4)c(-c4c(F)c(F)c(F)c(F)c4F)c4nc(c(-c5c(F)c(F)c(F)c(F)c5F)c5ccc2[nH]5)C=C4)C=C3)cc1
REMARK SMILES IDX 21 1 20 2 19 3 1 4 2 5 3 7 4 8 5 9 6 10 7 11 8 12 11 13 9 14
REMARK SMILES IDX 10 15 12 16 18 17 13 18 17 19 14 20 16 21 15 22 22 23 23 24
REMARK SMILES IDX 24 25 25 26 26 28 27 29 28 30 89 31 29 32 88 33 30 34 31 35
REMARK SMILES IDX 32 36 82 37 33 38 87 39 81 40 83 41 34 42 86 43 80 44 79 45
REMARK SMILES IDX 35 47 67 48 47 49 66 50 48 51 51 52 65 53 84 54 49 55 50 56
REMARK SMILES IDX 64 58 85 59 52 60 36 61 37 62 45 63 38 64 39 65 43 66 46 67
REMARK SMILES IDX 40 68 41 69 44 70 42 71 68 72 69 73 77 74 70 75 71 76 75 77
REMARK SMILES IDX 78 78 72 79 73 80 76 81 74 82 53 83 54 84 62 85 55 86 56 87
REMARK SMILES IDX 60 88 63 89 57 90 58 91 61 92 59 93
REMARK H PARENT 19 6 24 27 83 46 51 57
REMARK Flexibility Score: inf
ROOT
ATOM      1  C   UNL A   1      37.323  20.378  24.786  1.00  0.00     0.023 C 
ENDROOT
BRANCH   1   2
ATOM      2  C   UNL A   1      35.947  19.736  25.001  1.00  0.00     0.116 C 
BRANCH   2   3
ATOM      3  N   UNL A   1      34.941  20.690  25.432  1.00  0.00    -0.353 N 
ATOM      4  O   UNL A   1      33.216  19.731  24.262  1.00  0.00    -0.270 OA
ATOM      5  C   UNL A   1      33.632  20.592  25.014  1.00  0.00     0.244 C 
ATOM      6  H   UNL A   1      35.199  21.423  26.037  1.00  0.00     0.163 HD
BRANCH   5   7
ATOM      7  C   UNL A   1      32.740  21.703  25.432  1.00  0.00     0.077 C 
ATOM      8  C   UNL A   1      33.027  22.639  26.346  1.00  0.00     0.077 C 
BRANCH   8   9
ATOM      9  C   UNL A   1      32.161  23.832  26.511  1.00  0.00     0.253 C 
ATOM     10  O   UNL A   1      31.231  23.733  27.316  1.00  0.00    -0.269 OA
BRANCH   9  11
ATOM     11  N   UNL A   1      32.399  24.994  25.835  1.00  0.00    -0.277 N 
ATOM     12  C   UNL A   1      33.720  25.650  25.823  1.00  0.00     0.151 C 
ATOM     13  C   UNL A   1      31.500  25.760  25.146  1.00  0.00     0.213 A 
ATOM     14  C   UNL A   1      33.505  26.984  25.089  1.00  0.00     0.148 C 
ATOM     15  N   UNL A   1      32.118  26.883  24.686  1.00  0.00    -0.308 N 
ATOM     16  N   UNL A   1      30.234  25.743  24.838  1.00  0.00    -0.212 NA
ATOM     17  C   UNL A   1      31.244  27.648  24.003  1.00  0.00     0.070 A 
ATOM     18  C   UNL A   1      30.054  26.913  24.106  1.00  0.00     0.091 A 
ATOM     19  C   UNL A   1      31.345  28.864  23.324  1.00  0.00     0.028 A 
ATOM     20  C   UNL A   1      28.896  27.419  23.498  1.00  0.00     0.031 A 
ATOM     21  C   UNL A   1      30.176  29.344  22.724  1.00  0.00     0.002 A 
ATOM     22  C   UNL A   1      28.972  28.637  22.807  1.00  0.00     0.002 A 
ENDBRANCH   9  11
ENDBRANCH   8   9
ENDBRANCH   5   7
ENDBRANCH   2   3
ENDBRANCH   1   2
BRANCH   1  23
ATOM     23  C   UNL A   1      37.317  21.900  24.609  1.00  0.00     0.023 C 
BRANCH  23  24
ATOM     24  C   UNL A   1      38.045  22.660  25.718  1.00  0.00     0.116 C 
BRANCH  24  25
ATOM     25  N   UNL A   1      38.943  21.829  26.502  1.00  0.00    -0.352 N 
ATOM     26  C   UNL A   1      40.041  22.187  27.248  1.00  0.00     0.251 C 
ATOM     27  H   UNL A   1      38.736  20.868  26.498  1.00  0.00     0.163 HD
ATOM     28  O   UNL A   1      40.722  21.335  27.808  1.00  0.00    -0.269 OA
BRANCH  26  29
ATOM     29  C   UNL A   1      40.435  23.608  27.327  1.00  0.00     0.039 A 
ATOM     30  C   UNL A   1      41.613  24.060  26.729  1.00  0.00     0.014 A 
ATOM     31  C   UNL A   1      39.604  24.494  28.020  1.00  0.00     0.014 A 
ATOM     32  C   UNL A   1      42.034  25.366  26.940  1.00  0.00     0.010 A 
ATOM     33  C   UNL A   1      40.000  25.819  28.188  1.00  0.00     0.010 A 
ATOM     34  C   UNL A   1      41.230  26.245  27.672  1.00  0.00    -0.014 A 
BRANCH  34  35
ATOM     35  C   UNL A   1      41.669  27.642  27.743  1.00  0.00     0.031 A 
ATOM     36  C   UNL A   1      40.562  28.629  27.625  1.00  0.00     0.074 A 
ATOM     37  C   UNL A   1      42.815  28.016  28.343  1.00  0.00     0.049 A 
ATOM     38  N   UNL A   1      39.828  28.970  28.644  1.00  0.00    -0.248 NA
ATOM     39  C   UNL A   1      40.041  29.079  26.337  1.00  0.00     0.031 C 
ATOM     40  C   UNL A   1      43.451  27.278  29.440  1.00  0.00     0.029 A 
ATOM     41  N   UNL A   1      43.505  29.204  28.283  1.00  0.00    -0.354 N 
ATOM     42  C   UNL A   1      38.717  29.614  28.143  1.00  0.00     0.074 A 
ATOM     43  C   UNL A   1      38.903  29.685  26.709  1.00  0.00     0.031 C 
ATOM     44  C   UNL A   1      44.301  28.110  30.078  1.00  0.00     0.029 A 
ATOM     45  C   UNL A   1      44.398  29.367  29.339  1.00  0.00     0.049 A 
ATOM     46  H   UNL A   1      43.381  29.869  27.569  1.00  0.00     0.167 HD
ATOM     47  C   UNL A   1      37.694  30.033  28.930  1.00  0.00     0.037 A 
ATOM     48  C   UNL A   1      44.731  30.561  29.898  1.00  0.00     0.037 A 
ATOM     49  C   UNL A   1      37.823  29.767  30.330  1.00  0.00     0.049 A 
ATOM     50  C   UNL A   1      43.414  30.979  30.509  1.00  0.00     0.074 A 
ATOM     51  C   UNL A   1      37.420  28.784  31.210  1.00  0.00     0.029 A 
ATOM     52  N   UNL A   1      38.597  30.616  31.085  1.00  0.00    -0.354 N 
ATOM     53  N   UNL A   1      42.926  30.565  31.648  1.00  0.00    -0.248 NA
ATOM     54  C   UNL A   1      42.444  31.649  29.638  1.00  0.00     0.031 C 
ATOM     55  C   UNL A   1      38.338  28.852  32.306  1.00  0.00     0.029 A 
ATOM     56  C   UNL A   1      39.271  29.837  31.991  1.00  0.00     0.049 A 
ATOM     57  H   UNL A   1      38.654  31.595  30.993  1.00  0.00     0.167 HD
ATOM     58  C   UNL A   1      41.541  30.694  31.524  1.00  0.00     0.074 A 
ATOM     59  C   UNL A   1      41.314  31.390  30.277  1.00  0.00     0.031 C 
ATOM     60  C   UNL A   1      40.649  30.073  32.349  1.00  0.00     0.037 A 
BRANCH  47  61
ATOM     61  C   UNL A   1      36.568  30.848  28.451  1.00  0.00     0.064 A 
ATOM     62  C   UNL A   1      36.655  32.239  28.598  1.00  0.00     0.173 A 
ATOM     63  C   UNL A   1      35.354  30.294  28.040  1.00  0.00     0.173 A 
ATOM     64  F   UNL A   1      37.810  32.797  29.003  1.00  0.00    -0.203 F 
ATOM     65  C   UNL A   1      35.552  33.051  28.381  1.00  0.00     0.198 A 
ATOM     66  C   UNL A   1      34.248  31.113  27.816  1.00  0.00     0.198 A 
ATOM     67  F   UNL A   1      35.227  28.967  27.895  1.00  0.00    -0.203 F 
ATOM     68  F   UNL A   1      35.652  34.373  28.573  1.00  0.00    -0.200 F 
ATOM     69  C   UNL A   1      34.344  32.487  28.001  1.00  0.00     0.200 A 
ATOM     70  F   UNL A   1      33.078  30.572  27.450  1.00  0.00    -0.200 F 
ATOM     71  F   UNL A   1      33.271  33.268  27.823  1.00  0.00    -0.200 F 
ENDBRANCH  47  61
BRANCH  48  72
ATOM     72  C   UNL A   1      45.556  31.464  29.028  1.00  0.00     0.064 A 
ATOM     73  C   UNL A   1      46.861  31.805  29.446  1.00  0.00     0.173 A 
ATOM     74  C   UNL A   1      45.137  32.027  27.813  1.00  0.00     0.173 A 
ATOM     75  F   UNL A   1      47.309  31.415  30.650  1.00  0.00    -0.203 F 
ATOM     76  C   UNL A   1      47.729  32.546  28.642  1.00  0.00     0.198 A 
ATOM     77  C   UNL A   1      46.014  32.744  26.994  1.00  0.00     0.198 A 
ATOM     78  F   UNL A   1      43.877  31.885  27.383  1.00  0.00    -0.203 F 
ATOM     79  F   UNL A   1      48.971  32.814  29.066  1.00  0.00    -0.200 F 
ATOM     80  C   UNL A   1      47.313  32.988  27.399  1.00  0.00     0.200 A 
ATOM     81  F   UNL A   1      45.595  33.180  25.798  1.00  0.00    -0.200 F 
ATOM     82  F   UNL A   1      48.157  33.654  26.600  1.00  0.00    -0.200 F 
ENDBRANCH  48  72
BRANCH  60  83
ATOM     83  C   UNL A   1      41.235  29.407  33.542  1.00  0.00     0.064 A 
ATOM     84  C   UNL A   1      41.731  28.101  33.441  1.00  0.00     0.173 A 
ATOM     85  C   UNL A   1      41.347  30.063  34.777  1.00  0.00     0.173 A 
ATOM     86  F   UNL A   1      41.653  27.435  32.277  1.00  0.00    -0.203 F 
ATOM     87  C   UNL A   1      42.339  27.482  34.529  1.00  0.00     0.198 A 
ATOM     88  C   UNL A   1      41.979  29.450  35.855  1.00  0.00     0.198 A 
ATOM     89  F   UNL A   1      40.871  31.308  34.939  1.00  0.00    -0.203 F 
ATOM     90  F   UNL A   1      42.816  26.235  34.407  1.00  0.00    -0.200 F 
ATOM     91  C   UNL A   1      42.474  28.162  35.730  1.00  0.00     0.200 A 
ATOM     92  F   UNL A   1      42.125  30.114  37.010  1.00  0.00    -0.200 F 
ATOM     93  F   UNL A   1      43.096  27.578  36.764  1.00  0.00    -0.200 F 
ENDBRANCH  60  83
ENDBRANCH  34  35
ENDBRANCH  26  29
ENDBRANCH  24  25
ENDBRANCH  23  24
ENDBRANCH   1  23
TORSDOF 13
ENDMDL
MODEL 3
REMARK VINA RESULT:     -12.6      2.964      8.502
REMARK SMILES O=C(/C=C/C(=O)N1CCn2c1nc1ccccc12)NCCCCNC(=O)c1ccc(-c2c3nc(c(-c4c(F)c(F)c(F)c(F)c4F)c4ccc([nH]4)c(-c4c(F)c(F)c(F)c(F)c4F)c4nc(c(-c5c(F)c(F)c(F)c(F)c5F)c5ccc2[nH]5)C=C4)C=C3)cc1
REMARK SMILES IDX 21 1 20 2 19 3 1 4 2 5 3 7 4 8 5 9 6 10 7 11 8 12 11 13 9 14
REMARK SMILES IDX 10 15 12 16 18 17 13 18 17 19 14 20 16 21 15 22 22 23 23 24
REMARK SMILES IDX 24 25 25 26 26 28 27 29 28 30 89 31 29 32 88 33 30 34 31 35
REMARK SMILES IDX 32 36 82 37 33 38 87 39 81 40 83 41 34 42 86 43 80 44 79 45
REMARK SMILES IDX 35 47 67 48 47 49 66 50 48 51 51 52 65 53 84 54 49 55 50 56
REMARK SMILES IDX 64 58 85 59 52 60 36 61 37 62 45 63 38 64 39 65 43 66 46 67
REMARK SMILES IDX 40 68 41 69 44 70 42 71 68 72 69 73 77 74 70 75 71 76 75 77
REMARK SMILES IDX 78 78 72 79 73 80 76 81 74 82 53 83 54 84 62 85 55 86 56 87
REMARK SMILES IDX 60 88 63 89 57 90 58 91 61 92 59 93
REMARK H PARENT 19 6 24 27 83 46 51 57
REMARK Flexibility Score: inf
ROOT
ATOM      1  C   UNL A   1      32.087  30.133  25.494  1.00  0.00     0.023 C 
ENDROOT
BRANCH   1   2
ATOM      2  C   UNL A   1      31.056  29.116  24.988  1.00  0.00     0.116 C 
BRANCH   2   3
ATOM      3  N   UNL A   1      31.104  27.858  25.711  1.00  0.00    -0.353 N 
ATOM      4  O   UNL A   1      32.138  26.683  24.034  1.00  0.00    -0.270 OA
ATOM      5  C   UNL A   1      31.661  26.729  25.152  1.00  0.00     0.244 C 
ATOM      6  H   UNL A   1      30.731  27.810  26.621  1.00  0.00     0.163 HD
BRANCH   5   7
ATOM      7  C   UNL A   1      31.531  25.486  25.953  1.00  0.00     0.077 C 
ATOM      8  C   UNL A   1      31.440  24.243  25.465  1.00  0.00     0.077 C 
BRANCH   8   9
ATOM      9  C   UNL A   1      31.552  23.064  26.358  1.00  0.00     0.253 C 
ATOM     10  O   UNL A   1      30.645  22.905  27.179  1.00  0.00    -0.269 OA
BRANCH   9  11
ATOM     11  N   UNL A   1      32.586  22.178  26.256  1.00  0.00    -0.277 N 
ATOM     12  C   UNL A   1      33.876  22.381  26.941  1.00  0.00     0.151 C 
ATOM     13  C   UNL A   1      32.644  21.045  25.493  1.00  0.00     0.213 A 
ATOM     14  C   UNL A   1      34.787  21.249  26.437  1.00  0.00     0.148 C 
ATOM     15  N   UNL A   1      33.880  20.484  25.606  1.00  0.00    -0.308 N 
ATOM     16  N   UNL A   1      31.883  20.377  24.673  1.00  0.00    -0.212 NA
ATOM     17  C   UNL A   1      33.953  19.364  24.859  1.00  0.00     0.070 A 
ATOM     18  C   UNL A   1      32.680  19.309  24.275  1.00  0.00     0.091 A 
ATOM     19  C   UNL A   1      34.952  18.417  24.629  1.00  0.00     0.028 A 
ATOM     20  C   UNL A   1      32.384  18.246  23.408  1.00  0.00     0.031 A 
ATOM     21  C   UNL A   1      34.629  17.366  23.763  1.00  0.00     0.002 A 
ATOM     22  C   UNL A   1      33.369  17.280  23.161  1.00  0.00     0.002 A 
ENDBRANCH   9  11
ENDBRANCH   8   9
ENDBRANCH   5   7
ENDBRANCH   2   3
ENDBRANCH   1   2
BRANCH   1  23
ATOM     23  C   UNL A   1      32.422  30.042  26.986  1.00  0.00     0.023 C 
BRANCH  23  24
ATOM     24  C   UNL A   1      33.899  30.261  27.309  1.00  0.00     0.116 C 
BRANCH  24  25
ATOM     25  N   UNL A   1      34.312  31.653  27.238  1.00  0.00    -0.352 N 
ATOM     26  C   UNL A   1      35.443  32.259  27.733  1.00  0.00     0.251 C 
ATOM     27  H   UNL A   1      33.689  32.251  26.767  1.00  0.00     0.163 HD
ATOM     28  O   UNL A   1      35.602  33.470  27.625  1.00  0.00    -0.269 OA
BRANCH  26  29
ATOM     29  C   UNL A   1      36.446  31.449  28.451  1.00  0.00     0.039 A 
ATOM     30  C   UNL A   1      36.570  31.526  29.840  1.00  0.00     0.014 A 
ATOM     31  C   UNL A   1      37.277  30.603  27.709  1.00  0.00     0.014 A 
ATOM     32  C   UNL A   1      37.613  30.867  30.475  1.00  0.00     0.010 A 
ATOM     33  C   UNL A   1      38.293  29.900  28.352  1.00  0.00     0.010 A 
ATOM     34  C   UNL A   1      38.477  30.056  29.731  1.00  0.00    -0.014 A 
BRANCH  34  35
ATOM     35  C   UNL A   1      39.473  29.285  30.483  1.00  0.00     0.031 A 
ATOM     36  C   UNL A   1      39.568  27.859  30.070  1.00  0.00     0.074 A 
ATOM     37  C   UNL A   1      40.526  29.858  31.097  1.00  0.00     0.049 A 
ATOM     38  N   UNL A   1      40.275  27.481  29.046  1.00  0.00    -0.248 NA
ATOM     39  C   UNL A   1      38.680  26.826  30.597  1.00  0.00     0.031 C 
ATOM     40  C   UNL A   1      41.146  31.117  30.670  1.00  0.00     0.029 A 
ATOM     41  N   UNL A   1      41.390  29.351  32.039  1.00  0.00    -0.354 N 
ATOM     42  C   UNL A   1      39.887  26.194  28.740  1.00  0.00     0.074 A 
ATOM     43  C   UNL A   1      38.915  25.816  29.745  1.00  0.00     0.031 C 
ATOM     44  C   UNL A   1      42.386  31.183  31.200  1.00  0.00     0.029 A 
ATOM     45  C   UNL A   1      42.578  30.072  32.128  1.00  0.00     0.049 A 
ATOM     46  H   UNL A   1      41.190  28.563  32.593  1.00  0.00     0.167 HD
ATOM     47  C   UNL A   1      40.366  25.518  27.666  1.00  0.00     0.037 A 
ATOM     48  C   UNL A   1      43.788  29.538  32.446  1.00  0.00     0.037 A 
ATOM     49  C   UNL A   1      41.309  26.217  26.847  1.00  0.00     0.049 A 
ATOM     50  C   UNL A   1      44.035  28.638  31.259  1.00  0.00     0.074 A 
ATOM     51  C   UNL A   1      41.273  26.985  25.702  1.00  0.00     0.029 A 
ATOM     52  N   UNL A   1      42.620  26.260  27.257  1.00  0.00    -0.354 N 
ATOM     53  N   UNL A   1      44.487  29.008  30.090  1.00  0.00    -0.248 NA
ATOM     54  C   UNL A   1      43.432  27.302  31.284  1.00  0.00     0.031 C 
ATOM     55  C   UNL A   1      42.445  27.804  25.754  1.00  0.00     0.029 A 
ATOM     56  C   UNL A   1      43.086  27.516  26.957  1.00  0.00     0.049 A 
ATOM     57  H   UNL A   1      43.126  25.531  27.682  1.00  0.00     0.167 HD
ATOM     58  C   UNL A   1      43.996  28.061  29.188  1.00  0.00     0.074 A 
ATOM     59  C   UNL A   1      43.379  27.028  29.990  1.00  0.00     0.031 C 
ATOM     60  C   UNL A   1      43.958  28.255  27.839  1.00  0.00     0.037 A 
BRANCH  47  61
ATOM     61  C   UNL A   1      40.086  24.100  27.394  1.00  0.00     0.064 A 
ATOM     62  C   UNL A   1      41.002  23.148  27.864  1.00  0.00     0.173 A 
ATOM     63  C   UNL A   1      39.066  23.681  26.537  1.00  0.00     0.173 A 
ATOM     64  F   UNL A   1      41.999  23.528  28.682  1.00  0.00    -0.203 F 
ATOM     65  C   UNL A   1      40.928  21.824  27.457  1.00  0.00     0.198 A 
ATOM     66  C   UNL A   1      38.990  22.348  26.135  1.00  0.00     0.198 A 
ATOM     67  F   UNL A   1      38.176  24.562  26.059  1.00  0.00    -0.203 F 
ATOM     68  F   UNL A   1      41.843  20.945  27.887  1.00  0.00    -0.200 F 
ATOM     69  C   UNL A   1      39.928  21.425  26.584  1.00  0.00     0.200 A 
ATOM     70  F   UNL A   1      38.027  21.958  25.290  1.00  0.00    -0.200 F 
ATOM     71  F   UNL A   1      39.876  20.154  26.166  1.00  0.00    -0.200 F 
ENDBRANCH  47  61
BRANCH  48  72
ATOM     72  C   UNL A   1      43.930  29.081  33.868  1.00  0.00     0.064 A 
ATOM     73  C   UNL A   1      44.872  29.725  34.700  1.00  0.00     0.173 A 
ATOM     74  C   UNL A   1      43.204  28.037  34.461  1.00  0.00     0.173 A 
ATOM     75  F   UNL A   1      45.698  30.654  34.193  1.00  0.00    -0.203 F 
ATOM     76  C   UNL A   1      44.983  29.433  36.060  1.00  0.00     0.198 A 
ATOM     77  C   UNL A   1      43.294  27.763  35.829  1.00  0.00     0.198 A 
ATOM     78  F   UNL A   1      42.382  27.266  33.738  1.00  0.00    -0.203 F 
ATOM     79  F   UNL A   1      45.868  30.096  36.818  1.00  0.00    -0.200 F 
ATOM     80  C   UNL A   1      44.170  28.472  36.631  1.00  0.00     0.200 A 
ATOM     81  F   UNL A   1      42.511  26.819  36.369  1.00  0.00    -0.200 F 
ATOM     82  F   UNL A   1      44.234  28.224  37.947  1.00  0.00    -0.200 F 
ENDBRANCH  48  72
BRANCH  60  83
ATOM     83  C   UNL A   1      44.674  29.460  27.343  1.00  0.00     0.064 A 
ATOM     84  C   UNL A   1      43.986  30.671  27.198  1.00  0.00     0.173 A 
ATOM     85  C   UNL A   1      46.045  29.438  27.047  1.00  0.00     0.173 A 
ATOM     86  F   UNL A   1      42.675  30.743  27.477  1.00  0.00    -0.203 F 
ATOM     87  C   UNL A   1      44.651  31.825  26.795  1.00  0.00     0.198 A 
ATOM     88  C   UNL A   1      46.711  30.600  26.669  1.00  0.00     0.198 A 
ATOM     89  F   UNL A   1      46.751  28.301  27.148  1.00  0.00    -0.203 F 
ATOM     90  F   UNL A   1      43.975  32.977  26.672  1.00  0.00    -0.200 F 
ATOM     91  C   UNL A   1      46.015  31.791  26.544  1.00  0.00     0.200 A 
ATOM     92  F   UNL A   1      48.032  30.570  26.443  1.00  0.00    -0.200 F 
ATOM     93  F   UNL A   1      46.660  32.913  26.194  1.00  0.00    -0.200 F 
ENDBRANCH  60  83
ENDBRANCH  34  35
ENDBRANCH  26  29
ENDBRANCH  24  25
ENDBRANCH  23  24
ENDBRANCH   1  23
TORSDOF 13
ENDMDL
