MODEL 1
REMARK VINA RESULT:     -12.2      0.000      0.000
REMARK SMILES O=C(CC[N@@H+]1CCC[C@@H]1c1csc(Nc2ccccn2)n1)NCCCCNC(=O)c1ccc(-c2c3nc(c(-c4c(F)c(F)c(F)c(F)c4F)c4ccc([nH]4)c(-c4c(F)c(F)c(F)c(F)c4F)c4nc(c(-c5c(F)c(F)c(F)c(F)c5F)c5ccc2[nH]5)C=C4)C=C3)cc1
REMARK SMILES IDX 23 1 22 2 1 3 2 4 3 6 4 7 5 8 6 9 9 10 7 12 8 13 10 14 11 15
REMARK SMILES IDX 21 16 12 17 13 18 14 19 15 21 16 22 20 23 17 24 19 25 18 26
REMARK SMILES IDX 24 27 25 28 26 29 27 30 28 31 29 33 30 34 31 35 92 36 32 37
REMARK SMILES IDX 91 38 33 39 34 40 35 41 85 42 36 43 90 44 84 45 86 46 37 47
REMARK SMILES IDX 89 48 83 49 82 50 38 52 70 53 50 54 69 55 51 56 54 57 68 58
REMARK SMILES IDX 87 59 52 60 53 61 67 63 88 64 55 65 39 66 40 67 48 68 41 69
REMARK SMILES IDX 42 70 46 71 49 72 43 73 44 74 47 75 45 76 71 77 72 78 80 79
REMARK SMILES IDX 73 80 74 81 78 82 81 83 75 84 76 85 79 86 77 87 56 88 57 89
REMARK SMILES IDX 65 90 58 91 59 92 63 93 66 94 60 95 61 96 64 97 62 98
REMARK H PARENT 22 5 5 11 14 20 27 32 86 51 54 62
REMARK Flexibility Score: inf
ROOT
ATOM      1  C   UNL A   1      32.491  29.798  26.434  1.00  0.00     0.116 C 
ENDROOT
BRANCH   1   2
ATOM      2  N   UNL A   1      32.340  28.391  26.110  1.00  0.00    -0.356 N 
ATOM      3  O   UNL A   1      31.407  27.879  28.138  1.00  0.00    -0.275 OA
ATOM      4  C   UNL A   1      31.685  27.552  26.986  1.00  0.00     0.225 C 
ATOM      5  H   UNL A   1      32.702  28.037  25.265  1.00  0.00     0.163 HD
BRANCH   4   6
ATOM      6  C   UNL A   1      31.232  26.227  26.406  1.00  0.00     0.161 C 
BRANCH   6   7
ATOM      7  C   UNL A   1      32.438  25.549  25.721  1.00  0.00     0.272 C 
BRANCH   7   8
ATOM      8  N   UNL A   1      32.234  24.510  24.683  1.00  0.00    -0.327 N 
ATOM      9  C   UNL A   1      33.204  23.413  24.694  1.00  0.00     0.263 C 
ATOM     10  C   UNL A   1      32.304  25.014  23.259  1.00  0.00     0.235 C 
ATOM     11  H   UNL A   1      31.298  24.196  24.941  1.00  0.00     0.348 HD
ATOM     12  C   UNL A   1      34.370  23.940  23.897  1.00  0.00     0.068 C 
ATOM     13  C   UNL A   1      33.719  24.678  22.754  1.00  0.00     0.078 C 
BRANCH  10  14
ATOM     14  C   UNL A   1      31.900  26.446  23.025  1.00  0.00     0.111 A 
ATOM     15  C   UNL A   1      32.736  27.510  22.758  1.00  0.00     0.098 A 
ATOM     16  N   UNL A   1      30.555  26.803  23.125  1.00  0.00    -0.219 NA
ATOM     17  S   UNL A   1      31.825  28.905  22.409  1.00  0.00    -0.105 S 
ATOM     18  C   UNL A   1      30.359  28.060  22.793  1.00  0.00     0.188 A 
BRANCH  18  19
ATOM     19  N   UNL A   1      29.137  28.649  22.861  1.00  0.00    -0.316 N 
ATOM     20  H   UNL A   1      28.383  28.112  23.194  1.00  0.00     0.170 HD
BRANCH  19  21
ATOM     21  C   UNL A   1      28.885  29.971  22.486  1.00  0.00     0.132 A 
ATOM     22  C   UNL A   1      28.810  30.979  23.448  1.00  0.00     0.047 A 
ATOM     23  N   UNL A   1      28.629  30.204  21.184  1.00  0.00    -0.239 NA
ATOM     24  C   UNL A   1      28.392  32.250  23.075  1.00  0.00     0.005 A 
ATOM     25  C   UNL A   1      28.187  31.438  20.851  1.00  0.00     0.113 A 
ATOM     26  C   UNL A   1      28.045  32.479  21.752  1.00  0.00     0.020 A 
ENDBRANCH  19  21
ENDBRANCH  18  19
ENDBRANCH  10  14
ENDBRANCH   7   8
ENDBRANCH   6   7
ENDBRANCH   4   6
ENDBRANCH   1   2
BRANCH   1  27
ATOM     27  C   UNL A   1      31.430  30.710  25.813  1.00  0.00     0.023 C 
BRANCH  27  28
ATOM     28  C   UNL A   1      31.209  32.063  26.501  1.00  0.00     0.023 C 
BRANCH  28  29
ATOM     29  C   UNL A   1      32.465  32.787  26.989  1.00  0.00     0.116 C 
BRANCH  29  30
ATOM     30  N   UNL A   1      32.223  34.095  27.561  1.00  0.00    -0.352 N 
ATOM     31  C   UNL A   1      32.924  34.822  28.497  1.00  0.00     0.251 C 
ATOM     32  H   UNL A   1      31.417  34.545  27.219  1.00  0.00     0.163 HD
ATOM     33  O   UNL A   1      32.507  35.929  28.820  1.00  0.00    -0.269 OA
BRANCH  31  34
ATOM     34  C   UNL A   1      34.134  34.288  29.177  1.00  0.00     0.039 A 
ATOM     35  C   UNL A   1      33.941  33.592  30.377  1.00  0.00     0.014 A 
ATOM     36  C   UNL A   1      35.438  34.494  28.716  1.00  0.00     0.014 A 
ATOM     37  C   UNL A   1      35.029  33.047  31.068  1.00  0.00     0.010 A 
ATOM     38  C   UNL A   1      36.522  33.892  29.373  1.00  0.00     0.010 A 
ATOM     39  C   UNL A   1      36.330  33.155  30.552  1.00  0.00    -0.014 A 
BRANCH  39  40
ATOM     40  C   UNL A   1      37.470  32.475  31.235  1.00  0.00     0.031 A 
ATOM     41  C   UNL A   1      38.202  31.336  30.579  1.00  0.00     0.074 A 
ATOM     42  C   UNL A   1      37.841  32.875  32.469  1.00  0.00     0.049 A 
ATOM     43  N   UNL A   1      39.210  30.629  31.030  1.00  0.00    -0.248 NA
ATOM     44  C   UNL A   1      37.734  30.925  29.248  1.00  0.00     0.031 C 
ATOM     45  C   UNL A   1      37.203  33.947  33.233  1.00  0.00     0.029 A 
ATOM     46  N   UNL A   1      38.843  32.430  33.298  1.00  0.00    -0.354 N 
ATOM     47  C   UNL A   1      39.492  29.691  30.045  1.00  0.00     0.074 A 
ATOM     48  C   UNL A   1      38.517  29.887  28.993  1.00  0.00     0.031 C 
ATOM     49  C   UNL A   1      37.843  34.095  34.404  1.00  0.00     0.029 A 
ATOM     50  C   UNL A   1      38.909  33.103  34.495  1.00  0.00     0.049 A 
ATOM     51  H   UNL A   1      39.455  31.698  33.058  1.00  0.00     0.167 HD
ATOM     52  C   UNL A   1      40.481  28.763  30.011  1.00  0.00     0.037 A 
ATOM     53  C   UNL A   1      39.729  32.937  35.553  1.00  0.00     0.037 A 
ATOM     54  C   UNL A   1      41.462  28.575  31.052  1.00  0.00     0.049 A 
ATOM     55  C   UNL A   1      40.796  31.877  35.503  1.00  0.00     0.074 A 
ATOM     56  C   UNL A   1      42.534  27.699  31.079  1.00  0.00     0.029 A 
ATOM     57  N   UNL A   1      41.485  29.267  32.254  1.00  0.00    -0.354 N 
ATOM     58  N   UNL A   1      41.093  31.044  34.535  1.00  0.00    -0.248 NA
ATOM     59  C   UNL A   1      41.647  31.736  36.693  1.00  0.00     0.031 C 
ATOM     60  C   UNL A   1      43.167  27.815  32.320  1.00  0.00     0.029 A 
ATOM     61  C   UNL A   1      42.532  28.812  33.043  1.00  0.00     0.049 A 
ATOM     62  H   UNL A   1      40.852  29.976  32.510  1.00  0.00     0.167 HD
ATOM     63  C   UNL A   1      42.182  30.308  34.984  1.00  0.00     0.074 A 
ATOM     64  C   UNL A   1      42.503  30.802  36.306  1.00  0.00     0.031 C 
ATOM     65  C   UNL A   1      42.853  29.312  34.356  1.00  0.00     0.037 A 
BRANCH  52  66
ATOM     66  C   UNL A   1      40.555  27.864  28.808  1.00  0.00     0.064 A 
ATOM     67  C   UNL A   1      41.378  28.163  27.711  1.00  0.00     0.173 A 
ATOM     68  C   UNL A   1      39.835  26.660  28.775  1.00  0.00     0.173 A 
ATOM     69  F   UNL A   1      42.084  29.304  27.689  1.00  0.00    -0.203 F 
ATOM     70  C   UNL A   1      41.451  27.308  26.615  1.00  0.00     0.198 A 
ATOM     71  C   UNL A   1      39.937  25.791  27.692  1.00  0.00     0.198 A 
ATOM     72  F   UNL A   1      39.043  26.316  29.803  1.00  0.00    -0.203 F 
ATOM     73  F   UNL A   1      42.206  27.640  25.558  1.00  0.00    -0.200 F 
ATOM     74  C   UNL A   1      40.737  26.119  26.609  1.00  0.00     0.200 A 
ATOM     75  F   UNL A   1      39.261  24.633  27.697  1.00  0.00    -0.200 F 
ATOM     76  F   UNL A   1      40.818  25.292  25.558  1.00  0.00    -0.200 F 
ENDBRANCH  52  66
BRANCH  53  77
ATOM     77  C   UNL A   1      39.582  33.805  36.753  1.00  0.00     0.064 A 
ATOM     78  C   UNL A   1      38.807  33.398  37.849  1.00  0.00     0.173 A 
ATOM     79  C   UNL A   1      40.191  35.067  36.819  1.00  0.00     0.173 A 
ATOM     80  F   UNL A   1      38.185  32.210  37.824  1.00  0.00    -0.203 F 
ATOM     81  C   UNL A   1      38.630  34.228  38.954  1.00  0.00     0.198 A 
ATOM     82  C   UNL A   1      40.039  35.882  37.939  1.00  0.00     0.198 A 
ATOM     83  F   UNL A   1      40.943  35.505  35.799  1.00  0.00    -0.203 F 
ATOM     84  F   UNL A   1      37.840  33.836  39.963  1.00  0.00    -0.200 F 
ATOM     85  C   UNL A   1      39.251  35.467  39.001  1.00  0.00     0.200 A 
ATOM     86  F   UNL A   1      40.654  37.072  37.987  1.00  0.00    -0.200 F 
ATOM     87  F   UNL A   1      39.081  36.264  40.064  1.00  0.00    -0.200 F 
ENDBRANCH  53  77
BRANCH  65  88
ATOM     88  C   UNL A   1      44.033  28.714  35.069  1.00  0.00     0.064 A 
ATOM     89  C   UNL A   1      45.319  29.269  34.970  1.00  0.00     0.173 A 
ATOM     90  C   UNL A   1      43.870  27.588  35.891  1.00  0.00     0.173 A 
ATOM     91  F   UNL A   1      45.534  30.337  34.186  1.00  0.00    -0.203 F 
ATOM     92  C   UNL A   1      46.398  28.703  35.644  1.00  0.00     0.198 A 
ATOM     93  C   UNL A   1      44.944  27.045  36.590  1.00  0.00     0.198 A 
ATOM     94  F   UNL A   1      42.662  27.019  36.027  1.00  0.00    -0.203 F 
ATOM     95  F   UNL A   1      47.626  29.219  35.491  1.00  0.00    -0.200 F 
ATOM     96  C   UNL A   1      46.208  27.598  36.459  1.00  0.00     0.200 A 
ATOM     97  F   UNL A   1      44.755  25.986  37.390  1.00  0.00    -0.200 F 
ATOM     98  F   UNL A   1      47.248  27.059  37.113  1.00  0.00    -0.200 F 
ENDBRANCH  65  88
ENDBRANCH  39  40
ENDBRANCH  31  34
ENDBRANCH  29  30
ENDBRANCH  28  29
ENDBRANCH  27  28
ENDBRANCH   1  27
TORSDOF 16
ENDMDL
MODEL 2
REMARK VINA RESULT:     -12.2      0.112      1.570
REMARK SMILES O=C(CC[N@@H+]1CCC[C@@H]1c1csc(Nc2ccccn2)n1)NCCCCNC(=O)c1ccc(-c2c3nc(c(-c4c(F)c(F)c(F)c(F)c4F)c4ccc([nH]4)c(-c4c(F)c(F)c(F)c(F)c4F)c4nc(c(-c5c(F)c(F)c(F)c(F)c5F)c5ccc2[nH]5)C=C4)C=C3)cc1
REMARK SMILES IDX 23 1 22 2 1 3 2 4 3 6 4 7 5 8 6 9 9 10 7 12 8 13 10 14 11 15
REMARK SMILES IDX 21 16 12 17 13 18 14 19 15 21 16 22 20 23 17 24 19 25 18 26
REMARK SMILES IDX 24 27 25 28 26 29 27 30 28 31 29 33 30 34 31 35 92 36 32 37
REMARK SMILES IDX 91 38 33 39 34 40 35 41 85 42 36 43 90 44 84 45 86 46 37 47
REMARK SMILES IDX 89 48 83 49 82 50 38 52 70 53 50 54 69 55 51 56 54 57 68 58
REMARK SMILES IDX 87 59 52 60 53 61 67 63 88 64 55 65 39 66 40 67 48 68 41 69
REMARK SMILES IDX 42 70 46 71 49 72 43 73 44 74 47 75 45 76 71 77 72 78 80 79
REMARK SMILES IDX 73 80 74 81 78 82 81 83 75 84 76 85 79 86 77 87 56 88 57 89
REMARK SMILES IDX 65 90 58 91 59 92 63 93 66 94 60 95 61 96 64 97 62 98
REMARK H PARENT 22 5 5 11 14 20 27 32 86 51 54 62
REMARK Flexibility Score: inf
ROOT
ATOM      1  C   UNL A   1      32.565  29.846  26.344  1.00  0.00     0.116 C 
ENDROOT
BRANCH   1   2
ATOM      2  N   UNL A   1      32.431  28.422  26.092  1.00  0.00    -0.356 N 
ATOM      3  O   UNL A   1      31.306  28.037  28.050  1.00  0.00    -0.275 OA
ATOM      4  C   UNL A   1      31.689  27.640  26.952  1.00  0.00     0.225 C 
ATOM      5  H   UNL A   1      32.869  28.016  25.309  1.00  0.00     0.163 HD
BRANCH   4   6
ATOM      6  C   UNL A   1      31.280  26.284  26.412  1.00  0.00     0.161 C 
BRANCH   6   7
ATOM      7  C   UNL A   1      32.514  25.614  25.772  1.00  0.00     0.272 C 
BRANCH   7   8
ATOM      8  N   UNL A   1      32.355  24.558  24.744  1.00  0.00    -0.327 N 
ATOM      9  C   UNL A   1      33.352  23.487  24.785  1.00  0.00     0.263 C 
ATOM     10  C   UNL A   1      32.436  25.045  23.314  1.00  0.00     0.235 C 
ATOM     11  H   UNL A   1      31.423  24.222  24.990  1.00  0.00     0.348 HD
ATOM     12  C   UNL A   1      34.518  24.034  24.001  1.00  0.00     0.068 C 
ATOM     13  C   UNL A   1      33.868  24.741  22.838  1.00  0.00     0.078 C 
BRANCH  10  14
ATOM     14  C   UNL A   1      31.999  26.464  23.055  1.00  0.00     0.111 A 
ATOM     15  C   UNL A   1      32.810  27.541  22.763  1.00  0.00     0.098 A 
ATOM     16  N   UNL A   1      30.647  26.792  23.157  1.00  0.00    -0.219 NA
ATOM     17  S   UNL A   1      31.866  28.908  22.393  1.00  0.00    -0.105 S 
ATOM     18  C   UNL A   1      30.421  28.038  22.802  1.00  0.00     0.188 A 
BRANCH  18  19
ATOM     19  N   UNL A   1      29.187  28.601  22.865  1.00  0.00    -0.316 N 
ATOM     20  H   UNL A   1      28.442  28.045  23.185  1.00  0.00     0.170 HD
BRANCH  19  21
ATOM     21  C   UNL A   1      28.911  29.921  22.503  1.00  0.00     0.132 A 
ATOM     22  C   UNL A   1      28.756  30.907  23.479  1.00  0.00     0.047 A 
ATOM     23  N   UNL A   1      28.712  30.173  21.194  1.00  0.00    -0.239 NA
ATOM     24  C   UNL A   1      28.316  32.171  23.109  1.00  0.00     0.005 A 
ATOM     25  C   UNL A   1      28.247  31.399  20.863  1.00  0.00     0.113 A 
ATOM     26  C   UNL A   1      28.027  32.417  21.775  1.00  0.00     0.020 A 
ENDBRANCH  19  21
ENDBRANCH  18  19
ENDBRANCH  10  14
ENDBRANCH   7   8
ENDBRANCH   6   7
ENDBRANCH   4   6
ENDBRANCH   1   2
BRANCH   1  27
ATOM     27  C   UNL A   1      31.406  30.694  25.816  1.00  0.00     0.023 C 
BRANCH  27  28
ATOM     28  C   UNL A   1      31.193  32.053  26.496  1.00  0.00     0.023 C 
BRANCH  28  29
ATOM     29  C   UNL A   1      32.449  32.750  27.022  1.00  0.00     0.116 C 
BRANCH  29  30
ATOM     30  N   UNL A   1      32.225  34.078  27.553  1.00  0.00    -0.352 N 
ATOM     31  C   UNL A   1      32.938  34.827  28.462  1.00  0.00     0.251 C 
ATOM     32  H   UNL A   1      31.421  34.525  27.201  1.00  0.00     0.163 HD
ATOM     33  O   UNL A   1      32.535  35.948  28.751  1.00  0.00    -0.269 OA
BRANCH  31  34
ATOM     34  C   UNL A   1      34.146  34.302  29.153  1.00  0.00     0.039 A 
ATOM     35  C   UNL A   1      33.943  33.535  30.306  1.00  0.00     0.014 A 
ATOM     36  C   UNL A   1      35.454  34.582  28.747  1.00  0.00     0.014 A 
ATOM     37  C   UNL A   1      35.029  32.994  31.003  1.00  0.00     0.010 A 
ATOM     38  C   UNL A   1      36.541  33.987  29.406  1.00  0.00     0.010 A 
ATOM     39  C   UNL A   1      36.340  33.179  30.538  1.00  0.00    -0.014 A 
BRANCH  39  40
ATOM     40  C   UNL A   1      37.484  32.505  31.221  1.00  0.00     0.031 A 
ATOM     41  C   UNL A   1      38.230  31.377  30.560  1.00  0.00     0.074 A 
ATOM     42  C   UNL A   1      37.846  32.902  32.458  1.00  0.00     0.049 A 
ATOM     43  N   UNL A   1      39.243  30.678  31.012  1.00  0.00    -0.248 NA
ATOM     44  C   UNL A   1      37.772  30.971  29.225  1.00  0.00     0.031 C 
ATOM     45  C   UNL A   1      37.195  33.962  33.227  1.00  0.00     0.029 A 
ATOM     46  N   UNL A   1      38.849  32.461  33.289  1.00  0.00    -0.354 N 
ATOM     47  C   UNL A   1      39.538  29.748  30.022  1.00  0.00     0.074 A 
ATOM     48  C   UNL A   1      38.566  29.942  28.967  1.00  0.00     0.031 C 
ATOM     49  C   UNL A   1      37.829  34.110  34.401  1.00  0.00     0.029 A 
ATOM     50  C   UNL A   1      38.904  33.127  34.491  1.00  0.00     0.049 A 
ATOM     51  H   UNL A   1      39.470  31.736  33.046  1.00  0.00     0.167 HD
ATOM     52  C   UNL A   1      40.536  28.831  29.986  1.00  0.00     0.037 A 
ATOM     53  C   UNL A   1      39.721  32.962  35.550  1.00  0.00     0.037 A 
ATOM     54  C   UNL A   1      41.515  28.646  31.029  1.00  0.00     0.049 A 
ATOM     55  C   UNL A   1      40.799  31.913  35.498  1.00  0.00     0.074 A 
ATOM     56  C   UNL A   1      42.595  27.780  31.055  1.00  0.00     0.029 A 
ATOM     57  N   UNL A   1      41.526  29.330  32.236  1.00  0.00    -0.354 N 
ATOM     58  N   UNL A   1      41.108  31.089  34.526  1.00  0.00    -0.248 NA
ATOM     59  C   UNL A   1      41.647  31.773  36.691  1.00  0.00     0.031 C 
ATOM     60  C   UNL A   1      43.222  27.894  32.300  1.00  0.00     0.029 A 
ATOM     61  C   UNL A   1      42.574  28.881  33.026  1.00  0.00     0.049 A 
ATOM     62  H   UNL A   1      40.885  30.031  32.494  1.00  0.00     0.167 HD
ATOM     63  C   UNL A   1      42.202  30.361  34.976  1.00  0.00     0.074 A 
ATOM     64  C   UNL A   1      42.513  30.850  36.301  1.00  0.00     0.031 C 
ATOM     65  C   UNL A   1      42.885  29.376  34.343  1.00  0.00     0.037 A 
BRANCH  52  66
ATOM     66  C   UNL A   1      40.624  27.940  28.778  1.00  0.00     0.064 A 
ATOM     67  C   UNL A   1      39.902  26.740  28.690  1.00  0.00     0.173 A 
ATOM     68  C   UNL A   1      41.398  28.318  27.670  1.00  0.00     0.173 A 
ATOM     69  F   UNL A   1      39.149  26.329  29.722  1.00  0.00    -0.203 F 
ATOM     70  C   UNL A   1      39.978  25.938  27.554  1.00  0.00     0.198 A 
ATOM     71  C   UNL A   1      41.445  27.530  26.522  1.00  0.00     0.198 A 
ATOM     72  F   UNL A   1      42.100  29.463  27.693  1.00  0.00    -0.203 F 
ATOM     73  F   UNL A   1      39.317  24.772  27.515  1.00  0.00    -0.200 F 
ATOM     74  C   UNL A   1      40.743  26.337  26.469  1.00  0.00     0.200 A 
ATOM     75  F   UNL A   1      42.170  27.928  25.467  1.00  0.00    -0.200 F 
ATOM     76  F   UNL A   1      40.805  25.569  25.372  1.00  0.00    -0.200 F 
ENDBRANCH  52  66
BRANCH  53  77
ATOM     77  C   UNL A   1      39.561  33.821  36.755  1.00  0.00     0.064 A 
ATOM     78  C   UNL A   1      40.191  35.072  36.840  1.00  0.00     0.173 A 
ATOM     79  C   UNL A   1      38.796  33.402  37.854  1.00  0.00     0.173 A 
ATOM     80  F   UNL A   1      40.952  35.507  35.826  1.00  0.00    -0.203 F 
ATOM     81  C   UNL A   1      40.081  35.858  37.985  1.00  0.00     0.198 A 
ATOM     82  C   UNL A   1      38.660  34.203  38.985  1.00  0.00     0.198 A 
ATOM     83  F   UNL A   1      38.172  32.216  37.824  1.00  0.00    -0.203 F 
ATOM     84  F   UNL A   1      40.738  37.023  38.061  1.00  0.00    -0.200 F 
ATOM     85  C   UNL A   1      39.311  35.426  39.054  1.00  0.00     0.200 A 
ATOM     86  F   UNL A   1      37.902  33.789  40.010  1.00  0.00    -0.200 F 
ATOM     87  F   UNL A   1      39.204  36.183  40.155  1.00  0.00    -0.200 F 
ENDBRANCH  53  77
BRANCH  65  88
ATOM     88  C   UNL A   1      44.069  28.784  35.057  1.00  0.00     0.064 A 
ATOM     89  C   UNL A   1      45.353  29.340  34.950  1.00  0.00     0.173 A 
ATOM     90  C   UNL A   1      43.909  27.664  35.888  1.00  0.00     0.173 A 
ATOM     91  F   UNL A   1      45.564  30.402  34.158  1.00  0.00    -0.203 F 
ATOM     92  C   UNL A   1      46.435  28.780  35.625  1.00  0.00     0.198 A 
ATOM     93  C   UNL A   1      44.986  27.128  36.588  1.00  0.00     0.198 A 
ATOM     94  F   UNL A   1      42.702  27.095  36.032  1.00  0.00    -0.203 F 
ATOM     95  F   UNL A   1      47.662  29.297  35.464  1.00  0.00    -0.200 F 
ATOM     96  C   UNL A   1      46.249  27.681  36.450  1.00  0.00     0.200 A 
ATOM     97  F   UNL A   1      44.801  26.075  37.397  1.00  0.00    -0.200 F 
ATOM     98  F   UNL A   1      47.291  27.149  37.104  1.00  0.00    -0.200 F 
ENDBRANCH  65  88
ENDBRANCH  39  40
ENDBRANCH  31  34
ENDBRANCH  29  30
ENDBRANCH  28  29
ENDBRANCH  27  28
ENDBRANCH   1  27
TORSDOF 16
ENDMDL
MODEL 3
REMARK VINA RESULT:     -12.1      1.907      7.687
REMARK SMILES O=C(CC[N@@H+]1CCC[C@@H]1c1csc(Nc2ccccn2)n1)NCCCCNC(=O)c1ccc(-c2c3nc(c(-c4c(F)c(F)c(F)c(F)c4F)c4ccc([nH]4)c(-c4c(F)c(F)c(F)c(F)c4F)c4nc(c(-c5c(F)c(F)c(F)c(F)c5F)c5ccc2[nH]5)C=C4)C=C3)cc1
REMARK SMILES IDX 23 1 22 2 1 3 2 4 3 6 4 7 5 8 6 9 9 10 7 12 8 13 10 14 11 15
REMARK SMILES IDX 21 16 12 17 13 18 14 19 15 21 16 22 20 23 17 24 19 25 18 26
REMARK SMILES IDX 24 27 25 28 26 29 27 30 28 31 29 33 30 34 31 35 92 36 32 37
REMARK SMILES IDX 91 38 33 39 34 40 35 41 85 42 36 43 90 44 84 45 86 46 37 47
REMARK SMILES IDX 89 48 83 49 82 50 38 52 70 53 50 54 69 55 51 56 54 57 68 58
REMARK SMILES IDX 87 59 52 60 53 61 67 63 88 64 55 65 39 66 40 67 48 68 41 69
REMARK SMILES IDX 42 70 46 71 49 72 43 73 44 74 47 75 45 76 71 77 72 78 80 79
REMARK SMILES IDX 73 80 74 81 78 82 81 83 75 84 76 85 79 86 77 87 56 88 57 89
REMARK SMILES IDX 65 90 58 91 59 92 63 93 66 94 60 95 61 96 64 97 62 98
REMARK H PARENT 22 5 5 11 14 20 27 32 86 51 54 62
REMARK Flexibility Score: inf
ROOT
ATOM      1  C   UNL A   1      30.792  26.190  26.133  1.00  0.00     0.116 C 
ENDROOT
BRANCH   1   2
ATOM      2  N   UNL A   1      31.346  24.887  25.811  1.00  0.00    -0.356 N 
ATOM      3  O   UNL A   1      29.951  23.781  27.251  1.00  0.00    -0.275 OA
ATOM      4  C   UNL A   1      30.775  23.749  26.340  1.00  0.00     0.225 C 
ATOM      5  H   UNL A   1      32.126  24.816  25.214  1.00  0.00     0.163 HD
BRANCH   4   6
ATOM      6  C   UNL A   1      31.151  22.451  25.655  1.00  0.00     0.161 C 
BRANCH   6   7
ATOM      7  C   UNL A   1      31.937  22.781  24.368  1.00  0.00     0.272 C 
BRANCH   7   8
ATOM      8  N   UNL A   1      33.390  22.500  24.275  1.00  0.00    -0.327 N 
ATOM      9  C   UNL A   1      34.044  22.155  25.538  1.00  0.00     0.263 C 
ATOM     10  C   UNL A   1      34.227  23.649  23.759  1.00  0.00     0.235 C 
ATOM     11  H   UNL A   1      33.368  21.712  23.628  1.00  0.00     0.348 HD
ATOM     12  C   UNL A   1      34.371  23.488  26.164  1.00  0.00     0.068 C 
ATOM     13  C   UNL A   1      34.838  24.325  25.000  1.00  0.00     0.078 C 
BRANCH  10  14
ATOM     14  C   UNL A   1      33.552  24.611  22.815  1.00  0.00     0.111 A 
ATOM     15  C   UNL A   1      33.202  24.375  21.502  1.00  0.00     0.098 A 
ATOM     16  N   UNL A   1      33.272  25.908  23.245  1.00  0.00    -0.219 NA
ATOM     17  S   UNL A   1      32.322  25.692  20.879  1.00  0.00    -0.105 S 
ATOM     18  C   UNL A   1      32.594  26.583  22.343  1.00  0.00     0.188 A 
BRANCH  18  19
ATOM     19  N   UNL A   1      32.249  27.885  22.516  1.00  0.00    -0.316 N 
ATOM     20  H   UNL A   1      32.969  28.554  22.540  1.00  0.00     0.170 HD
BRANCH  19  21
ATOM     21  C   UNL A   1      30.934  28.333  22.661  1.00  0.00     0.132 A 
ATOM     22  C   UNL A   1      29.944  27.479  23.149  1.00  0.00     0.047 A 
ATOM     23  N   UNL A   1      30.656  29.578  22.228  1.00  0.00    -0.239 NA
ATOM     24  C   UNL A   1      28.616  27.889  23.126  1.00  0.00     0.005 A 
ATOM     25  C   UNL A   1      29.353  29.940  22.179  1.00  0.00     0.113 A 
ATOM     26  C   UNL A   1      28.309  29.136  22.603  1.00  0.00     0.020 A 
ENDBRANCH  19  21
ENDBRANCH  18  19
ENDBRANCH  10  14
ENDBRANCH   7   8
ENDBRANCH   6   7
ENDBRANCH   4   6
ENDBRANCH   1   2
BRANCH   1  27
ATOM     27  C   UNL A   1      31.833  27.242  26.522  1.00  0.00     0.023 C 
BRANCH  27  28
ATOM     28  C   UNL A   1      31.435  28.707  26.301  1.00  0.00     0.023 C 
BRANCH  28  29
ATOM     29  C   UNL A   1      32.556  29.656  25.877  1.00  0.00     0.116 C 
BRANCH  29  30
ATOM     30  N   UNL A   1      32.407  31.017  26.351  1.00  0.00    -0.352 N 
ATOM     31  C   UNL A   1      33.193  31.781  27.185  1.00  0.00     0.251 C 
ATOM     32  H   UNL A   1      31.603  31.477  26.017  1.00  0.00     0.163 HD
ATOM     33  O   UNL A   1      32.845  32.929  27.436  1.00  0.00    -0.269 OA
BRANCH  31  34
ATOM     34  C   UNL A   1      34.415  31.244  27.840  1.00  0.00     0.039 A 
ATOM     35  C   UNL A   1      35.446  32.151  28.115  1.00  0.00     0.014 A 
ATOM     36  C   UNL A   1      34.606  29.892  28.137  1.00  0.00     0.014 A 
ATOM     37  C   UNL A   1      36.622  31.726  28.743  1.00  0.00     0.010 A 
ATOM     38  C   UNL A   1      35.756  29.476  28.825  1.00  0.00     0.010 A 
ATOM     39  C   UNL A   1      36.774  30.389  29.143  1.00  0.00    -0.014 A 
BRANCH  39  40
ATOM     40  C   UNL A   1      37.981  29.967  29.913  1.00  0.00     0.031 A 
ATOM     41  C   UNL A   1      38.223  30.460  31.315  1.00  0.00     0.074 A 
ATOM     42  C   UNL A   1      38.881  29.141  29.339  1.00  0.00     0.049 A 
ATOM     43  N   UNL A   1      39.220  30.197  32.125  1.00  0.00    -0.248 NA
ATOM     44  C   UNL A   1      37.223  31.379  31.876  1.00  0.00     0.031 C 
ATOM     45  C   UNL A   1      38.787  28.608  27.980  1.00  0.00     0.029 A 
ATOM     46  N   UNL A   1      40.051  28.605  29.824  1.00  0.00    -0.354 N 
ATOM     47  C   UNL A   1      38.971  30.921  33.285  1.00  0.00     0.074 A 
ATOM     48  C   UNL A   1      37.754  31.671  33.055  1.00  0.00     0.031 C 
ATOM     49  C   UNL A   1      39.835  27.803  27.749  1.00  0.00     0.029 A 
ATOM     50  C   UNL A   1      40.700  27.793  28.924  1.00  0.00     0.049 A 
ATOM     51  H   UNL A   1      40.391  28.786  30.729  1.00  0.00     0.167 HD
ATOM     52  C   UNL A   1      39.680  30.945  34.441  1.00  0.00     0.037 A 
ATOM     53  C   UNL A   1      41.865  27.122  29.027  1.00  0.00     0.037 A 
ATOM     54  C   UNL A   1      40.884  30.189  34.678  1.00  0.00     0.049 A 
ATOM     55  C   UNL A   1      42.649  27.194  30.310  1.00  0.00     0.074 A 
ATOM     56  C   UNL A   1      41.639  30.108  35.836  1.00  0.00     0.029 A 
ATOM     57  N   UNL A   1      41.517  29.391  33.736  1.00  0.00    -0.354 N 
ATOM     58  N   UNL A   1      42.365  27.828  31.422  1.00  0.00    -0.248 NA
ATOM     59  C   UNL A   1      43.918  26.453  30.354  1.00  0.00     0.031 C 
ATOM     60  C   UNL A   1      42.760  29.313  35.578  1.00  0.00     0.029 A 
ATOM     61  C   UNL A   1      42.671  28.842  34.278  1.00  0.00     0.049 A 
ATOM     62  H   UNL A   1      41.196  29.236  32.819  1.00  0.00     0.167 HD
ATOM     63  C   UNL A   1      43.396  27.535  32.304  1.00  0.00     0.074 A 
ATOM     64  C   UNL A   1      44.307  26.654  31.605  1.00  0.00     0.031 C 
ATOM     65  C   UNL A   1      43.571  27.959  33.580  1.00  0.00     0.037 A 
BRANCH  52  66
ATOM     66  C   UNL A   1      39.178  31.829  35.550  1.00  0.00     0.064 A 
ATOM     67  C   UNL A   1      38.322  31.345  36.551  1.00  0.00     0.173 A 
ATOM     68  C   UNL A   1      39.602  33.163  35.642  1.00  0.00     0.173 A 
ATOM     69  F   UNL A   1      37.883  30.078  36.508  1.00  0.00    -0.203 F 
ATOM     70  C   UNL A   1      37.885  32.171  37.583  1.00  0.00     0.198 A 
ATOM     71  C   UNL A   1      39.190  33.977  36.695  1.00  0.00     0.198 A 
ATOM     72  F   UNL A   1      40.431  33.676  34.719  1.00  0.00    -0.203 F 
ATOM     73  F   UNL A   1      37.029  31.699  38.500  1.00  0.00    -0.200 F 
ATOM     74  C   UNL A   1      38.325  33.484  37.658  1.00  0.00     0.200 A 
ATOM     75  F   UNL A   1      39.632  35.240  36.776  1.00  0.00    -0.200 F 
ATOM     76  F   UNL A   1      37.913  34.275  38.658  1.00  0.00    -0.200 F 
ENDBRANCH  52  66
BRANCH  53  77
ATOM     77  C   UNL A   1      42.361  26.310  27.884  1.00  0.00     0.064 A 
ATOM     78  C   UNL A   1      43.297  26.831  26.978  1.00  0.00     0.173 A 
ATOM     79  C   UNL A   1      41.893  25.006  27.657  1.00  0.00     0.173 A 
ATOM     80  F   UNL A   1      43.757  28.081  27.138  1.00  0.00    -0.203 F 
ATOM     81  C   UNL A   1      43.728  26.090  25.880  1.00  0.00     0.198 A 
ATOM     82  C   UNL A   1      42.349  24.255  26.577  1.00  0.00     0.198 A 
ATOM     83  F   UNL A   1      40.998  24.459  28.493  1.00  0.00    -0.203 F 
ATOM     84  F   UNL A   1      44.581  26.633  25.001  1.00  0.00    -0.200 F 
ATOM     85  C   UNL A   1      43.259  24.800  25.684  1.00  0.00     0.200 A 
ATOM     86  F   UNL A   1      41.906  23.002  26.400  1.00  0.00    -0.200 F 
ATOM     87  F   UNL A   1      43.674  24.087  24.628  1.00  0.00    -0.200 F 
ENDBRANCH  53  77
BRANCH  65  88
ATOM     88  C   UNL A   1      44.771  27.444  34.324  1.00  0.00     0.064 A 
ATOM     89  C   UNL A   1      45.987  28.144  34.345  1.00  0.00     0.173 A 
ATOM     90  C   UNL A   1      44.693  26.248  35.056  1.00  0.00     0.173 A 
ATOM     91  F   UNL A   1      46.121  29.284  33.651  1.00  0.00    -0.203 F 
ATOM     92  C   UNL A   1      47.086  27.652  35.047  1.00  0.00     0.198 A 
ATOM     93  C   UNL A   1      45.782  25.778  35.784  1.00  0.00     0.198 A 
ATOM     94  F   UNL A   1      43.553  25.540  35.076  1.00  0.00    -0.203 F 
ATOM     95  F   UNL A   1      48.252  28.312  35.008  1.00  0.00    -0.200 F 
ATOM     96  C   UNL A   1      46.979  26.475  35.772  1.00  0.00     0.200 A 
ATOM     97  F   UNL A   1      45.672  24.648  36.496  1.00  0.00    -0.200 F 
ATOM     98  F   UNL A   1      48.036  26.009  36.452  1.00  0.00    -0.200 F 
ENDBRANCH  65  88
ENDBRANCH  39  40
ENDBRANCH  31  34
ENDBRANCH  29  30
ENDBRANCH  28  29
ENDBRANCH  27  28
ENDBRANCH   1  27
TORSDOF 16
ENDMDL
