MODEL 1
REMARK VINA RESULT:     -12.5      0.000      0.000
REMARK SMILES Cc1nc(-c2ccc(C(F)(F)F)cc2)nc(SCC(=O)NCCCCNC(=O)c2ccc(-c3c4nc(c(-c5c(F)c(F)c(F)c(F)c5F)c5ccc([nH]5)c(-c5c(F)c(F)c(F)c(F)c5F)c5nc(c(-c6c(F)c(F)c(F)c(F)c6F)c6ccc3[nH]6)C=C5)C=C4)cc2)c1C
REMARK SMILES IDX 22 1 21 2 19 3 20 4 18 6 17 7 16 8 1 9 2 10 3 11 92 12 4 13
REMARK SMILES IDX 93 14 15 15 5 16 6 17 14 18 7 19 13 20 8 21 9 22 10 23 11 24
REMARK SMILES IDX 12 25 23 26 24 27 25 28 26 29 27 30 28 32 29 33 30 34 91 35
REMARK SMILES IDX 31 36 90 37 32 38 33 39 34 40 84 41 35 42 89 43 83 44 85 45
REMARK SMILES IDX 36 46 88 47 82 48 81 49 37 51 69 52 49 53 68 54 50 55 53 56
REMARK SMILES IDX 67 57 86 58 51 59 52 60 66 62 87 63 54 64 38 65 39 66 47 67
REMARK SMILES IDX 40 68 41 69 45 70 48 71 42 72 43 73 46 74 44 75 70 76 71 77
REMARK SMILES IDX 79 78 72 79 73 80 77 81 80 82 74 83 75 84 78 85 76 86 55 87
REMARK SMILES IDX 56 88 64 89 57 90 58 91 62 92 65 93 59 94 60 95 63 96 61 97
REMARK H PARENT 21 5 26 31 85 50 53 61
REMARK Flexibility Score: inf
ROOT
ATOM      1  C   UNL A   1      32.839  30.221  25.903  1.00  0.00     0.116 C 
ENDROOT
BRANCH   1   2
ATOM      2  N   UNL A   1      33.069  28.821  26.194  1.00  0.00    -0.355 N 
ATOM      3  C   UNL A   1      33.711  27.876  25.459  1.00  0.00     0.230 C 
ATOM      4  O   UNL A   1      33.919  26.790  26.008  1.00  0.00    -0.274 OA
ATOM      5  H   UNL A   1      32.706  28.508  27.053  1.00  0.00     0.163 HD
BRANCH   3   6
ATOM      6  C   UNL A   1      34.268  28.169  24.083  1.00  0.00     0.176 C 
BRANCH   6   7
ATOM      7  S   UNL A   1      33.153  27.924  22.674  1.00  0.00    -0.096 SA
BRANCH   7   8
ATOM      8  C   UNL A   1      31.677  27.029  23.122  1.00  0.00     0.104 A 
ATOM      9  C   UNL A   1      28.002  26.731  23.947  1.00  0.00     0.067 C 
ATOM     10  C   UNL A   1      29.454  26.450  23.670  1.00  0.00     0.045 A 
ATOM     11  N   UNL A   1      29.781  25.150  23.746  1.00  0.00    -0.233 NA
ATOM     12  C   UNL A   1      30.381  27.462  23.388  1.00  0.00     0.003 A 
ATOM     13  C   UNL A   1      31.063  24.833  23.560  1.00  0.00     0.160 A 
ATOM     14  C   UNL A   1      29.898  28.874  23.357  1.00  0.00     0.049 C 
ATOM     15  N   UNL A   1      32.018  25.717  23.247  1.00  0.00    -0.221 NA
BRANCH  13  16
ATOM     16  C   UNL A   1      31.417  23.425  23.774  1.00  0.00     0.019 A 
ATOM     17  C   UNL A   1      31.342  22.864  25.063  1.00  0.00     0.012 A 
ATOM     18  C   UNL A   1      31.926  22.621  22.742  1.00  0.00     0.012 A 
ATOM     19  C   UNL A   1      31.788  21.566  25.321  1.00  0.00     0.014 A 
ATOM     20  C   UNL A   1      32.391  21.322  23.000  1.00  0.00     0.014 A 
ATOM     21  C   UNL A   1      32.342  20.789  24.295  1.00  0.00     0.056 A 
BRANCH  21  22
ATOM     22  C   UNL A   1      32.887  19.417  24.611  1.00  0.00     0.416 C 
ATOM     23  F   UNL A   1      32.488  18.480  23.706  1.00  0.00    -0.166 F 
ATOM     24  F   UNL A   1      34.247  19.381  24.606  1.00  0.00    -0.166 F 
ATOM     25  F   UNL A   1      32.503  18.942  25.829  1.00  0.00    -0.166 F 
ENDBRANCH  21  22
ENDBRANCH  13  16
ENDBRANCH   7   8
ENDBRANCH   6   7
ENDBRANCH   3   6
ENDBRANCH   1   2
BRANCH   1  26
ATOM     26  C   UNL A   1      31.475  30.694  26.399  1.00  0.00     0.023 C 
BRANCH  26  27
ATOM     27  C   UNL A   1      31.353  32.203  26.631  1.00  0.00     0.023 C 
BRANCH  27  28
ATOM     28  C   UNL A   1      32.575  32.884  27.238  1.00  0.00     0.116 C 
BRANCH  28  29
ATOM     29  N   UNL A   1      32.327  34.259  27.636  1.00  0.00    -0.352 N 
ATOM     30  C   UNL A   1      32.965  35.026  28.582  1.00  0.00     0.251 C 
ATOM     31  H   UNL A   1      31.593  34.707  27.158  1.00  0.00     0.163 HD
ATOM     32  O   UNL A   1      32.547  36.143  28.854  1.00  0.00    -0.269 OA
BRANCH  30  33
ATOM     33  C   UNL A   1      34.140  34.485  29.299  1.00  0.00     0.039 A 
ATOM     34  C   UNL A   1      33.937  33.858  30.532  1.00  0.00     0.014 A 
ATOM     35  C   UNL A   1      35.426  34.589  28.764  1.00  0.00     0.014 A 
ATOM     36  C   UNL A   1      35.018  33.276  31.197  1.00  0.00     0.010 A 
ATOM     37  C   UNL A   1      36.491  33.951  29.396  1.00  0.00     0.010 A 
ATOM     38  C   UNL A   1      36.296  33.287  30.618  1.00  0.00    -0.014 A 
BRANCH  38  39
ATOM     39  C   UNL A   1      37.440  32.614  31.281  1.00  0.00     0.031 A 
ATOM     40  C   UNL A   1      38.142  31.474  30.600  1.00  0.00     0.074 A 
ATOM     41  C   UNL A   1      37.821  33.005  32.513  1.00  0.00     0.049 A 
ATOM     42  N   UNL A   1      39.128  30.731  31.036  1.00  0.00    -0.248 NA
ATOM     43  C   UNL A   1      37.659  31.105  29.259  1.00  0.00     0.031 C 
ATOM     44  C   UNL A   1      37.198  34.077  33.288  1.00  0.00     0.029 A 
ATOM     45  N   UNL A   1      38.823  32.542  33.329  1.00  0.00    -0.354 N 
ATOM     46  C   UNL A   1      39.379  29.810  30.027  1.00  0.00     0.074 A 
ATOM     47  C   UNL A   1      38.408  30.048  28.981  1.00  0.00     0.031 C 
ATOM     48  C   UNL A   1      37.850  34.211  34.454  1.00  0.00     0.029 A 
ATOM     49  C   UNL A   1      38.913  33.212  34.525  1.00  0.00     0.049 A 
ATOM     50  H   UNL A   1      39.421  31.799  33.082  1.00  0.00     0.167 HD
ATOM     51  C   UNL A   1      40.352  28.871  29.967  1.00  0.00     0.037 A 
ATOM     52  C   UNL A   1      39.757  33.041  35.560  1.00  0.00     0.037 A 
ATOM     53  C   UNL A   1      41.332  28.653  30.998  1.00  0.00     0.049 A 
ATOM     54  C   UNL A   1      40.812  31.970  35.479  1.00  0.00     0.074 A 
ATOM     55  C   UNL A   1      42.382  27.751  31.010  1.00  0.00     0.029 A 
ATOM     56  N   UNL A   1      41.382  29.344  32.199  1.00  0.00    -0.354 N 
ATOM     57  N   UNL A   1      41.070  31.137  34.501  1.00  0.00    -0.248 NA
ATOM     58  C   UNL A   1      41.692  31.815  36.647  1.00  0.00     0.031 C 
ATOM     59  C   UNL A   1      43.045  27.871  32.235  1.00  0.00     0.029 A 
ATOM     60  C   UNL A   1      42.436  28.876  32.967  1.00  0.00     0.049 A 
ATOM     61  H   UNL A   1      40.762  30.061  32.466  1.00  0.00     0.167 HD
ATOM     62  C   UNL A   1      42.152  30.377  34.922  1.00  0.00     0.074 A 
ATOM     63  C   UNL A   1      42.513  30.856  36.240  1.00  0.00     0.031 C 
ATOM     64  C   UNL A   1      42.786  29.369  34.275  1.00  0.00     0.037 A 
BRANCH  51  65
ATOM     65  C   UNL A   1      40.422  28.018  28.736  1.00  0.00     0.064 A 
ATOM     66  C   UNL A   1      41.191  28.402  27.626  1.00  0.00     0.173 A 
ATOM     67  C   UNL A   1      39.771  26.777  28.686  1.00  0.00     0.173 A 
ATOM     68  F   UNL A   1      41.823  29.585  27.621  1.00  0.00    -0.203 F 
ATOM     69  C   UNL A   1      41.290  27.583  26.505  1.00  0.00     0.198 A 
ATOM     70  C   UNL A   1      39.895  25.947  27.576  1.00  0.00     0.198 A 
ATOM     71  F   UNL A   1      39.027  26.361  29.723  1.00  0.00    -0.203 F 
ATOM     72  F   UNL A   1      42.000  27.986  25.443  1.00  0.00    -0.200 F 
ATOM     73  C   UNL A   1      40.650  26.352  26.485  1.00  0.00     0.200 A 
ATOM     74  F   UNL A   1      39.287  24.753  27.561  1.00  0.00    -0.200 F 
ATOM     75  F   UNL A   1      40.759  25.557  25.412  1.00  0.00    -0.200 F 
ENDBRANCH  51  65
BRANCH  52  76
ATOM     76  C   UNL A   1      39.662  33.930  36.747  1.00  0.00     0.064 A 
ATOM     77  C   UNL A   1      38.857  33.579  37.840  1.00  0.00     0.173 A 
ATOM     78  C   UNL A   1      40.378  35.132  36.822  1.00  0.00     0.173 A 
ATOM     79  F   UNL A   1      38.136  32.449  37.805  1.00  0.00    -0.203 F 
ATOM     80  C   UNL A   1      38.763  34.405  38.958  1.00  0.00     0.198 A 
ATOM     81  C   UNL A   1      40.304  35.944  37.952  1.00  0.00     0.198 A 
ATOM     82  F   UNL A   1      41.164  35.511  35.804  1.00  0.00    -0.203 F 
ATOM     83  F   UNL A   1      37.959  34.064  39.975  1.00  0.00    -0.200 F 
ATOM     84  C   UNL A   1      39.492  35.583  39.017  1.00  0.00     0.200 A 
ATOM     85  F   UNL A   1      41.019  37.075  38.010  1.00  0.00    -0.200 F 
ATOM     86  F   UNL A   1      39.409  36.372  40.097  1.00  0.00    -0.200 F 
ENDBRANCH  52  76
BRANCH  64  87
ATOM     87  C   UNL A   1      43.948  28.720  34.967  1.00  0.00     0.064 A 
ATOM     88  C   UNL A   1      45.254  29.205  34.812  1.00  0.00     0.173 A 
ATOM     89  C   UNL A   1      43.743  27.654  35.856  1.00  0.00     0.173 A 
ATOM     90  F   UNL A   1      45.502  30.215  33.963  1.00  0.00    -0.203 F 
ATOM     91  C   UNL A   1      46.315  28.640  35.515  1.00  0.00     0.198 A 
ATOM     92  C   UNL A   1      44.801  27.110  36.578  1.00  0.00     0.198 A 
ATOM     93  F   UNL A   1      42.509  27.160  36.045  1.00  0.00    -0.203 F 
ATOM     94  F   UNL A   1      47.559  29.102  35.330  1.00  0.00    -0.200 F 
ATOM     95  C   UNL A   1      46.085  27.602  36.405  1.00  0.00     0.200 A 
ATOM     96  F   UNL A   1      44.575  26.117  37.448  1.00  0.00    -0.200 F 
ATOM     97  F   UNL A   1      47.104  27.071  37.095  1.00  0.00    -0.200 F 
ENDBRANCH  64  87
ENDBRANCH  38  39
ENDBRANCH  30  33
ENDBRANCH  28  29
ENDBRANCH  27  28
ENDBRANCH  26  27
ENDBRANCH   1  26
TORSDOF 15
ENDMDL
MODEL 2
REMARK VINA RESULT:     -12.3      1.753      7.552
REMARK SMILES Cc1nc(-c2ccc(C(F)(F)F)cc2)nc(SCC(=O)NCCCCNC(=O)c2ccc(-c3c4nc(c(-c5c(F)c(F)c(F)c(F)c5F)c5ccc([nH]5)c(-c5c(F)c(F)c(F)c(F)c5F)c5nc(c(-c6c(F)c(F)c(F)c(F)c6F)c6ccc3[nH]6)C=C5)C=C4)cc2)c1C
REMARK SMILES IDX 22 1 21 2 19 3 20 4 18 6 17 7 16 8 1 9 2 10 3 11 92 12 4 13
REMARK SMILES IDX 93 14 15 15 5 16 6 17 14 18 7 19 13 20 8 21 9 22 10 23 11 24
REMARK SMILES IDX 12 25 23 26 24 27 25 28 26 29 27 30 28 32 29 33 30 34 91 35
REMARK SMILES IDX 31 36 90 37 32 38 33 39 34 40 84 41 35 42 89 43 83 44 85 45
REMARK SMILES IDX 36 46 88 47 82 48 81 49 37 51 69 52 49 53 68 54 50 55 53 56
REMARK SMILES IDX 67 57 86 58 51 59 52 60 66 62 87 63 54 64 38 65 39 66 47 67
REMARK SMILES IDX 40 68 41 69 45 70 48 71 42 72 43 73 46 74 44 75 70 76 71 77
REMARK SMILES IDX 79 78 72 79 73 80 77 81 80 82 74 83 75 84 78 85 76 86 55 87
REMARK SMILES IDX 56 88 64 89 57 90 58 91 62 92 65 93 59 94 60 95 63 96 61 97
REMARK H PARENT 21 5 26 31 85 50 53 61
REMARK Flexibility Score: inf
ROOT
ATOM      1  C   UNL A   1      33.232  29.042  24.758  1.00  0.00     0.116 C 
ENDROOT
BRANCH   1   2
ATOM      2  N   UNL A   1      33.693  27.699  25.040  1.00  0.00    -0.355 N 
ATOM      3  C   UNL A   1      33.752  26.613  24.226  1.00  0.00     0.230 C 
ATOM      4  O   UNL A   1      34.346  25.622  24.662  1.00  0.00    -0.274 OA
ATOM      5  H   UNL A   1      34.012  27.551  25.959  1.00  0.00     0.163 HD
BRANCH   3   6
ATOM      6  C   UNL A   1      33.237  26.646  22.804  1.00  0.00     0.176 C 
BRANCH   6   7
ATOM      7  S   UNL A   1      32.228  25.242  22.261  1.00  0.00    -0.096 SA
BRANCH   7   8
ATOM      8  C   UNL A   1      31.728  24.199  23.618  1.00  0.00     0.104 A 
ATOM      9  C   UNL A   1      29.959  23.478  26.878  1.00  0.00     0.067 C 
ATOM     10  C   UNL A   1      30.757  23.374  25.608  1.00  0.00     0.045 A 
ATOM     11  N   UNL A   1      31.238  22.144  25.366  1.00  0.00    -0.233 NA
ATOM     12  C   UNL A   1      30.998  24.473  24.772  1.00  0.00     0.003 A 
ATOM     13  C   UNL A   1      31.998  21.990  24.281  1.00  0.00     0.160 A 
ATOM     14  C   UNL A   1      30.430  25.796  25.163  1.00  0.00     0.049 C 
ATOM     15  N   UNL A   1      32.255  22.963  23.399  1.00  0.00    -0.221 NA
BRANCH  13  16
ATOM     16  C   UNL A   1      32.616  20.670  24.109  1.00  0.00     0.019 A 
ATOM     17  C   UNL A   1      32.093  19.761  23.170  1.00  0.00     0.012 A 
ATOM     18  C   UNL A   1      33.673  20.231  24.922  1.00  0.00     0.012 A 
ATOM     19  C   UNL A   1      32.579  18.455  23.070  1.00  0.00     0.014 A 
ATOM     20  C   UNL A   1      34.154  18.916  24.836  1.00  0.00     0.014 A 
ATOM     21  C   UNL A   1      33.600  18.010  23.920  1.00  0.00     0.056 A 
BRANCH  21  22
ATOM     22  C   UNL A   1      34.059  16.575  23.846  1.00  0.00     0.416 C 
ATOM     23  F   UNL A   1      34.403  16.205  22.580  1.00  0.00    -0.166 F 
ATOM     24  F   UNL A   1      35.158  16.336  24.613  1.00  0.00    -0.166 F 
ATOM     25  F   UNL A   1      33.117  15.676  24.250  1.00  0.00    -0.166 F 
ENDBRANCH  21  22
ENDBRANCH  13  16
ENDBRANCH   7   8
ENDBRANCH   6   7
ENDBRANCH   3   6
ENDBRANCH   1   2
BRANCH   1  26
ATOM     26  C   UNL A   1      31.772  29.243  25.156  1.00  0.00     0.023 C 
BRANCH  26  27
ATOM     27  C   UNL A   1      31.441  30.614  25.753  1.00  0.00     0.023 C 
BRANCH  27  28
ATOM     28  C   UNL A   1      32.319  31.062  26.918  1.00  0.00     0.116 C 
BRANCH  28  29
ATOM     29  N   UNL A   1      32.446  32.506  27.019  1.00  0.00    -0.352 N 
ATOM     30  C   UNL A   1      33.424  33.259  27.625  1.00  0.00     0.251 C 
ATOM     31  H   UNL A   1      31.724  33.020  26.592  1.00  0.00     0.163 HD
ATOM     32  O   UNL A   1      33.308  34.475  27.697  1.00  0.00    -0.269 OA
BRANCH  30  33
ATOM     33  C   UNL A   1      34.601  32.594  28.222  1.00  0.00     0.039 A 
ATOM     34  C   UNL A   1      35.780  33.332  28.370  1.00  0.00     0.014 A 
ATOM     35  C   UNL A   1      34.549  31.261  28.635  1.00  0.00     0.014 A 
ATOM     36  C   UNL A   1      36.884  32.751  28.995  1.00  0.00     0.010 A 
ATOM     37  C   UNL A   1      35.628  30.704  29.316  1.00  0.00     0.010 A 
ATOM     38  C   UNL A   1      36.806  31.445  29.504  1.00  0.00    -0.014 A 
BRANCH  38  39
ATOM     39  C   UNL A   1      37.950  30.839  30.230  1.00  0.00     0.031 A 
ATOM     40  C   UNL A   1      38.219  31.215  31.659  1.00  0.00     0.074 A 
ATOM     41  C   UNL A   1      38.767  29.981  29.589  1.00  0.00     0.049 A 
ATOM     42  N   UNL A   1      39.194  30.831  32.445  1.00  0.00    -0.248 NA
ATOM     43  C   UNL A   1      37.283  32.164  32.283  1.00  0.00     0.031 C 
ATOM     44  C   UNL A   1      38.627  29.564  28.194  1.00  0.00     0.029 A 
ATOM     45  N   UNL A   1      39.880  29.308  30.028  1.00  0.00    -0.354 N 
ATOM     46  C   UNL A   1      38.988  31.491  33.649  1.00  0.00     0.074 A 
ATOM     47  C   UNL A   1      37.832  32.343  33.476  1.00  0.00     0.031 C 
ATOM     48  C   UNL A   1      39.596  28.683  27.899  1.00  0.00     0.029 A 
ATOM     49  C   UNL A   1      40.447  28.500  29.072  1.00  0.00     0.049 A 
ATOM     50  H   UNL A   1      40.239  29.395  30.941  1.00  0.00     0.167 HD
ATOM     51  C   UNL A   1      39.684  31.372  34.804  1.00  0.00     0.037 A 
ATOM     52  C   UNL A   1      41.531  27.703  29.134  1.00  0.00     0.037 A 
ATOM     53  C   UNL A   1      40.818  30.506  34.981  1.00  0.00     0.049 A 
ATOM     54  C   UNL A   1      42.304  27.612  30.423  1.00  0.00     0.074 A 
ATOM     55  C   UNL A   1      41.564  30.287  36.127  1.00  0.00     0.029 A 
ATOM     56  N   UNL A   1      41.369  29.713  33.986  1.00  0.00    -0.354 N 
ATOM     57  N   UNL A   1      42.072  28.204  31.568  1.00  0.00    -0.248 NA
ATOM     58  C   UNL A   1      43.488  26.742  30.427  1.00  0.00     0.031 C 
ATOM     59  C   UNL A   1      42.591  29.391  35.815  1.00  0.00     0.029 A 
ATOM     60  C   UNL A   1      42.458  29.017  34.487  1.00  0.00     0.049 A 
ATOM     61  H   UNL A   1      41.037  29.652  33.062  1.00  0.00     0.167 HD
ATOM     62  C   UNL A   1      43.063  27.764  32.434  1.00  0.00     0.074 A 
ATOM     63  C   UNL A   1      43.892  26.843  31.686  1.00  0.00     0.031 C 
ATOM     64  C   UNL A   1      43.270  28.098  33.731  1.00  0.00     0.037 A 
BRANCH  51  65
ATOM     65  C   UNL A   1      39.227  32.185  35.979  1.00  0.00     0.064 A 
ATOM     66  C   UNL A   1      38.316  31.667  36.913  1.00  0.00     0.173 A 
ATOM     67  C   UNL A   1      39.750  33.465  36.211  1.00  0.00     0.173 A 
ATOM     68  F   UNL A   1      37.779  30.452  36.729  1.00  0.00    -0.203 F 
ATOM     69  C   UNL A   1      37.934  32.409  38.027  1.00  0.00     0.198 A 
ATOM     70  C   UNL A   1      39.387  34.192  37.341  1.00  0.00     0.198 A 
ATOM     71  F   UNL A   1      40.628  34.003  35.351  1.00  0.00    -0.203 F 
ATOM     72  F   UNL A   1      37.036  31.908  38.887  1.00  0.00    -0.200 F 
ATOM     73  C   UNL A   1      38.477  33.666  38.246  1.00  0.00     0.200 A 
ATOM     74  F   UNL A   1      39.921  35.402  37.558  1.00  0.00    -0.200 F 
ATOM     75  F   UNL A   1      38.120  34.372  39.327  1.00  0.00    -0.200 F 
ENDBRANCH  51  65
BRANCH  52  76
ATOM     76  C   UNL A   1      41.927  26.899  27.949  1.00  0.00     0.064 A 
ATOM     77  C   UNL A   1      41.367  25.633  27.725  1.00  0.00     0.173 A 
ATOM     78  C   UNL A   1      42.855  27.378  27.015  1.00  0.00     0.173 A 
ATOM     79  F   UNL A   1      40.491  25.124  28.603  1.00  0.00    -0.203 F 
ATOM     80  C   UNL A   1      41.730  24.873  26.615  1.00  0.00     0.198 A 
ATOM     81  C   UNL A   1      43.197  26.627  25.892  1.00  0.00     0.198 A 
ATOM     82  F   UNL A   1      43.417  28.583  27.183  1.00  0.00    -0.203 F 
ATOM     83  F   UNL A   1      41.206  23.651  26.442  1.00  0.00    -0.200 F 
ATOM     84  C   UNL A   1      42.639  25.373  25.696  1.00  0.00     0.200 A 
ATOM     85  F   UNL A   1      44.067  27.119  24.999  1.00  0.00    -0.200 F 
ATOM     86  F   UNL A   1      42.981  24.645  24.624  1.00  0.00    -0.200 F 
ENDBRANCH  52  76
BRANCH  64  87
ATOM     87  C   UNL A   1      44.425  27.456  34.440  1.00  0.00     0.064 A 
ATOM     88  C   UNL A   1      44.289  26.220  35.088  1.00  0.00     0.173 A 
ATOM     89  C   UNL A   1      45.699  28.043  34.401  1.00  0.00     0.173 A 
ATOM     90  F   UNL A   1      43.088  25.626  35.163  1.00  0.00    -0.203 F 
ATOM     91  C   UNL A   1      45.386  25.599  35.680  1.00  0.00     0.198 A 
ATOM     92  C   UNL A   1      46.798  27.406  34.971  1.00  0.00     0.198 A 
ATOM     93  F   UNL A   1      45.882  29.221  33.785  1.00  0.00    -0.203 F 
ATOM     94  F   UNL A   1      45.227  24.432  36.319  1.00  0.00    -0.200 F 
ATOM     95  C   UNL A   1      46.639  26.187  35.611  1.00  0.00     0.200 A 
ATOM     96  F   UNL A   1      48.011  27.968  34.889  1.00  0.00    -0.200 F 
ATOM     97  F   UNL A   1      47.697  25.579  36.166  1.00  0.00    -0.200 F 
ENDBRANCH  64  87
ENDBRANCH  38  39
ENDBRANCH  30  33
ENDBRANCH  28  29
ENDBRANCH  27  28
ENDBRANCH  26  27
ENDBRANCH   1  26
TORSDOF 15
ENDMDL
MODEL 3
REMARK VINA RESULT:     -12.1      5.819      9.829
REMARK SMILES Cc1nc(-c2ccc(C(F)(F)F)cc2)nc(SCC(=O)NCCCCNC(=O)c2ccc(-c3c4nc(c(-c5c(F)c(F)c(F)c(F)c5F)c5ccc([nH]5)c(-c5c(F)c(F)c(F)c(F)c5F)c5nc(c(-c6c(F)c(F)c(F)c(F)c6F)c6ccc3[nH]6)C=C5)C=C4)cc2)c1C
REMARK SMILES IDX 22 1 21 2 19 3 20 4 18 6 17 7 16 8 1 9 2 10 3 11 92 12 4 13
REMARK SMILES IDX 93 14 15 15 5 16 6 17 14 18 7 19 13 20 8 21 9 22 10 23 11 24
REMARK SMILES IDX 12 25 23 26 24 27 25 28 26 29 27 30 28 32 29 33 30 34 91 35
REMARK SMILES IDX 31 36 90 37 32 38 33 39 34 40 84 41 35 42 89 43 83 44 85 45
REMARK SMILES IDX 36 46 88 47 82 48 81 49 37 51 69 52 49 53 68 54 50 55 53 56
REMARK SMILES IDX 67 57 86 58 51 59 52 60 66 62 87 63 54 64 38 65 39 66 47 67
REMARK SMILES IDX 40 68 41 69 45 70 48 71 42 72 43 73 46 74 44 75 70 76 71 77
REMARK SMILES IDX 79 78 72 79 73 80 77 81 80 82 74 83 75 84 78 85 76 86 55 87
REMARK SMILES IDX 56 88 64 89 57 90 58 91 62 92 65 93 59 94 60 95 63 96 61 97
REMARK H PARENT 21 5 26 31 85 50 53 61
REMARK Flexibility Score: inf
ROOT
ATOM      1  C   UNL A   1      35.920  21.610  25.890  1.00  0.00     0.116 C 
ENDROOT
BRANCH   1   2
ATOM      2  N   UNL A   1      35.500  22.990  25.769  1.00  0.00    -0.355 N 
ATOM      3  C   UNL A   1      34.255  23.528  25.840  1.00  0.00     0.230 C 
ATOM      4  O   UNL A   1      34.181  24.760  25.873  1.00  0.00    -0.274 OA
ATOM      5  H   UNL A   1      36.227  23.636  25.614  1.00  0.00     0.163 HD
BRANCH   3   6
ATOM      6  C   UNL A   1      33.018  22.672  26.005  1.00  0.00     0.176 C 
BRANCH   6   7
ATOM      7  S   UNL A   1      31.445  23.385  25.455  1.00  0.00    -0.096 SA
BRANCH   7   8
ATOM      8  C   UNL A   1      31.621  24.358  23.971  1.00  0.00     0.104 A 
ATOM      9  C   UNL A   1      32.903  25.034  20.482  1.00  0.00     0.067 C 
ATOM     10  C   UNL A   1      32.213  25.122  21.816  1.00  0.00     0.045 A 
ATOM     11  N   UNL A   1      31.479  26.234  21.977  1.00  0.00    -0.233 NA
ATOM     12  C   UNL A   1      32.353  24.141  22.807  1.00  0.00     0.003 A 
ATOM     13  C   UNL A   1      30.879  26.402  23.156  1.00  0.00     0.160 A 
ATOM     14  C   UNL A   1      33.219  22.961  22.516  1.00  0.00     0.049 C 
ATOM     15  N   UNL A   1      30.916  25.509  24.152  1.00  0.00    -0.221 NA
BRANCH  13  16
ATOM     16  C   UNL A   1      30.190  27.683  23.353  1.00  0.00     0.019 A 
ATOM     17  C   UNL A   1      28.812  27.793  23.088  1.00  0.00     0.012 A 
ATOM     18  C   UNL A   1      30.880  28.851  23.714  1.00  0.00     0.012 A 
ATOM     19  C   UNL A   1      28.155  29.024  23.147  1.00  0.00     0.014 A 
ATOM     20  C   UNL A   1      30.227  30.092  23.758  1.00  0.00     0.014 A 
ATOM     21  C   UNL A   1      28.861  30.193  23.458  1.00  0.00     0.056 A 
BRANCH  21  22
ATOM     22  C   UNL A   1      28.147  31.522  23.442  1.00  0.00     0.416 C 
ATOM     23  F   UNL A   1      28.942  32.543  23.871  1.00  0.00    -0.166 F 
ATOM     24  F   UNL A   1      27.731  31.877  22.196  1.00  0.00    -0.166 F 
ATOM     25  F   UNL A   1      27.039  31.559  24.234  1.00  0.00    -0.166 F 
ENDBRANCH  21  22
ENDBRANCH  13  16
ENDBRANCH   7   8
ENDBRANCH   6   7
ENDBRANCH   3   6
ENDBRANCH   1   2
BRANCH   1  26
ATOM     26  C   UNL A   1      36.642  21.118  24.638  1.00  0.00     0.023 C 
BRANCH  26  27
ATOM     27  C   UNL A   1      37.691  20.027  24.876  1.00  0.00     0.023 C 
BRANCH  27  28
ATOM     28  C   UNL A   1      38.844  20.404  25.801  1.00  0.00     0.116 C 
BRANCH  28  29
ATOM     29  N   UNL A   1      39.886  19.393  25.859  1.00  0.00    -0.352 N 
ATOM     30  C   UNL A   1      41.233  19.536  26.095  1.00  0.00     0.251 C 
ATOM     31  H   UNL A   1      39.583  18.470  25.706  1.00  0.00     0.163 HD
ATOM     32  O   UNL A   1      41.980  18.571  26.003  1.00  0.00    -0.269 OA
BRANCH  30  33
ATOM     33  C   UNL A   1      41.786  20.867  26.425  1.00  0.00     0.039 A 
ATOM     34  C   UNL A   1      42.118  21.730  25.376  1.00  0.00     0.014 A 
ATOM     35  C   UNL A   1      41.974  21.265  27.751  1.00  0.00     0.014 A 
ATOM     36  C   UNL A   1      42.575  23.018  25.659  1.00  0.00     0.010 A 
ATOM     37  C   UNL A   1      42.367  22.571  28.032  1.00  0.00     0.010 A 
ATOM     38  C   UNL A   1      42.670  23.460  26.988  1.00  0.00    -0.014 A 
BRANCH  38  39
ATOM     39  C   UNL A   1      43.090  24.849  27.302  1.00  0.00     0.031 A 
ATOM     40  C   UNL A   1      44.497  25.292  27.020  1.00  0.00     0.074 A 
ATOM     41  C   UNL A   1      42.215  25.696  27.876  1.00  0.00     0.049 A 
ATOM     42  N   UNL A   1      45.066  26.446  27.266  1.00  0.00    -0.248 NA
ATOM     43  C   UNL A   1      45.392  24.302  26.397  1.00  0.00     0.031 C 
ATOM     44  C   UNL A   1      40.832  25.373  28.227  1.00  0.00     0.029 A 
ATOM     45  N   UNL A   1      42.361  27.004  28.269  1.00  0.00    -0.354 N 
ATOM     46  C   UNL A   1      46.378  26.318  26.833  1.00  0.00     0.074 A 
ATOM     47  C   UNL A   1      46.541  24.961  26.360  1.00  0.00     0.031 C 
ATOM     48  C   UNL A   1      40.247  26.460  28.754  1.00  0.00     0.029 A 
ATOM     49  C   UNL A   1      41.221  27.546  28.812  1.00  0.00     0.049 A 
ATOM     50  H   UNL A   1      43.202  27.506  28.171  1.00  0.00     0.167 HD
ATOM     51  C   UNL A   1      47.350  27.259  26.803  1.00  0.00     0.037 A 
ATOM     52  C   UNL A   1      40.989  28.779  29.301  1.00  0.00     0.037 A 
ATOM     53  C   UNL A   1      47.179  28.616  27.251  1.00  0.00     0.049 A 
ATOM     54  C   UNL A   1      42.097  29.798  29.283  1.00  0.00     0.074 A 
ATOM     55  C   UNL A   1      48.095  29.653  27.223  1.00  0.00     0.029 A 
ATOM     56  N   UNL A   1      46.014  29.123  27.805  1.00  0.00    -0.354 N 
ATOM     57  N   UNL A   1      43.319  29.680  28.827  1.00  0.00    -0.248 NA
ATOM     58  C   UNL A   1      41.792  31.121  29.847  1.00  0.00     0.031 C 
ATOM     59  C   UNL A   1      47.496  30.779  27.796  1.00  0.00     0.029 A 
ATOM     60  C   UNL A   1      46.194  30.455  28.141  1.00  0.00     0.049 A 
ATOM     61  H   UNL A   1      45.183  28.613  27.940  1.00  0.00     0.167 HD
ATOM     62  C   UNL A   1      43.922  30.914  29.027  1.00  0.00     0.074 A 
ATOM     63  C   UNL A   1      42.927  31.773  29.633  1.00  0.00     0.031 C 
ATOM     64  C   UNL A   1      45.189  31.299  28.738  1.00  0.00     0.037 A 
BRANCH  51  65
ATOM     65  C   UNL A   1      48.687  26.863  26.249  1.00  0.00     0.064 A 
ATOM     66  C   UNL A   1      48.995  27.043  24.892  1.00  0.00     0.173 A 
ATOM     67  C   UNL A   1      49.691  26.362  27.090  1.00  0.00     0.173 A 
ATOM     68  F   UNL A   1      48.065  27.508  24.045  1.00  0.00    -0.203 F 
ATOM     69  C   UNL A   1      50.254  26.717  24.394  1.00  0.00     0.198 A 
ATOM     70  C   UNL A   1      50.957  26.064  26.595  1.00  0.00     0.198 A 
ATOM     71  F   UNL A   1      49.449  26.177  28.397  1.00  0.00    -0.203 F 
ATOM     72  F   UNL A   1      50.514  26.863  23.088  1.00  0.00    -0.200 F 
ATOM     73  C   UNL A   1      51.236  26.238  25.247  1.00  0.00     0.200 A 
ATOM     74  F   UNL A   1      51.910  25.613  27.422  1.00  0.00    -0.200 F 
ATOM     75  F   UNL A   1      52.452  25.941  24.770  1.00  0.00    -0.200 F 
ENDBRANCH  51  65
BRANCH  52  76
ATOM     76  C   UNL A   1      39.639  29.129  29.815  1.00  0.00     0.064 A 
ATOM     77  C   UNL A   1      39.338  28.998  31.178  1.00  0.00     0.173 A 
ATOM     78  C   UNL A   1      38.634  29.611  28.967  1.00  0.00     0.173 A 
ATOM     79  F   UNL A   1      40.261  28.520  32.025  1.00  0.00    -0.203 F 
ATOM     80  C   UNL A   1      38.076  29.326  31.670  1.00  0.00     0.198 A 
ATOM     81  C   UNL A   1      37.381  29.963  29.465  1.00  0.00     0.198 A 
ATOM     82  F   UNL A   1      38.873  29.757  27.656  1.00  0.00    -0.203 F 
ATOM     83  F   UNL A   1      37.802  29.158  32.972  1.00  0.00    -0.200 F 
ATOM     84  C   UNL A   1      37.101  29.815  30.815  1.00  0.00     0.200 A 
ATOM     85  F   UNL A   1      36.445  30.448  28.637  1.00  0.00    -0.200 F 
ATOM     86  F   UNL A   1      35.891  30.139  31.290  1.00  0.00    -0.200 F 
ENDBRANCH  52  76
BRANCH  64  87
ATOM     87  C   UNL A   1      45.577  32.713  29.053  1.00  0.00     0.064 A 
ATOM     88  C   UNL A   1      46.095  33.066  30.307  1.00  0.00     0.173 A 
ATOM     89  C   UNL A   1      45.506  33.707  28.066  1.00  0.00     0.173 A 
ATOM     90  F   UNL A   1      46.170  32.152  31.287  1.00  0.00    -0.203 F 
ATOM     91  C   UNL A   1      46.519  34.367  30.565  1.00  0.00     0.198 A 
ATOM     92  C   UNL A   1      45.956  35.000  28.318  1.00  0.00     0.198 A 
ATOM     93  F   UNL A   1      45.025  33.417  26.846  1.00  0.00    -0.203 F 
ATOM     94  F   UNL A   1      46.984  34.689  31.780  1.00  0.00    -0.200 F 
ATOM     95  C   UNL A   1      46.459  35.329  29.568  1.00  0.00     0.200 A 
ATOM     96  F   UNL A   1      45.912  35.924  27.349  1.00  0.00    -0.200 F 
ATOM     97  F   UNL A   1      46.885  36.576  29.812  1.00  0.00    -0.200 F 
ENDBRANCH  64  87
ENDBRANCH  38  39
ENDBRANCH  30  33
ENDBRANCH  28  29
ENDBRANCH  27  28
ENDBRANCH  26  27
ENDBRANCH   1  26
TORSDOF 15
ENDMDL
