MODEL 1
REMARK VINA RESULT:     -13.0      0.000      0.000
REMARK SMILES Cc1ccc(-c2ncccc2C(=O)NCCCCNC(=O)c2ccc(-c3c4nc(c(-c5c(F)c(F)c(F)c(F)c5F)c5ccc([nH]5)c(-c5c(F)c(F)c(F)c(F)c5F)c5nc(c(-c6c(F)c(F)c(F)c(F)c6F)c6ccc3[nH]6)C=C5)C=C4)cc2)c(C)c1
REMARK SMILES IDX 17 1 16 2 15 3 14 4 12 5 13 6 11 8 6 9 7 10 8 11 10 12 9 13
REMARK SMILES IDX 5 14 1 15 2 16 3 17 87 18 4 19 85 20 86 21 18 22 19 23 20 24
REMARK SMILES IDX 21 26 22 27 23 28 84 29 24 30 83 31 25 32 26 33 27 34 77 35
REMARK SMILES IDX 28 36 82 37 76 38 78 39 29 40 81 41 75 42 74 43 30 45 62 46
REMARK SMILES IDX 42 47 61 48 43 49 46 50 60 51 79 52 44 53 45 54 59 56 80 57
REMARK SMILES IDX 47 58 31 59 32 60 40 61 33 62 34 63 38 64 41 65 35 66 36 67
REMARK SMILES IDX 39 68 37 69 63 70 64 71 72 72 65 73 66 74 70 75 73 76 67 77
REMARK SMILES IDX 68 78 71 79 69 80 48 81 49 82 57 83 50 84 51 85 55 86 58 87
REMARK SMILES IDX 52 88 53 89 56 90 54 91
REMARK H PARENT 14 7 19 25 78 44 46 55
REMARK Flexibility Score: inf
ROOT
ATOM      1  C   UNL A   1      31.363  32.158  26.665  1.00  0.00     0.023 C 
ENDROOT
BRANCH   1   2
ATOM      2  C   UNL A   1      31.643  30.907  25.818  1.00  0.00     0.023 C 
BRANCH   2   3
ATOM      3  C   UNL A   1      32.508  29.858  26.519  1.00  0.00     0.116 C 
BRANCH   3   4
ATOM      4  N   UNL A   1      31.716  28.706  26.891  1.00  0.00    -0.352 N 
ATOM      5  C   UNL A   1      31.614  27.403  26.475  1.00  0.00     0.253 C 
ATOM      6  O   UNL A   1      30.766  26.769  27.102  1.00  0.00    -0.269 OA
ATOM      7  H   UNL A   1      31.095  28.909  27.626  1.00  0.00     0.163 HD
BRANCH   5   8
ATOM      8  C   UNL A   1      32.446  26.750  25.405  1.00  0.00     0.066 A 
ATOM      9  C   UNL A   1      32.064  26.816  24.046  1.00  0.00     0.083 A 
ATOM     10  N   UNL A   1      32.722  26.134  23.056  1.00  0.00    -0.255 NA
ATOM     11  C   UNL A   1      33.794  25.395  23.387  1.00  0.00     0.112 A 
ATOM     12  C   UNL A   1      33.619  26.032  25.673  1.00  0.00     0.018 A 
ATOM     13  C   UNL A   1      34.288  25.331  24.668  1.00  0.00     0.021 A 
BRANCH   9  14
ATOM     14  C   UNL A   1      30.986  27.663  23.496  1.00  0.00     0.004 A 
ATOM     15  C   UNL A   1      27.953  30.306  21.883  1.00  0.00     0.044 C 
ATOM     16  C   UNL A   1      29.011  29.389  22.420  1.00  0.00    -0.051 A 
ATOM     17  C   UNL A   1      30.361  29.726  22.329  1.00  0.00     0.004 A 
ATOM     18  C   UNL A   1      28.654  28.171  23.010  1.00  0.00     0.007 A 
ATOM     19  C   UNL A   1      31.332  28.867  22.847  1.00  0.00     0.011 A 
ATOM     20  C   UNL A   1      29.622  27.307  23.557  1.00  0.00    -0.041 A 
ATOM     21  C   UNL A   1      29.149  26.001  24.141  1.00  0.00     0.045 C 
ENDBRANCH   9  14
ENDBRANCH   5   8
ENDBRANCH   3   4
ENDBRANCH   2   3
ENDBRANCH   1   2
BRANCH   1  22
ATOM     22  C   UNL A   1      32.596  32.848  27.242  1.00  0.00     0.116 C 
BRANCH  22  23
ATOM     23  N   UNL A   1      32.352  34.222  27.653  1.00  0.00    -0.352 N 
ATOM     24  C   UNL A   1      33.007  34.966  28.604  1.00  0.00     0.251 C 
ATOM     25  H   UNL A   1      31.616  34.680  27.186  1.00  0.00     0.163 HD
ATOM     26  O   UNL A   1      32.613  36.086  28.895  1.00  0.00    -0.269 OA
BRANCH  24  27
ATOM     27  C   UNL A   1      34.169  34.382  29.304  1.00  0.00     0.039 A 
ATOM     28  C   UNL A   1      33.943  33.601  30.439  1.00  0.00     0.014 A 
ATOM     29  C   UNL A   1      35.467  34.583  28.827  1.00  0.00     0.014 A 
ATOM     30  C   UNL A   1      35.017  32.965  31.062  1.00  0.00     0.010 A 
ATOM     31  C   UNL A   1      36.528  33.896  29.408  1.00  0.00     0.010 A 
ATOM     32  C   UNL A   1      36.311  33.078  30.529  1.00  0.00    -0.014 A 
BRANCH  32  33
ATOM     33  C   UNL A   1      37.452  32.344  31.127  1.00  0.00     0.031 A 
ATOM     34  C   UNL A   1      37.944  32.703  32.499  1.00  0.00     0.074 A 
ATOM     35  C   UNL A   1      38.083  31.399  30.405  1.00  0.00     0.049 A 
ATOM     36  N   UNL A   1      38.959  32.217  33.168  1.00  0.00    -0.248 NA
ATOM     37  C   UNL A   1      37.215  33.768  33.201  1.00  0.00     0.031 C 
ATOM     38  C   UNL A   1      37.725  30.995  29.044  1.00  0.00     0.029 A 
ATOM     39  N   UNL A   1      39.164  30.612  30.712  1.00  0.00    -0.354 N 
ATOM     40  C   UNL A   1      38.995  32.924  34.361  1.00  0.00     0.074 A 
ATOM     41  C   UNL A   1      37.939  33.911  34.301  1.00  0.00     0.031 C 
ATOM     42  C   UNL A   1      38.550  30.015  28.646  1.00  0.00     0.029 A 
ATOM     43  C   UNL A   1      39.516  29.745  29.707  1.00  0.00     0.049 A 
ATOM     44  H   UNL A   1      39.641  30.663  31.571  1.00  0.00     0.167 HD
ATOM     45  C   UNL A   1      39.818  32.749  35.423  1.00  0.00     0.037 A 
ATOM     46  C   UNL A   1      40.506  28.836  29.652  1.00  0.00     0.037 A 
ATOM     47  C   UNL A   1      40.858  31.755  35.485  1.00  0.00     0.049 A 
ATOM     48  C   UNL A   1      41.419  28.672  30.835  1.00  0.00     0.074 A 
ATOM     49  C   UNL A   1      41.713  31.461  36.531  1.00  0.00     0.029 A 
ATOM     50  N   UNL A   1      41.185  30.892  34.447  1.00  0.00    -0.354 N 
ATOM     51  N   UNL A   1      41.404  29.300  31.985  1.00  0.00    -0.248 NA
ATOM     52  C   UNL A   1      42.484  27.667  30.713  1.00  0.00     0.031 C 
ATOM     53  C   UNL A   1      42.584  30.449  36.113  1.00  0.00     0.029 A 
ATOM     54  C   UNL A   1      42.242  30.079  34.823  1.00  0.00     0.049 A 
ATOM     55  H   UNL A   1      40.732  30.862  33.573  1.00  0.00     0.167 HD
ATOM     56  C   UNL A   1      42.435  28.750  32.734  1.00  0.00     0.074 A 
ATOM     57  C   UNL A   1      43.048  27.728  31.911  1.00  0.00     0.031 C 
ATOM     58  C   UNL A   1      42.836  29.062  33.992  1.00  0.00     0.037 A 
BRANCH  45  59
ATOM     59  C   UNL A   1      39.620  33.657  36.602  1.00  0.00     0.064 A 
ATOM     60  C   UNL A   1      38.810  33.286  37.687  1.00  0.00     0.173 A 
ATOM     61  C   UNL A   1      40.245  34.912  36.652  1.00  0.00     0.173 A 
ATOM     62  F   UNL A   1      38.177  32.101  37.682  1.00  0.00    -0.203 F 
ATOM     63  C   UNL A   1      38.600  34.152  38.756  1.00  0.00     0.198 A 
ATOM     64  C   UNL A   1      40.059  35.763  37.739  1.00  0.00     0.198 A 
ATOM     65  F   UNL A   1      41.035  35.314  35.645  1.00  0.00    -0.203 F 
ATOM     66  F   UNL A   1      37.771  33.800  39.748  1.00  0.00    -0.200 F 
ATOM     67  C   UNL A   1      39.228  35.388  38.783  1.00  0.00     0.200 A 
ATOM     68  F   UNL A   1      40.676  36.952  37.770  1.00  0.00    -0.200 F 
ATOM     69  F   UNL A   1      39.023  36.222  39.812  1.00  0.00    -0.200 F 
ENDBRANCH  45  59
BRANCH  46  70
ATOM     70  C   UNL A   1      40.653  27.976  28.450  1.00  0.00     0.064 A 
ATOM     71  C   UNL A   1      40.026  26.724  28.388  1.00  0.00     0.173 A 
ATOM     72  C   UNL A   1      41.406  28.386  27.340  1.00  0.00     0.173 A 
ATOM     73  F   UNL A   1      39.312  26.282  29.433  1.00  0.00    -0.203 F 
ATOM     74  C   UNL A   1      40.157  25.908  27.267  1.00  0.00     0.198 A 
ATOM     75  C   UNL A   1      41.516  27.580  26.209  1.00  0.00     0.198 A 
ATOM     76  F   UNL A   1      42.021  29.578  27.349  1.00  0.00    -0.203 F 
ATOM     77  F   UNL A   1      39.575  24.701  27.247  1.00  0.00    -0.200 F 
ATOM     78  C   UNL A   1      40.896  26.339  26.175  1.00  0.00     0.200 A 
ATOM     79  F   UNL A   1      42.220  28.005  25.152  1.00  0.00    -0.200 F 
ATOM     80  F   UNL A   1      41.015  25.557  25.094  1.00  0.00    -0.200 F 
ENDBRANCH  46  70
BRANCH  58  81
ATOM     81  C   UNL A   1      43.970  28.264  34.567  1.00  0.00     0.064 A 
ATOM     82  C   UNL A   1      45.300  28.695  34.461  1.00  0.00     0.173 A 
ATOM     83  C   UNL A   1      43.716  27.073  35.263  1.00  0.00     0.173 A 
ATOM     84  F   UNL A   1      45.596  29.819  33.791  1.00  0.00    -0.203 F 
ATOM     85  C   UNL A   1      46.338  27.948  35.012  1.00  0.00     0.198 A 
ATOM     86  C   UNL A   1      44.754  26.344  35.836  1.00  0.00     0.198 A 
ATOM     87  F   UNL A   1      42.460  26.622  35.395  1.00  0.00    -0.203 F 
ATOM     88  F   UNL A   1      47.607  28.353  34.860  1.00  0.00    -0.200 F 
ATOM     89  C   UNL A   1      46.064  26.778  35.705  1.00  0.00     0.200 A 
ATOM     90  F   UNL A   1      44.485  25.220  36.516  1.00  0.00    -0.200 F 
ATOM     91  F   UNL A   1      47.065  26.064  36.239  1.00  0.00    -0.200 F 
ENDBRANCH  58  81
ENDBRANCH  32  33
ENDBRANCH  24  27
ENDBRANCH  22  23
ENDBRANCH   1  22
TORSDOF 12
ENDMDL
MODEL 2
REMARK VINA RESULT:     -13.0      0.056      1.141
REMARK SMILES Cc1ccc(-c2ncccc2C(=O)NCCCCNC(=O)c2ccc(-c3c4nc(c(-c5c(F)c(F)c(F)c(F)c5F)c5ccc([nH]5)c(-c5c(F)c(F)c(F)c(F)c5F)c5nc(c(-c6c(F)c(F)c(F)c(F)c6F)c6ccc3[nH]6)C=C5)C=C4)cc2)c(C)c1
REMARK SMILES IDX 17 1 16 2 15 3 14 4 12 5 13 6 11 8 6 9 7 10 8 11 10 12 9 13
REMARK SMILES IDX 5 14 1 15 2 16 3 17 87 18 4 19 85 20 86 21 18 22 19 23 20 24
REMARK SMILES IDX 21 26 22 27 23 28 84 29 24 30 83 31 25 32 26 33 27 34 77 35
REMARK SMILES IDX 28 36 82 37 76 38 78 39 29 40 81 41 75 42 74 43 30 45 62 46
REMARK SMILES IDX 42 47 61 48 43 49 46 50 60 51 79 52 44 53 45 54 59 56 80 57
REMARK SMILES IDX 47 58 31 59 32 60 40 61 33 62 34 63 38 64 41 65 35 66 36 67
REMARK SMILES IDX 39 68 37 69 63 70 64 71 72 72 65 73 66 74 70 75 73 76 67 77
REMARK SMILES IDX 68 78 71 79 69 80 48 81 49 82 57 83 50 84 51 85 55 86 58 87
REMARK SMILES IDX 52 88 53 89 56 90 54 91
REMARK H PARENT 14 7 19 25 78 44 46 55
REMARK Flexibility Score: inf
ROOT
ATOM      1  C   UNL A   1      31.375  32.110  26.804  1.00  0.00     0.023 C 
ENDROOT
BRANCH   1   2
ATOM      2  C   UNL A   1      31.596  30.929  25.847  1.00  0.00     0.023 C 
BRANCH   2   3
ATOM      3  C   UNL A   1      32.519  29.841  26.397  1.00  0.00     0.116 C 
BRANCH   3   4
ATOM      4  N   UNL A   1      31.756  28.688  26.822  1.00  0.00    -0.352 N 
ATOM      5  C   UNL A   1      31.664  27.372  26.446  1.00  0.00     0.253 C 
ATOM      6  O   UNL A   1      30.843  26.743  27.113  1.00  0.00    -0.269 OA
ATOM      7  H   UNL A   1      31.150  28.902  27.567  1.00  0.00     0.163 HD
BRANCH   5   8
ATOM      8  C   UNL A   1      32.480  26.702  25.374  1.00  0.00     0.066 A 
ATOM      9  C   UNL A   1      32.089  26.767  24.017  1.00  0.00     0.083 A 
ATOM     10  N   UNL A   1      32.731  26.070  23.026  1.00  0.00    -0.255 NA
ATOM     11  C   UNL A   1      33.795  25.318  23.354  1.00  0.00     0.112 A 
ATOM     12  C   UNL A   1      33.645  25.969  25.638  1.00  0.00     0.018 A 
ATOM     13  C   UNL A   1      34.297  25.253  24.631  1.00  0.00     0.021 A 
BRANCH   9  14
ATOM     14  C   UNL A   1      31.019  27.626  23.470  1.00  0.00     0.004 A 
ATOM     15  C   UNL A   1      28.012  30.302  21.864  1.00  0.00     0.044 C 
ATOM     16  C   UNL A   1      29.061  29.374  22.398  1.00  0.00    -0.051 A 
ATOM     17  C   UNL A   1      30.414  29.690  22.296  1.00  0.00     0.004 A 
ATOM     18  C   UNL A   1      28.691  28.164  22.999  1.00  0.00     0.007 A 
ATOM     19  C   UNL A   1      31.377  28.821  22.812  1.00  0.00     0.011 A 
ATOM     20  C   UNL A   1      29.650  27.289  23.543  1.00  0.00    -0.041 A 
ATOM     21  C   UNL A   1      29.164  25.994  24.137  1.00  0.00     0.045 C 
ENDBRANCH   9  14
ENDBRANCH   5   8
ENDBRANCH   3   4
ENDBRANCH   2   3
ENDBRANCH   1   2
BRANCH   1  22
ATOM     22  C   UNL A   1      32.637  32.865  27.214  1.00  0.00     0.116 C 
BRANCH  22  23
ATOM     23  N   UNL A   1      32.381  34.232  27.640  1.00  0.00    -0.352 N 
ATOM     24  C   UNL A   1      33.023  34.969  28.606  1.00  0.00     0.251 C 
ATOM     25  H   UNL A   1      31.646  34.692  27.173  1.00  0.00     0.163 HD
ATOM     26  O   UNL A   1      32.620  36.083  28.908  1.00  0.00    -0.269 OA
BRANCH  24  27
ATOM     27  C   UNL A   1      34.183  34.383  29.309  1.00  0.00     0.039 A 
ATOM     28  C   UNL A   1      33.952  33.580  30.428  1.00  0.00     0.014 A 
ATOM     29  C   UNL A   1      35.484  34.604  28.850  1.00  0.00     0.014 A 
ATOM     30  C   UNL A   1      35.024  32.942  31.050  1.00  0.00     0.010 A 
ATOM     31  C   UNL A   1      36.544  33.916  29.431  1.00  0.00     0.010 A 
ATOM     32  C   UNL A   1      36.323  33.077  30.534  1.00  0.00    -0.014 A 
BRANCH  32  33
ATOM     33  C   UNL A   1      37.465  32.343  31.132  1.00  0.00     0.031 A 
ATOM     34  C   UNL A   1      37.958  32.702  32.503  1.00  0.00     0.074 A 
ATOM     35  C   UNL A   1      38.095  31.397  30.410  1.00  0.00     0.049 A 
ATOM     36  N   UNL A   1      38.973  32.217  33.171  1.00  0.00    -0.248 NA
ATOM     37  C   UNL A   1      37.230  33.768  33.205  1.00  0.00     0.031 C 
ATOM     38  C   UNL A   1      37.735  30.992  29.050  1.00  0.00     0.029 A 
ATOM     39  N   UNL A   1      39.175  30.609  30.716  1.00  0.00    -0.354 N 
ATOM     40  C   UNL A   1      39.011  32.925  34.364  1.00  0.00     0.074 A 
ATOM     41  C   UNL A   1      37.955  33.912  34.304  1.00  0.00     0.031 C 
ATOM     42  C   UNL A   1      38.559  30.011  28.652  1.00  0.00     0.029 A 
ATOM     43  C   UNL A   1      39.526  29.742  29.712  1.00  0.00     0.049 A 
ATOM     44  H   UNL A   1      39.653  30.661  31.575  1.00  0.00     0.167 HD
ATOM     45  C   UNL A   1      39.835  32.749  35.425  1.00  0.00     0.037 A 
ATOM     46  C   UNL A   1      40.515  28.832  29.656  1.00  0.00     0.037 A 
ATOM     47  C   UNL A   1      40.874  31.756  35.487  1.00  0.00     0.049 A 
ATOM     48  C   UNL A   1      41.429  28.668  30.839  1.00  0.00     0.074 A 
ATOM     49  C   UNL A   1      41.730  31.461  36.533  1.00  0.00     0.029 A 
ATOM     50  N   UNL A   1      41.200  30.892  34.449  1.00  0.00    -0.354 N 
ATOM     51  N   UNL A   1      41.416  29.298  31.989  1.00  0.00    -0.248 NA
ATOM     52  C   UNL A   1      42.494  27.662  30.717  1.00  0.00     0.031 C 
ATOM     53  C   UNL A   1      42.601  30.448  36.114  1.00  0.00     0.029 A 
ATOM     54  C   UNL A   1      42.257  30.078  34.825  1.00  0.00     0.049 A 
ATOM     55  H   UNL A   1      40.746  30.861  33.576  1.00  0.00     0.167 HD
ATOM     56  C   UNL A   1      42.447  28.747  32.737  1.00  0.00     0.074 A 
ATOM     57  C   UNL A   1      43.059  27.724  31.914  1.00  0.00     0.031 C 
ATOM     58  C   UNL A   1      42.849  29.060  33.994  1.00  0.00     0.037 A 
BRANCH  45  59
ATOM     59  C   UNL A   1      39.638  33.659  36.604  1.00  0.00     0.064 A 
ATOM     60  C   UNL A   1      38.825  33.291  37.687  1.00  0.00     0.173 A 
ATOM     61  C   UNL A   1      40.267  34.911  36.654  1.00  0.00     0.173 A 
ATOM     62  F   UNL A   1      38.188  32.109  37.682  1.00  0.00    -0.203 F 
ATOM     63  C   UNL A   1      38.617  34.158  38.756  1.00  0.00     0.198 A 
ATOM     64  C   UNL A   1      40.083  35.763  37.740  1.00  0.00     0.198 A 
ATOM     65  F   UNL A   1      41.061  35.311  35.648  1.00  0.00    -0.203 F 
ATOM     66  F   UNL A   1      37.785  33.810  39.747  1.00  0.00    -0.200 F 
ATOM     67  C   UNL A   1      39.250  35.391  38.784  1.00  0.00     0.200 A 
ATOM     68  F   UNL A   1      40.704  36.950  37.772  1.00  0.00    -0.200 F 
ATOM     69  F   UNL A   1      39.046  36.227  39.812  1.00  0.00    -0.200 F 
ENDBRANCH  45  59
BRANCH  46  70
ATOM     70  C   UNL A   1      40.661  27.971  28.455  1.00  0.00     0.064 A 
ATOM     71  C   UNL A   1      40.033  26.719  28.394  1.00  0.00     0.173 A 
ATOM     72  C   UNL A   1      41.413  28.380  27.344  1.00  0.00     0.173 A 
ATOM     73  F   UNL A   1      39.320  26.278  29.440  1.00  0.00    -0.203 F 
ATOM     74  C   UNL A   1      40.162  25.903  27.274  1.00  0.00     0.198 A 
ATOM     75  C   UNL A   1      41.521  27.572  26.214  1.00  0.00     0.198 A 
ATOM     76  F   UNL A   1      42.029  29.571  27.352  1.00  0.00    -0.203 F 
ATOM     77  F   UNL A   1      39.580  24.695  27.256  1.00  0.00    -0.200 F 
ATOM     78  C   UNL A   1      40.901  26.332  26.182  1.00  0.00     0.200 A 
ATOM     79  F   UNL A   1      42.225  27.996  25.156  1.00  0.00    -0.200 F 
ATOM     80  F   UNL A   1      41.018  25.549  25.101  1.00  0.00    -0.200 F 
ENDBRANCH  46  70
BRANCH  58  81
ATOM     81  C   UNL A   1      43.984  28.262  34.569  1.00  0.00     0.064 A 
ATOM     82  C   UNL A   1      43.765  27.053  35.243  1.00  0.00     0.173 A 
ATOM     83  C   UNL A   1      45.308  28.698  34.409  1.00  0.00     0.173 A 
ATOM     84  F   UNL A   1      42.516  26.602  35.435  1.00  0.00    -0.203 F 
ATOM     85  C   UNL A   1      44.830  26.319  35.758  1.00  0.00     0.198 A 
ATOM     86  C   UNL A   1      46.372  27.948  34.902  1.00  0.00     0.198 A 
ATOM     87  F   UNL A   1      45.569  29.846  33.768  1.00  0.00    -0.203 F 
ATOM     88  F   UNL A   1      44.596  25.189  36.440  1.00  0.00    -0.200 F 
ATOM     89  C   UNL A   1      46.132  26.763  35.581  1.00  0.00     0.200 A 
ATOM     90  F   UNL A   1      47.630  28.373  34.719  1.00  0.00    -0.200 F 
ATOM     91  F   UNL A   1      47.156  26.053  36.074  1.00  0.00    -0.200 F 
ENDBRANCH  58  81
ENDBRANCH  32  33
ENDBRANCH  24  27
ENDBRANCH  22  23
ENDBRANCH   1  22
TORSDOF 12
ENDMDL
MODEL 3
REMARK VINA RESULT:     -12.9      0.538      7.500
REMARK SMILES Cc1ccc(-c2ncccc2C(=O)NCCCCNC(=O)c2ccc(-c3c4nc(c(-c5c(F)c(F)c(F)c(F)c5F)c5ccc([nH]5)c(-c5c(F)c(F)c(F)c(F)c5F)c5nc(c(-c6c(F)c(F)c(F)c(F)c6F)c6ccc3[nH]6)C=C5)C=C4)cc2)c(C)c1
REMARK SMILES IDX 17 1 16 2 15 3 14 4 12 5 13 6 11 8 6 9 7 10 8 11 10 12 9 13
REMARK SMILES IDX 5 14 1 15 2 16 3 17 87 18 4 19 85 20 86 21 18 22 19 23 20 24
REMARK SMILES IDX 21 26 22 27 23 28 84 29 24 30 83 31 25 32 26 33 27 34 77 35
REMARK SMILES IDX 28 36 82 37 76 38 78 39 29 40 81 41 75 42 74 43 30 45 62 46
REMARK SMILES IDX 42 47 61 48 43 49 46 50 60 51 79 52 44 53 45 54 59 56 80 57
REMARK SMILES IDX 47 58 31 59 32 60 40 61 33 62 34 63 38 64 41 65 35 66 36 67
REMARK SMILES IDX 39 68 37 69 63 70 64 71 72 72 65 73 66 74 70 75 73 76 67 77
REMARK SMILES IDX 68 78 71 79 69 80 48 81 49 82 57 83 50 84 51 85 55 86 58 87
REMARK SMILES IDX 52 88 53 89 56 90 54 91
REMARK H PARENT 14 7 19 25 78 44 46 55
REMARK Flexibility Score: inf
ROOT
ATOM      1  C   UNL A   1      31.458  32.052  26.767  1.00  0.00     0.023 C 
ENDROOT
BRANCH   1   2
ATOM      2  C   UNL A   1      31.807  30.825  25.911  1.00  0.00     0.023 C 
BRANCH   2   3
ATOM      3  C   UNL A   1      32.595  29.747  26.654  1.00  0.00     0.116 C 
BRANCH   3   4
ATOM      4  N   UNL A   1      31.752  28.611  26.955  1.00  0.00    -0.352 N 
ATOM      5  C   UNL A   1      31.612  27.332  26.481  1.00  0.00     0.253 C 
ATOM      6  O   UNL A   1      30.725  26.705  27.058  1.00  0.00    -0.269 OA
ATOM      7  H   UNL A   1      31.119  28.806  27.683  1.00  0.00     0.163 HD
BRANCH   5   8
ATOM      8  C   UNL A   1      32.449  26.693  25.405  1.00  0.00     0.066 A 
ATOM      9  C   UNL A   1      32.069  26.776  24.046  1.00  0.00     0.083 A 
ATOM     10  N   UNL A   1      32.731  26.107  23.049  1.00  0.00    -0.255 NA
ATOM     11  C   UNL A   1      33.804  25.366  23.373  1.00  0.00     0.112 A 
ATOM     12  C   UNL A   1      33.622  25.974  25.667  1.00  0.00     0.018 A 
ATOM     13  C   UNL A   1      34.295  25.287  24.655  1.00  0.00     0.021 A 
BRANCH   9  14
ATOM     14  C   UNL A   1      30.991  27.627  23.504  1.00  0.00     0.004 A 
ATOM     15  C   UNL A   1      27.955  30.285  21.918  1.00  0.00     0.044 C 
ATOM     16  C   UNL A   1      29.015  29.364  22.445  1.00  0.00    -0.051 A 
ATOM     17  C   UNL A   1      30.363  29.709  22.372  1.00  0.00     0.004 A 
ATOM     18  C   UNL A   1      28.660  28.132  23.009  1.00  0.00     0.007 A 
ATOM     19  C   UNL A   1      31.335  28.846  22.881  1.00  0.00     0.011 A 
ATOM     20  C   UNL A   1      29.628  27.263  23.547  1.00  0.00    -0.041 A 
ATOM     21  C   UNL A   1      29.159  25.943  24.101  1.00  0.00     0.045 C 
ENDBRANCH   9  14
ENDBRANCH   5   8
ENDBRANCH   3   4
ENDBRANCH   2   3
ENDBRANCH   1   2
BRANCH   1  22
ATOM     22  C   UNL A   1      32.650  32.797  27.362  1.00  0.00     0.116 C 
BRANCH  22  23
ATOM     23  N   UNL A   1      32.368  34.192  27.664  1.00  0.00    -0.352 N 
ATOM     24  C   UNL A   1      32.990  35.021  28.566  1.00  0.00     0.251 C 
ATOM     25  H   UNL A   1      31.631  34.597  27.153  1.00  0.00     0.163 HD
ATOM     26  O   UNL A   1      32.567  36.150  28.766  1.00  0.00    -0.269 OA
BRANCH  24  27
ATOM     27  C   UNL A   1      34.153  34.518  29.326  1.00  0.00     0.039 A 
ATOM     28  C   UNL A   1      33.933  33.926  30.571  1.00  0.00     0.014 A 
ATOM     29  C   UNL A   1      35.445  34.608  28.801  1.00  0.00     0.014 A 
ATOM     30  C   UNL A   1      35.004  33.362  31.264  1.00  0.00     0.010 A 
ATOM     31  C   UNL A   1      36.501  33.989  29.461  1.00  0.00     0.010 A 
ATOM     32  C   UNL A   1      36.289  33.357  30.697  1.00  0.00    -0.014 A 
BRANCH  32  33
ATOM     33  C   UNL A   1      37.424  32.691  31.379  1.00  0.00     0.031 A 
ATOM     34  C   UNL A   1      38.143  31.555  30.713  1.00  0.00     0.074 A 
ATOM     35  C   UNL A   1      37.764  33.071  32.625  1.00  0.00     0.049 A 
ATOM     36  N   UNL A   1      39.119  30.811  31.168  1.00  0.00    -0.248 NA
ATOM     37  C   UNL A   1      37.685  31.187  29.365  1.00  0.00     0.031 C 
ATOM     38  C   UNL A   1      37.110  34.133  33.393  1.00  0.00     0.029 A 
ATOM     39  N   UNL A   1      38.738  32.602  33.469  1.00  0.00    -0.354 N 
ATOM     40  C   UNL A   1      39.383  29.884  30.170  1.00  0.00     0.074 A 
ATOM     41  C   UNL A   1      38.427  30.120  29.110  1.00  0.00     0.031 C 
ATOM     42  C   UNL A   1      37.722  34.255  34.581  1.00  0.00     0.029 A 
ATOM     43  C   UNL A   1      38.785  33.260  34.673  1.00  0.00     0.049 A 
ATOM     44  H   UNL A   1      39.346  31.866  33.233  1.00  0.00     0.167 HD
ATOM     45  C   UNL A   1      40.353  28.939  30.129  1.00  0.00     0.037 A 
ATOM     46  C   UNL A   1      39.598  33.079  35.731  1.00  0.00     0.037 A 
ATOM     47  C   UNL A   1      41.312  28.718  31.179  1.00  0.00     0.049 A 
ATOM     48  C   UNL A   1      40.654  32.011  35.670  1.00  0.00     0.074 A 
ATOM     49  C   UNL A   1      42.365  27.822  31.216  1.00  0.00     0.029 A 
ATOM     50  N   UNL A   1      41.330  29.406  32.385  1.00  0.00    -0.354 N 
ATOM     51  N   UNL A   1      40.938  31.181  34.695  1.00  0.00    -0.248 NA
ATOM     52  C   UNL A   1      41.507  31.857  36.857  1.00  0.00     0.031 C 
ATOM     53  C   UNL A   1      42.995  27.938  32.460  1.00  0.00     0.029 A 
ATOM     54  C   UNL A   1      42.365  28.939  33.181  1.00  0.00     0.049 A 
ATOM     55  H   UNL A   1      40.701  30.119  32.639  1.00  0.00     0.167 HD
ATOM     56  C   UNL A   1      42.017  30.428  35.137  1.00  0.00     0.074 A 
ATOM     57  C   UNL A   1      42.344  30.908  36.464  1.00  0.00     0.031 C 
ATOM     58  C   UNL A   1      42.679  29.432  34.498  1.00  0.00     0.037 A 
BRANCH  45  59
ATOM     59  C   UNL A   1      40.416  28.074  28.903  1.00  0.00     0.064 A 
ATOM     60  C   UNL A   1      41.167  28.450  27.778  1.00  0.00     0.173 A 
ATOM     61  C   UNL A   1      39.721  26.857  28.849  1.00  0.00     0.173 A 
ATOM     62  F   UNL A   1      41.839  29.612  27.772  1.00  0.00    -0.203 F 
ATOM     63  C   UNL A   1      41.186  27.660  26.632  1.00  0.00     0.198 A 
ATOM     64  C   UNL A   1      39.769  26.054  27.712  1.00  0.00     0.198 A 
ATOM     65  F   UNL A   1      38.993  26.447  29.899  1.00  0.00    -0.203 F 
ATOM     66  F   UNL A   1      41.858  28.073  25.548  1.00  0.00    -0.200 F 
ATOM     67  C   UNL A   1      40.491  26.461  26.601  1.00  0.00     0.200 A 
ATOM     68  F   UNL A   1      39.107  24.889  27.688  1.00  0.00    -0.200 F 
ATOM     69  F   UNL A   1      40.508  25.704  25.495  1.00  0.00    -0.200 F 
ENDBRANCH  45  59
BRANCH  46  70
ATOM     70  C   UNL A   1      39.474  33.963  36.918  1.00  0.00     0.064 A 
ATOM     71  C   UNL A   1      38.723  33.562  38.031  1.00  0.00     0.173 A 
ATOM     72  C   UNL A   1      40.109  35.212  36.973  1.00  0.00     0.173 A 
ATOM     73  F   UNL A   1      38.084  32.383  38.016  1.00  0.00    -0.203 F 
ATOM     74  C   UNL A   1      38.600  34.382  39.150  1.00  0.00     0.198 A 
ATOM     75  C   UNL A   1      40.004  36.021  38.102  1.00  0.00     0.198 A 
ATOM     76  F   UNL A   1      40.843  35.639  35.935  1.00  0.00    -0.203 F 
ATOM     77  F   UNL A   1      37.847  33.988  40.187  1.00  0.00    -0.200 F 
ATOM     78  C   UNL A   1      39.245  35.608  39.188  1.00  0.00     0.200 A 
ATOM     79  F   UNL A   1      40.640  37.200  38.140  1.00  0.00    -0.200 F 
ATOM     80  F   UNL A   1      39.133  36.393  40.267  1.00  0.00    -0.200 F 
ENDBRANCH  46  70
BRANCH  58  81
ATOM     81  C   UNL A   1      43.846  28.816  35.214  1.00  0.00     0.064 A 
ATOM     82  C   UNL A   1      43.694  27.690  36.035  1.00  0.00     0.173 A 
ATOM     83  C   UNL A   1      45.137  29.340  35.046  1.00  0.00     0.173 A 
ATOM     84  F   UNL A   1      42.478  27.162  36.241  1.00  0.00    -0.203 F 
ATOM     85  C   UNL A   1      44.790  27.124  36.682  1.00  0.00     0.198 A 
ATOM     86  C   UNL A   1      46.233  28.755  35.672  1.00  0.00     0.198 A 
ATOM     87  F   UNL A   1      45.334  30.413  34.267  1.00  0.00    -0.203 F 
ATOM     88  F   UNL A   1      44.616  26.076  37.499  1.00  0.00    -0.200 F 
ATOM     89  C   UNL A   1      46.059  27.652  36.494  1.00  0.00     0.200 A 
ATOM     90  F   UNL A   1      47.461  29.259  35.479  1.00  0.00    -0.200 F 
ATOM     91  F   UNL A   1      47.113  27.103  37.113  1.00  0.00    -0.200 F 
ENDBRANCH  58  81
ENDBRANCH  32  33
ENDBRANCH  24  27
ENDBRANCH  22  23
ENDBRANCH   1  22
TORSDOF 12
ENDMDL
